data_PCOD8155842
_publ_section_title
;
Structure prediction by ZEFSAII (Michael W. Deem and Ramdas Pophale) SiO2 
 PCOD8155842
Probable space group: P 21 21 2
;
_chemical_formula_sum "Si O2"
_cell_formula_units_Z 32
_cell_length_a 8.565932
_cell_length_b 13.828727
_cell_length_c 13.450710
_cell_angle_alpha 90.000000
_cell_angle_beta 90.000000
_cell_angle_gamma 90.000000
_cell_volume 1593.316431
_symmetry_space_group_name_H-M "P 21 21 2"
_symmetry_group_IT_number 18
_symmetry_cell_setting 'orthorhombic'
loop_
_space_group_symop_operation_xyz
x,y,z
-x,-y,z
1/2+x,1/2-y,-z
1/2-x,1/2+y,-z
loop_
_atom_site_type_symbol
_atom_site_label
_atom_site_fract_x
_atom_site_fract_y
_atom_site_fract_z
Si Si1 0.986576 0.390263 0.691154
Si Si2 0.006441 0.109488 0.473292
Si Si3 0.665512 0.478717 0.934061
Si Si4 0.639205 0.371627 0.733361
Si Si5 0.355800 0.841714 0.108366
Si Si6 0.109923 0.719588 0.221662
Si Si7 0.228741 0.258547 0.578320
Si Si8 0.427473 0.103500 0.955117
O O1 0.045952 0.389518 0.803225
O O2 0.089872 0.324153 0.619555
O O3 0.000000 0.500000 0.650526
O O4 0.810907 0.348070 0.689958
O O5 0.031747 0.091071 0.356518
O O6 0.152667 0.171238 0.515708
O O7 0.845420 0.171970 0.486053
O O8 0.000000 0.000000 0.521569
O O9 0.500000 0.500000 0.983630
O O10 0.652408 0.452543 0.817399
O O11 0.745264 0.581130 0.941343
O O12 0.752237 0.397533 0.999710
O O13 0.550336 0.279825 0.779882
O O14 0.248302 0.756903 0.149772
O O15 0.477221 0.814557 0.019144
O O16 0.173200 0.706771 0.333204
O O17 0.067599 0.620866 0.163964
O O18 0.500000 0.000000 0.978075
#
# Coordination Sequence:
#
# PCOD8155842 Si02
#       8
#     4   4   4   4   4   4   4   4
#     4  11  18  33  59  91 124 157 192 256 322 364
#     4  11  23  42  66  92 127 163 205 270 324 374
#     4  11  19  33  55  87 117 149 194 253 297 364
#     4  11  20  34  61  90 119 153 196 257 322 361
#     4  10  19  31  54  84 119 147 197 246 299 356
#     4  10  23  37  57  84 121 161 202 254 297 364
#     4  10  24  42  61  96 125 159 216 259 308 396
#     4  10  22  39  54  82 119 162 202 245 294 365
#
# _framework density 20.083893
#
# number of rings (size 3 to 8) (size 9 to 14) (size 15 to 20)
#    0.000    1.500    3.750    2.250    3.500    0.000 
#    0.000    8.125    0.000    0.000    0.000    0.000 
#    0.000    0.000    0.000    0.000    0.000    0.000 
#
# Total GULP energy -396484.445247 kJ/mol
# GULP energy per Si atom -12390.138914 kJ/mol
# Density = 2.003818 g / cm^3
# Si number density = 20.083893 Si / 1000 Ang^3
#
#
#
# Elastic Constant Matrix: (Units=GPa)
#
#
# Indices 1 2 3 4 5 6 
#
# 1 128.5295 38.0190 22.1662 0.0000 0.0000 0.0000
# 2 38.0190 71.3097 34.1621 0.0000 0.0000 0.0000
# 3 22.1662 34.1621 65.0639 0.0000 0.0000 0.0000
# 4 0.0000 0.0000 0.0000 26.7031 0.0000 0.0000
# 5 0.0000 0.0000 0.0000 0.0000 21.1358 0.0000
# 6 0.0000 0.0000 0.0000 0.0000 0.0000 19.1819
#
#
#
# Elastic Compliance Matrix: (Units=1/GPa)
#
#
# Indices 1 2 3 4 5 6 
#
# 1 0.009265 -0.004579 -0.000752 0.000000 0.000000 0.000000
# 2 -0.004579 0.021000 -0.009466 0.000000 0.000000 0.000000
# 3 -0.000752 -0.009466 0.020596 0.000000 0.000000 0.000000
# 4 0.000000 0.000000 0.000000 0.037449 0.000000 0.000000
# 5 0.000000 0.000000 0.000000 0.000000 0.047313 0.000000
# 6 0.000000 0.000000 0.000000 0.000000 0.000000 0.052132
#
#
# Mechanical properties :
#
#
# Convention : Reuss Voigt Hill
#
# Bulk Modulus (GPa) = 47.02373 50.39975 48.71174
# Shear Modulus (GPa) = 22.27799 24.77455 23.52627
#
# Velocity S-wave (km/s) = 3.33415 3.51601 3.42628
# Velocity P-wave (km/s) = 6.18761 6.45230 6.32134
#
# Compressibility (1/GPa) = 0.02126586
#
# Stress axis : x y z
#
# Youngs Moduli (GPa) = 107.93867 47.62010 48.55367
#
# Poissons Ratio (x) = 0.21806 0.03651
# Poissons Ratio (y) = 0.49427 0.45960
# Poissons Ratio (z) = 0.08116 0.45076
#
# Static dielectric constant tensor:
#      x y z
#    x 4.281440 0.000000 0.000000 
#    y 0.000000 3.407350 0.000000 
#    z 0.000000 0.000000 3.489710 
# 
# 
# High freq. dielectric constant tensor:
#      x y z
#    x 1.807730 0.000000 0.000000 
#    y 0.000000 1.756630 0.000000 
#    z 0.000000 0.000000 1.765080 
# 
# From -- ./inp_files/6800.got.cif
#   From: 2010.03.12/outbox.cif.g09.slc.cpg/sg18_4_cif.got.tgz:6800.got - 2010.04.10 18:53:55.
