data_PCOD8155017
_publ_section_title
;
Structure prediction by ZEFSAII (Michael W. Deem and Ramdas Pophale) SiO2 
 PCOD8155017
Probable space group: C 2/C
;
_chemical_formula_sum "Si O2"
_cell_formula_units_Z 32
_cell_length_a 19.111494
_cell_length_b 4.747546
_cell_length_c 14.082265
_cell_angle_alpha 90.000000
_cell_angle_beta 89.816649
_cell_angle_gamma 90.000000
_cell_volume 1277.715340
_symmetry_space_group_name_H-M "C 2/C"
_symmetry_group_IT_number 15
_symmetry_cell_setting 'monoclinic'
loop_
_space_group_symop_operation_xyz
x,y,z
-x,y,1/2-z
-x,-y,-z
x,-y,1/2+z
1/2+x,1/2+y,z
1/2-x,1/2+y,1/2-z
1/2-x,1/2-y,-z
1/2+x,1/2-y,1/2+z
loop_
_atom_site_type_symbol
_atom_site_label
_atom_site_fract_x
_atom_site_fract_y
_atom_site_fract_z
Si Si1 0.077263 0.021287 0.764798
Si Si2 0.074405 0.864467 0.477772
Si Si3 0.792211 0.660042 0.780183
Si Si4 0.624599 0.151088 0.086686
O O1 0.087816 0.260792 0.685661
O O2 0.000000 0.889945 0.750000
O O3 0.133029 0.768737 0.757236
O O4 0.086807 0.171001 0.866267
O O5 0.134613 0.068645 0.522995
O O6 0.075992 0.562383 0.528161
O O7 0.000000 0.000000 0.500000
O O8 0.760525 0.424415 0.708413
O O9 0.802911 0.504992 0.882744
#
# Coordination Sequence:
#
# PCOD8155017 Si02
#       4
#     8   8   8   8
#     4  12  27  47  83 112 150 201 253 315 387 438
#     4  12  26  45  73 117 156 190 252 316 379 452
#     4  12  25  51  77 105 155 210 249 311 379 452
#     4  12  25  47  72 111 153 194 251 308 377 445
#
# _framework density 25.044702999999998
#
# number of rings (size 3 to 8) (size 9 to 14) (size 15 to 20)
#    0.000    0.000    7.500    0.750    3.500    1.000 
#    0.000    7.500    0.000    0.000    0.000    0.000 
#    0.000    0.000    0.000    0.000    0.000    0.000 
#
# Total GULP energy -198315.019168 kJ/mol
# GULP energy per Si atom -12394.688698 kJ/mol
# Density = 2.498770 g / cm^3
# Si number density = 25.044703 Si / 1000 Ang^3
#
#
#
# Elastic Constant Matrix: (Units=GPa)
#
#
# Indices 1 2 3 4 5 6 
#
# 1 111.5937 42.3970 39.3622 0.0000 30.5648 0.0000
# 2 42.3970 149.8357 61.6861 0.0000 11.5495 0.0000
# 3 39.3622 61.6861 188.9808 0.0000 5.8235 0.0000
# 4 0.0000 0.0000 0.0000 50.8813 0.0000 24.2976
# 5 30.5648 11.5495 5.8235 0.0000 23.3734 0.0000
# 6 0.0000 0.0000 0.0000 24.2976 0.0000 35.1151
#
#
#
# Elastic Compliance Matrix: (Units=1/GPa)
#
#
# Indices 1 2 3 4 5 6 
#
# 1 0.015660 -0.002160 -0.001974 0.000000 -0.018919 0.000000
# 2 -0.002160 0.008254 -0.002223 0.000000 -0.000700 0.000000
# 3 -0.001974 -0.002223 0.006364 0.000000 0.002094 0.000000
# 4 0.000000 0.000000 0.000000 0.029352 0.000000 -0.020310
# 5 -0.018919 -0.000700 0.002094 0.000000 0.067347 0.000000
# 6 0.000000 0.000000 0.000000 -0.020310 0.000000 0.042531
#
#
# Mechanical properties :
#
#
# Convention : Reuss Voigt Hill
#
# Bulk Modulus (GPa) = 56.93350 81.92231 69.42790
# Shear Modulus (GPa) = 26.58492 42.33828 34.46160
#
# Velocity S-wave (km/s) = 3.26160 4.11604 3.71348
# Velocity P-wave (km/s) = 6.07998 7.44113 6.79473
#
# Compressibility (1/GPa) = 0.01756435
#
# Stress axis : x y z
#
# Youngs Moduli (GPa) = 63.85850 121.14907 157.14247
#
# Poissons Ratio (x) = 0.26171 0.31013
# Poissons Ratio (y) = 0.13795 0.34930
# Poissons Ratio (z) = 0.12603 0.26929
#
# Static dielectric constant tensor:
#      x y z
#    x 4.598280 0.000000 0.758740 
#    y 0.000000 4.849770 0.000000 
#    z 0.758740 0.000000 4.993780 
# 
# 
# High freq. dielectric constant tensor:
#      x y z
#    x 1.971390 0.000000 0.045240 
#    y 0.000000 2.021240 0.000000 
#    z 0.045240 0.000000 1.998220 
# 
# From -- ./inp_files/164784.got.cif
#   From: 2010.06.25/outbox.cif.g09.slc.cpg/sg15_83_cif.got.tgz:164784.got - 2010.06.28 07:06:18.
