data_PCOD8155340
_publ_section_title
;
Structure prediction by ZEFSAII (Michael W. Deem and Ramdas Pophale) SiO2 
 PCOD8155340
Probable space group: P 2 2 2
;
_chemical_formula_sum "Si O2"
_cell_formula_units_Z 20
_cell_length_a 8.070448
_cell_length_b 10.216710
_cell_length_c 11.164695
_cell_angle_alpha 90.000000
_cell_angle_beta 90.000000
_cell_angle_gamma 90.000000
_cell_volume 920.567362
_symmetry_space_group_name_H-M "P 2 2 2"
_symmetry_group_IT_number 16
_symmetry_cell_setting 'orthorhombic'
loop_
_space_group_symop_operation_xyz
x,y,z
-x,-y,z
x,-y,-z
-x,y,-z
loop_
_atom_site_type_symbol
_atom_site_label
_atom_site_fract_x
_atom_site_fract_y
_atom_site_fract_z
Si Si1 0.000000 0.287857 0.000000
Si Si2 0.065671 0.860449 0.210896
Si Si3 0.253924 0.500000 0.000000
Si Si4 0.561682 0.140189 0.135238
Si Si5 0.606662 0.385158 0.757661
Si Si6 0.951375 0.637572 0.362598
O O1 0.938658 0.197938 0.889233
O O2 0.147031 0.378737 0.950436
O O3 0.240200 0.866779 0.143113
O O4 0.063037 0.759712 0.320484
O O5 0.000000 0.000000 0.255958
O O6 0.355172 0.446666 0.112156
O O7 0.497663 0.252950 0.223659
O O8 0.500000 0.000000 0.182582
O O9 0.500000 0.166881 0.000000
O O10 0.500000 0.500000 0.691599
O O11 0.758502 0.343958 0.671200
O O12 0.000000 0.500000 0.298722
O O13 0.000000 0.626587 0.500000
#
# Coordination Sequence:
#
# PCOD8155340 Si02
#       6
#     2   4   2   4   4   4
#     4  11  21  34  62 100 132 176 218 274 328 398
#     4  12  25  42  68  98 137 181 230 279 338 414
#     4  11  21  34  64 102 142 176 220 276 336 408
#     4  11  25  40  60  97 144 180 218 275 349 415
#     4  12  22  40  66 101 137 178 219 283 345 403
#     4  11  25  47  70  97 132 180 236 286 329 401
#
# _framework density 21.725732000000001
#
# number of rings (size 3 to 8) (size 9 to 14) (size 15 to 20)
#    0.000    0.600    2.000    7.800    5.600    0.400 
#    0.000    7.000    0.000    1.200    0.000    0.000 
#    0.000    0.000    0.000    0.000    0.000    0.000 
#
# Total GULP energy -247892.359161 kJ/mol
# GULP energy per Si atom -12394.617958 kJ/mol
# Density = 2.167628 g / cm^3
# Si number density = 21.725732 Si / 1000 Ang^3
#
#
#
# Elastic Constant Matrix: (Units=GPa)
#
#
# Indices 1 2 3 4 5 6 
#
# 1 108.5883 46.7506 32.9993 0.0000 0.0000 0.0000
# 2 46.7506 194.1395 38.3748 0.0000 0.0000 0.0000
# 3 32.9993 38.3748 77.0267 0.0000 0.0000 0.0000
# 4 0.0000 0.0000 0.0000 20.3869 0.0000 0.0000
# 5 0.0000 0.0000 0.0000 0.0000 20.7067 0.0000
# 6 0.0000 0.0000 0.0000 0.0000 0.0000 21.0932
#
#
#
# Elastic Compliance Matrix: (Units=1/GPa)
#
#
# Indices 1 2 3 4 5 6 
#
# 1 0.011211 -0.001941 -0.003836 0.000000 0.000000 0.000000
# 2 -0.001941 0.006050 -0.002182 0.000000 0.000000 0.000000
# 3 -0.003836 -0.002182 0.015713 0.000000 0.000000 0.000000
# 4 0.000000 0.000000 0.000000 0.049051 0.000000 0.000000
# 5 0.000000 0.000000 0.000000 0.000000 0.048294 0.000000
# 6 0.000000 0.000000 0.000000 0.000000 0.000000 0.047409
#
#
# Mechanical properties :
#
#
# Convention : Reuss Voigt Hill
#
# Bulk Modulus (GPa) = 58.63458 68.44486 63.53972
# Shear Modulus (GPa) = 25.08401 29.87933 27.48167
#
# Velocity S-wave (km/s) = 3.40159 3.71252 3.56045
# Velocity P-wave (km/s) = 6.51728 7.06750 6.79796
#
# Compressibility (1/GPa) = 0.01705478
#
# Stress axis : x y z
#
# Youngs Moduli (GPa) = 89.20184 165.29424 63.64188
#
# Poissons Ratio (x) = 0.32091 0.24410
# Poissons Ratio (y) = 0.17318 0.13888
# Poissons Ratio (z) = 0.34213 0.36072
#
# Static dielectric constant tensor:
#      x y z
#    x 4.112300 0.000000 0.000000 
#    y 0.000000 4.550470 0.000000 
#    z 0.000000 0.000000 3.456550 
# 
# 
# High freq. dielectric constant tensor:
#      x y z
#    x 1.857990 0.000000 0.000000 
#    y 0.000000 1.884990 0.000000 
#    z 0.000000 0.000000 1.808250 
# 
# From -- ./inp_files/6398.got.cif
#   From: 2010.03.12/outbox.cif.g09.slc.cpg/sg16_4_cif.got.tgz:6398.got - 2010.03.31 00:51:45.
