data_PCOD8155019
_publ_section_title
;
Structure prediction by ZEFSAII (Michael W. Deem and Ramdas Pophale) SiO2 
 PCOD8155019
Probable space group: C 2/C
;
_chemical_formula_sum "Si O2"
_cell_formula_units_Z 36
_cell_length_a 19.135058
_cell_length_b 8.592181
_cell_length_c 22.664927
_cell_angle_alpha 90.000000
_cell_angle_beta 155.807292
_cell_angle_gamma 90.000000
_cell_volume 1527.097757
_symmetry_space_group_name_H-M "C 2/C"
_symmetry_group_IT_number 15
_symmetry_cell_setting 'monoclinic'
loop_
_space_group_symop_operation_xyz
x,y,z
-x,y,1/2-z
-x,-y,-z
x,-y,1/2+z
1/2+x,1/2+y,z
1/2-x,1/2+y,1/2-z
1/2-x,1/2-y,-z
1/2+x,1/2-y,1/2+z
loop_
_atom_site_type_symbol
_atom_site_label
_atom_site_fract_x
_atom_site_fract_y
_atom_site_fract_z
Si Si1 0.504283 0.325371 0.527790
Si Si2 0.744591 0.670266 0.863160
Si Si3 0.908742 0.645321 0.107272
Si Si4 0.843993 0.828809 0.733018
Si Si5 0.500000 0.133625 0.750000
O O1 0.500000 0.500000 0.500000
O O2 0.669237 0.242905 0.627700
O O3 0.333955 0.234599 0.378524
O O4 0.516681 0.310798 0.608155
O O5 0.592956 0.785630 0.769280
O O6 0.654566 0.510738 0.778070
O O7 0.895961 0.635615 0.026517
O O8 0.884577 0.476324 0.118769
O O9 0.750000 0.750000 0.000000
O O10 0.887321 0.739380 0.706059
#
# Coordination Sequence:
#
# PCOD8155019 Si02
#       5
#     8   8   8   8   4
#     4  12  26  50  76 107 146 192 247 302 365 429
#     4  12  26  47  75 105 144 191 247 303 365 431
#     4  12  25  47  73 105 143 191 242 297 362 434
#     4  12  28  46  75 110 149 190 240 305 365 437
#     4  12  28  46  74 110 150 186 246 296 372 438
#
# _framework density 23.57413
#
# number of rings (size 3 to 8) (size 9 to 14) (size 15 to 20)
#    0.000    0.000    2.222    7.333    6.222    1.778 
#    0.000    0.000    0.000    0.000    0.000    0.000 
#    0.000    0.000    0.000    0.000    0.000    0.000 
#
# Total GULP energy -223240.316365 kJ/mol
# GULP energy per Si atom -12402.239798 kJ/mol
# Density = 2.352047 g / cm^3
# Si number density = 23.574130 Si / 1000 Ang^3
#
#
#
# Elastic Constant Matrix: (Units=GPa)
#
#
# Indices 1 2 3 4 5 6 
#
# 1 129.8946 61.3736 35.2104 -0.0007 2.9037 -0.0003
# 2 61.3736 140.0621 21.7264 0.0011 1.1406 0.0008
# 3 35.2104 21.7264 112.7006 0.0055 -18.4033 0.0023
# 4 -0.0007 0.0011 0.0055 41.5818 0.0013 -3.2279
# 5 2.9037 1.1406 -18.4033 0.0013 52.0359 0.0004
# 6 -0.0003 0.0008 0.0023 -3.2279 0.0004 49.9232
#
#
#
# Elastic Compliance Matrix: (Units=1/GPa)
#
#
# Indices 1 2 3 4 5 6 
#
# 1 0.010414 -0.004134 -0.002692 0.000001 -0.001443 0.000000
# 2 -0.004134 0.009025 -0.000470 0.000000 -0.000133 0.000000
# 3 -0.002692 -0.000470 0.010434 -0.000002 0.003851 -0.000001
# 4 0.000001 0.000000 -0.000002 0.024170 -0.000001 0.001563
# 5 -0.001443 -0.000133 0.003851 -0.000001 0.020663 0.000000
# 6 0.000000 0.000000 -0.000001 0.001563 0.000000 0.020132
#
#
# Mechanical properties :
#
#
# Convention : Reuss Voigt Hill
#
# Bulk Modulus (GPa) = 65.44432 68.80867 67.12649
# Shear Modulus (GPa) = 43.65940 46.33132 44.99536
#
# Velocity S-wave (km/s) = 4.30816 4.43803 4.37358
# Velocity P-wave (km/s) = 7.25040 7.45071 7.35124
#
# Compressibility (1/GPa) = 0.01528017
#
# Stress axis : x y z
#
# Youngs Moduli (GPa) = 96.02692 110.80210 95.84457
#
# Poissons Ratio (x) = 0.45804 0.25803
# Poissons Ratio (y) = 0.39696 0.04506
# Poissons Ratio (z) = 0.25852 0.05209
#
# Static dielectric constant tensor:
#      x y z
#    x 4.976210 0.000030 -0.821320 
#    y 0.000030 4.071100 -0.000020 
#    z -0.821320 -0.000020 4.844840 
# 
# 
# High freq. dielectric constant tensor:
#      x y z
#    x 1.948060 0.000000 -0.016010 
#    y 0.000000 1.942090 0.000000 
#    z -0.016010 0.000000 1.940890 
# 
# From -- ./inp_files/64485.got.cif
#   From: 2010.06.25/outbox.cif.g09.slc.cpg/sg15_33_cif.got.tgz:64485.got - 2010.06.28 07:06:18.
