data_PCOD8155792
_publ_section_title
;
Structure prediction by ZEFSAII (Michael W. Deem and Ramdas Pophale) SiO2 
 PCOD8155792
Probable space group: P 21 21 2
;
_chemical_formula_sum "Si O2"
_cell_formula_units_Z 32
_cell_length_a 16.847105
_cell_length_b 19.613635
_cell_length_c 5.065778
_cell_angle_alpha 90.000000
_cell_angle_beta 90.000000
_cell_angle_gamma 90.000000
_cell_volume 1673.900061
_symmetry_space_group_name_H-M "P 21 21 2"
_symmetry_group_IT_number 18
_symmetry_cell_setting 'orthorhombic'
loop_
_space_group_symop_operation_xyz
x,y,z
-x,-y,z
1/2+x,1/2-y,-z
1/2-x,1/2+y,-z
loop_
_atom_site_type_symbol
_atom_site_label
_atom_site_fract_x
_atom_site_fract_y
_atom_site_fract_z
Si Si1 0.249060 0.013041 0.507712
Si Si2 0.576706 0.544463 0.514062
Si Si3 0.553048 0.131654 0.950662
Si Si4 0.338870 0.144794 0.498668
Si Si5 0.598147 0.783415 0.015186
Si Si6 0.388522 0.373954 0.011943
Si Si7 0.505984 0.927346 0.441281
Si Si8 0.715660 0.073434 0.010449
O O1 0.260658 0.096121 0.502851
O O2 0.154191 0.003433 0.498762
O O3 0.286922 0.979786 0.769021
O O4 0.291919 0.973385 0.269177
O O5 0.500000 0.500000 0.452381
O O6 0.582204 0.604603 0.300222
O O7 0.566690 0.579336 0.798462
O O8 0.494586 0.192685 0.052325
O O9 0.537857 0.124346 0.639681
O O10 0.648354 0.133350 0.989353
O O11 0.530205 0.069670 0.146937
O O12 0.356135 0.178881 0.779024
O O13 0.402413 0.088548 0.419286
O O14 0.345937 0.202773 0.271710
O O15 0.590845 0.704052 0.959450
O O16 0.294787 0.382357 0.982496
O O17 0.500000 0.000000 0.578919
#
# Coordination Sequence:
#
# PCOD8155792 Si02
#       8
#     4   4   4   4   4   4   4   4
#     4  10  20  34  54  80 107 134 171 223 267 309
#     4  10  21  39  62  83 101 130 179 232 277 308
#     4  10  19  30  46  71 101 133 175 210 238 305
#     4  10  19  32  50  74 107 140 170 206 253 312
#     4  10  21  35  51  75 110 148 175 205 258 320
#     4  10  21  38  58  77 106 142 173 217 271 321
#     4  10  18  27  44  69 100 134 165 203 247 289
#     4  10  19  33  53  75 102 137 177 218 266 310
#
# _framework density 19.11703
#
# number of rings (size 3 to 8) (size 9 to 14) (size 15 to 20)
#    0.000    2.000    0.000    4.500    0.000    2.000 
#    0.000    2.500    0.000    0.000    0.000    0.000 
#    0.000    0.000    0.000    0.000    0.000    0.000 
#
# Total GULP energy -396494.385737 kJ/mol
# GULP energy per Si atom -12390.449554 kJ/mol
# Density = 1.907352 g / cm^3
# Si number density = 19.117030 Si / 1000 Ang^3
#
#
#
# Elastic Constant Matrix: (Units=GPa)
#
#
# Indices 1 2 3 4 5 6 
#
# 1 83.0264 46.3052 20.8442 0.0000 0.0000 0.0000
# 2 46.3052 82.7323 10.7693 0.0000 0.0000 0.0000
# 3 20.8442 10.7693 105.1869 0.0000 0.0000 0.0000
# 4 0.0000 0.0000 0.0000 18.7350 0.0000 0.0000
# 5 0.0000 0.0000 0.0000 0.0000 18.8290 0.0000
# 6 0.0000 0.0000 0.0000 0.0000 0.0000 20.1252
#
#
#
# Elastic Compliance Matrix: (Units=1/GPa)
#
#
# Indices 1 2 3 4 5 6 
#
# 1 0.018184 -0.009840 -0.002596 0.000000 0.000000 0.000000
# 2 -0.009840 0.017575 0.000150 0.000000 0.000000 0.000000
# 3 -0.002596 0.000150 0.010006 0.000000 0.000000 0.000000
# 4 0.000000 0.000000 0.000000 0.053376 0.000000 0.000000
# 5 0.000000 0.000000 0.000000 0.000000 0.053110 0.000000
# 6 0.000000 0.000000 0.000000 0.000000 0.000000 0.049689
#
#
# Mechanical properties :
#
#
# Convention : Reuss Voigt Hill
#
# Bulk Modulus (GPa) = 47.18220 47.42033 47.30126
# Shear Modulus (GPa) = 21.40651 24.40630 22.90640
#
# Velocity S-wave (km/s) = 3.34991 3.57694 3.46529
# Velocity P-wave (km/s) = 6.30054 6.47445 6.38809
#
# Compressibility (1/GPa) = 0.02119443
#
# Stress axis : x y z
#
# Youngs Moduli (GPa) = 54.99412 56.89980 99.94102
#
# Poissons Ratio (x) = 0.55987 0.25944
# Poissons Ratio (y) = 0.54112 -0.01504
# Poissons Ratio (z) = 0.14276 -0.00856
#
# Static dielectric constant tensor:
#      x y z
#    x 3.533650 0.000000 0.000000 
#    y 0.000000 3.194370 0.000000 
#    z 0.000000 0.000000 3.753460 
# 
# 
# High freq. dielectric constant tensor:
#      x y z
#    x 1.731330 0.000000 0.000000 
#    y 0.000000 1.715460 0.000000 
#    z 0.000000 0.000000 1.766640 
# 
# From -- ./inp_files/1644.got.cif
#   From: 2010.03.12/outbox.cif.g09.slc.cpg/sg18_1_cif.got.tgz:1644.got - 2010.04.10 18:53:55.
