data_PCOD8155539
_publ_section_title
;
Structure prediction by ZEFSAII (Michael W. Deem and Ramdas Pophale) SiO2 
 PCOD8155539
Probable space group: P 2 2 21
;
_chemical_formula_sum "Si O2"
_cell_formula_units_Z 24
_cell_length_a 10.977136
_cell_length_b 8.627726
_cell_length_c 13.295267
_cell_angle_alpha 90.000000
_cell_angle_beta 90.000000
_cell_angle_gamma 90.000000
_cell_volume 1259.164447
_symmetry_space_group_name_H-M "P 2 2 21"
_symmetry_group_IT_number 17
_symmetry_cell_setting 'orthorhombic'
loop_
_space_group_symop_operation_xyz
x,y,z
-x,-y,1/2+z
x,-y,-z
-x,y,1/2-z
loop_
_atom_site_type_symbol
_atom_site_label
_atom_site_fract_x
_atom_site_fract_y
_atom_site_fract_z
Si Si1 0.274305 0.733696 0.910499
Si Si2 0.629136 0.160001 0.210223
Si Si3 0.095550 0.500000 0.000000
Si Si4 0.540654 0.319591 0.016267
Si Si5 0.880765 0.000000 0.500000
Si Si6 0.973678 0.239255 0.868686
Si Si7 0.281100 0.888182 0.407617
O O1 0.301407 0.737633 0.792346
O O2 0.396980 0.715457 0.976417
O O3 0.182717 0.592908 0.925267
O O4 0.208324 0.890384 0.939287
O O5 0.500000 0.103312 0.250000
O O6 0.614440 0.272380 0.115498
O O7 0.699555 0.000758 0.187330
O O8 0.013790 0.607277 0.071443
O O9 0.563553 0.500000 0.000000
O O10 0.597967 0.216295 0.926416
O O11 0.961988 0.910535 0.417701
O O12 0.000000 0.252308 0.750000
O O13 0.829429 0.226304 0.883807
O O14 0.249819 0.000000 0.500000
#
# Coordination Sequence:
#
# PCOD8155539 Si02
#       7
#     4   4   2   4   2   4   4
#     4  10  20  40  61  86 122 154 209 245 311 353
#     4   9  20  36  60  89 117 154 200 249 303 366
#     4  10  24  42  60  88 124 168 200 254 300 378
#     4  10  21  36  59  87 122 158 188 254 307 366
#     4  10  22  38  68  88 116 164 202 262 296 364
#     4  11  23  43  62  91 125 159 212 252 306 366
#     4  10  21  39  60  89 121 155 205 252 307 363
#
# _framework density 19.060257
#
# number of rings (size 3 to 8) (size 9 to 14) (size 15 to 20)
#    0.000    2.000    1.667    1.000    7.000    1.333 
#    3.000    4.167    0.000    0.000    0.000    0.000 
#    0.000    0.000    0.000    0.000    0.000    0.000 
#
# Total GULP energy -297586.667118 kJ/mol
# GULP energy per Si atom -12399.444463 kJ/mol
# Density = 1.901688 g / cm^3
# Si number density = 19.060257 Si / 1000 Ang^3
#
#
#
# Elastic Constant Matrix: (Units=GPa)
#
#
# Indices 1 2 3 4 5 6 
#
# 1 116.8049 68.6812 50.5220 0.0000 0.0000 0.0000
# 2 68.6812 135.3649 57.4192 0.0000 0.0000 0.0000
# 3 50.5220 57.4192 101.4551 0.0000 0.0000 0.0000
# 4 0.0000 0.0000 0.0000 18.8582 0.0000 0.0000
# 5 0.0000 0.0000 0.0000 0.0000 23.3186 0.0000
# 6 0.0000 0.0000 0.0000 0.0000 0.0000 37.4583
#
#
#
# Elastic Compliance Matrix: (Units=1/GPa)
#
#
# Indices 1 2 3 4 5 6 
#
# 1 0.013154 -0.005126 -0.003649 0.000000 0.000000 0.000000
# 2 -0.005126 0.011719 -0.004080 0.000000 0.000000 0.000000
# 3 -0.003649 -0.004080 0.013983 0.000000 0.000000 0.000000
# 4 0.000000 0.000000 0.000000 0.053027 0.000000 0.000000
# 5 0.000000 0.000000 0.000000 0.000000 0.042884 0.000000
# 6 0.000000 0.000000 0.000000 0.000000 0.000000 0.026696
#
#
# Mechanical properties :
#
#
# Convention : Reuss Voigt Hill
#
# Bulk Modulus (GPa) = 76.07149 78.54107 77.30628
# Shear Modulus (GPa) = 26.10220 27.72718 26.91469
#
# Velocity S-wave (km/s) = 3.70463 3.81821 3.76185
# Velocity P-wave (km/s) = 7.63523 7.79323 7.71464
#
# Compressibility (1/GPa) = 0.01314553
#
# Stress axis : x y z
#
# Youngs Moduli (GPa) = 76.02394 85.33286 71.51708
#
# Poissons Ratio (x) = 0.43742 0.26097
# Poissons Ratio (y) = 0.38970 0.29177
# Poissons Ratio (z) = 0.27742 0.34813
#
# Static dielectric constant tensor:
#      x y z
#    x 3.575150 0.000000 0.000000 
#    y 0.000000 3.422570 0.000000 
#    z 0.000000 0.000000 3.614500 
# 
# 
# High freq. dielectric constant tensor:
#      x y z
#    x 1.750060 0.000000 0.000000 
#    y 0.000000 1.745830 0.000000 
#    z 0.000000 0.000000 1.738170 
# 
# From -- ./inp_files/6985.got.cif
#   From: 2010.03.12/outbox.cif.g09.slc.cpg/sg17_4_cif.got.tgz:6985.got - 2010.04.10 18:46:23.
