data_PCOD8155291
_publ_section_title
;
Structure prediction by ZEFSAII (Michael W. Deem and Ramdas Pophale) SiO2 
 PCOD8155291
Probable space group: P 2 2 2
;
_chemical_formula_sum "Si O2"
_cell_formula_units_Z 30
_cell_length_a 5.156734
_cell_length_b 22.813689
_cell_length_c 12.519121
_cell_angle_alpha 90.000000
_cell_angle_beta 90.000000
_cell_angle_gamma 90.000000
_cell_volume 1472.801045
_symmetry_space_group_name_H-M "P 2 2 2"
_symmetry_group_IT_number 16
_symmetry_cell_setting 'orthorhombic'
loop_
_space_group_symop_operation_xyz
x,y,z
-x,-y,z
x,-y,-z
-x,y,-z
loop_
_atom_site_type_symbol
_atom_site_label
_atom_site_fract_x
_atom_site_fract_y
_atom_site_fract_z
Si Si1 0.980583 0.322628 0.874356
Si Si2 0.000000 0.000000 0.777703
Si Si3 0.026096 0.565543 0.738621
Si Si4 0.410487 0.064078 0.120015
Si Si5 0.559407 0.850247 0.302374
Si Si6 0.916579 0.092778 0.383458
Si Si7 0.467762 0.607119 0.374774
Si Si8 0.522227 0.718851 0.761275
O O1 0.699587 0.298567 0.844505
O O2 0.013456 0.389709 0.836494
O O3 0.202163 0.281759 0.821951
O O4 0.000000 0.320523 0.000000
O O5 0.107349 0.948596 0.857463
O O6 0.832348 0.961528 0.693100
O O7 0.805520 0.576984 0.650805
O O8 0.000000 0.500000 0.784960
O O9 0.304761 0.571897 0.683773
O O10 0.512618 0.118009 0.189751
O O11 0.500000 0.000000 0.162635
O O12 0.500000 0.076127 0.000000
O O13 0.843923 0.869350 0.338196
O O14 0.546336 0.781398 0.286480
O O15 0.340044 0.866822 0.389640
O O16 0.000000 0.069987 0.500000
O O17 0.500000 0.604744 0.500000
O O18 0.471437 0.674598 0.338208
#
# Coordination Sequence:
#
# PCOD8155291 Si02
#       8
#     4   2   4   4   4   4   4   4
#     4  10  21  39  62  86 115 157 194 239 292 340
#     4  10  21  41  58  82 120 148 186 236 286 352
#     4  10  21  36  56  87 121 152 195 241 285 343
#     4  10  21  38  59  85 115 151 188 233 297 353
#     4  11  23  42  60  89 119 150 195 244 290 347
#     4  11  23  39  62  87 114 150 190 233 290 348
#     4  10  21  36  56  83 116 159 196 237 292 340
#     4  10  22  40  60  84 119 151 197 246 288 342
#
# _framework density 20.369351999999999
#
# number of rings (size 3 to 8) (size 9 to 14) (size 15 to 20)
#    0.000    1.733    1.333    2.600    0.000    5.067 
#    0.000    1.333    0.000    4.800    0.000    0.000 
#    0.000    0.000    0.000    0.000    0.000    0.000 
#
# Total GULP energy -371754.030810 kJ/mol
# GULP energy per Si atom -12391.801027 kJ/mol
# Density = 2.032299 g / cm^3
# Si number density = 20.369352 Si / 1000 Ang^3
#
#
#
# Elastic Constant Matrix: (Units=GPa)
#
#
# Indices 1 2 3 4 5 6 
#
# 1 72.3420 4.3193 -5.3631 0.0000 0.0000 0.0000
# 2 4.3193 87.3989 -5.0534 0.0000 0.0000 0.0000
# 3 -5.3631 -5.0534 53.0253 0.0000 0.0000 0.0000
# 4 0.0000 0.0000 0.0000 10.4705 0.0000 0.0000
# 5 0.0000 0.0000 0.0000 0.0000 22.6030 0.0000
# 6 0.0000 0.0000 0.0000 0.0000 0.0000 21.4419
#
#
#
# Elastic Compliance Matrix: (Units=1/GPa)
#
#
# Indices 1 2 3 4 5 6 
#
# 1 0.013960 -0.000612 0.001354 0.000000 0.000000 0.000000
# 2 -0.000612 0.011532 0.001037 0.000000 0.000000 0.000000
# 3 0.001354 0.001037 0.019095 0.000000 0.000000 0.000000
# 4 0.000000 0.000000 0.000000 0.095507 0.000000 0.000000
# 5 0.000000 0.000000 0.000000 0.000000 0.044242 0.000000
# 6 0.000000 0.000000 0.000000 0.000000 0.000000 0.046638
#
#
# Mechanical properties :
#
#
# Convention : Reuss Voigt Hill
#
# Bulk Modulus (GPa) = 20.77053 22.28574 21.52813
# Shear Modulus (GPa) = 20.53699 25.49397 23.01548
#
# Velocity S-wave (km/s) = 3.17871 3.54161 3.36506
# Velocity P-wave (km/s) = 4.86737 5.26200 5.06853
#
# Compressibility (1/GPa) = 0.04814515
#
# Stress axis : x y z
#
# Youngs Moduli (GPa) = 71.63272 86.71528 52.37062
#
# Poissons Ratio (x) = 0.05304 -0.07089
# Poissons Ratio (y) = 0.04381 -0.05432
# Poissons Ratio (z) = -0.09697 -0.08994
#
# Static dielectric constant tensor:
#      x y z
#    x 5.737890 0.000000 0.000000 
#    y 0.000000 3.768700 0.000000 
#    z 0.000000 0.000000 3.495650 
# 
# 
# High freq. dielectric constant tensor:
#      x y z
#    x 1.812800 0.000000 0.000000 
#    y 0.000000 1.791450 0.000000 
#    z 0.000000 0.000000 1.788590 
# 
# From -- ./inp_files/6109.got.cif
#   From: 2010.03.12/outbox.cif.g09.slc.cpg/sg16_4_cif.got.tgz:6109.got - 2010.03.31 00:51:45.
