data_PCOD8155072
_publ_section_title
;
Structure prediction by ZEFSAII (Michael W. Deem and Ramdas Pophale) SiO2 
 PCOD8155072
Probable space group: C 2/C
;
_chemical_formula_sum "Si O2"
_cell_formula_units_Z 24
_cell_length_a 8.271327
_cell_length_b 12.558787
_cell_length_c 16.792797
_cell_angle_alpha 90.000000
_cell_angle_beta 150.697872
_cell_angle_gamma 90.000000
_cell_volume 853.734944
_symmetry_space_group_name_H-M "C 2/C"
_symmetry_group_IT_number 15
_symmetry_cell_setting 'monoclinic'
loop_
_space_group_symop_operation_xyz
x,y,z
-x,y,1/2-z
-x,-y,-z
x,-y,1/2+z
1/2+x,1/2+y,z
1/2-x,1/2+y,1/2-z
1/2-x,1/2-y,-z
1/2+x,1/2-y,1/2+z
loop_
_atom_site_type_symbol
_atom_site_label
_atom_site_fract_x
_atom_site_fract_y
_atom_site_fract_z
Si Si1 0.193488 0.519991 0.666844
Si Si2 0.398538 0.407408 0.016815
Si Si3 0.322166 0.786458 0.942363
O O1 0.500000 0.468199 0.750000
O O2 0.334514 0.593932 0.797502
O O3 0.974100 0.425858 0.611662
O O4 0.978053 0.594079 0.513870
O O5 0.403419 0.292823 0.976558
O O6 0.500000 0.500000 0.000000
O O7 0.000000 0.781978 0.750000
O O8 0.250000 0.750000 0.000000
#
# Coordination Sequence:
#
# PCOD8155072 Si02
#       3
#     8   8   8
#     4  12  29  51  83 126 169 228 287 345 432 513
#     4  12  25  52  84 119 174 222 281 358 424 506
#     4  12  25  54  89 126 169 223 285 355 430 505
#
# _framework density 28.11177
#
# number of rings (size 3 to 8) (size 9 to 14) (size 15 to 20)
#    0.000    0.000    6.667    2.000    0.000    8.000 
#    6.000    0.000    0.000    0.000    0.000    0.000 
#    0.000    0.000    0.000    0.000    0.000    0.000 
#
# Total GULP energy -148885.653008 kJ/mol
# GULP energy per Si atom -12407.137751 kJ/mol
# Density = 2.804779 g / cm^3
# Si number density = 28.111770 Si / 1000 Ang^3
#
#
#
# Elastic Constant Matrix: (Units=GPa)
#
#
# Indices 1 2 3 4 5 6 
#
# 1 229.8945 92.4596 94.4650 -0.0041 24.8703 -0.0004
# 2 92.4596 205.5151 44.3141 -0.0077 36.8371 -0.0001
# 3 94.4650 44.3141 182.8767 -0.0017 2.3704 0.0005
# 4 -0.0041 -0.0077 -0.0017 41.2746 -0.0021 0.9128
# 5 24.8703 36.8371 2.3704 -0.0021 57.5928 -0.0007
# 6 -0.0004 -0.0001 0.0005 0.9128 -0.0007 61.5282
#
#
#
# Elastic Compliance Matrix: (Units=1/GPa)
#
#
# Indices 1 2 3 4 5 6 
#
# 1 0.006494 -0.002065 -0.002836 0.000000 -0.001367 0.000000
# 2 -0.002065 0.006473 -0.000460 0.000001 -0.003230 0.000000
# 3 -0.002836 -0.000460 0.007029 0.000000 0.001230 0.000000
# 4 0.000000 0.000001 0.000000 0.024236 0.000000 -0.000360
# 5 -0.001367 -0.003230 0.001230 0.000000 0.019968 0.000000
# 6 0.000000 0.000000 0.000000 -0.000360 0.000000 0.016258
#
#
# Mechanical properties :
#
#
# Convention : Reuss Voigt Hill
#
# Bulk Modulus (GPa) = 107.84004 120.08486 113.96245
# Shear Modulus (GPa) = 53.03881 57.88229 55.46055
#
# Velocity S-wave (km/s) = 4.34834 4.54255 4.44651
# Velocity P-wave (km/s) = 7.97842 8.38586 8.18468
#
# Compressibility (1/GPa) = 0.00927299
#
# Stress axis : x y z
#
# Youngs Moduli (GPa) = 153.99962 154.49148 142.27351
#
# Poissons Ratio (x) = 0.31901 0.40351
# Poissons Ratio (y) = 0.31799 0.06545
# Poissons Ratio (z) = 0.43677 0.07107
#
# Static dielectric constant tensor:
#      x y z
#    x 5.675610 -0.000010 -0.372390 
#    y -0.000010 5.572180 -0.000130 
#    z -0.372390 -0.000130 5.613230 
# 
# 
# High freq. dielectric constant tensor:
#      x y z
#    x 2.169220 0.000000 -0.020140 
#    y 0.000000 2.148510 0.000000 
#    z -0.020140 0.000000 2.167740 
# 
# From -- ./inp_files/189139.got.cif
#   From: 2010.06.25/outbox.cif.g09.slc.cpg/sg15_95_cif.got.tgz:189139.got - 2010.06.28 07:06:18.
