data_PCOD8155117
_publ_section_title
;
Structure prediction by ZEFSAII (Michael W. Deem and Ramdas Pophale) SiO2 
 PCOD8155117
Probable space group: C 2/C
;
_chemical_formula_sum "Si O2"
_cell_formula_units_Z 44
_cell_length_a 17.176925
_cell_length_b 13.334710
_cell_length_c 9.674715
_cell_angle_alpha 90.000000
_cell_angle_beta 56.287359
_cell_angle_gamma 90.000000
_cell_volume 1843.328066
_symmetry_space_group_name_H-M "C 2/C"
_symmetry_group_IT_number 15
_symmetry_cell_setting 'monoclinic'
loop_
_space_group_symop_operation_xyz
x,y,z
-x,y,1/2-z
-x,-y,-z
x,-y,1/2+z
1/2+x,1/2+y,z
1/2-x,1/2+y,1/2-z
1/2-x,1/2-y,-z
1/2+x,1/2-y,1/2+z
loop_
_atom_site_type_symbol
_atom_site_label
_atom_site_fract_x
_atom_site_fract_y
_atom_site_fract_z
Si Si1 0.900267 0.058467 0.309958
Si Si2 0.346335 0.845860 0.724724
Si Si3 0.857666 0.277530 0.408625
Si Si4 0.500000 0.271611 0.250000
Si Si5 0.063719 0.465169 0.311361
Si Si6 0.852945 0.103175 0.049516
O O1 0.908992 0.171979 0.354267
O O2 0.871557 0.051919 0.179121
O O3 0.000000 0.009199 0.250000
O O4 0.829386 0.986899 0.464923
O O5 0.377760 0.830480 0.534854
O O6 0.418929 0.789243 0.751331
O O7 0.236118 0.819615 0.854573
O O8 0.345925 0.963737 0.764224
O O9 0.750000 0.250000 0.500000
O O10 0.899047 0.350127 0.245861
O O11 0.445526 0.335449 0.418420
O O12 0.000000 0.499637 0.250000
O O13 0.000000 0.500000 0.500000
#
# Coordination Sequence:
#
# PCOD8155117 Si02
#       6
#     8   8   8   4   8   8
#     4  12  26  48  79 111 156 203 260 322 391 474
#     4  12  27  48  78 116 153 206 262 330 391 480
#     4  12  26  49  76 115 156 209 261 321 400 474
#     4  12  28  52  76 114 154 210 260 330 396 468
#     4  12  26  48  77 113 159 204 262 326 403 475
#     4  12  28  50  77 117 154 203 266 328 393 473
#
# _framework density 23.869869999999999
#
# number of rings (size 3 to 8) (size 9 to 14) (size 15 to 20)
#    0.000    0.000    5.455    3.818    5.091    0.000 
#    3.273    0.000    0.000    0.000    0.000    0.000 
#    0.000    0.000    0.000    0.000    0.000    0.000 
#
# Total GULP energy -272563.618715 kJ/mol
# GULP energy per Si atom -12389.255396 kJ/mol
# Density = 2.381554 g / cm^3
# Si number density = 23.869870 Si / 1000 Ang^3
#
#
#
# Elastic Constant Matrix: (Units=GPa)
#
#
# Indices 1 2 3 4 5 6 
#
# 1 140.5675 27.1541 73.6998 0.0000 6.2833 0.0000
# 2 27.1541 129.2886 65.5092 0.0000 3.6796 0.0000
# 3 73.6998 65.5092 162.8983 0.0000 3.6036 0.0000
# 4 0.0000 0.0000 0.0000 45.6963 0.0000 -5.2902
# 5 6.2833 3.6796 3.6036 0.0000 50.0948 0.0000
# 6 0.0000 0.0000 0.0000 -5.2902 0.0000 35.4806
#
#
#
# Elastic Compliance Matrix: (Units=1/GPa)
#
#
# Indices 1 2 3 4 5 6 
#
# 1 0.009370 0.000245 -0.004318 0.000000 -0.000883 0.000000
# 2 0.000245 0.009730 -0.004014 0.000000 -0.000457 0.000000
# 3 -0.004318 -0.004014 0.009704 0.000000 0.000138 0.000000
# 4 0.000000 0.000000 0.000000 0.022268 0.000000 0.003320
# 5 -0.000883 -0.000457 0.000138 0.000000 0.020096 0.000000
# 6 0.000000 0.000000 0.000000 0.003320 0.000000 0.028679
#
#
# Mechanical properties :
#
#
# Convention : Reuss Voigt Hill
#
# Bulk Modulus (GPa) = 79.17719 85.05340 82.11530
# Shear Modulus (GPa) = 41.58645 44.01375 42.80010
#
# Velocity S-wave (km/s) = 4.17851 4.29873 4.23905
# Velocity P-wave (km/s) = 7.51813 7.76841 7.64430
#
# Compressibility (1/GPa) = 0.01262990
#
# Stress axis : x y z
#
# Youngs Moduli (GPa) = 106.72031 102.77691 103.05417
#
# Poissons Ratio (x) = -0.02520 0.44504
# Poissons Ratio (y) = -0.02617 0.41363
# Poissons Ratio (z) = 0.46087 0.41251
#
# Static dielectric constant tensor:
#      x y z
#    x 4.425740 0.000000 -0.468760 
#    y 0.000000 4.677560 0.000000 
#    z -0.468760 0.000000 2.687820 
# 
# 
# High freq. dielectric constant tensor:
#      x y z
#    x 1.961190 0.000000 -0.010580 
#    y 0.000000 1.948750 0.000000 
#    z -0.010580 0.000000 1.958510 
# 
# From -- ./inp_files/47389.got.cif
#   From: 2010.06.25/outbox.cif.g09.slc.cpg/sg15_24_cif.got.tgz:47389.got - 2010.06.28 07:06:18.
