data_PCOD8155556
_publ_section_title
;
Structure prediction by ZEFSAII (Michael W. Deem and Ramdas Pophale) SiO2 
 PCOD8155556
Probable space group: P 2 2 21
;
_chemical_formula_sum "Si O2"
_cell_formula_units_Z 30
_cell_length_a 10.683117
_cell_length_b 9.186756
_cell_length_c 14.122256
_cell_angle_alpha 90.000000
_cell_angle_beta 90.000000
_cell_angle_gamma 90.000000
_cell_volume 1386.003243
_symmetry_space_group_name_H-M "P 2 2 21"
_symmetry_group_IT_number 17
_symmetry_cell_setting 'orthorhombic'
loop_
_space_group_symop_operation_xyz
x,y,z
-x,-y,1/2+z
x,-y,-z
-x,y,1/2-z
loop_
_atom_site_type_symbol
_atom_site_label
_atom_site_fract_x
_atom_site_fract_y
_atom_site_fract_z
Si Si1 0.841979 0.176183 0.626779
Si Si2 0.022804 0.652542 0.470069
Si Si3 0.000000 0.948320 0.750000
Si Si4 0.582559 0.843938 0.479188
Si Si5 0.441930 0.366674 0.651060
Si Si6 0.173146 0.403854 0.708739
Si Si7 0.817758 0.278696 0.147925
Si Si8 0.469407 0.698568 0.643819
O O1 0.709408 0.133461 0.580941
O O2 0.828025 0.321694 0.690935
O O3 0.920340 0.219523 0.532312
O O4 0.910980 0.045670 0.682231
O O5 0.959539 0.500000 0.500000
O O6 0.061794 0.646898 0.359024
O O7 0.133524 0.684024 0.542995
O O8 0.901775 0.851321 0.809523
O O9 0.481980 0.750209 0.424420
O O10 0.582377 0.768715 0.582521
O O11 0.523757 0.000000 0.500000
O O12 0.500000 0.320110 0.750000
O O13 0.294409 0.355099 0.652399
O O14 0.482196 0.527978 0.621500
O O15 0.171129 0.580756 0.718730
O O16 0.672231 0.239357 0.129601
O O17 0.500000 0.737292 0.750000
#
# Coordination Sequence:
#
# PCOD8155556 Si02
#       8
#     4   4   2   4   4   4   4   4
#     4  12  26  45  66 101 147 191 231 291 358 440
#     4  10  22  40  67  98 130 177 242 296 341 417
#     4  12  28  44  70  98 152 198 234 292 372 438
#     4  12  28  43  68 105 147 188 229 287 360 444
#     4  10  20  43  73 101 132 180 234 297 353 411
#     4  10  20  45  74  98 132 179 245 294 358 416
#     4  10  25  43  73 102 133 185 238 305 355 425
#     4  10  24  47  72 103 138 176 240 304 353 415
#
# _framework density 21.644970000000001
#
# number of rings (size 3 to 8) (size 9 to 14) (size 15 to 20)
#    0.000    1.333    2.667    1.200    7.467    4.800 
#    2.400    0.000    0.000    0.000    0.000    0.000 
#    0.000    0.000    0.000    0.000    0.000    0.000 
#
# Total GULP energy -371704.423165 kJ/mol
# GULP energy per Si atom -12390.147439 kJ/mol
# Density = 2.159570 g / cm^3
# Si number density = 21.644970 Si / 1000 Ang^3
#
#
#
# Elastic Constant Matrix: (Units=GPa)
#
#
# Indices 1 2 3 4 5 6 
#
# 1 72.1325 42.3845 53.1119 0.0000 0.0000 0.0000
# 2 42.3845 107.8667 71.5554 0.0000 0.0000 0.0000
# 3 53.1119 71.5554 87.2638 0.0000 0.0000 0.0000
# 4 0.0000 0.0000 0.0000 38.4121 0.0000 0.0000
# 5 0.0000 0.0000 0.0000 0.0000 44.7224 0.0000
# 6 0.0000 0.0000 0.0000 0.0000 0.0000 33.9234
#
#
#
# Elastic Compliance Matrix: (Units=1/GPa)
#
#
# Indices 1 2 3 4 5 6 
#
# 1 0.025139 0.000596 -0.015789 0.000000 0.000000 0.000000
# 2 0.000596 0.020343 -0.017044 0.000000 0.000000 0.000000
# 3 -0.015789 -0.017044 0.035045 0.000000 0.000000 0.000000
# 4 0.000000 0.000000 0.000000 0.026033 0.000000 0.000000
# 5 0.000000 0.000000 0.000000 0.000000 0.022360 0.000000
# 6 0.000000 0.000000 0.000000 0.000000 0.000000 0.029478
#
#
# Mechanical properties :
#
#
# Convention : Reuss Voigt Hill
#
# Bulk Modulus (GPa) = 62.29323 66.81850 64.55586
# Shear Modulus (GPa) = 21.90841 30.09232 26.00037
#
# Velocity S-wave (km/s) = 3.18492 3.73268 3.46962
# Velocity P-wave (km/s) = 6.50899 7.03665 6.77795
#
# Compressibility (1/GPa) = 0.01605311
#
# Stress axis : x y z
#
# Youngs Moduli (GPa) = 39.77900 49.15789 28.53472
#
# Poissons Ratio (x) = -0.02931 0.45054
# Poissons Ratio (y) = -0.02372 0.48633
# Poissons Ratio (z) = 0.62808 0.83783
#
# Static dielectric constant tensor:
#      x y z
#    x 3.983990 0.000000 0.000000 
#    y 0.000000 3.953860 0.000000 
#    z 0.000000 0.000000 3.873630 
# 
# 
# High freq. dielectric constant tensor:
#      x y z
#    x 1.857070 0.000000 0.000000 
#    y 0.000000 1.846230 0.000000 
#    z 0.000000 0.000000 1.857210 
# 
# From -- ./inp_files/8505.got.cif
#   From: 2010.03.12/outbox.cif.g09.slc.cpg/sg17_5_cif.got.tgz:8505.got - 2010.04.10 18:46:23.
