data_PCOD8155927
_publ_section_title
;
Structure prediction by ZEFSAII (Michael W. Deem and Ramdas Pophale) SiO2 
 PCOD8155927
Probable space group: P 21 21 2
;
_chemical_formula_sum "Si O2"
_cell_formula_units_Z 24
_cell_length_a 14.041014
_cell_length_b 8.490103
_cell_length_c 7.539959
_cell_angle_alpha 90.000000
_cell_angle_beta 90.000000
_cell_angle_gamma 90.000000
_cell_volume 898.835912
_symmetry_space_group_name_H-M "P 21 21 2"
_symmetry_group_IT_number 18
_symmetry_cell_setting 'orthorhombic'
loop_
_space_group_symop_operation_xyz
x,y,z
-x,-y,z
1/2+x,1/2-y,-z
1/2-x,1/2+y,-z
loop_
_atom_site_type_symbol
_atom_site_label
_atom_site_fract_x
_atom_site_fract_y
_atom_site_fract_z
Si Si1 0.366976 0.745588 0.666116
Si Si2 0.251094 0.580700 0.363182
Si Si3 0.058186 0.768140 0.963891
Si Si4 0.000000 0.500000 0.218893
Si Si5 0.142524 0.779186 0.601840
Si Si6 0.854434 0.900666 0.988685
Si Si7 0.500000 0.500000 0.572692
O O1 0.328481 0.669264 0.484867
O O2 0.462557 0.637466 0.700859
O O3 0.413268 0.921821 0.666043
O O4 0.307932 0.690424 0.842109
O O5 0.151771 0.651111 0.444027
O O6 0.254233 0.382713 0.377551
O O7 0.272273 0.620743 0.160520
O O8 0.105576 0.700605 0.781229
O O9 0.058729 0.624839 0.101353
O O10 0.949819 0.815825 0.918896
O O11 0.122763 0.915574 0.029723
O O12 0.077348 0.926469 0.559921
#
# Coordination Sequence:
#
# PCOD8155927 Si02
#       7
#     4   4   4   2   4   4   2
#     4  10  20  37  59  88 119 155 203 250 304 368
#     4  10  22  38  58  85 121 158 199 254 312 365
#     4   9  17  34  58  83 118 160 201 248 301 362
#     4  10  20  32  58  94 122 152 204 258 300 356
#     4  10  21  39  61  89 123 164 210 256 311 372
#     4   9  18  38  61  81 116 162 203 246 304 371
#     4  10  20  40  68  86 116 172 216 250 304 378
#
# _framework density 26.7012
#
# number of rings (size 3 to 8) (size 9 to 14) (size 15 to 20)
#    0.000    2.333    0.000    5.000    0.000    4.000 
#    0.000   17.500    0.000    0.000    0.000    0.000 
#    0.000    0.000    0.000    0.000    0.000    0.000 
#
# Total GULP energy -297390.811088 kJ/mol
# GULP energy per Si atom -12391.283795 kJ/mol
# Density = 2.664043 g / cm^3
# Si number density = 26.701200 Si / 1000 Ang^3
#
#
#
# Elastic Constant Matrix: (Units=GPa)
#
#
# Indices 1 2 3 4 5 6 
#
# 1 58.5658 25.9361 13.4670 0.0000 0.0000 0.0000
# 2 25.9361 150.9928 55.8902 0.0000 0.0000 0.0000
# 3 13.4670 55.8902 99.1896 0.0000 0.0000 0.0000
# 4 0.0000 0.0000 0.0000 47.7631 0.0000 0.0000
# 5 0.0000 0.0000 0.0000 0.0000 34.6148 0.0000
# 6 0.0000 0.0000 0.0000 0.0000 0.0000 45.7331
#
#
#
# Elastic Compliance Matrix: (Units=1/GPa)
#
#
# Indices 1 2 3 4 5 6 
#
# 1 0.018546 -0.002847 -0.000914 0.000000 0.000000 0.000000
# 2 -0.002847 0.008805 -0.004575 0.000000 0.000000 0.000000
# 3 -0.000914 -0.004575 0.012784 0.000000 0.000000 0.000000
# 4 0.000000 0.000000 0.000000 0.020937 0.000000 0.000000
# 5 0.000000 0.000000 0.000000 0.000000 0.028889 0.000000
# 6 0.000000 0.000000 0.000000 0.000000 0.000000 0.021866
#
#
# Mechanical properties :
#
#
# Convention : Reuss Voigt Hill
#
# Bulk Modulus (GPa) = 42.62043 55.48165 49.05104
# Shear Modulus (GPa) = 36.67847 39.85252 38.26550
#
# Velocity S-wave (km/s) = 3.71032 3.86753 3.78974
# Velocity P-wave (km/s) = 5.86105 6.38494 6.12860
#
# Compressibility (1/GPa) = 0.02346292
#
# Stress axis : x y z
#
# Youngs Moduli (GPa) = 53.92032 113.56708 78.22540
#
# Poissons Ratio (x) = 0.32338 0.07146
# Poissons Ratio (y) = 0.15354 0.35788
# Poissons Ratio (z) = 0.04926 0.51956
#
# Static dielectric constant tensor:
#      x y z
#    x 5.889500 0.000000 0.000000 
#    y 0.000000 5.725860 0.000000 
#    z 0.000000 0.000000 4.800540 
# 
# 
# High freq. dielectric constant tensor:
#      x y z
#    x 2.098550 0.000000 0.000000 
#    y 0.000000 2.093120 0.000000 
#    z 0.000000 0.000000 2.067780 
# 
# From -- ./inp_files/4501.got.cif
#   From: 2010.03.12/outbox.cif.g09.slc.cpg/sg18_3_cif.got.tgz:4501.got - 2010.04.10 18:53:55.
