data_PCOD8155511
_publ_section_title
;
Structure prediction by ZEFSAII (Michael W. Deem and Ramdas Pophale) SiO2 
 PCOD8155511
Probable space group: P 2 2 21
;
_chemical_formula_sum "Si O2"
_cell_formula_units_Z 26
_cell_length_a 11.954992
_cell_length_b 9.579390
_cell_length_c 11.836912
_cell_angle_alpha 90.000000
_cell_angle_beta 90.000000
_cell_angle_gamma 90.000000
_cell_volume 1355.581282
_symmetry_space_group_name_H-M "P 2 2 21"
_symmetry_group_IT_number 17
_symmetry_cell_setting 'orthorhombic'
loop_
_space_group_symop_operation_xyz
x,y,z
-x,-y,1/2+z
x,-y,-z
-x,y,1/2-z
loop_
_atom_site_type_symbol
_atom_site_label
_atom_site_fract_x
_atom_site_fract_y
_atom_site_fract_z
Si Si1 0.029038 0.743536 0.949133
Si Si2 0.726602 0.420996 0.782896
Si Si3 0.268606 0.623733 0.910632
Si Si4 0.000000 0.953022 0.750000
Si Si5 0.152062 0.830003 0.160571
Si Si6 0.622940 0.142860 0.545725
Si Si7 0.500000 0.723368 0.250000
Si Si8 0.138746 0.500000 0.500000
O O1 0.145665 0.686329 0.903535
O O2 0.987382 0.862385 0.863379
O O3 0.047934 0.801074 0.075828
O O4 0.937081 0.622792 0.950263
O O5 0.709001 0.564302 0.713688
O O6 0.808476 0.314374 0.717092
O O7 0.602017 0.364986 0.799699
O O8 0.780128 0.445776 0.903245
O O9 0.274284 0.500000 0.000000
O O10 0.361333 0.738443 0.948630
O O11 0.890289 0.052909 0.747735
O O12 0.255219 0.895566 0.093658
O O13 0.540089 0.186362 0.644654
O O14 0.569851 0.000000 0.500000
#
# Coordination Sequence:
#
# PCOD8155511 Si02
#       8
#     4   4   4   2   4   4   2   2
#     4  11  21  36  56  87 125 160 200 243 305 366
#     4  11  23  39  61  87 118 162 206 254 306 358
#     4  11  18  40  68  90 113 163 214 246 284 373
#     4  12  22  32  56  88 120 164 200 244 294 374
#     4  10  20  37  57  82 119 162 204 240 293 366
#     4  10  21  39  65  90 117 154 210 261 306 359
#     4  10  22  42  62  84 118 158 202 264 318 354
#     4  12  24  36  54  90 130 152 188 258 316 364
#
# _framework density 19.179964999999999
#
# number of rings (size 3 to 8) (size 9 to 14) (size 15 to 20)
#    0.000    1.231    5.385    4.154    0.000    2.462 
#    0.000    5.385    0.000    0.000    0.000    0.000 
#    0.000    0.000    0.000    0.000    0.000    0.000 
#
# Total GULP energy -322360.578067 kJ/mol
# GULP energy per Si atom -12398.483772 kJ/mol
# Density = 1.913631 g / cm^3
# Si number density = 19.179965 Si / 1000 Ang^3
#
#
#
# Elastic Constant Matrix: (Units=GPa)
#
#
# Indices 1 2 3 4 5 6 
#
# 1 92.1276 54.4636 50.6407 0.0000 0.0000 0.0000
# 2 54.4636 130.8036 62.2567 0.0000 0.0000 0.0000
# 3 50.6407 62.2567 107.2381 0.0000 0.0000 0.0000
# 4 0.0000 0.0000 0.0000 33.9024 0.0000 0.0000
# 5 0.0000 0.0000 0.0000 0.0000 -95.8810 0.0000
# 6 0.0000 0.0000 0.0000 0.0000 0.0000 138.4568
#
#
#
# Elastic Compliance Matrix: (Units=1/GPa)
#
#
# Indices 1 2 3 4 5 6 
#
# 1 0.016240 -0.004300 -0.005173 0.000000 0.000000 0.000000
# 2 -0.004300 0.011703 -0.004763 0.000000 0.000000 0.000000
# 3 -0.005173 -0.004763 0.014533 0.000000 0.000000 0.000000
# 4 0.000000 0.000000 0.000000 0.029496 0.000000 0.000000
# 5 0.000000 0.000000 0.000000 0.000000 -0.010430 0.000000
# 6 0.000000 0.000000 0.000000 0.000000 0.000000 0.007222
#
#
# Mechanical properties :
#
#
# Convention : Reuss Voigt Hill
#
# Bulk Modulus (GPa) = 71.40974 73.87680 72.64327
# Shear Modulus (GPa) = 49.06570 26.14955 37.60762
#
# Velocity S-wave (km/s) = 5.06333 3.69640 4.43287
# Velocity P-wave (km/s) = 8.45549 7.53785 8.00982
#
# Compressibility (1/GPa) = 0.01400369
#
# Stress axis : x y z
#
# Youngs Moduli (GPa) = 61.57722 85.45110 68.80906
#
# Poissons Ratio (x) = 0.36744 0.35592
# Poissons Ratio (y) = 0.26478 0.32776
# Poissons Ratio (z) = 0.31851 0.40703
#
# Static dielectric constant tensor:
#      x y z
#    x 3.426970 0.000000 0.000000 
#    y 0.000000 5.630430 0.000000 
#    z 0.000000 0.000000 1.936080 
# 
# 
# High freq. dielectric constant tensor:
#      x y z
#    x 1.731650 0.000000 0.000000 
#    y 0.000000 1.756480 0.000000 
#    z 0.000000 0.000000 1.745970 
# 
# From -- ./inp_files/6635.got.cif
#   From: 2010.03.12/outbox.cif.g09.slc.cpg/sg17_4_cif.got.tgz:6635.got - 2010.04.10 18:46:23.
