data_PCOD8155423
_publ_section_title
;
Structure prediction by ZEFSAII (Michael W. Deem and Ramdas Pophale) SiO2 
 PCOD8155423
Probable space group: P 2 2 21
;
_chemical_formula_sum "Si O2"
_cell_formula_units_Z 32
_cell_length_a 8.688283
_cell_length_b 8.688278
_cell_length_c 21.384052
_cell_angle_alpha 90.000000
_cell_angle_beta 90.000000
_cell_angle_gamma 90.000000
_cell_volume 1614.201212
_symmetry_space_group_name_H-M "P 2 2 21"
_symmetry_group_IT_number 17
_symmetry_cell_setting 'orthorhombic'
loop_
_space_group_symop_operation_xyz
x,y,z
-x,-y,1/2+z
x,-y,-z
-x,y,1/2-z
loop_
_atom_site_type_symbol
_atom_site_label
_atom_site_fract_x
_atom_site_fract_y
_atom_site_fract_z
Si Si1 0.931595 0.071431 0.314699
Si Si2 0.432034 0.074455 0.188567
Si Si3 0.071431 0.068405 0.564699
Si Si4 0.936108 0.409631 0.185208
Si Si5 0.590368 0.936109 0.935208
Si Si6 0.587698 0.570033 0.940296
Si Si7 0.074455 0.432034 0.561433
Si Si8 0.429967 0.587697 0.690296
O O1 0.749949 0.081764 0.307336
O O2 0.000000 0.000440 0.250000
O O3 0.002757 0.238623 0.325937
O O4 0.967674 0.967673 0.375000
O O5 0.500000 0.984286 0.250000
O O6 0.486829 0.001506 0.122516
O O7 0.503920 0.242350 0.191738
O O8 0.081765 0.250052 0.557336
O O9 0.000441 0.000000 0.500000
O O10 0.238623 0.997243 0.575937
O O11 0.753118 0.406615 0.191285
O O12 0.000000 0.479877 0.250000
O O13 0.998494 0.513171 0.127484
O O14 0.593383 0.753118 0.941284
O O15 0.520122 0.000000 0.000000
O O16 0.511783 0.511781 0.875000
O O17 0.757651 0.503923 0.941738
O O18 0.495488 0.500000 0.000000
O O19 0.984285 0.500000 0.500000
O O20 0.500000 0.495488 0.750000
#
# Coordination Sequence:
#
# PCOD8155423 Si02
#       8
#     4   4   4   4   4   4   4   4
#     4  11  21  35  58  83 110 143 185 227 269 322
#     4  10  19  33  54  79 108 140 179 223 267 318
#     4  11  21  35  58  83 110 143 185 227 269 322
#     4  10  19  33  56  81 107 140 178 219 268 325
#     4  10  19  33  56  81 107 140 178 219 268 325
#     4   9  16  29  51  77 103 133 172 215 259 313
#     4  10  19  33  54  79 108 140 179 223 267 318
#     4   9  16  29  51  77 103 133 172 215 259 313
#
# _framework density 19.824045999999999
#
# number of rings (size 3 to 8) (size 9 to 14) (size 15 to 20)
#    0.000    2.000    0.000    9.750    0.000    1.000 
#    0.000    0.000    0.000   43.500    0.000    1.750 
#    0.000    0.000    0.000    0.000    0.000    0.000 
#
# Total GULP energy -396429.553921 kJ/mol
# GULP energy per Si atom -12388.423560 kJ/mol
# Density = 1.977893 g / cm^3
# Si number density = 19.824046 Si / 1000 Ang^3
#
#
#
# Elastic Constant Matrix: (Units=GPa)
#
#
# Indices 1 2 3 4 5 6 
#
# 1 77.9396 20.7832 53.5533 0.0000 0.0000 0.0000
# 2 20.7832 77.9352 53.5512 0.0000 0.0000 0.0000
# 3 53.5533 53.5512 248.1333 0.0000 0.0000 0.0000
# 4 0.0000 0.0000 0.0000 34.2469 0.0000 0.0000
# 5 0.0000 0.0000 0.0000 0.0000 34.2469 0.0000
# 6 0.0000 0.0000 0.0000 0.0000 0.0000 4.2801
#
#
#
# Elastic Compliance Matrix: (Units=1/GPa)
#
#
# Indices 1 2 3 4 5 6 
#
# 1 0.015361 -0.002135 -0.002855 0.000000 0.000000 0.000000
# 2 -0.002135 0.015362 -0.002855 0.000000 0.000000 0.000000
# 3 -0.002855 -0.002855 0.005262 0.000000 0.000000 0.000000
# 4 0.000000 0.000000 0.000000 0.029200 0.000000 0.000000
# 5 0.000000 0.000000 0.000000 0.000000 0.029200 0.000000
# 6 0.000000 0.000000 0.000000 0.000000 0.000000 0.233642
#
#
# Mechanical properties :
#
#
# Convention : Reuss Voigt Hill
#
# Bulk Modulus (GPa) = 49.26799 73.30928 61.28863
# Shear Modulus (GPa) = 14.26613 32.96279 23.61446
#
# Velocity S-wave (km/s) = 2.68552 4.08213 3.45512
# Velocity P-wave (km/s) = 5.87559 7.69926 6.84840
#
# Compressibility (1/GPa) = 0.02029715
#
# Stress axis : x y z
#
# Youngs Moduli (GPa) = 65.09928 65.09582 190.03313
#
# Poissons Ratio (x) = 0.13898 0.54246
# Poissons Ratio (y) = 0.13898 0.54247
# Poissons Ratio (z) = 0.18583 0.18582
#
# Static dielectric constant tensor:
#      x y z
#    x 3.369240 0.000000 0.000000 
#    y 0.000000 3.369240 0.000000 
#    z 0.000000 0.000000 6.029590 
# 
# 
# High freq. dielectric constant tensor:
#      x y z
#    x 1.739090 0.000000 0.000000 
#    y 0.000000 1.739080 0.000000 
#    z 0.000000 0.000000 1.821550 
# 
# From -- ./inp_files/10624.got.cif
#   From: 2010.03.12/outbox.cif.g09.slc.cpg/sg17_6_cif.got.tgz:10624.got - 2010.04.10 18:46:23.
