data_PCOD8155534
_publ_section_title
;
Structure prediction by ZEFSAII (Michael W. Deem and Ramdas Pophale) SiO2 
 PCOD8155534
Probable space group: P 2 2 21
;
_chemical_formula_sum "Si O2"
_cell_formula_units_Z 30
_cell_length_a 15.248574
_cell_length_b 11.485585
_cell_length_c 8.853052
_cell_angle_alpha 90.000000
_cell_angle_beta 90.000000
_cell_angle_gamma 90.000000
_cell_volume 1550.512840
_symmetry_space_group_name_H-M "P 2 2 21"
_symmetry_group_IT_number 17
_symmetry_cell_setting 'orthorhombic'
loop_
_space_group_symop_operation_xyz
x,y,z
-x,-y,1/2+z
x,-y,-z
-x,y,1/2-z
loop_
_atom_site_type_symbol
_atom_site_label
_atom_site_fract_x
_atom_site_fract_y
_atom_site_fract_z
Si Si1 0.760242 0.475394 0.175990
Si Si2 0.248005 0.064400 0.843816
Si Si3 0.093690 0.328252 0.188630
Si Si4 0.207968 0.673946 0.089497
Si Si5 0.414318 0.990896 0.675277
Si Si6 0.500000 0.768601 0.750000
Si Si7 0.915946 0.947004 0.667242
Si Si8 0.375274 0.394874 0.097135
O O1 0.832649 0.373487 0.194749
O O2 0.794310 0.590234 0.265078
O O3 0.665886 0.436038 0.242438
O O4 0.747693 0.500000 0.000000
O O5 0.206613 0.192107 0.862456
O O6 0.332737 0.061769 0.739525
O O7 0.172959 0.992653 0.754769
O O8 0.272822 0.000000 0.000000
O O9 0.086422 0.190295 0.182002
O O10 0.000000 0.378534 0.250000
O O11 0.125056 0.363149 0.017746
O O12 0.297425 0.662978 0.996781
O O13 0.500000 0.050727 0.750000
O O14 0.417266 0.000000 0.500000
O O15 0.417456 0.850920 0.703751
O O16 0.541391 0.689279 0.618584
O O17 0.000000 0.000001 0.750000
O O18 0.915153 0.000000 0.500000
O O19 0.414685 0.500000 0.000000
#
# Coordination Sequence:
#
# PCOD8155534 Si02
#       8
#     4   4   4   4   4   2   4   4
#     4  10  23  40  60  91 124 158 210 263 304 375
#     4  11  20  39  67  88 125 173 204 252 325 372
#     4  10  20  39  63  89 120 165 208 256 309 367
#     4  10  20  40  65  89 121 167 213 249 323 376
#     4  10  24  38  58  94 126 159 208 258 309 382
#     4  10  22  36  64  86 120 156 206 262 308 372
#     4  10  21  39  61  92 125 163 206 254 304 374
#     4   9  20  38  62  83 116 162 206 254 312 376
#
# _framework density 19.348436
#
# number of rings (size 3 to 8) (size 9 to 14) (size 15 to 20)
#    0.400    1.600    2.667    2.400    3.733    3.200 
#    4.800    2.000    0.000    0.000    0.000    0.000 
#    0.000    0.000    0.000    0.000    0.000    0.000 
#
# Total GULP energy -371656.288684 kJ/mol
# GULP energy per Si atom -12388.542956 kJ/mol
# Density = 1.930440 g / cm^3
# Si number density = 19.348436 Si / 1000 Ang^3
#
#
#
# Elastic Constant Matrix: (Units=GPa)
#
#
# Indices 1 2 3 4 5 6 
#
# 1 95.4378 11.1881 35.9222 0.0000 0.0000 0.0000
# 2 11.1881 70.9025 24.7267 0.0000 0.0000 0.0000
# 3 35.9222 24.7267 107.5723 0.0000 0.0000 0.0000
# 4 0.0000 0.0000 0.0000 28.2842 0.0000 0.0000
# 5 0.0000 0.0000 0.0000 0.0000 27.1133 0.0000
# 6 0.0000 0.0000 0.0000 0.0000 0.0000 33.1827
#
#
#
# Elastic Compliance Matrix: (Units=1/GPa)
#
#
# Indices 1 2 3 4 5 6 
#
# 1 0.012003 -0.000539 -0.003884 0.000000 0.000000 0.000000
# 2 -0.000539 0.015357 -0.003350 0.000000 0.000000 0.000000
# 3 -0.003884 -0.003350 0.011363 0.000000 0.000000 0.000000
# 4 0.000000 0.000000 0.000000 0.035355 0.000000 0.000000
# 5 0.000000 0.000000 0.000000 0.000000 0.036882 0.000000
# 6 0.000000 0.000000 0.000000 0.000000 0.000000 0.030136
#
#
# Mechanical properties :
#
#
# Convention : Reuss Voigt Hill
#
# Bulk Modulus (GPa) = 43.14732 46.39853 44.77292
# Shear Modulus (GPa) = 30.41910 31.18775 30.80343
#
# Velocity S-wave (km/s) = 3.96937 4.01920 3.99436
# Velocity P-wave (km/s) = 6.58456 6.75065 6.66812
#
# Compressibility (1/GPa) = 0.02317641
#
# Stress axis : x y z
#
# Youngs Moduli (GPa) = 83.31038 65.11580 88.00336
#
# Poissons Ratio (x) = 0.03513 0.34183
# Poissons Ratio (y) = 0.04494 0.29480
# Poissons Ratio (z) = 0.32361 0.21813
#
# Static dielectric constant tensor:
#      x y z
#    x 3.494240 0.000000 0.000000 
#    y 0.000000 3.812290 0.000000 
#    z 0.000000 0.000000 3.359710 
# 
# 
# High freq. dielectric constant tensor:
#      x y z
#    x 1.753770 0.000000 0.000000 
#    y 0.000000 1.758890 0.000000 
#    z 0.000000 0.000000 1.735930 
# 
# From -- ./inp_files/5237.got.cif
#   From: 2010.03.12/outbox.cif.g09.slc.cpg/sg17_3_cif.got.tgz:5237.got - 2010.04.10 18:46:23.
