data_PCOD8155420
_publ_section_title
;
Structure prediction by ZEFSAII (Michael W. Deem and Ramdas Pophale) SiO2 
 PCOD8155420
Probable space group: P 2 2 21
;
_chemical_formula_sum "Si O2"
_cell_formula_units_Z 30
_cell_length_a 7.775984
_cell_length_b 11.830262
_cell_length_c 16.339018
_cell_angle_alpha 90.000000
_cell_angle_beta 90.000000
_cell_angle_gamma 90.000000
_cell_volume 1503.057768
_symmetry_space_group_name_H-M "P 2 2 21"
_symmetry_group_IT_number 17
_symmetry_cell_setting 'orthorhombic'
loop_
_space_group_symop_operation_xyz
x,y,z
-x,-y,1/2+z
x,-y,-z
-x,y,1/2-z
loop_
_atom_site_type_symbol
_atom_site_label
_atom_site_fract_x
_atom_site_fract_y
_atom_site_fract_z
Si Si1 0.460036 0.333320 0.617743
Si Si2 0.816588 0.212648 0.978560
Si Si3 0.930979 0.180976 0.662842
Si Si4 0.113536 0.421249 0.434833
Si Si5 0.324827 0.466059 0.283018
Si Si6 0.816860 0.569432 0.368916
Si Si7 0.563153 0.909222 0.337920
Si Si8 0.385295 0.000000 0.500000
O O1 0.334947 0.302141 0.543282
O O2 0.365365 0.408900 0.684470
O O3 0.634033 0.398447 0.587935
O O4 0.493251 0.217276 0.664812
O O5 0.922468 0.157047 0.904438
O O6 0.937090 0.294147 0.034538
O O7 0.731784 0.107295 0.025073
O O8 0.899608 0.314424 0.660872
O O9 0.768178 0.099183 0.648674
O O10 0.000000 0.143871 0.750000
O O11 0.220422 0.500000 0.500000
O O12 0.226647 0.397771 0.353672
O O13 0.942662 0.498642 0.426409
O O14 0.500000 0.405002 0.250000
O O15 0.200335 0.484175 0.206989
O O16 0.500000 0.963483 0.250000
O O17 0.495107 0.976526 0.417739
#
# Coordination Sequence:
#
# PCOD8155420 Si02
#       8
#     4   4   4   4   4   4   4   2
#     4   9  17  34  57  87 121 154 196 248 313 366
#     4  11  22  39  60  88 124 161 202 262 303 358
#     4  11  19  32  62  95 120 149 196 257 326 364
#     4  12  21  35  54  87 125 152 190 247 310 368
#     4  10  19  34  54  82 119 165 197 238 299 381
#     4  10  19  32  55  86 125 159 189 238 310 385
#     4  10  20  37  62  91 122 158 207 262 314 373
#     4  10  24  44  62  84 120 168 216 264 310 360
#
# _framework density 19.959312000000001
#
# number of rings (size 3 to 8) (size 9 to 14) (size 15 to 20)
#    0.000    1.600    2.667    5.600    0.000    0.533 
#    4.800    0.667    0.000    6.400    0.000    0.000 
#    0.000    0.000    0.000    0.000    0.000    0.000 
#
# Total GULP energy -371648.607442 kJ/mol
# GULP energy per Si atom -12388.286915 kJ/mol
# Density = 1.991388 g / cm^3
# Si number density = 19.959312 Si / 1000 Ang^3
#
#
#
# Elastic Constant Matrix: (Units=GPa)
#
#
# Indices 1 2 3 4 5 6 
#
# 1 104.6195 41.9309 46.7029 0.0000 0.0000 0.0000
# 2 41.9309 78.5024 44.4125 0.0000 0.0000 0.0000
# 3 46.7029 44.4125 111.3191 0.0000 0.0000 0.0000
# 4 0.0000 0.0000 0.0000 22.8253 0.0000 0.0000
# 5 0.0000 0.0000 0.0000 0.0000 11.1064 0.0000
# 6 0.0000 0.0000 0.0000 0.0000 0.0000 25.0695
#
#
#
# Elastic Compliance Matrix: (Units=1/GPa)
#
#
# Indices 1 2 3 4 5 6 
#
# 1 0.013141 -0.005037 -0.003504 0.000000 0.000000 0.000000
# 2 -0.005037 0.018383 -0.005221 0.000000 0.000000 0.000000
# 3 -0.003504 -0.005221 0.012536 0.000000 0.000000 0.000000
# 4 0.000000 0.000000 0.000000 0.043811 0.000000 0.000000
# 5 0.000000 0.000000 0.000000 0.000000 0.090038 0.000000
# 6 0.000000 0.000000 0.000000 0.000000 0.000000 0.039889
#
#
# Mechanical properties :
#
#
# Convention : Reuss Voigt Hill
#
# Bulk Modulus (GPa) = 60.47085 62.28151 61.37618
# Shear Modulus (GPa) = 19.93353 22.55989 21.24671
#
# Velocity S-wave (km/s) = 3.16366 3.36563 3.26621
# Velocity P-wave (km/s) = 6.61119 6.80994 6.71130
#
# Compressibility (1/GPa) = 0.01653689
#
# Stress axis : x y z
#
# Youngs Moduli (GPa) = 76.09571 54.39942 79.76995
#
# Poissons Ratio (x) = 0.27401 0.27949
# Poissons Ratio (y) = 0.38330 0.41646
# Poissons Ratio (z) = 0.26662 0.28401
#
# Static dielectric constant tensor:
#      x y z
#    x 4.030330 0.000000 0.000000 
#    y 0.000000 3.258780 0.000000 
#    z 0.000000 0.000000 3.657250 
# 
# 
# High freq. dielectric constant tensor:
#      x y z
#    x 1.788150 0.000000 0.000000 
#    y 0.000000 1.733730 0.000000 
#    z 0.000000 0.000000 1.777240 
# 
# From -- ./inp_files/8242.got.cif
#   From: 2010.03.12/outbox.cif.g09.slc.cpg/sg17_5_cif.got.tgz:8242.got - 2010.04.10 18:46:23.
