data_PCOD8155623
_publ_section_title
;
Structure prediction by ZEFSAII (Michael W. Deem and Ramdas Pophale) SiO2 
 PCOD8155623
Probable space group: P 2 2 21
;
_chemical_formula_sum "Si O2"
_cell_formula_units_Z 18
_cell_length_a 17.147363
_cell_length_b 6.180655
_cell_length_c 9.180739
_cell_angle_alpha 90.000000
_cell_angle_beta 90.000000
_cell_angle_gamma 90.000000
_cell_volume 972.992483
_symmetry_space_group_name_H-M "P 2 2 21"
_symmetry_group_IT_number 17
_symmetry_cell_setting 'orthorhombic'
loop_
_space_group_symop_operation_xyz
x,y,z
-x,-y,1/2+z
x,-y,-z
-x,y,1/2-z
loop_
_atom_site_type_symbol
_atom_site_label
_atom_site_fract_x
_atom_site_fract_y
_atom_site_fract_z
Si Si1 0.368676 0.617696 0.146791
Si Si2 0.072958 0.618497 0.648245
Si Si3 0.543548 0.000000 0.500000
Si Si4 0.858978 0.000000 0.000000
Si Si5 0.500000 0.695246 0.750000
Si Si6 0.775022 0.619392 0.144593
O O1 0.425858 0.462199 0.238567
O O2 0.291912 0.655588 0.239251
O O3 0.343280 0.500000 0.000000
O O4 0.405396 0.851478 0.108782
O O5 0.051933 0.500000 0.500000
O O6 0.086362 0.869772 0.612342
O O7 0.152829 0.516663 0.714246
O O8 0.000000 0.585269 0.750000
O O9 0.491638 0.843849 0.604217
O O10 0.804205 0.145664 0.900217
O O11 0.742878 0.500000 0.000000
#
# Coordination Sequence:
#
# PCOD8155623 Si02
#       6
#     4   4   2   2   2   4
#     4  10  22  39  56  81 114 144 181 227 274 326
#     4   9  19  36  55  78 108 141 177 219 267 319
#     4  10  22  38  59  83 110 146 186 226 276 329
#     4   8  18  34  55  81 106 138 182 220 262 321
#     4  10  22  40  58  82 112 144 184 230 274 328
#     4   9  20  37  56  78 107 143 180 221 268 320
#
# _framework density 18.499628999999999
#
# number of rings (size 3 to 8) (size 9 to 14) (size 15 to 20)
#    0.000    3.111    0.000    0.667    0.000   16.000 
#    0.000    2.222    0.000    0.000    0.000    0.000 
#    0.000    0.000    0.000    0.000    0.000    0.000 
#
# Total GULP energy -223104.376849 kJ/mol
# GULP energy per Si atom -12394.687603 kJ/mol
# Density = 1.845752 g / cm^3
# Si number density = 18.499629 Si / 1000 Ang^3
#
#
#
# Elastic Constant Matrix: (Units=GPa)
#
#
# Indices 1 2 3 4 5 6 
#
# 1 110.8092 47.5081 71.4878 0.0000 0.0000 0.0000
# 2 47.5081 127.9806 42.8117 0.0000 0.0000 0.0000
# 3 71.4878 42.8117 89.8029 0.0000 0.0000 0.0000
# 4 0.0000 0.0000 0.0000 26.2268 0.0000 0.0000
# 5 0.0000 0.0000 0.0000 0.0000 54.2419 0.0000
# 6 0.0000 0.0000 0.0000 0.0000 0.0000 10.9570
#
#
#
# Elastic Compliance Matrix: (Units=1/GPa)
#
#
# Indices 1 2 3 4 5 6 
#
# 1 0.019148 -0.002390 -0.014103 0.000000 0.000000 0.000000
# 2 -0.002390 0.009595 -0.002671 0.000000 0.000000 0.000000
# 3 -0.014103 -0.002671 0.023636 0.000000 0.000000 0.000000
# 4 0.000000 0.000000 0.000000 0.038129 0.000000 0.000000
# 5 0.000000 0.000000 0.000000 0.000000 0.018436 0.000000
# 6 0.000000 0.000000 0.000000 0.000000 0.000000 0.091266
#
#
# Mechanical properties :
#
#
# Convention : Reuss Voigt Hill
#
# Bulk Modulus (GPa) = 71.17998 72.46753 71.82375
# Shear Modulus (GPa) = 20.55742 29.40416 24.98079
#
# Velocity S-wave (km/s) = 3.33713 3.99111 3.67868
# Velocity P-wave (km/s) = 7.30812 7.77792 7.54668
#
# Compressibility (1/GPa) = 0.01404889
#
# Stress axis : x y z
#
# Youngs Moduli (GPa) = 52.22508 104.22589 42.30853
#
# Poissons Ratio (x) = 0.24912 0.59669
# Poissons Ratio (y) = 0.12483 0.11302
# Poissons Ratio (z) = 0.73654 0.27842
#
# Static dielectric constant tensor:
#      x y z
#    x 3.232160 0.000000 0.000000 
#    y 0.000000 3.629560 0.000000 
#    z 0.000000 0.000000 3.148820 
# 
# 
# High freq. dielectric constant tensor:
#      x y z
#    x 1.703910 0.000000 0.000000 
#    y 0.000000 1.738630 0.000000 
#    z 0.000000 0.000000 1.709110 
# 
# From -- ./inp_files/3499.got.cif
#   From: 2010.03.12/outbox.cif.g09.slc.cpg/sg17_2_cif.got.tgz:3499.got - 2010.04.10 18:46:23.
