data_PCOD8155997
_publ_section_title
;
Structure prediction by ZEFSAII (Michael W. Deem and Ramdas Pophale) SiO2 
 PCOD8155997
Probable space group: P 21 21 2
;
_chemical_formula_sum "Si O2"
_cell_formula_units_Z 20
_cell_length_a 8.872146
_cell_length_b 8.527740
_cell_length_c 12.035068
_cell_angle_alpha 90.000000
_cell_angle_beta 90.000000
_cell_angle_gamma 90.000000
_cell_volume 910.565474
_symmetry_space_group_name_H-M "P 21 21 2"
_symmetry_group_IT_number 18
_symmetry_cell_setting 'orthorhombic'
loop_
_space_group_symop_operation_xyz
x,y,z
-x,-y,z
1/2+x,1/2-y,-z
1/2-x,1/2+y,-z
loop_
_atom_site_type_symbol
_atom_site_label
_atom_site_fract_x
_atom_site_fract_y
_atom_site_fract_z
Si Si1 0.209327 0.647673 0.621755
Si Si2 0.850690 0.899663 0.784307
Si Si3 0.496933 0.815694 0.041150
Si Si4 0.287086 0.797281 0.852407
Si Si5 0.359268 0.797192 0.417516
O O1 0.265224 0.687250 0.745725
O O2 0.322356 0.739030 0.540748
O O3 0.220976 0.462967 0.602411
O O4 0.038433 0.700952 0.601438
O O5 0.881147 0.761481 0.871462
O O6 0.789846 0.824824 0.670190
O O7 0.720798 0.017612 0.824801
O O8 0.000000 0.000000 0.760384
O O9 0.660460 0.741683 0.056031
O O10 0.500000 0.000000 0.065959
O O11 0.445683 0.772673 0.915243
#
# Coordination Sequence:
#
# PCOD8155997 Si02
#       5
#     4   4   4   4   4
#     4  11  24  43  70  99 132 170 221 269 331 391
#     4  10  20  38  68  89 128 174 209 263 332 377
#     4  11  22  41  67  92 134 170 220 264 322 385
#     4  11  23  42  66  98 131 174 216 271 324 388
#     4  11  23  43  71  96 131 174 214 274 331 391
#
# _framework density 21.964375
#
# number of rings (size 3 to 8) (size 9 to 14) (size 15 to 20)
#    0.000    1.200    4.000    3.600    0.000    0.000 
#   10.800    2.000    4.400    0.000    0.000    0.000 
#    0.000    0.000    0.000    0.000    0.000    0.000 
#
# Total GULP energy -248043.411865 kJ/mol
# GULP energy per Si atom -12402.170593 kJ/mol
# Density = 2.191438 g / cm^3
# Si number density = 21.964375 Si / 1000 Ang^3
#
#
#
# Elastic Constant Matrix: (Units=GPa)
#
#
# Indices 1 2 3 4 5 6 
#
# 1 37.8038 31.9234 62.1919 0.0000 0.0000 0.0000
# 2 31.9234 137.7267 72.4644 0.0000 0.0000 0.0000
# 3 62.1919 72.4644 161.9954 0.0000 0.0000 0.0000
# 4 0.0000 0.0000 0.0000 32.7593 0.0000 0.0000
# 5 0.0000 0.0000 0.0000 0.0000 30.8401 0.0000
# 6 0.0000 0.0000 0.0000 0.0000 0.0000 19.2284
#
#
#
# Elastic Compliance Matrix: (Units=1/GPa)
#
#
# Indices 1 2 3 4 5 6 
#
# 1 0.072634 -0.002830 -0.026619 0.000000 0.000000 0.000000
# 2 -0.002830 0.009606 -0.003210 0.000000 0.000000 0.000000
# 3 -0.026619 -0.003210 0.017828 0.000000 0.000000 0.000000
# 4 0.000000 0.000000 0.000000 0.030526 0.000000 0.000000
# 5 0.000000 0.000000 0.000000 0.000000 0.032425 0.000000
# 6 0.000000 0.000000 0.000000 0.000000 0.000000 0.052007
#
#
# Mechanical properties :
#
#
# Convention : Reuss Voigt Hill
#
# Bulk Modulus (GPa) = 28.77775 74.52059 51.64917
# Shear Modulus (GPa) = 17.12752 27.96197 22.54475
#
# Velocity S-wave (km/s) = 2.79550 3.57187 3.20726
# Velocity P-wave (km/s) = 4.85285 7.14231 6.10585
#
# Compressibility (1/GPa) = 0.03474907
#
# Stress axis : x y z
#
# Youngs Moduli (GPa) = 13.76768 104.10271 56.09014
#
# Poissons Ratio (x) = 0.29463 1.49306
# Poissons Ratio (y) = 0.03896 0.18007
# Poissons Ratio (z) = 0.36648 0.33421
#
# Static dielectric constant tensor:
#      x y z
#    x 3.674350 0.000000 0.000000 
#    y 0.000000 4.307390 0.000000 
#    z 0.000000 0.000000 4.018540 
# 
# 
# High freq. dielectric constant tensor:
#      x y z
#    x 1.837130 0.000000 0.000000 
#    y 0.000000 1.881270 0.000000 
#    z 0.000000 0.000000 1.872450 
# 
# From -- ./inp_files/5404.got.cif
#   From: 2010.03.12/outbox.cif.g09.slc.cpg/sg18_3_cif.got.tgz:5404.got - 2010.04.10 18:53:55.
