data_PCOD8155277
_publ_section_title
;
Structure prediction by ZEFSAII (Michael W. Deem and Ramdas Pophale) SiO2 
 PCOD8155277
Probable space group: P 2 2 2
;
_chemical_formula_sum "Si O2"
_cell_formula_units_Z 32
_cell_length_a 11.780335
_cell_length_b 15.064727
_cell_length_c 8.099147
_cell_angle_alpha 90.000000
_cell_angle_beta 90.000000
_cell_angle_gamma 90.000000
_cell_volume 1437.335619
_symmetry_space_group_name_H-M "P 2 2 2"
_symmetry_group_IT_number 16
_symmetry_cell_setting 'orthorhombic'
loop_
_space_group_symop_operation_xyz
x,y,z
-x,-y,z
x,-y,-z
-x,y,-z
loop_
_atom_site_type_symbol
_atom_site_label
_atom_site_fract_x
_atom_site_fract_y
_atom_site_fract_z
Si Si1 0.153544 0.663976 0.842999
Si Si2 0.243382 0.816548 0.334498
Si Si3 0.756217 0.508786 0.686596
Si Si4 0.543874 0.590869 0.813890
Si Si5 0.491498 0.780529 0.309591
Si Si6 0.903617 0.346569 0.221500
Si Si7 0.730120 0.836570 0.274938
Si Si8 0.128643 0.005268 0.696167
O O1 0.235840 0.587877 0.769838
O O2 0.214561 0.758173 0.830081
O O3 0.035936 0.670656 0.742393
O O4 0.124628 0.642672 0.029934
O O5 0.367256 0.810627 0.246012
O O6 0.167456 0.731842 0.302087
O O7 0.255945 0.821359 0.530719
O O8 0.182537 0.901091 0.252471
O O9 0.710841 0.500000 0.500000
O O10 0.679170 0.578108 0.795118
O O11 0.876513 0.559732 0.689003
O O12 0.500000 0.500000 0.728584
O O13 0.494484 0.675420 0.719223
O O14 0.500000 0.597797 0.000000
O O15 0.500000 0.801467 0.500000
O O16 0.595444 0.835656 0.226165
O O17 0.792462 0.928162 0.225426
O O18 0.126882 0.000000 0.500000
O O19 0.000000 0.000000 0.766114
#
# Coordination Sequence:
#
# PCOD8155277 Si02
#       8
#     4   4   4   4   4   4   4   4
#     4  11  25  41  62  89 126 167 213 265 323 391
#     4  10  20  38  62  90 126 162 210 267 315 386
#     4  12  26  41  64  94 124 163 215 266 317 376
#     4  11  26  39  60  88 118 169 209 254 310 372
#     4  10  22  37  58  89 123 160 207 259 314 374
#     4  11  24  42  62  89 125 169 211 265 327 382
#     4  10  21  37  61  91 123 165 209 261 324 383
#     4   9  18  34  60  92 123 161 210 263 322 383
#
# _framework density 22.263414999999998
#
# number of rings (size 3 to 8) (size 9 to 14) (size 15 to 20)
#    0.000    1.500    1.250    3.000    8.750    5.000 
#    0.000    3.125    0.000    2.250    0.000    2.625 
#    0.000    0.000    0.000    0.000    0.000    0.000 
#
# Total GULP energy -396722.193997 kJ/mol
# GULP energy per Si atom -12397.568562 kJ/mol
# Density = 2.221274 g / cm^3
# Si number density = 22.263415 Si / 1000 Ang^3
#
#
#
# Elastic Constant Matrix: (Units=GPa)
#
#
# Indices 1 2 3 4 5 6 
#
# 1 133.0016 35.6841 11.1931 0.0000 0.0000 0.0000
# 2 35.6841 123.2794 -1.8172 0.0000 0.0000 0.0000
# 3 11.1931 -1.8172 36.5203 0.0000 0.0000 0.0000
# 4 0.0000 0.0000 0.0000 5.2817 0.0000 0.0000
# 5 0.0000 0.0000 0.0000 0.0000 22.7902 0.0000
# 6 0.0000 0.0000 0.0000 0.0000 0.0000 43.4208
#
#
#
# Elastic Compliance Matrix: (Units=1/GPa)
#
#
# Indices 1 2 3 4 5 6 
#
# 1 0.008410 -0.002474 -0.002701 0.000000 0.000000 0.000000
# 2 -0.002474 0.008845 0.001198 0.000000 0.000000 0.000000
# 3 -0.002701 0.001198 0.028269 0.000000 0.000000 0.000000
# 4 0.000000 0.000000 0.000000 0.189334 0.000000 0.000000
# 5 0.000000 0.000000 0.000000 0.000000 0.043878 0.000000
# 6 0.000000 0.000000 0.000000 0.000000 0.000000 0.023030
#
#
# Mechanical properties :
#
#
# Convention : Reuss Voigt Hill
#
# Bulk Modulus (GPa) = 26.61554 42.54681 34.58118
# Shear Modulus (GPa) = 15.51618 30.81463 23.16540
#
# Velocity S-wave (km/s) = 2.64282 3.72438 3.22920
# Velocity P-wave (km/s) = 4.61448 6.13570 5.42864
#
# Compressibility (1/GPa) = 0.03757203
#
# Stress axis : x y z
#
# Youngs Moduli (GPa) = 118.90918 113.05228 35.37400
#
# Poissons Ratio (x) = 0.27970 0.09553
# Poissons Ratio (y) = 0.29419 -0.04239
# Poissons Ratio (z) = 0.32113 -0.13548
#
# Static dielectric constant tensor:
#      x y z
#    x 4.686270 0.000000 0.000000 
#    y 0.000000 4.047230 0.000000 
#    z 0.000000 0.000000 3.628110 
# 
# 
# High freq. dielectric constant tensor:
#      x y z
#    x 1.898730 0.000000 0.000000 
#    y 0.000000 1.874620 0.000000 
#    z 0.000000 0.000000 1.847840 
# 
# From -- ./inp_files/4874.got.cif
#   From: 2010.03.12/outbox.cif.g09.slc.cpg/sg16_3_cif.got.tgz:4874.got - 2010.03.31 00:51:45.
