data_PCOD8155327
_publ_section_title
;
Structure prediction by ZEFSAII (Michael W. Deem and Ramdas Pophale) SiO2 
 PCOD8155327
Probable space group: P 2 2 2
;
_chemical_formula_sum "Si O2"
_cell_formula_units_Z 18
_cell_length_a 10.595359
_cell_length_b 8.752481
_cell_length_c 9.170735
_cell_angle_alpha 90.000000
_cell_angle_beta 90.000000
_cell_angle_gamma 90.000000
_cell_volume 850.454331
_symmetry_space_group_name_H-M "P 2 2 2"
_symmetry_group_IT_number 16
_symmetry_cell_setting 'orthorhombic'
loop_
_space_group_symop_operation_xyz
x,y,z
-x,-y,z
x,-y,-z
-x,y,-z
loop_
_atom_site_type_symbol
_atom_site_label
_atom_site_fract_x
_atom_site_fract_y
_atom_site_fract_z
Si Si1 0.500000 0.000000 0.000000
Si Si2 0.871183 0.577260 0.154880
Si Si3 0.355433 0.531743 0.328979
Si Si4 0.500000 0.000000 0.500000
Si Si5 0.872449 0.934472 0.158114
Si Si6 0.343591 0.131035 0.746289
O O1 0.580966 0.111893 0.102461
O O2 0.747700 0.577820 0.256635
O O3 0.892233 0.756118 0.138145
O O4 0.000000 0.500000 0.220527
O O5 0.841421 0.500000 0.000000
O O6 0.500000 0.500000 0.275351
O O7 0.347086 0.500000 0.500000
O O8 0.301290 0.694225 0.270536
O O9 0.575058 0.885345 0.601585
O O10 0.763057 0.999379 0.263070
O O11 0.000000 0.000000 0.226297
O O12 0.842438 0.000000 0.000000
#
# Coordination Sequence:
#
# PCOD8155327 Si02
#       6
#     1   4   4   1   4   4
#     4  10  24  38  68  98 132 174 226 272 336 382
#     4  11  24  43  68  97 132 175 224 279 342 399
#     4  11  26  43  66  96 139 178 223 272 338 398
#     4  10  24  38  68  86 140 174 218 264 328 398
#     4  11  22  40  68  96 129 168 224 282 335 393
#     4  11  23  42  66  97 135 175 226 272 335 402
#
# _framework density 21.165158000000002
#
# number of rings (size 3 to 8) (size 9 to 14) (size 15 to 20)
#    0.000    1.111    1.111    6.667    9.333    0.889 
#    0.000    0.556    0.000    0.000    0.000    0.000 
#    0.000    0.000    0.000    0.000    0.000    0.000 
#
# Total GULP energy -223055.396330 kJ/mol
# GULP energy per Si atom -12391.966463 kJ/mol
# Density = 2.111699 g / cm^3
# Si number density = 21.165158 Si / 1000 Ang^3
#
#
#
# Elastic Constant Matrix: (Units=GPa)
#
#
# Indices 1 2 3 4 5 6 
#
# 1 152.3804 40.9642 56.1649 0.0000 0.0000 0.0000
# 2 40.9642 171.8260 33.9586 0.0000 0.0000 0.0000
# 3 56.1649 33.9586 100.6935 0.0000 0.0000 0.0000
# 4 0.0000 0.0000 0.0000 23.1895 0.0000 0.0000
# 5 0.0000 0.0000 0.0000 0.0000 36.7067 0.0000
# 6 0.0000 0.0000 0.0000 0.0000 0.0000 35.2114
#
#
#
# Elastic Compliance Matrix: (Units=1/GPa)
#
#
# Indices 1 2 3 4 5 6 
#
# 1 0.008473 -0.001163 -0.004333 0.000000 0.000000 0.000000
# 2 -0.001163 0.006395 -0.001508 0.000000 0.000000 0.000000
# 3 -0.004333 -0.001508 0.012857 0.000000 0.000000 0.000000
# 4 0.000000 0.000000 0.000000 0.043123 0.000000 0.000000
# 5 0.000000 0.000000 0.000000 0.000000 0.027243 0.000000
# 6 0.000000 0.000000 0.000000 0.000000 0.000000 0.028400
#
#
# Mechanical properties :
#
#
# Convention : Reuss Voigt Hill
#
# Bulk Modulus (GPa) = 72.91255 76.34169 74.62712
# Shear Modulus (GPa) = 34.46581 38.60902 36.53741
#
# Velocity S-wave (km/s) = 4.03975 4.27567 4.15938
# Velocity P-wave (km/s) = 7.50224 7.77965 7.64220
#
# Compressibility (1/GPa) = 0.01371506
#
# Stress axis : x y z
#
# Youngs Moduli (GPa) = 118.02849 156.36703 77.78019
#
# Poissons Ratio (x) = 0.18193 0.33706
# Poissons Ratio (y) = 0.13732 0.11728
# Poissons Ratio (z) = 0.51147 0.23577
#
# Static dielectric constant tensor:
#      x y z
#    x 4.242940 0.000000 0.000000 
#    y 0.000000 3.853390 0.000000 
#    z 0.000000 0.000000 3.735740 
# 
# 
# High freq. dielectric constant tensor:
#      x y z
#    x 1.843030 0.000000 0.000000 
#    y 0.000000 1.844210 0.000000 
#    z 0.000000 0.000000 1.815460 
# 
# From -- ./inp_files/3834.got.cif
#   From: 2010.03.12/outbox.cif.g09.slc.cpg/sg16_2_cif.got.tgz:3834.got - 2010.03.31 00:51:45.
