data_PCOD8155575
_publ_section_title
;
Structure prediction by ZEFSAII (Michael W. Deem and Ramdas Pophale) SiO2 
 PCOD8155575
Probable space group: P 2 2 21
;
_chemical_formula_sum "Si O2"
_cell_formula_units_Z 32
_cell_length_a 8.333414
_cell_length_b 11.402756
_cell_length_c 17.193744
_cell_angle_alpha 90.000000
_cell_angle_beta 90.000000
_cell_angle_gamma 90.000000
_cell_volume 1633.816378
_symmetry_space_group_name_H-M "P 2 2 21"
_symmetry_group_IT_number 17
_symmetry_cell_setting 'orthorhombic'
loop_
_space_group_symop_operation_xyz
x,y,z
-x,-y,1/2+z
x,-y,-z
-x,y,1/2-z
loop_
_atom_site_type_symbol
_atom_site_label
_atom_site_fract_x
_atom_site_fract_y
_atom_site_fract_z
Si Si1 0.817023 0.426685 0.579864
Si Si2 0.898573 0.346842 0.823147
Si Si3 0.327969 0.926101 0.894229
Si Si4 0.665250 0.825503 0.442898
Si Si5 0.286535 0.164243 0.569268
Si Si6 0.293110 0.901780 0.598247
Si Si7 0.683415 0.522133 0.729135
Si Si8 0.307679 0.218357 0.249150
O O1 0.819167 0.500000 0.500000
O O2 0.759543 0.292700 0.574376
O O3 0.696328 0.491499 0.638172
O O4 0.992383 0.423884 0.618768
O O5 0.809518 0.250476 0.874737
O O6 0.768721 0.432570 0.786433
O O7 0.000000 0.292640 0.750000
O O8 0.516751 0.907255 0.898174
O O9 0.245689 0.861257 0.821966
O O10 0.285615 0.064877 0.887265
O O11 0.270122 0.865236 0.973081
O O12 0.475457 0.805187 0.430481
O O13 0.232826 0.168435 0.478500
O O14 0.237030 0.036038 0.599665
O O15 0.227669 0.833384 0.673003
O O16 0.500000 0.521499 0.750000
O O17 0.758859 0.650662 0.740702
O O18 0.500000 0.216213 0.250000
#
# Coordination Sequence:
#
# PCOD8155575 Si02
#       8
#     4   4   4   4   4   4   4   4
#     4  11  23  38  55  78 114 155 186 223 276 330
#     4  10  23  39  54  75 111 150 183 225 280 333
#     4   8  15  29  50  83 116 136 168 226 282 323
#     4   9  17  32  57  83 107 142 186 226 268 323
#     4   9  17  35  57  80 107 138 184 232 270 325
#     4   8  16  29  53  82 108 135 170 227 286 322
#     4  10  21  38  59  83 108 140 189 238 271 317
#     4   9  16  28  49  80 111 135 166 220 282 328
#
# _framework density 19.586044000000001
#
# number of rings (size 3 to 8) (size 9 to 14) (size 15 to 20)
#    0.000    2.750    0.000    3.000    0.000    4.000 
#    0.000    7.500    0.000    9.750    0.000    0.000 
#    0.000    0.000    0.000    0.000    0.000    0.000 
#
# Total GULP energy -396506.671348 kJ/mol
# GULP energy per Si atom -12390.833480 kJ/mol
# Density = 1.954147 g / cm^3
# Si number density = 19.586044 Si / 1000 Ang^3
#
#
#
# Elastic Constant Matrix: (Units=GPa)
#
#
# Indices 1 2 3 4 5 6 
#
# 1 41.4334 30.4762 37.4178 0.0000 0.0000 0.0000
# 2 30.4762 145.3856 97.4222 0.0000 0.0000 0.0000
# 3 37.4178 97.4222 168.9319 0.0000 0.0000 0.0000
# 4 0.0000 0.0000 0.0000 41.2268 0.0000 0.0000
# 5 0.0000 0.0000 0.0000 0.0000 16.1756 0.0000
# 6 0.0000 0.0000 0.0000 0.0000 0.0000 6.7632
#
#
#
# Elastic Compliance Matrix: (Units=1/GPa)
#
#
# Indices 1 2 3 4 5 6 
#
# 1 0.031000 -0.003092 -0.005083 0.000000 0.000000 0.000000
# 2 -0.003092 0.011519 -0.005958 0.000000 0.000000 0.000000
# 3 -0.005083 -0.005958 0.010481 0.000000 0.000000 0.000000
# 4 0.000000 0.000000 0.000000 0.024256 0.000000 0.000000
# 5 0.000000 0.000000 0.000000 0.000000 0.061822 0.000000
# 6 0.000000 0.000000 0.000000 0.000000 0.000000 0.147858
#
#
# Mechanical properties :
#
#
# Convention : Reuss Voigt Hill
#
# Bulk Modulus (GPa) = 40.43059 76.26481 58.34770
# Shear Modulus (GPa) = 15.45846 25.52878 20.49362
#
# Velocity S-wave (km/s) = 2.81242 3.61420 3.23822
# Velocity P-wave (km/s) = 5.58871 7.51262 6.62092
#
# Compressibility (1/GPa) = 0.02473375
#
# Stress axis : x y z
#
# Youngs Moduli (GPa) = 32.25797 86.81428 95.40725
#
# Poissons Ratio (x) = 0.26844 0.48497
# Poissons Ratio (y) = 0.09975 0.56843
# Poissons Ratio (z) = 0.16397 0.51724
#
# Static dielectric constant tensor:
#      x y z
#    x 3.207600 0.000000 0.000000 
#    y 0.000000 3.705270 0.000000 
#    z 0.000000 0.000000 4.042770 
# 
# 
# High freq. dielectric constant tensor:
#      x y z
#    x 1.729360 0.000000 0.000000 
#    y 0.000000 1.768510 0.000000 
#    z 0.000000 0.000000 1.775150 
# 
# From -- ./inp_files/9529.got.cif
#   From: 2010.03.12/outbox.cif.g09.slc.cpg/sg17_5_cif.got.tgz:9529.got - 2010.04.10 18:46:23.
