data_PCOD8155699
_publ_section_title
;
Structure prediction by ZEFSAII (Michael W. Deem and Ramdas Pophale) SiO2 
 PCOD8155699
Probable space group: P 2 2 21
;
_chemical_formula_sum "Si O2"
_cell_formula_units_Z 24
_cell_length_a 9.273655
_cell_length_b 10.289788
_cell_length_c 14.727153
_cell_angle_alpha 90.000000
_cell_angle_beta 90.000000
_cell_angle_gamma 90.000000
_cell_volume 1405.323022
_symmetry_space_group_name_H-M "P 2 2 21"
_symmetry_group_IT_number 17
_symmetry_cell_setting 'orthorhombic'
loop_
_space_group_symop_operation_xyz
x,y,z
-x,-y,1/2+z
x,-y,-z
-x,y,1/2-z
loop_
_atom_site_type_symbol
_atom_site_label
_atom_site_fract_x
_atom_site_fract_y
_atom_site_fract_z
Si Si1 0.418972 0.726469 0.844564
Si Si2 0.676617 0.880714 0.062640
Si Si3 0.675000 0.370083 0.054702
Si Si4 0.837073 0.025160 0.767622
Si Si5 0.162853 0.718223 0.728697
Si Si6 0.580618 0.012550 0.654965
O O1 0.500000 0.737378 0.750000
O O2 0.507531 0.630913 0.911270
O O3 0.256889 0.679858 0.818819
O O4 0.418859 0.869318 0.891256
O O5 0.778252 0.887494 0.150654
O O6 0.506594 0.889621 0.090055
O O7 0.707198 0.746529 0.013606
O O8 0.722556 0.000000 0.000000
O O9 0.782395 0.359673 0.140471
O O10 0.706955 0.500000 0.000000
O O11 0.744587 0.057765 0.676112
O O12 0.000000 0.066577 0.750000
O O13 0.821087 0.872132 0.790696
O O14 0.000000 0.677189 0.750000
O O15 0.500000 0.001623 0.750000
#
# Coordination Sequence:
#
# PCOD8155699 Si02
#       6
#     4   4   4   4   4   4
#     4   8  14  29  50  70  94 125 167 200 237 300
#     4  11  17  31  52  74 100 125 165 217 259 280
#     4  11  21  33  50  78 101 132 172 214 251 289
#     4   9  17  31  52  78 103 132 168 206 252 310
#     4   9  17  33  55  74  98 137 173 199 248 317
#     4   8  14  27  49  72  94 128 161 198 250 298
#
# _framework density 17.077923999999999
#
# number of rings (size 3 to 8) (size 9 to 14) (size 15 to 20)
#    0.000    2.667    3.333    2.000    0.000    0.000 
#    0.000   11.667    0.000    0.000    0.000    0.000 
#    0.000    0.000    0.000    0.000    0.000    0.000 
#
# Total GULP energy -297392.077302 kJ/mol
# GULP energy per Si atom -12391.336554 kJ/mol
# Density = 1.703905 g / cm^3
# Si number density = 17.077924 Si / 1000 Ang^3
#
#
#
# Elastic Constant Matrix: (Units=GPa)
#
#
# Indices 1 2 3 4 5 6 
#
# 1 139.3666 29.4901 40.0450 0.0000 0.0000 0.0000
# 2 29.4901 79.5640 40.6175 0.0000 0.0000 0.0000
# 3 40.0450 40.6175 70.0965 0.0000 0.0000 0.0000
# 4 0.0000 0.0000 0.0000 25.8275 0.0000 0.0000
# 5 0.0000 0.0000 0.0000 0.0000 22.5180 0.0000
# 6 0.0000 0.0000 0.0000 0.0000 0.0000 9.7368
#
#
#
# Elastic Compliance Matrix: (Units=1/GPa)
#
#
# Indices 1 2 3 4 5 6 
#
# 1 0.008637 -0.000969 -0.004373 0.000000 0.000000 0.000000
# 2 -0.000969 0.017957 -0.009852 0.000000 0.000000 0.000000
# 3 -0.004373 -0.009852 0.022473 0.000000 0.000000 0.000000
# 4 0.000000 0.000000 0.000000 0.038718 0.000000 0.000000
# 5 0.000000 0.000000 0.000000 0.000000 0.044409 0.000000
# 6 0.000000 0.000000 0.000000 0.000000 0.000000 0.102703
#
#
# Mechanical properties :
#
#
# Convention : Reuss Voigt Hill
#
# Bulk Modulus (GPa) = 53.53342 56.59250 55.06296
# Shear Modulus (GPa) = 18.41554 23.54141 20.97847
#
# Velocity S-wave (km/s) = 3.28735 3.71680 3.50865
# Velocity P-wave (km/s) = 6.76930 7.18535 6.98043
#
# Compressibility (1/GPa) = 0.01867992
#
# Stress axis : x y z
#
# Youngs Moduli (GPa) = 115.78423 55.68894 44.49876
#
# Poissons Ratio (x) = 0.05396 0.19457
# Poissons Ratio (y) = 0.11219 0.43838
# Poissons Ratio (z) = 0.50627 0.54862
#
# Static dielectric constant tensor:
#      x y z
#    x 3.584620 0.000000 0.000000 
#    y 0.000000 2.878760 0.000000 
#    z 0.000000 0.000000 3.184640 
# 
# 
# High freq. dielectric constant tensor:
#      x y z
#    x 1.659170 0.000000 0.000000 
#    y 0.000000 1.610370 0.000000 
#    z 0.000000 0.000000 1.653150 
# 
# From -- ./inp_files/9385.got.cif
#   From: 2010.03.12/outbox.cif.g09.slc.cpg/sg17_5_cif.got.tgz:9385.got - 2010.04.10 18:46:23.
