data_PCOD8155404
_publ_section_title
;
Structure prediction by ZEFSAII (Michael W. Deem and Ramdas Pophale) SiO2 
 PCOD8155404
Probable space group: P 2 2 21
;
_chemical_formula_sum "Si O2"
_cell_formula_units_Z 18
_cell_length_a 9.246581
_cell_length_b 8.626429
_cell_length_c 10.521059
_cell_angle_alpha 90.000000
_cell_angle_beta 90.000000
_cell_angle_gamma 90.000000
_cell_volume 839.212003
_symmetry_space_group_name_H-M "P 2 2 21"
_symmetry_group_IT_number 17
_symmetry_cell_setting 'orthorhombic'
loop_
_space_group_symop_operation_xyz
x,y,z
-x,-y,1/2+z
x,-y,-z
-x,y,1/2-z
loop_
_atom_site_type_symbol
_atom_site_label
_atom_site_fract_x
_atom_site_fract_y
_atom_site_fract_z
Si Si1 0.000000 0.906600 0.250000
Si Si2 0.625967 0.000000 0.500000
Si Si3 0.846690 0.338669 0.128195
Si Si4 0.230875 0.317667 0.643333
Si Si5 0.139832 0.822160 0.877745
Si Si6 0.500000 0.150382 0.750000
O O1 0.888610 0.806136 0.173840
O O2 0.927476 0.007137 0.361331
O O3 0.725633 0.154479 0.473506
O O4 0.532875 0.042107 0.626100
O O5 0.828621 0.512910 0.180763
O O6 0.797167 0.223858 0.239205
O O7 0.015569 0.304087 0.085947
O O8 0.741758 0.311816 0.008622
O O9 0.373282 0.270382 0.718507
#
# Coordination Sequence:
#
# PCOD8155404 Si02
#       6
#     2   2   4   4   4   2
#     4  10  18  36  74  94 138 168 238 296 328 406
#     4  12  26  48  68 108 142 188 238 290 352 422
#     4   9  22  40  72  97 137 173 233 295 353 404
#     4  11  22  44  64 105 137 184 231 283 355 417
#     4  10  21  42  68 109 124 179 235 299 354 389
#     4  12  30  44  72 102 152 192 228 282 358 434
#
# _framework density 21.448692999999999
#
# number of rings (size 3 to 8) (size 9 to 14) (size 15 to 20)
#    0.000    1.778    2.222    2.667    3.111    2.667 
#    8.000    0.000    0.000    0.000    0.000    0.000 
#    0.000    0.000    0.000    0.000    0.000    0.000 
#
# Total GULP energy -223046.912437 kJ/mol
# GULP energy per Si atom -12391.495135 kJ/mol
# Density = 2.139988 g / cm^3
# Si number density = 21.448693 Si / 1000 Ang^3
#
#
#
# Elastic Constant Matrix: (Units=GPa)
#
#
# Indices 1 2 3 4 5 6 
#
# 1 64.8071 65.6025 52.2656 0.0000 0.0000 0.0000
# 2 65.6025 132.1853 36.0304 0.0000 0.0000 0.0000
# 3 52.2656 36.0304 107.8136 0.0000 0.0000 0.0000
# 4 0.0000 0.0000 0.0000 45.2181 0.0000 0.0000
# 5 0.0000 0.0000 0.0000 0.0000 41.7118 0.0000
# 6 0.0000 0.0000 0.0000 0.0000 0.0000 32.8899
#
#
#
# Elastic Compliance Matrix: (Units=1/GPa)
#
#
# Indices 1 2 3 4 5 6 
#
# 1 0.049543 -0.019850 -0.017384 0.000000 0.000000 0.000000
# 2 -0.019850 0.016276 0.004183 0.000000 0.000000 0.000000
# 3 -0.017384 0.004183 0.016305 0.000000 0.000000 0.000000
# 4 0.000000 0.000000 0.000000 0.022115 0.000000 0.000000
# 5 0.000000 0.000000 0.000000 0.000000 0.023974 0.000000
# 6 0.000000 0.000000 0.000000 0.000000 0.000000 0.030404
#
#
# Mechanical properties :
#
#
# Convention : Reuss Voigt Hill
#
# Bulk Modulus (GPa) = 62.40797 68.06702 65.23750
# Shear Modulus (GPa) = 21.73354 34.02447 27.87900
#
# Velocity S-wave (km/s) = 3.18666 3.98718 3.60918
# Velocity P-wave (km/s) = 6.53447 7.28015 6.91736
#
# Compressibility (1/GPa) = 0.01602359
#
# Stress axis : x y z
#
# Youngs Moduli (GPa) = 20.18433 61.43998 61.33238
#
# Poissons Ratio (x) = 1.21956 1.06620
# Poissons Ratio (y) = 0.40065 -0.25657
# Poissons Ratio (z) = 0.35088 -0.25702
#
# Static dielectric constant tensor:
#      x y z
#    x 3.655870 0.000000 0.000000 
#    y 0.000000 3.931770 0.000000 
#    z 0.000000 0.000000 4.051280 
# 
# 
# High freq. dielectric constant tensor:
#      x y z
#    x 1.818000 0.000000 0.000000 
#    y 0.000000 1.839930 0.000000 
#    z 0.000000 0.000000 1.857050 
# 
# From -- ./inp_files/6340.got.cif
#   From: 2010.03.12/outbox.cif.g09.slc.cpg/sg17_4_cif.got.tgz:6340.got - 2010.04.10 18:46:23.
