data_PCOD8155937
_publ_section_title
;
Structure prediction by ZEFSAII (Michael W. Deem and Ramdas Pophale) SiO2 
 PCOD8155937
Probable space group: P 21 21 2
;
_chemical_formula_sum "Si O2"
_cell_formula_units_Z 32
_cell_length_a 28.925578
_cell_length_b 9.249601
_cell_length_c 5.363080
_cell_angle_alpha 90.000000
_cell_angle_beta 90.000000
_cell_angle_gamma 90.000000
_cell_volume 1434.892350
_symmetry_space_group_name_H-M "P 21 21 2"
_symmetry_group_IT_number 18
_symmetry_cell_setting 'orthorhombic'
loop_
_space_group_symop_operation_xyz
x,y,z
-x,-y,z
1/2+x,1/2-y,-z
1/2-x,1/2+y,-z
loop_
_atom_site_type_symbol
_atom_site_label
_atom_site_fract_x
_atom_site_fract_y
_atom_site_fract_z
Si Si1 0.315977 0.702561 0.021574
Si Si2 0.045206 0.688279 0.225350
Si Si3 0.325055 0.387238 0.071924
Si Si4 0.442570 0.848571 0.771341
Si Si5 0.771309 0.611159 0.344763
Si Si6 0.775485 0.299764 0.262325
Si Si7 0.402517 0.207873 0.277602
Si Si8 0.890151 0.633162 0.726544
O O1 0.342475 0.547805 0.991103
O O2 0.315342 0.803646 0.774542
O O3 0.339096 0.795607 0.248252
O O4 0.261911 0.660176 0.050505
O O5 0.048100 0.517297 0.232874
O O6 0.068060 0.746354 0.970418
O O7 0.991470 0.735687 0.230198
O O8 0.069396 0.750404 0.474079
O O9 0.322464 0.275917 0.836819
O O10 0.358067 0.313484 0.277085
O O11 0.273141 0.398257 0.168598
O O12 0.416111 0.807738 0.025416
O O13 0.414293 0.805134 0.522429
O O14 0.789493 0.447708 0.404339
O O15 0.754994 0.685238 0.592119
O O16 0.387106 0.040436 0.277482
#
# Coordination Sequence:
#
# PCOD8155937 Si02
#       8
#     4   4   4   4   4   4   4   4
#     4  10  22  38  54  80 114 152 193 238 289 343
#     4   9  18  34  57  85 115 147 189 241 293 343
#     4  10  22  38  54  80 114 152 193 238 289 343
#     4   9  18  34  57  85 115 147 189 241 293 343
#     4  10  21  37  58  81 111 151 193 239 289 345
#     4  10  21  37  58  81 111 151 193 239 289 345
#     4  10  20  34  57  87 114 149 193 241 289 343
#     4  10  20  34  57  87 114 149 193 241 289 343
#
# _framework density 22.301324999999999
#
# number of rings (size 3 to 8) (size 9 to 14) (size 15 to 20)
#    0.000    2.250    0.000    2.250    3.500    6.000 
#    0.000    0.000    0.000    4.500    0.000    0.000 
#    0.000    0.000    0.000    0.000    0.000    0.000 
#
# Total GULP energy -396503.900128 kJ/mol
# GULP energy per Si atom -12390.746879 kJ/mol
# Density = 2.225057 g / cm^3
# Si number density = 22.301325 Si / 1000 Ang^3
#
#
#
# Elastic Constant Matrix: (Units=GPa)
#
#
# Indices 1 2 3 4 5 6 
#
# 1 44.0798 24.2338 11.3990 0.0000 0.0000 0.0000
# 2 24.2338 72.6120 4.8511 0.0000 0.0000 0.0000
# 3 11.3990 4.8511 102.3148 0.0000 0.0000 0.0000
# 4 0.0000 0.0000 0.0000 17.0975 0.0000 0.0000
# 5 0.0000 0.0000 0.0000 0.0000 27.4343 0.0000
# 6 0.0000 0.0000 0.0000 0.0000 0.0000 17.6022
#
#
#
# Elastic Compliance Matrix: (Units=1/GPa)
#
#
# Indices 1 2 3 4 5 6 
#
# 1 0.028527 -0.009338 -0.002736 0.000000 0.000000 0.000000
# 2 -0.009338 0.016872 0.000240 0.000000 0.000000 0.000000
# 3 -0.002736 0.000240 0.010067 0.000000 0.000000 0.000000
# 4 0.000000 0.000000 0.000000 0.058488 0.000000 0.000000
# 5 0.000000 0.000000 0.000000 0.000000 0.036451 0.000000
# 6 0.000000 0.000000 0.000000 0.000000 0.000000 0.056811
#
#
# Mechanical properties :
#
#
# Convention : Reuss Voigt Hill
#
# Bulk Modulus (GPa) = 31.44617 33.33048 32.38833
# Shear Modulus (GPa) = 20.70537 24.32830 22.51684
#
# Velocity S-wave (km/s) = 3.05033 3.30645 3.18097
# Velocity P-wave (km/s) = 5.15143 5.43643 5.29585
#
# Compressibility (1/GPa) = 0.03180037
#
# Stress axis : x y z
#
# Youngs Moduli (GPa) = 35.05413 59.26880 99.33320
#
# Poissons Ratio (x) = 0.55346 0.27173
# Poissons Ratio (y) = 0.32734 -0.02388
# Poissons Ratio (z) = 0.09589 -0.01425
#
# Static dielectric constant tensor:
#      x y z
#    x 4.129250 0.000000 0.000000 
#    y 0.000000 4.119730 0.000000 
#    z 0.000000 0.000000 4.020970 
# 
# 
# High freq. dielectric constant tensor:
#      x y z
#    x 1.871400 0.000000 0.000000 
#    y 0.000000 1.851990 0.000000 
#    z 0.000000 0.000000 1.878010 
# 
# From -- ./inp_files/2297.got.cif
#   From: 2010.03.12/outbox.cif.g09.slc.cpg/sg18_2_cif.got.tgz:2297.got - 2010.04.10 18:53:55.
