data_PCOD8155741
_publ_section_title
;
Structure prediction by ZEFSAII (Michael W. Deem and Ramdas Pophale) SiO2 
 PCOD8155741
Probable space group: P 2 2 21
;
_chemical_formula_sum "Si O2"
_cell_formula_units_Z 20
_cell_length_a 13.259051
_cell_length_b 7.955027
_cell_length_c 8.153059
_cell_angle_alpha 90.000000
_cell_angle_beta 90.000000
_cell_angle_gamma 90.000000
_cell_volume 859.952937
_symmetry_space_group_name_H-M "P 2 2 21"
_symmetry_group_IT_number 17
_symmetry_cell_setting 'orthorhombic'
loop_
_space_group_symop_operation_xyz
x,y,z
-x,-y,1/2+z
x,-y,-z
-x,y,1/2-z
loop_
_atom_site_type_symbol
_atom_site_label
_atom_site_fract_x
_atom_site_fract_y
_atom_site_fract_z
Si Si1 0.363134 0.000000 0.000000
Si Si2 0.871616 0.305010 0.011694
Si Si3 0.500000 0.199389 0.250000
Si Si4 0.815379 0.812315 0.338619
Si Si5 0.314434 0.394525 0.335582
Si Si6 0.238203 0.500000 0.000000
Si Si7 0.018505 0.000000 0.000000
O O1 0.294084 0.112993 0.881906
O O2 0.435429 0.900530 0.880534
O O3 0.815140 0.262039 0.842184
O O4 0.956299 0.165992 0.050742
O O5 0.913450 0.500000 0.000000
O O6 0.787215 0.279081 0.155342
O O7 0.421241 0.305696 0.356399
O O8 0.833271 0.661173 0.469958
O O9 0.906731 0.946577 0.350704
O O10 0.299140 0.500000 0.500000
O O11 0.311492 0.486824 0.159458
#
# Coordination Sequence:
#
# PCOD8155741 Si02
#       7
#     2   4   2   4   4   2   2
#     4  11  28  45  72 112 152 199 256 315 390 460
#     4  11  25  50  75 112 156 202 255 321 383 460
#     4  12  28  44  74 110 146 206 254 320 384 458
#     4  11  25  50  72 111 155 200 253 319 385 459
#     4  11  26  47  75 111 149 202 256 321 381 454
#     4  12  22  48  78 106 154 200 256 322 380 454
#     4  11  28  45  80 116 154 207 256 309 394 472
#
# _framework density 23.257086000000001
#
# number of rings (size 3 to 8) (size 9 to 14) (size 15 to 20)
#    0.000    0.800    6.000    0.600    8.400    1.600 
#    0.000    0.000    0.000    0.000    0.000    0.000 
#    0.000    0.000    0.000    0.000    0.000    0.000 
#
# Total GULP energy -247814.738053 kJ/mol
# GULP energy per Si atom -12390.736903 kJ/mol
# Density = 2.320415 g / cm^3
# Si number density = 23.257086 Si / 1000 Ang^3
#
#
#
# Elastic Constant Matrix: (Units=GPa)
#
#
# Indices 1 2 3 4 5 6 
#
# 1 169.1864 80.1540 53.3705 0.0000 0.0000 0.0000
# 2 80.1540 136.7756 51.4368 0.0000 0.0000 0.0000
# 3 53.3705 51.4368 148.9728 0.0000 0.0000 0.0000
# 4 0.0000 0.0000 0.0000 26.5857 0.0000 0.0000
# 5 0.0000 0.0000 0.0000 0.0000 34.0870 0.0000
# 6 0.0000 0.0000 0.0000 0.0000 0.0000 32.7386
#
#
#
# Elastic Compliance Matrix: (Units=1/GPa)
#
#
# Indices 1 2 3 4 5 6 
#
# 1 0.008471 -0.004393 -0.001518 0.000000 0.000000 0.000000
# 2 -0.004393 0.010681 -0.002114 0.000000 0.000000 0.000000
# 3 -0.001518 -0.002114 0.007986 0.000000 0.000000 0.000000
# 4 0.000000 0.000000 0.000000 0.037614 0.000000 0.000000
# 5 0.000000 0.000000 0.000000 0.000000 0.029337 0.000000
# 6 0.000000 0.000000 0.000000 0.000000 0.000000 0.030545
#
#
# Mechanical properties :
#
#
# Convention : Reuss Voigt Hill
#
# Bulk Modulus (GPa) = 90.18882 91.65081 90.91982
# Shear Modulus (GPa) = 34.63088 36.68049 35.65568
#
# Velocity S-wave (km/s) = 3.86300 3.97567 3.91974
# Velocity P-wave (km/s) = 7.66553 7.78254 7.72425
#
# Compressibility (1/GPa) = 0.01108785
#
# Stress axis : x y z
#
# Youngs Moduli (GPa) = 118.05218 93.62588 125.21473
#
# Poissons Ratio (x) = 0.41133 0.19005
# Poissons Ratio (y) = 0.51864 0.26469
# Poissons Ratio (z) = 0.17918 0.19791
#
# Static dielectric constant tensor:
#      x y z
#    x 4.336110 0.000000 0.000000 
#    y 0.000000 4.419280 0.000000 
#    z 0.000000 0.000000 5.298110 
# 
# 
# High freq. dielectric constant tensor:
#      x y z
#    x 1.921600 0.000000 0.000000 
#    y 0.000000 1.925680 0.000000 
#    z 0.000000 0.000000 1.929310 
# 
# From -- ./inp_files/4683.got.cif
#   From: 2010.03.12/outbox.cif.g09.slc.cpg/sg17_3_cif.got.tgz:4683.got - 2010.04.10 18:46:23.
