data_PCOD8155761
_publ_section_title
;
Structure prediction by ZEFSAII (Michael W. Deem and Ramdas Pophale) SiO2 
 PCOD8155761
Probable space group: P 2 2 21
;
_chemical_formula_sum "Si O2"
_cell_formula_units_Z 20
_cell_length_a 8.606542
_cell_length_b 8.309087
_cell_length_c 12.127976
_cell_angle_alpha 90.000000
_cell_angle_beta 90.000000
_cell_angle_gamma 90.000000
_cell_volume 867.301959
_symmetry_space_group_name_H-M "P 2 2 21"
_symmetry_group_IT_number 17
_symmetry_cell_setting 'orthorhombic'
loop_
_space_group_symop_operation_xyz
x,y,z
-x,-y,1/2+z
x,-y,-z
-x,y,1/2-z
loop_
_atom_site_type_symbol
_atom_site_label
_atom_site_fract_x
_atom_site_fract_y
_atom_site_fract_z
Si Si1 0.516120 0.278240 0.873237
Si Si2 0.799699 0.578284 0.389782
Si Si3 0.832085 0.674132 0.791153
Si Si4 0.753411 0.500000 0.000000
Si Si5 0.737377 0.002677 0.873990
Si Si6 0.000000 0.802279 0.250000
O O1 0.500000 0.347551 0.750000
O O2 0.347176 0.309758 0.925326
O O3 0.568537 0.090211 0.869463
O O4 0.646344 0.365466 0.944260
O O5 0.865110 0.500000 0.500000
O O6 0.752881 0.440786 0.300209
O O7 0.937397 0.689392 0.346617
O O8 0.721287 0.825490 0.820081
O O9 0.000000 0.735020 0.750000
O O10 0.859780 0.575982 0.904542
O O11 0.860271 0.095703 0.798916
O O12 0.798024 0.000000 0.000000
#
# Coordination Sequence:
#
# PCOD8155761 Si02
#       6
#     4   4   4   2   4   2
#     4  12  24  49  71 105 150 195 247 305 372 450
#     4  12  28  47  76 113 148 200 262 313 370 455
#     4  12  27  46  77 114 147 199 259 314 383 458
#     4  12  24  48  78 106 148 202 258 316 376 442
#     4  12  27  47  73 107 156 197 244 311 393 449
#     4  12  26  46  74 110 156 192 248 322 382 452
#
# _framework density 23.060017999999999
#
# number of rings (size 3 to 8) (size 9 to 14) (size 15 to 20)
#    0.000    0.000    9.000    0.000    4.200    0.000 
#    7.200    1.000    0.000    0.000    0.000    0.000 
#    0.000    0.000    0.000    0.000    0.000    0.000 
#
# Total GULP energy -247981.567163 kJ/mol
# GULP energy per Si atom -12399.078358 kJ/mol
# Density = 2.300753 g / cm^3
# Si number density = 23.060018 Si / 1000 Ang^3
#
#
#
# Elastic Constant Matrix: (Units=GPa)
#
#
# Indices 1 2 3 4 5 6 
#
# 1 72.6223 37.4984 18.6874 0.0000 0.0000 0.0000
# 2 37.4984 139.8429 47.2466 0.0000 0.0000 0.0000
# 3 18.6874 47.2466 154.0907 0.0000 0.0000 0.0000
# 4 0.0000 0.0000 0.0000 22.1907 0.0000 0.0000
# 5 0.0000 0.0000 0.0000 0.0000 32.7634 0.0000
# 6 0.0000 0.0000 0.0000 0.0000 0.0000 22.2248
#
#
#
# Elastic Compliance Matrix: (Units=1/GPa)
#
#
# Indices 1 2 3 4 5 6 
#
# 1 0.016050 -0.004067 -0.000699 0.000000 0.000000 0.000000
# 2 -0.004067 0.009008 -0.002269 0.000000 0.000000 0.000000
# 3 -0.000699 -0.002269 0.007270 0.000000 0.000000 0.000000
# 4 0.000000 0.000000 0.000000 0.045064 0.000000 0.000000
# 5 0.000000 0.000000 0.000000 0.000000 0.030522 0.000000
# 6 0.000000 0.000000 0.000000 0.000000 0.000000 0.044995
#
#
# Mechanical properties :
#
#
# Convention : Reuss Voigt Hill
#
# Bulk Modulus (GPa) = 54.77301 63.71341 59.24321
# Shear Modulus (GPa) = 28.89080 32.97737 30.93408
#
# Velocity S-wave (km/s) = 3.54341 3.78572 3.66657
# Velocity P-wave (km/s) = 6.36749 6.84093 6.60845
#
# Compressibility (1/GPa) = 0.01825717
#
# Stress axis : x y z
#
# Youngs Moduli (GPa) = 62.30503 111.01164 137.54932
#
# Poissons Ratio (x) = 0.45154 0.09619
# Poissons Ratio (y) = 0.25343 0.31206
# Poissons Ratio (z) = 0.04357 0.25185
#
# Static dielectric constant tensor:
#      x y z
#    x 3.999420 0.000000 0.000000 
#    y 0.000000 4.381730 0.000000 
#    z 0.000000 0.000000 4.607160 
# 
# 
# High freq. dielectric constant tensor:
#      x y z
#    x 1.900460 0.000000 0.000000 
#    y 0.000000 1.912620 0.000000 
#    z 0.000000 0.000000 1.926210 
# 
# From -- ./inp_files/6429.got.cif
#   From: 2010.03.12/outbox.cif.g09.slc.cpg/sg17_4_cif.got.tgz:6429.got - 2010.04.10 18:46:23.
