data_PCOD8155360
_publ_section_title
;
Structure prediction by ZEFSAII (Michael W. Deem and Ramdas Pophale) SiO2 
 PCOD8155360
Probable space group: P 2 2 21
;
_chemical_formula_sum "Si O2"
_cell_formula_units_Z 32
_cell_length_a 12.387472
_cell_length_b 15.569076
_cell_length_c 10.411977
_cell_angle_alpha 90.000000
_cell_angle_beta 90.000000
_cell_angle_gamma 90.000000
_cell_volume 2008.069429
_symmetry_space_group_name_H-M "P 2 2 21"
_symmetry_group_IT_number 17
_symmetry_cell_setting 'orthorhombic'
loop_
_space_group_symop_operation_xyz
x,y,z
-x,-y,1/2+z
x,-y,-z
-x,y,1/2-z
loop_
_atom_site_type_symbol
_atom_site_label
_atom_site_fract_x
_atom_site_fract_y
_atom_site_fract_z
Si Si1 0.258955 0.858517 0.865484
Si Si2 0.626771 0.698106 0.247995
Si Si3 0.371091 0.701245 0.753515
Si Si4 0.432797 0.002125 0.867417
Si Si5 0.728842 0.856839 0.351321
Si Si6 0.376528 0.405336 0.002128
Si Si7 0.097570 0.001654 0.152074
Si Si8 0.629839 0.404091 0.006561
O O1 0.307487 0.792130 0.761933
O O2 0.334985 0.938836 0.894175
O O3 0.149354 0.904360 0.816351
O O4 0.247215 0.816547 0.007230
O O5 0.500000 0.724784 0.250000
O O6 0.709490 0.778371 0.252957
O O7 0.652444 0.638773 0.369096
O O8 0.659857 0.646645 0.121552
O O9 0.500000 0.718884 0.750000
O O10 0.332554 0.647625 0.876914
O O11 0.328353 0.650421 0.628743
O O12 0.500000 0.965868 0.750000
O O13 0.387188 0.096399 0.840927
O O14 0.503261 0.000000 0.000000
O O15 0.824254 0.921695 0.312079
O O16 0.503266 0.414431 0.022815
O O17 0.323689 0.500000 0.000000
O O18 0.000000 0.990665 0.250000
O O19 0.065325 0.000000 0.000000
O O20 0.681797 0.500000 0.000000
#
# Coordination Sequence:
#
# PCOD8155360 Si02
#       8
#     4   4   4   4   4   4   4   4
#     4   9  17  31  48  65  89 121 153 183 223 272
#     4  10  17  27  43  64  95 127 162 192 219 260
#     4  10  17  27  43  64  95 127 162 192 219 260
#     4   9  17  29  42  60  90 125 153 177 212 260
#     4   9  17  31  48  65  89 121 153 183 223 272
#     4   9  16  26  42  59  85 130 168 191 217 262
#     4   9  19  37  56  70  90 115 143 189 238 284
#     4   9  18  28  38  61  95 130 160 193 229 250
#
# _framework density 15.935703999999999
#
# number of rings (size 3 to 8) (size 9 to 14) (size 15 to 20)
#    0.000    2.750    1.250    3.000    0.000    3.000 
#    4.500    1.250    0.000    0.000    0.000    0.000 
#    0.000    6.000    0.000    0.000    0.000    0.000 
#
# Total GULP energy -396452.592364 kJ/mol
# GULP energy per Si atom -12389.143511 kJ/mol
# Density = 1.589943 g / cm^3
# Si number density = 15.935704 Si / 1000 Ang^3
#
#
#
# Elastic Constant Matrix: (Units=GPa)
#
#
# Indices 1 2 3 4 5 6 
#
# 1 44.8499 31.1012 35.4362 0.0000 0.0000 0.0000
# 2 31.1012 115.0474 56.4471 0.0000 0.0000 0.0000
# 3 35.4362 56.4471 125.5147 0.0000 0.0000 0.0000
# 4 0.0000 0.0000 0.0000 24.3884 0.0000 0.0000
# 5 0.0000 0.0000 0.0000 0.0000 17.7754 0.0000
# 6 0.0000 0.0000 0.0000 0.0000 0.0000 7.5514
#
#
#
# Elastic Compliance Matrix: (Units=1/GPa)
#
#
# Indices 1 2 3 4 5 6 
#
# 1 0.030978 -0.005239 -0.006390 0.000000 0.000000 0.000000
# 2 -0.005239 0.012039 -0.003935 0.000000 0.000000 0.000000
# 3 -0.006390 -0.003935 0.011541 0.000000 0.000000 0.000000
# 4 0.000000 0.000000 0.000000 0.041003 0.000000 0.000000
# 5 0.000000 0.000000 0.000000 0.000000 0.056258 0.000000
# 6 0.000000 0.000000 0.000000 0.000000 0.000000 0.132426
#
#
# Mechanical properties :
#
#
# Convention : Reuss Voigt Hill
#
# Bulk Modulus (GPa) = 42.68035 59.04235 50.86135
# Shear Modulus (GPa) = 15.47108 20.77153 18.12131
#
# Velocity S-wave (km/s) = 3.11922 3.61426 3.37583
# Velocity P-wave (km/s) = 6.30981 7.38566 6.86883
#
# Compressibility (1/GPa) = 0.02342998
#
# Stress axis : x y z
#
# Youngs Moduli (GPa) = 32.28049 83.06206 86.64828
#
# Poissons Ratio (x) = 0.43520 0.55366
# Poissons Ratio (y) = 0.16913 0.34097
# Poissons Ratio (z) = 0.20626 0.32686
#
# Static dielectric constant tensor:
#      x y z
#    x 2.506370 0.000000 0.000000 
#    y 0.000000 3.138240 0.000000 
#    z 0.000000 0.000000 3.149400 
# 
# 
# High freq. dielectric constant tensor:
#      x y z
#    x 1.540680 0.000000 0.000000 
#    y 0.000000 1.622890 0.000000 
#    z 0.000000 0.000000 1.620620 
# 
# From -- ./inp_files/5312.got.cif
#   From: 2010.03.12/outbox.cif.g09.slc.cpg/sg17_3_cif.got.tgz:5312.got - 2010.04.10 18:46:23.
