data_PCOD8155510
_publ_section_title
;
Structure prediction by ZEFSAII (Michael W. Deem and Ramdas Pophale) SiO2 
 PCOD8155510
Probable space group: P 2 2 21
;
_chemical_formula_sum "Si O2"
_cell_formula_units_Z 24
_cell_length_a 5.465931
_cell_length_b 12.943119
_cell_length_c 16.207927
_cell_angle_alpha 90.000000
_cell_angle_beta 90.000000
_cell_angle_gamma 90.000000
_cell_volume 1146.649170
_symmetry_space_group_name_H-M "P 2 2 21"
_symmetry_group_IT_number 17
_symmetry_cell_setting 'orthorhombic'
loop_
_space_group_symop_operation_xyz
x,y,z
-x,-y,1/2+z
x,-y,-z
-x,y,1/2-z
loop_
_atom_site_type_symbol
_atom_site_label
_atom_site_fract_x
_atom_site_fract_y
_atom_site_fract_z
Si Si1 0.340346 0.694175 0.378088
Si Si2 0.496514 0.470891 0.347062
Si Si3 0.000000 0.208973 0.750000
Si Si4 0.408480 0.000000 0.500000
Si Si5 0.000425 0.643616 0.847250
Si Si6 0.081553 0.802406 0.520670
Si Si7 0.710976 0.868549 0.392990
O O1 0.476279 0.584839 0.385071
O O2 0.165065 0.707649 0.298858
O O3 0.203995 0.713769 0.464407
O O4 0.539677 0.779290 0.360820
O O5 0.500000 0.480172 0.250000
O O6 0.751665 0.417007 0.376156
O O7 0.248956 0.413175 0.375334
O O8 0.895428 0.124477 0.684196
O O9 0.251564 0.902559 0.529881
O O10 0.563998 0.972420 0.417110
O O11 0.000000 0.663242 0.750000
O O12 0.991200 0.755121 0.891119
O O13 0.832121 0.837807 0.479074
#
# Coordination Sequence:
#
# PCOD8155510 Si02
#       7
#     4   4   2   2   4   4   4
#     4  10  22  37  64  98 134 173 214 274 325 398
#     4  10  22  39  64  95 134 180 216 265 327 390
#     4  10  20  36  66  98 132 168 220 272 340 388
#     4  10  22  42  70  88 128 176 214 278 350 392
#     4  10  24  43  67  93 136 178 222 268 322 397
#     4  10  23  42  66  95 126 173 221 278 337 391
#     4  10  21  39  66  93 130 171 211 280 335 404
#
# _framework density 20.930553
#
# number of rings (size 3 to 8) (size 9 to 14) (size 15 to 20)
#    0.000    2.000    0.000    2.000   12.833    0.667 
#    0.000    0.000   44.000    0.000    0.000    0.000 
#    0.000    0.000    0.000    0.000    0.000    0.000 
#
# Total GULP energy -297397.782873 kJ/mol
# GULP energy per Si atom -12391.574286 kJ/mol
# Density = 2.088291 g / cm^3
# Si number density = 20.930553 Si / 1000 Ang^3
#
#
#
# Elastic Constant Matrix: (Units=GPa)
#
#
# Indices 1 2 3 4 5 6 
#
# 1 133.8992 53.7202 42.2103 0.0000 0.0000 0.0000
# 2 53.7202 122.6959 61.5567 0.0000 0.0000 0.0000
# 3 42.2103 61.5567 86.7192 0.0000 0.0000 0.0000
# 4 0.0000 0.0000 0.0000 27.6279 0.0000 0.0000
# 5 0.0000 0.0000 0.0000 0.0000 24.6707 0.0000
# 6 0.0000 0.0000 0.0000 0.0000 0.0000 379.4643
#
#
#
# Elastic Compliance Matrix: (Units=1/GPa)
#
#
# Indices 1 2 3 4 5 6 
#
# 1 0.009415 -0.002831 -0.002573 0.000000 0.000000 0.000000
# 2 -0.002831 0.013510 -0.008211 0.000000 0.000000 0.000000
# 3 -0.002573 -0.008211 0.018613 0.000000 0.000000 0.000000
# 4 0.000000 0.000000 0.000000 0.036195 0.000000 0.000000
# 5 0.000000 0.000000 0.000000 0.000000 0.040534 0.000000
# 6 0.000000 0.000000 0.000000 0.000000 0.000000 0.002635
#
#
# Mechanical properties :
#
#
# Convention : Reuss Voigt Hill
#
# Bulk Modulus (GPa) = 69.90159 73.14318 71.52238
# Shear Modulus (GPa) = 32.70052 98.74106 65.72079
#
# Velocity S-wave (km/s) = 3.95693 6.87590 5.60960
# Velocity P-wave (km/s) = 7.37196 9.90247 8.72939
#
# Compressibility (1/GPa) = 0.01430583
#
# Stress axis : x y z
#
# Youngs Moduli (GPa) = 106.20883 74.02118 53.72672
#
# Poissons Ratio (x) = 0.20959 0.13824
# Poissons Ratio (y) = 0.30073 0.44118
# Poissons Ratio (z) = 0.27328 0.60782
#
# Static dielectric constant tensor:
#      x y z
#    x 4.457670 0.000000 0.000000 
#    y 0.000000 3.603260 0.000000 
#    z 0.000000 0.000000 3.655840 
# 
# 
# High freq. dielectric constant tensor:
#      x y z
#    x 1.841940 0.000000 0.000000 
#    y 0.000000 1.800710 0.000000 
#    z 0.000000 0.000000 1.813660 
# 
# From -- ./inp_files/9050.got.cif
#   From: 2010.03.12/outbox.cif.g09.slc.cpg/sg17_5_cif.got.tgz:9050.got - 2010.04.10 18:46:23.
