data_PCOD8155027
_publ_section_title
;
Structure prediction by ZEFSAII (Michael W. Deem and Ramdas Pophale) SiO2 
 PCOD8155027
Probable space group: C 2/C
;
_chemical_formula_sum "Si O2"
_cell_formula_units_Z 40
_cell_length_a 17.063819
_cell_length_b 17.382842
_cell_length_c 11.433352
_cell_angle_alpha 90.000000
_cell_angle_beta 29.718986
_cell_angle_gamma 90.000000
_cell_volume 1681.241999
_symmetry_space_group_name_H-M "C 2/C"
_symmetry_group_IT_number 15
_symmetry_cell_setting 'monoclinic'
loop_
_space_group_symop_operation_xyz
x,y,z
-x,y,1/2-z
-x,-y,-z
x,-y,1/2+z
1/2+x,1/2+y,z
1/2-x,1/2+y,1/2-z
1/2-x,1/2-y,-z
1/2+x,1/2-y,1/2+z
loop_
_atom_site_type_symbol
_atom_site_label
_atom_site_fract_x
_atom_site_fract_y
_atom_site_fract_z
Si Si1 0.472394 0.341541 0.020498
Si Si2 0.922945 0.417751 0.586333
Si Si3 0.237874 0.407268 0.944669
Si Si4 0.660272 0.437065 0.097926
Si Si5 0.681492 0.193788 0.741033
O O1 0.379371 0.370606 0.256020
O O2 0.348580 0.309383 0.088532
O O3 0.577511 0.411552 0.835538
O O4 0.612546 0.278571 0.850688
O O5 0.890763 0.399931 0.491440
O O6 0.000000 0.500000 0.500000
O O7 0.054855 0.361158 0.467044
O O8 0.761226 0.398466 0.863494
O O9 0.224071 0.493512 0.013450
O O10 0.207119 0.336638 0.074582
O O11 0.500000 0.470189 0.250000
#
# Coordination Sequence:
#
# PCOD8155027 Si02
#       5
#     8   8   8   8   8
#     4  12  27  48  74 107 151 197 250 307 379 444
#     4  12  26  47  75 113 149 196 250 309 376 441
#     4  12  25  47  77 109 150 193 254 309 368 445
#     4  12  26  47  78 108 150 195 251 310 371 447
#     4  12  27  47  75 107 149 198 248 308 374 447
#
# _framework density 23.791934999999999
#
# number of rings (size 3 to 8) (size 9 to 14) (size 15 to 20)
#    0.000    0.000    4.000    6.000    0.000    4.800 
#    0.000    0.000    0.000    0.000    0.000    0.000 
#    0.000    0.000    0.000    0.000    0.000    0.000 
#
# Total GULP energy -247906.379435 kJ/mol
# GULP energy per Si atom -12395.318972 kJ/mol
# Density = 2.373778 g / cm^3
# Si number density = 23.791935 Si / 1000 Ang^3
#
#
#
# Elastic Constant Matrix: (Units=GPa)
#
#
# Indices 1 2 3 4 5 6 
#
# 1 112.5745 31.2495 12.3040 -0.0035 -6.9420 0.0019
# 2 31.2495 77.8950 11.7171 -0.0027 13.8607 0.0023
# 3 12.3040 11.7171 110.0347 -0.0047 13.8663 0.0045
# 4 -0.0035 -0.0027 -0.0047 50.5772 0.0031 -4.3036
# 5 -6.9420 13.8607 13.8663 0.0031 53.0456 -0.0026
# 6 0.0019 0.0023 0.0045 -4.3036 -0.0026 32.5926
#
#
#
# Elastic Compliance Matrix: (Units=1/GPa)
#
#
# Indices 1 2 3 4 5 6 
#
# 1 0.010428 -0.004529 -0.001039 0.000000 0.002820 0.000000
# 2 -0.004529 0.015543 -0.000581 0.000001 -0.004502 -0.000001
# 3 -0.001039 -0.000581 0.009580 0.000001 -0.002488 -0.000001
# 4 0.000000 0.000001 0.000001 0.019996 -0.000001 0.002640
# 5 0.002820 -0.004502 -0.002488 -0.000001 0.021048 0.000002
# 6 0.000000 -0.000001 -0.000001 0.002640 0.000002 0.031030
#
#
# Mechanical properties :
#
#
# Convention : Reuss Voigt Hill
#
# Bulk Modulus (GPa) = 43.00687 45.67170 44.33929
# Shear Modulus (GPa) = 39.16228 43.59197 41.37713
#
# Velocity S-wave (km/s) = 4.06153 4.28508 4.17480
# Velocity P-wave (km/s) = 6.33326 6.61215 6.47421
#
# Compressibility (1/GPa) = 0.02325210
#
# Stress axis : x y z
#
# Youngs Moduli (GPa) = 95.89967 64.33697 104.38737
#
# Poissons Ratio (x) = 0.29136 0.10847
# Poissons Ratio (y) = 0.43430 0.06069
# Poissons Ratio (z) = 0.09965 0.03740
#
# Static dielectric constant tensor:
#      x y z
#    x 4.200270 -0.000010 0.036830 
#    y -0.000010 3.244150 -0.000010 
#    z 0.036830 -0.000010 3.859510 
# 
# 
# High freq. dielectric constant tensor:
#      x y z
#    x 1.938700 0.000000 -0.013160 
#    y 0.000000 1.940380 0.000000 
#    z -0.013160 0.000000 1.974380 
# 
# From -- ./inp_files/29049.got.cif
#   From: 2010.06.25/outbox.cif.g09.slc.cpg/sg15_15_cif.got.tgz:29049.got - 2010.06.28 07:06:18.
