data_PCOD8155781
_publ_section_title
;
Structure prediction by ZEFSAII (Michael W. Deem and Ramdas Pophale) SiO2 
 PCOD8155781
Probable space group: P 21 21 2
;
_chemical_formula_sum "Si O2"
_cell_formula_units_Z 30
_cell_length_a 11.683693
_cell_length_b 12.756761
_cell_length_c 9.881879
_cell_angle_alpha 90.000000
_cell_angle_beta 90.000000
_cell_angle_gamma 90.000000
_cell_volume 1472.855320
_symmetry_space_group_name_H-M "P 21 21 2"
_symmetry_group_IT_number 18
_symmetry_cell_setting 'orthorhombic'
loop_
_space_group_symop_operation_xyz
x,y,z
-x,-y,z
1/2+x,1/2-y,-z
1/2-x,1/2+y,-z
loop_
_atom_site_type_symbol
_atom_site_label
_atom_site_fract_x
_atom_site_fract_y
_atom_site_fract_z
Si Si1 0.115989 0.146031 0.187050
Si Si2 0.883402 0.554721 0.896497
Si Si3 0.213072 0.235454 0.943589
Si Si4 0.255742 0.475860 0.645579
Si Si5 0.775101 0.988544 0.868752
Si Si6 0.000000 0.000000 0.970230
Si Si7 0.870484 0.460669 0.376162
Si Si8 0.385863 0.272604 0.725621
O O1 0.022894 0.217553 0.263443
O O2 0.165322 0.069232 0.299588
O O3 0.214920 0.213665 0.107402
O O4 0.050738 0.089088 0.065376
O O5 0.887959 0.679430 0.921816
O O6 0.855496 0.535080 0.740047
O O7 0.000000 0.500000 0.939902
O O8 0.784010 0.503301 0.986042
O O9 0.187816 0.133017 0.853862
O O10 0.332434 0.277914 0.878789
O O11 0.208532 0.507160 0.500506
O O12 0.329469 0.368269 0.640211
O O13 0.897757 0.048295 0.875003
O O14 0.688763 0.021840 0.750143
O O15 0.864632 0.335796 0.353908
O O16 0.000000 0.500000 0.392648
#
# Coordination Sequence:
#
# PCOD8155781 Si02
#       8
#     4   4   4   4   4   2   4   4
#     4  11  19  37  67  94 125 169 221 267 336 385
#     4  11  21  37  64  95 125 168 217 272 328 389
#     4   9  21  34  61  96 125 161 211 274 330 391
#     4  11  22  44  65  91 131 179 222 268 319 405
#     4  10  21  40  60  94 128 161 214 270 331 379
#     4  10  16  38  64  92 124 162 212 280 306 392
#     4  11  26  44  63  93 139 176 214 277 330 389
#     4  10  22  42  64  93 133 174 220 273 332 396
#
# _framework density 20.368600000000001
#
# number of rings (size 3 to 8) (size 9 to 14) (size 15 to 20)
#    0.000    1.600    4.000    1.600    5.600    1.067 
#    2.400    1.333    5.867    0.000    0.000    0.000 
#    0.000    0.000    0.000    0.000    0.000    0.000 
#
# Total GULP energy -371676.330058 kJ/mol
# GULP energy per Si atom -12389.211002 kJ/mol
# Density = 2.032224 g / cm^3
# Si number density = 20.368600 Si / 1000 Ang^3
#
#
#
# Elastic Constant Matrix: (Units=GPa)
#
#
# Indices 1 2 3 4 5 6 
#
# 1 111.2836 32.1211 38.7496 0.0000 0.0000 0.0000
# 2 32.1211 86.4156 41.5968 0.0000 0.0000 0.0000
# 3 38.7496 41.5968 98.3040 0.0000 0.0000 0.0000
# 4 0.0000 0.0000 0.0000 28.8808 0.0000 0.0000
# 5 0.0000 0.0000 0.0000 0.0000 33.0663 0.0000
# 6 0.0000 0.0000 0.0000 0.0000 0.0000 26.1239
#
#
#
# Elastic Compliance Matrix: (Units=1/GPa)
#
#
# Indices 1 2 3 4 5 6 
#
# 1 0.010821 -0.002473 -0.003219 0.000000 0.000000 0.000000
# 2 -0.002473 0.015097 -0.005414 0.000000 0.000000 0.000000
# 3 -0.003219 -0.005414 0.013732 0.000000 0.000000 0.000000
# 4 0.000000 0.000000 0.000000 0.034625 0.000000 0.000000
# 5 0.000000 0.000000 0.000000 0.000000 0.030242 0.000000
# 6 0.000000 0.000000 0.000000 0.000000 0.000000 0.038279
#
#
# Mechanical properties :
#
#
# Convention : Reuss Voigt Hill
#
# Bulk Modulus (GPa) = 57.34152 57.88201 57.61177
# Shear Modulus (GPa) = 29.27067 29.84992 29.56030
#
# Velocity S-wave (km/s) = 3.79496 3.83232 3.81368
# Velocity P-wave (km/s) = 6.88588 6.93262 6.90929
#
# Compressibility (1/GPa) = 0.01743937
#
# Stress axis : x y z
#
# Youngs Moduli (GPa) = 92.41617 66.23884 72.82202
#
# Poissons Ratio (x) = 0.16378 0.23442
# Poissons Ratio (y) = 0.22851 0.39422
# Poissons Ratio (z) = 0.29749 0.35859
#
# Static dielectric constant tensor:
#      x y z
#    x 4.217210 0.000000 0.000000 
#    y 0.000000 3.956000 0.000000 
#    z 0.000000 0.000000 3.531980 
# 
# 
# High freq. dielectric constant tensor:
#      x y z
#    x 1.798170 0.000000 0.000000 
#    y 0.000000 1.801580 0.000000 
#    z 0.000000 0.000000 1.770020 
# 
# From -- ./inp_files/3895.got.cif
#   From: 2010.03.12/outbox.cif.g09.slc.cpg/sg18_2_cif.got.tgz:3895.got - 2010.04.10 18:53:55.
