data_PCOD8155978
_publ_section_title
;
Structure prediction by ZEFSAII (Michael W. Deem and Ramdas Pophale) SiO2 
 PCOD8155978
Probable space group: P 21 21 2
;
_chemical_formula_sum "Si O2"
_cell_formula_units_Z 26
_cell_length_a 8.256316
_cell_length_b 14.712384
_cell_length_c 10.393384
_cell_angle_alpha 90.000000
_cell_angle_beta 90.000000
_cell_angle_gamma 90.000000
_cell_volume 1262.485305
_symmetry_space_group_name_H-M "P 21 21 2"
_symmetry_group_IT_number 18
_symmetry_cell_setting 'orthorhombic'
loop_
_space_group_symop_operation_xyz
x,y,z
-x,-y,z
1/2+x,1/2-y,-z
1/2-x,1/2+y,-z
loop_
_atom_site_type_symbol
_atom_site_label
_atom_site_fract_x
_atom_site_fract_y
_atom_site_fract_z
Si Si1 0.169485 0.967043 0.571143
Si Si2 0.874423 0.219382 0.647661
Si Si3 0.255149 0.665709 0.412979
Si Si4 0.500000 0.000000 0.179976
Si Si5 0.313476 0.255975 0.836682
Si Si6 0.160229 0.948948 0.277739
Si Si7 0.031095 0.698990 0.903256
O O1 0.226514 0.876853 0.649813
O O2 0.142844 0.927757 0.427891
O O3 0.281069 0.056881 0.575774
O O4 0.000000 0.000000 0.630723
O O5 0.804414 0.289808 0.544755
O O6 0.851520 0.267922 0.786678
O O7 0.059213 0.195798 0.609112
O O8 0.148677 0.697700 0.291261
O O9 0.666539 0.000074 0.262570
O O10 0.494368 0.090597 0.094562
O O11 0.346150 0.360100 0.807663
O O12 0.129194 0.243346 0.878258
O O13 0.419660 0.223480 0.954136
O O14 0.000000 0.000000 0.228231
#
# Coordination Sequence:
#
# PCOD8155978 Si02
#       7
#     4   4   4   2   4   4   4
#     4   9  18  35  60  88 119 151 202 258 311 375
#     4  10  20  38  60  89 117 157 200 258 310 373
#     4  10  20  37  62  88 121 157 201 258 313 367
#     4  10  22  40  60  90 126 160 214 262 300 376
#     4  10  22  40  60  89 124 164 205 256 314 380
#     4  10  20  37  65  93 120 166 211 254 318 381
#     4  10  23  40  61  86 125 162 205 258 316 367
#
# _framework density 20.594298999999999
#
# number of rings (size 3 to 8) (size 9 to 14) (size 15 to 20)
#    0.000    2.154    1.538    0.923    2.154    1.231 
#    5.538    0.769    0.000    0.000    0.000    0.000 
#    0.000    0.000    0.000    0.000    0.000    0.000 
#
# Total GULP energy -322134.415779 kJ/mol
# GULP energy per Si atom -12389.785222 kJ/mol
# Density = 2.054743 g / cm^3
# Si number density = 20.594299 Si / 1000 Ang^3
#
#
#
# Elastic Constant Matrix: (Units=GPa)
#
#
# Indices 1 2 3 4 5 6 
#
# 1 63.8744 26.4306 15.9988 0.0000 0.0000 0.0000
# 2 26.4306 126.9017 44.8546 0.0000 0.0000 0.0000
# 3 15.9988 44.8546 90.7372 0.0000 0.0000 0.0000
# 4 0.0000 0.0000 0.0000 27.4011 0.0000 0.0000
# 5 0.0000 0.0000 0.0000 0.0000 26.9260 0.0000
# 6 0.0000 0.0000 0.0000 0.0000 0.0000 24.0119
#
#
#
# Elastic Compliance Matrix: (Units=1/GPa)
#
#
# Indices 1 2 3 4 5 6 
#
# 1 0.017308 -0.003061 -0.001539 0.000000 0.000000 0.000000
# 2 -0.003061 0.010090 -0.004448 0.000000 0.000000 0.000000
# 3 -0.001539 -0.004448 0.013491 0.000000 0.000000 0.000000
# 4 0.000000 0.000000 0.000000 0.036495 0.000000 0.000000
# 5 0.000000 0.000000 0.000000 0.000000 0.037139 0.000000
# 6 0.000000 0.000000 0.000000 0.000000 0.000000 0.041646
#
#
# Mechanical properties :
#
#
# Convention : Reuss Voigt Hill
#
# Bulk Modulus (GPa) = 43.87248 50.67572 47.27410
# Shear Modulus (GPa) = 27.49349 28.61641 28.05495
#
# Velocity S-wave (km/s) = 3.65774 3.73168 3.69490
# Velocity P-wave (km/s) = 6.26005 6.57475 6.41933
#
# Compressibility (1/GPa) = 0.02279333
#
# Stress axis : x y z
#
# Youngs Moduli (GPa) = 57.77776 99.10948 74.12371
#
# Poissons Ratio (x) = 0.30337 0.11404
# Poissons Ratio (y) = 0.17686 0.32971
# Poissons Ratio (z) = 0.08889 0.44085
#
# Static dielectric constant tensor:
#      x y z
#    x 3.803870 0.000000 0.000000 
#    y 0.000000 4.175290 0.000000 
#    z 0.000000 0.000000 3.664190 
# 
# 
# High freq. dielectric constant tensor:
#      x y z
#    x 1.788640 0.000000 0.000000 
#    y 0.000000 1.821310 0.000000 
#    z 0.000000 0.000000 1.791400 
# 
# From -- ./inp_files/3393.got.cif
#   From: 2010.03.12/outbox.cif.g09.slc.cpg/sg18_2_cif.got.tgz:3393.got - 2010.04.10 18:53:55.
