data_PCOD8155503
_publ_section_title
;
Structure prediction by ZEFSAII (Michael W. Deem and Ramdas Pophale) SiO2 
 PCOD8155503
Probable space group: P 2 2 21
;
_chemical_formula_sum "Si O2"
_cell_formula_units_Z 32
_cell_length_a 12.759428
_cell_length_b 15.186378
_cell_length_c 8.879599
_cell_angle_alpha 90.000000
_cell_angle_beta 90.000000
_cell_angle_gamma 90.000000
_cell_volume 1720.595429
_symmetry_space_group_name_H-M "P 2 2 21"
_symmetry_group_IT_number 17
_symmetry_cell_setting 'orthorhombic'
loop_
_space_group_symop_operation_xyz
x,y,z
-x,-y,1/2+z
x,-y,-z
-x,y,1/2-z
loop_
_atom_site_type_symbol
_atom_site_label
_atom_site_fract_x
_atom_site_fract_y
_atom_site_fract_z
Si Si1 0.240599 0.342444 0.221459
Si Si2 0.615042 0.995774 0.681314
Si Si3 0.608871 0.501694 0.679708
Si Si4 0.883838 0.603640 0.458965
Si Si5 0.736629 0.344479 0.787758
Si Si6 0.615269 0.817939 0.817861
Si Si7 0.115193 0.396759 0.476046
Si Si8 0.614875 0.827505 0.178949
O O1 0.313124 0.426570 0.243445
O O2 0.199556 0.336316 0.050737
O O3 0.302383 0.256512 0.272763
O O4 0.130626 0.365654 0.304704
O O5 0.500000 0.993109 0.750000
O O6 0.666917 0.082632 0.755440
O O7 0.615736 0.000000 0.500000
O O8 0.666482 0.905606 0.742297
O O9 0.604745 0.500000 0.500000
O O10 0.500000 0.529324 0.750000
O O11 0.640298 0.406959 0.744943
O O12 0.873109 0.500000 0.500000
O O13 0.844253 0.623375 0.292067
O O14 0.002380 0.638617 0.470008
O O15 0.695026 0.246334 0.762391
O O16 0.778746 0.352450 0.957139
O O17 0.500000 0.796519 0.750000
O O18 0.605108 0.828622 0.997924
O O19 0.118346 0.500000 0.500000
O O20 0.500000 0.811776 0.250000
#
# Coordination Sequence:
#
# PCOD8155503 Si02
#       8
#     4   4   4   4   4   4   4   4
#     4  12  22  38  57  85 116 153 193 236 291 345
#     4  10  20  36  60  86 115 150 189 235 281 336
#     4  12  26  38  53  79 118 160 195 233 281 342
#     4  11  22  40  60  83 114 153 197 256 293 335
#     4  12  22  38  57  85 116 153 193 236 291 345
#     4  11  23  37  58  86 120 155 191 234 282 344
#     4  11  22  38  62  85 112 151 199 248 297 335
#     4  11  23  37  58  86 120 155 191 234 282 344
#
# _framework density 18.598213000000001
#
# number of rings (size 3 to 8) (size 9 to 14) (size 15 to 20)
#    0.000    0.750    5.000    4.875    5.250    4.000 
#    0.000    0.000    0.000    0.000    0.000    5.250 
#    0.000    0.000    0.000    0.000    0.000    0.000 
#
# Total GULP energy -396553.499751 kJ/mol
# GULP energy per Si atom -12392.296867 kJ/mol
# Density = 1.855588 g / cm^3
# Si number density = 18.598213 Si / 1000 Ang^3
#
#
#
# Elastic Constant Matrix: (Units=GPa)
#
#
# Indices 1 2 3 4 5 6 
#
# 1 79.5586 32.8907 22.9485 0.0000 0.0000 0.0000
# 2 32.8907 124.2801 38.4191 0.0000 0.0000 0.0000
# 3 22.9485 38.4191 92.8994 0.0000 0.0000 0.0000
# 4 0.0000 0.0000 0.0000 32.0153 0.0000 0.0000
# 5 0.0000 0.0000 0.0000 0.0000 10.0384 0.0000
# 6 0.0000 0.0000 0.0000 0.0000 0.0000 13.6313
#
#
#
# Elastic Compliance Matrix: (Units=1/GPa)
#
#
# Indices 1 2 3 4 5 6 
#
# 1 0.014527 -0.003136 -0.002292 0.000000 0.000000 0.000000
# 2 -0.003136 0.009903 -0.003321 0.000000 0.000000 0.000000
# 3 -0.002292 -0.003321 0.012704 0.000000 0.000000 0.000000
# 4 0.000000 0.000000 0.000000 0.031235 0.000000 0.000000
# 5 0.000000 0.000000 0.000000 0.000000 0.099618 0.000000
# 6 0.000000 0.000000 0.000000 0.000000 0.000000 0.073361
#
#
# Mechanical properties :
#
#
# Convention : Reuss Voigt Hill
#
# Bulk Modulus (GPa) = 50.92508 53.91720 52.42114
# Shear Modulus (GPa) = 18.84028 24.63564 21.73796
#
# Velocity S-wave (km/s) = 3.18624 3.64349 3.42251
# Velocity P-wave (km/s) = 6.40135 6.83765 6.62310
#
# Compressibility (1/GPa) = 0.01963669
#
# Stress axis : x y z
#
# Youngs Moduli (GPa) = 68.83793 100.98099 78.71730
#
# Poissons Ratio (x) = 0.31669 0.18038
# Poissons Ratio (y) = 0.21589 0.26139
# Poissons Ratio (z) = 0.15774 0.33532
#
# Static dielectric constant tensor:
#      x y z
#    x 3.327300 0.000000 0.000000 
#    y 0.000000 3.801190 0.000000 
#    z 0.000000 0.000000 3.654430 
# 
# 
# High freq. dielectric constant tensor:
#      x y z
#    x 1.703390 0.000000 0.000000 
#    y 0.000000 1.709750 0.000000 
#    z 0.000000 0.000000 1.749010 
# 
# From -- ./inp_files/4943.got.cif
#   From: 2010.03.12/outbox.cif.g09.slc.cpg/sg17_3_cif.got.tgz:4943.got - 2010.04.10 18:46:23.
