data_PCOD8155831
_publ_section_title
;
Structure prediction by ZEFSAII (Michael W. Deem and Ramdas Pophale) SiO2 
 PCOD8155831
Probable space group: P 21 21 2
;
_chemical_formula_sum "Si O2"
_cell_formula_units_Z 30
_cell_length_a 8.029701
_cell_length_b 19.967696
_cell_length_c 9.576918
_cell_angle_alpha 90.000000
_cell_angle_beta 90.000000
_cell_angle_gamma 90.000000
_cell_volume 1535.511590
_symmetry_space_group_name_H-M "P 21 21 2"
_symmetry_group_IT_number 18
_symmetry_cell_setting 'orthorhombic'
loop_
_space_group_symop_operation_xyz
x,y,z
-x,-y,z
1/2+x,1/2-y,-z
1/2-x,1/2+y,-z
loop_
_atom_site_type_symbol
_atom_site_label
_atom_site_fract_x
_atom_site_fract_y
_atom_site_fract_z
Si Si1 0.397331 0.821139 0.643128
Si Si2 0.155443 0.122336 0.328178
Si Si3 0.075135 0.279905 0.832570
Si Si4 0.340578 0.957325 0.532850
Si Si5 0.806011 0.764018 0.123222
Si Si6 0.740713 0.277820 0.445858
Si Si7 0.000000 0.000000 0.442055
Si Si8 0.985101 0.574306 0.751404
O O1 0.345786 0.898013 0.644512
O O2 0.401331 0.797409 0.803301
O O3 0.253651 0.783652 0.554369
O O4 0.575302 0.806175 0.574347
O O5 0.119428 0.166935 0.189090
O O6 0.137818 0.164674 0.471886
O O7 0.017759 0.064222 0.340064
O O8 0.337116 0.089752 0.317123
O O9 0.155924 0.248094 0.695341
O O10 0.079967 0.362095 0.842824
O O11 0.885814 0.257730 0.837558
O O12 0.171628 0.243876 0.958750
O O13 0.354668 0.931239 0.374390
O O14 0.500000 0.000000 0.575667
O O15 0.163119 0.995428 0.542125
O O16 0.000000 0.500000 0.827682
#
# Coordination Sequence:
#
# PCOD8155831 Si02
#       8
#     4   4   4   4   4   4   2   4
#     4  11  21  36  58  90 120 155 196 256 301 363
#     4  10  21  36  57  94 117 154 198 256 303 369
#     4  11  22  40  60  87 121 166 197 261 303 372
#     4  11  21  37  55  92 123 158 199 255 303 368
#     4  10  24  38  57  86 124 153 208 249 313 362
#     4  11  20  34  59  88 123 152 196 250 307 356
#     4  12  22  32  66  88 122 162 202 250 310 362
#     4  10  18  39  59  86 124 155 202 251 304 366
#
# _framework density 19.537462000000001
#
# number of rings (size 3 to 8) (size 9 to 14) (size 15 to 20)
#    0.000    1.333    5.333    2.400    5.600    1.067 
#    0.000    0.667    0.000    2.400    0.000    0.000 
#    0.000    0.000    0.000    0.000    0.000    0.000 
#
# Total GULP energy -371738.216359 kJ/mol
# GULP energy per Si atom -12391.273879 kJ/mol
# Density = 1.949299 g / cm^3
# Si number density = 19.537462 Si / 1000 Ang^3
#
#
#
# Elastic Constant Matrix: (Units=GPa)
#
#
# Indices 1 2 3 4 5 6 
#
# 1 69.7306 42.3742 10.2808 0.0000 0.0000 0.0000
# 2 42.3742 140.5397 45.6062 0.0000 0.0000 0.0000
# 3 10.2808 45.6062 88.3585 0.0000 0.0000 0.0000
# 4 0.0000 0.0000 0.0000 17.5735 0.0000 0.0000
# 5 0.0000 0.0000 0.0000 0.0000 21.8343 0.0000
# 6 0.0000 0.0000 0.0000 0.0000 0.0000 32.5039
#
#
#
# Elastic Compliance Matrix: (Units=1/GPa)
#
#
# Indices 1 2 3 4 5 6 
#
# 1 0.017609 -0.005579 0.000831 0.000000 0.000000 0.000000
# 2 -0.005579 0.010314 -0.004675 0.000000 0.000000 0.000000
# 3 0.000831 -0.004675 0.013634 0.000000 0.000000 0.000000
# 4 0.000000 0.000000 0.000000 0.056904 0.000000 0.000000
# 5 0.000000 0.000000 0.000000 0.000000 0.045799 0.000000
# 6 0.000000 0.000000 0.000000 0.000000 0.000000 0.030766
#
#
# Mechanical properties :
#
#
# Convention : Reuss Voigt Hill
#
# Bulk Modulus (GPa) = 44.03118 55.01680 49.52399
# Shear Modulus (GPa) = 24.82112 27.74019 26.28065
#
# Velocity S-wave (km/s) = 3.56819 3.77217 3.67160
# Velocity P-wave (km/s) = 6.28981 6.86973 6.58615
#
# Compressibility (1/GPa) = 0.02271118
#
# Stress axis : x y z
#
# Youngs Moduli (GPa) = 56.79065 96.95147 73.34750
#
# Poissons Ratio (x) = 0.54086 -0.06093
# Poissons Ratio (y) = 0.31682 0.34288
# Poissons Ratio (z) = -0.04717 0.45322
#
# Static dielectric constant tensor:
#      x y z
#    x 3.598230 0.000000 0.000000 
#    y 0.000000 3.964070 0.000000 
#    z 0.000000 0.000000 3.536130 
# 
# 
# High freq. dielectric constant tensor:
#      x y z
#    x 1.768540 0.000000 0.000000 
#    y 0.000000 1.772450 0.000000 
#    z 0.000000 0.000000 1.717770 
# 
# From -- ./inp_files/3495.got.cif
#   From: 2010.03.12/outbox.cif.g09.slc.cpg/sg18_2_cif.got.tgz:3495.got - 2010.04.10 18:53:55.
