data_PCOD8155454
_publ_section_title
;
Structure prediction by ZEFSAII (Michael W. Deem and Ramdas Pophale) SiO2 
 PCOD8155454
Probable space group: P 2 2 21
;
_chemical_formula_sum "Si O2"
_cell_formula_units_Z 32
_cell_length_a 11.559583
_cell_length_b 9.188134
_cell_length_c 14.241230
_cell_angle_alpha 90.000000
_cell_angle_beta 90.000000
_cell_angle_gamma 90.000000
_cell_volume 1512.575245
_symmetry_space_group_name_H-M "P 2 2 21"
_symmetry_group_IT_number 17
_symmetry_cell_setting 'orthorhombic'
loop_
_space_group_symop_operation_xyz
x,y,z
-x,-y,1/2+z
x,-y,-z
-x,y,1/2-z
loop_
_atom_site_type_symbol
_atom_site_label
_atom_site_fract_x
_atom_site_fract_y
_atom_site_fract_z
Si Si1 0.786324 0.276288 0.375126
Si Si2 0.460910 0.384148 0.083329
Si Si3 0.410661 0.171236 0.518179
Si Si4 0.068392 0.222547 0.936591
Si Si5 0.821778 0.776271 0.128689
Si Si6 0.874673 0.998418 0.712983
Si Si7 0.439560 0.669813 0.161618
Si Si8 0.186903 0.413710 0.796896
O O1 0.654531 0.287476 0.407627
O O2 0.873865 0.257574 0.463387
O O3 0.796526 0.142371 0.303518
O O4 0.817304 0.414963 0.311799
O O5 0.486124 0.500847 0.165285
O O6 0.438831 0.500000 0.000000
O O7 0.570104 0.271506 0.075167
O O8 0.292613 0.217240 0.566677
O O9 0.522942 0.227599 0.575374
O O10 0.416485 0.000000 0.500000
O O11 0.084405 0.351243 0.861025
O O12 0.928615 0.207378 0.943831
O O13 0.117933 0.076119 0.888972
O O14 0.828454 0.623987 0.186411
O O15 0.815892 0.902252 0.207498
O O16 0.000000 0.951100 0.750000
O O17 0.500000 0.747208 0.250000
O O18 0.301662 0.667187 0.164860
#
# Coordination Sequence:
#
# PCOD8155454 Si02
#       8
#     4   4   4   4   4   4   4   4
#     4  11  20  36  62  93 114 149 204 265 289 351
#     4   9  21  40  60  87 120 154 200 251 299 357
#     4  11  23  40  60  90 122 157 206 252 284 357
#     4  10  20  37  62  83 118 161 196 240 315 364
#     4  10  22  41  58  81 124 171 188 237 317 370
#     4   9  21  37  56  87 121 158 200 245 305 370
#     4  10  19  40  66  84 118 165 194 237 313 361
#     4  10  20  38  63  90 115 152 208 249 298 366
#
# _framework density 21.155972999999999
#
# number of rings (size 3 to 8) (size 9 to 14) (size 15 to 20)
#    0.000    2.000    1.250    4.125    0.000    6.000 
#    4.500    3.750    0.000    0.000    0.000    0.000 
#    0.000    0.000    0.000    0.000    0.000    0.000 
#
# Total GULP energy -396483.150088 kJ/mol
# GULP energy per Si atom -12390.098440 kJ/mol
# Density = 2.110782 g / cm^3
# Si number density = 21.155973 Si / 1000 Ang^3
#
#
#
# Elastic Constant Matrix: (Units=GPa)
#
#
# Indices 1 2 3 4 5 6 
#
# 1 98.9217 49.5433 35.7927 0.0000 0.0000 0.0000
# 2 49.5433 125.1673 39.0759 0.0000 0.0000 0.0000
# 3 35.7927 39.0759 64.4835 0.0000 0.0000 0.0000
# 4 0.0000 0.0000 0.0000 23.7186 0.0000 0.0000
# 5 0.0000 0.0000 0.0000 0.0000 25.3722 0.0000
# 6 0.0000 0.0000 0.0000 0.0000 0.0000 17.8933
#
#
#
# Elastic Compliance Matrix: (Units=1/GPa)
#
#
# Indices 1 2 3 4 5 6 
#
# 1 0.014004 -0.003843 -0.005444 0.000000 0.000000 0.000000
# 2 -0.003843 0.010908 -0.004477 0.000000 0.000000 0.000000
# 3 -0.005444 -0.004477 0.021243 0.000000 0.000000 0.000000
# 4 0.000000 0.000000 0.000000 0.042161 0.000000 0.000000
# 5 0.000000 0.000000 0.000000 0.000000 0.039413 0.000000
# 6 0.000000 0.000000 0.000000 0.000000 0.000000 0.055887
#
#
# Mechanical properties :
#
#
# Convention : Reuss Voigt Hill
#
# Bulk Modulus (GPa) = 53.68837 59.71070 56.69953
# Shear Modulus (GPa) = 23.00412 24.34087 23.67250
#
# Velocity S-wave (km/s) = 3.30109 3.39565 3.34870
# Velocity P-wave (km/s) = 6.32156 6.60751 6.46611
#
# Compressibility (1/GPa) = 0.01862601
#
# Stress axis : x y z
#
# Youngs Moduli (GPa) = 71.40988 91.67426 47.07538
#
# Poissons Ratio (x) = 0.35233 0.25628
# Poissons Ratio (y) = 0.27445 0.21075
# Poissons Ratio (z) = 0.38876 0.41041
#
# Static dielectric constant tensor:
#      x y z
#    x 3.776620 0.000000 0.000000 
#    y 0.000000 3.986160 0.000000 
#    z 0.000000 0.000000 4.239590 
# 
# 
# High freq. dielectric constant tensor:
#      x y z
#    x 1.827190 0.000000 0.000000 
#    y 0.000000 1.825920 0.000000 
#    z 0.000000 0.000000 1.820320 
# 
# From -- ./inp_files/8553.got.cif
#   From: 2010.03.12/outbox.cif.g09.slc.cpg/sg17_5_cif.got.tgz:8553.got - 2010.04.10 18:46:23.
