data_PCOD8155104
_publ_section_title
;
Structure prediction by ZEFSAII (Michael W. Deem and Ramdas Pophale) SiO2 
 PCOD8155104
Probable space group: C 2/C
;
_chemical_formula_sum "Si O2"
_cell_formula_units_Z 28
_cell_length_a 9.965402
_cell_length_b 10.835699
_cell_length_c 14.395701
_cell_angle_alpha 90.000000
_cell_angle_beta 137.076457
_cell_angle_gamma 90.000000
_cell_volume 1058.633412
_symmetry_space_group_name_H-M "C 2/C"
_symmetry_group_IT_number 15
_symmetry_cell_setting 'monoclinic'
loop_
_space_group_symop_operation_xyz
x,y,z
-x,y,1/2-z
-x,-y,-z
x,-y,1/2+z
1/2+x,1/2+y,z
1/2-x,1/2+y,1/2-z
1/2-x,1/2-y,-z
1/2+x,1/2-y,1/2+z
loop_
_atom_site_type_symbol
_atom_site_label
_atom_site_fract_x
_atom_site_fract_y
_atom_site_fract_z
Si Si1 0.869753 0.888317 0.971312
Si Si2 0.211075 0.211504 0.746569
Si Si3 0.500000 0.288533 0.750000
Si Si4 0.780118 0.492026 0.422176
O O1 0.725232 0.930824 0.979456
O O2 0.017739 0.780063 0.082955
O O3 0.732515 0.833662 0.820499
O O4 0.000000 0.000000 0.000000
O O5 0.411712 0.201231 0.786377
O O6 0.170752 0.090927 0.788776
O O7 0.320912 0.374030 0.623667
O O8 0.000000 0.500000 0.500000
#
# Coordination Sequence:
#
# PCOD8155104 Si02
#       4
#     8   8   4   8
#     4  12  26  51  81 118 161 212 273 331 404 485
#     4  12  26  47  84 109 163 213 265 333 402 476
#     4  12  26  50  76 122 160 206 276 326 406 480
#     4  12  26  48  77 118 164 206 272 334 396 485
#
# _framework density 26.449193000000001
#
# number of rings (size 3 to 8) (size 9 to 14) (size 15 to 20)
#    0.000    0.000    5.714    2.571    4.000    4.571 
#    0.000    2.857    0.000    0.000    0.000    0.000 
#    0.000    0.000    0.000    0.000    0.000    0.000 
#
# Total GULP energy -173664.232008 kJ/mol
# GULP energy per Si atom -12404.588001 kJ/mol
# Density = 2.638899 g / cm^3
# Si number density = 26.449193 Si / 1000 Ang^3
#
#
#
# Elastic Constant Matrix: (Units=GPa)
#
#
# Indices 1 2 3 4 5 6 
#
# 1 224.7279 34.2095 40.3692 0.0000 -20.7009 0.0000
# 2 34.2095 89.7377 30.5081 0.0000 -8.5969 0.0000
# 3 40.3692 30.5081 100.6940 0.0000 -1.3381 0.0000
# 4 0.0000 0.0000 0.0000 17.2145 0.0000 8.1192
# 5 -20.7009 -8.5969 -1.3381 0.0000 51.3909 0.0000
# 6 0.0000 0.0000 0.0000 8.1192 0.0000 49.2988
#
#
#
# Elastic Compliance Matrix: (Units=1/GPa)
#
#
# Indices 1 2 3 4 5 6 
#
# 1 0.005097 -0.001208 -0.001654 0.000000 0.001808 0.000000
# 2 -0.001208 0.012914 -0.003407 0.000000 0.001585 0.000000
# 3 -0.001654 -0.003407 0.011614 0.000000 -0.000934 0.000000
# 4 0.000000 0.000000 0.000000 0.062983 0.000000 -0.010373
# 5 0.001808 0.001585 -0.000934 0.000000 0.020428 0.000000
# 6 0.000000 0.000000 0.000000 -0.010373 0.000000 0.021993
#
#
# Mechanical properties :
#
#
# Convention : Reuss Voigt Hill
#
# Bulk Modulus (GPa) = 58.52094 69.48147 64.00121
# Shear Modulus (GPa) = 32.62364 44.25234 38.43799
#
# Velocity S-wave (km/s) = 3.51585 4.09480 3.81632
# Velocity P-wave (km/s) = 6.21735 6.97735 6.60828
#
# Compressibility (1/GPa) = 0.01708790
#
# Stress axis : x y z
#
# Youngs Moduli (GPa) = 196.18296 77.43343 86.10292
#
# Poissons Ratio (x) = 0.09352 0.14238
# Poissons Ratio (y) = 0.23695 0.29339
# Poissons Ratio (z) = 0.32441 0.26385
#
# Static dielectric constant tensor:
#      x y z
#    x 5.153300 0.000000 -0.332640 
#    y 0.000000 4.789490 0.000000 
#    z -0.332640 0.000000 4.795500 
# 
# 
# High freq. dielectric constant tensor:
#      x y z
#    x 2.093560 0.000000 -0.006380 
#    y 0.000000 2.050220 0.000000 
#    z -0.006380 0.000000 2.053910 
# 
# From -- ./inp_files/131874.got.cif
#   From: 2010.06.25/outbox.cif.g09.slc.cpg/sg15_66_cif.got.tgz:131874.got - 2010.06.28 07:06:18.
