data_PCOD8155745
_publ_section_title
;
Structure prediction by ZEFSAII (Michael W. Deem and Ramdas Pophale) SiO2 
 PCOD8155745
Probable space group: P 2 2 21
;
_chemical_formula_sum "Si O2"
_cell_formula_units_Z 14
_cell_length_a 5.189042
_cell_length_b 8.564437
_cell_length_c 12.869172
_cell_angle_alpha 90.000000
_cell_angle_beta 90.000000
_cell_angle_gamma 90.000000
_cell_volume 571.921747
_symmetry_space_group_name_H-M "P 2 2 21"
_symmetry_group_IT_number 17
_symmetry_cell_setting 'orthorhombic'
loop_
_space_group_symop_operation_xyz
x,y,z
-x,-y,1/2+z
x,-y,-z
-x,y,1/2-z
loop_
_atom_site_type_symbol
_atom_site_label
_atom_site_fract_x
_atom_site_fract_y
_atom_site_fract_z
Si Si1 0.000000 0.857373 0.750000
Si Si2 0.325110 0.286087 0.579483
Si Si3 0.799775 0.093045 0.601534
Si Si4 0.671398 0.377183 0.147568
O O1 0.906225 0.742487 0.841032
O O2 0.793601 0.970854 0.696300
O O3 0.577958 0.214892 0.633811
O O4 0.240416 0.442588 0.640976
O O5 0.438286 0.326820 0.464463
O O6 0.080449 0.171294 0.584356
O O7 0.711802 0.000000 0.500000
O O8 0.500000 0.349287 0.250000
#
# Coordination Sequence:
#
# PCOD8155745 Si02
#       4
#     2   4   4   4
#     4  12  28  44  80 108 150 196 254 312 376 442
#     4  11  28  49  75 108 153 198 244 311 371 451
#     4  12  26  49  75 111 150 192 249 309 381 435
#     4  11  27  48  75 108 148 200 253 302 374 448
#
# _framework density 24.478873
#
# number of rings (size 3 to 8) (size 9 to 14) (size 15 to 20)
#    0.000    0.571    2.857    2.571   12.000    2.286 
#    0.000    0.000    0.000    0.000    0.000    0.000 
#    0.000    0.000    0.000    0.000    0.000    0.000 
#
# Total GULP energy -173487.557942 kJ/mol
# GULP energy per Si atom -12391.968424 kJ/mol
# Density = 2.442316 g / cm^3
# Si number density = 24.478873 Si / 1000 Ang^3
#
#
#
# Elastic Constant Matrix: (Units=GPa)
#
#
# Indices 1 2 3 4 5 6 
#
# 1 114.1760 61.0839 17.8060 0.0000 0.0000 0.0000
# 2 61.0839 184.0013 60.1284 0.0000 0.0000 0.0000
# 3 17.8060 60.1284 92.7384 0.0000 0.0000 0.0000
# 4 0.0000 0.0000 0.0000 39.7825 0.0000 0.0000
# 5 0.0000 0.0000 0.0000 0.0000 29.6572 0.0000
# 6 0.0000 0.0000 0.0000 0.0000 0.0000 12.2735
#
#
#
# Elastic Compliance Matrix: (Units=1/GPa)
#
#
# Indices 1 2 3 4 5 6 
#
# 1 0.010657 -0.003641 0.000314 0.000000 0.000000 0.000000
# 2 -0.003641 0.008139 -0.004578 0.000000 0.000000 0.000000
# 3 0.000314 -0.004578 0.013691 0.000000 0.000000 0.000000
# 4 0.000000 0.000000 0.000000 0.025137 0.000000 0.000000
# 5 0.000000 0.000000 0.000000 0.000000 0.033719 0.000000
# 6 0.000000 0.000000 0.000000 0.000000 0.000000 0.081476
#
#
# Mechanical properties :
#
#
# Convention : Reuss Voigt Hill
#
# Bulk Modulus (GPa) = 59.95813 74.32804 67.14308
# Shear Modulus (GPa) = 25.74826 33.13580 29.44203
#
# Velocity S-wave (km/s) = 3.24675 3.68319 3.47183
# Velocity P-wave (km/s) = 6.21307 6.96548 6.60000
#
# Compressibility (1/GPa) = 0.01667831
#
# Stress axis : x y z
#
# Youngs Moduli (GPa) = 93.83410 122.85840 73.04002
#
# Poissons Ratio (x) = 0.44728 -0.02295
# Poissons Ratio (y) = 0.34161 0.33440
# Poissons Ratio (z) = -0.02949 0.56249
#
# Static dielectric constant tensor:
#      x y z
#    x 4.000710 0.000000 0.000000 
#    y 0.000000 4.860520 0.000000 
#    z 0.000000 0.000000 4.773110 
# 
# 
# High freq. dielectric constant tensor:
#      x y z
#    x 1.942780 0.000000 0.000000 
#    y 0.000000 2.002970 0.000000 
#    z 0.000000 0.000000 1.988560 
# 
# From -- ./inp_files/7481.got.cif
#   From: 2010.03.12/outbox.cif.g09.slc.cpg/sg17_4_cif.got.tgz:7481.got - 2010.04.10 18:46:23.
