data_PCOD8155024
_publ_section_title
;
Structure prediction by ZEFSAII (Michael W. Deem and Ramdas Pophale) SiO2 
 PCOD8155024
Probable space group: C 2/C
;
_chemical_formula_sum "Si O2"
_cell_formula_units_Z 40
_cell_length_a 17.915480
_cell_length_b 11.828328
_cell_length_c 17.245303
_cell_angle_alpha 90.000000
_cell_angle_beta 151.905224
_cell_angle_gamma 90.000000
_cell_volume 1720.997867
_symmetry_space_group_name_H-M "C 2/C"
_symmetry_group_IT_number 15
_symmetry_cell_setting 'monoclinic'
loop_
_space_group_symop_operation_xyz
x,y,z
-x,y,1/2-z
-x,-y,-z
x,-y,1/2+z
1/2+x,1/2+y,z
1/2-x,1/2+y,1/2-z
1/2-x,1/2-y,-z
1/2+x,1/2-y,1/2+z
loop_
_atom_site_type_symbol
_atom_site_label
_atom_site_fract_x
_atom_site_fract_y
_atom_site_fract_z
Si Si1 0.298457 0.405199 0.664316
Si Si2 0.278224 0.317835 0.947760
Si Si3 0.893993 0.801487 0.486412
Si Si4 0.882295 0.141381 0.800176
Si Si5 0.674883 0.056474 0.886753
O O1 0.142766 0.332745 0.545857
O O2 0.297172 0.520818 0.711984
O O3 0.292070 0.435290 0.567679
O O4 0.454406 0.331284 0.823262
O O5 0.234578 0.241170 0.833833
O O6 0.168600 0.428717 0.848753
O O7 0.250000 0.250000 0.000000
O O8 0.460123 0.356107 0.107771
O O9 0.926638 0.843764 0.429909
O O10 0.738438 0.862451 0.377837
O O11 0.500000 0.096311 0.750000
#
# Coordination Sequence:
#
# PCOD8155024 Si02
#       5
#     8   8   8   8   8
#     4  12  26  50  73 109 153 199 250 308 369 455
#     4  12  25  47  76 108 148 196 250 308 373 441
#     4  12  27  47  77 108 153 200 246 310 382 443
#     4  12  27  48  77 110 154 195 251 315 376 440
#     4  12  26  47  75 109 146 197 253 306 373 450
#
# _framework density 23.242329000000002
#
# number of rings (size 3 to 8) (size 9 to 14) (size 15 to 20)
#    0.000    0.000    4.000    6.000    2.800    0.000 
#    0.000    3.000    0.000    0.000    0.000    0.000 
#    0.000    0.000    0.000    0.000    0.000    0.000 
#
# Total GULP energy -248168.145024 kJ/mol
# GULP energy per Si atom -12408.407251 kJ/mol
# Density = 2.318943 g / cm^3
# Si number density = 23.242329 Si / 1000 Ang^3
#
#
#
# Elastic Constant Matrix: (Units=GPa)
#
#
# Indices 1 2 3 4 5 6 
#
# 1 104.2685 40.1018 26.3997 -0.0003 -4.2405 0.0000
# 2 40.1018 138.8347 49.6536 0.0001 -6.2495 0.0000
# 3 26.3997 49.6536 113.5212 -0.0011 0.9928 -0.0004
# 4 -0.0003 0.0001 -0.0011 41.8825 0.0000 2.7423
# 5 -4.2405 -6.2495 0.9928 0.0000 23.7203 0.0002
# 6 0.0000 0.0000 -0.0004 2.7423 0.0002 30.2329
#
#
#
# Elastic Compliance Matrix: (Units=1/GPa)
#
#
# Indices 1 2 3 4 5 6 
#
# 1 0.011011 -0.002608 -0.001432 0.000000 0.001341 0.000000
# 2 -0.002608 0.009296 -0.003478 0.000000 0.002129 0.000000
# 3 -0.001432 -0.003478 0.010677 0.000000 -0.001619 0.000000
# 4 0.000000 0.000000 0.000000 0.024019 0.000000 -0.002179
# 5 0.001341 0.002129 -0.001619 0.000000 0.043026 0.000000
# 6 0.000000 0.000000 0.000000 -0.002179 0.000000 0.033274
#
#
# Mechanical properties :
#
#
# Convention : Reuss Voigt Hill
#
# Bulk Modulus (GPa) = 62.70176 65.43717 64.06947
# Shear Modulus (GPa) = 32.96963 35.19843 34.08403
#
# Velocity S-wave (km/s) = 3.77041 3.89576 3.83360
# Velocity P-wave (km/s) = 6.78164 6.96070 6.87175
#
# Compressibility (1/GPa) = 0.01594852
#
# Stress axis : x y z
#
# Youngs Moduli (GPa) = 90.82095 107.57475 93.65670
#
# Poissons Ratio (x) = 0.28056 0.13407
# Poissons Ratio (y) = 0.23686 0.32574
# Poissons Ratio (z) = 0.13002 0.37415
#
# Static dielectric constant tensor:
#      x y z
#    x 4.006520 0.000000 -0.060960 
#    y 0.000000 4.500430 0.000000 
#    z -0.060960 0.000000 4.166960 
# 
# 
# High freq. dielectric constant tensor:
#      x y z
#    x 1.915720 0.000000 -0.004940 
#    y 0.000000 1.937460 0.000000 
#    z -0.004940 0.000000 1.922870 
# 
# From -- ./inp_files/46047.got.cif
#   From: 2010.06.25/outbox.cif.g09.slc.cpg/sg15_24_cif.got.tgz:46047.got - 2010.06.28 07:06:18.
