data_PCOD8155175
_publ_section_title
;
Structure prediction by ZEFSAII (Michael W. Deem and Ramdas Pophale) SiO2 
 PCOD8155175
Probable space group: C 2/C
;
_chemical_formula_sum "Si O2"
_cell_formula_units_Z 20
_cell_length_a 4.773338
_cell_length_b 25.623763
_cell_length_c 6.035547
_cell_angle_alpha 90.000000
_cell_angle_beta 95.162440
_cell_angle_gamma 90.000000
_cell_volume 735.218586
_symmetry_space_group_name_H-M "C 2/C"
_symmetry_group_IT_number 15
_symmetry_cell_setting 'monoclinic'
loop_
_space_group_symop_operation_xyz
x,y,z
-x,y,1/2-z
-x,-y,-z
x,-y,1/2+z
1/2+x,1/2+y,z
1/2-x,1/2+y,1/2-z
1/2-x,1/2-y,-z
1/2+x,1/2-y,1/2+z
loop_
_atom_site_type_symbol
_atom_site_label
_atom_site_fract_x
_atom_site_fract_y
_atom_site_fract_z
Si Si1 0.738433 0.808081 0.590953
Si Si2 0.213073 0.045082 0.099424
Si Si3 0.500000 0.886574 0.250000
O O1 0.500000 0.815582 0.750000
O O2 0.750000 0.750000 0.500000
O O3 0.716002 0.849145 0.391532
O O4 0.000000 0.823724 0.750000
O O5 0.500000 0.024875 0.250000
O O6 0.000000 0.076894 0.250000
O O7 0.310493 0.079166 0.900243
O O8 0.000000 0.000000 0.000000
#
# Coordination Sequence:
#
# PCOD8155175 Si02
#       3
#     8   8   4
#     4  12  28  55  87 127 176 231 291 364 439 524
#     4  12  32  59  89 127 177 237 303 375 447 527
#     4  12  32  56  92 128 184 232 300 362 446 534
#
# _framework density 27.202795999999999
#
# number of rings (size 3 to 8) (size 9 to 14) (size 15 to 20)
#    0.000    0.000    2.000    3.600    8.400    9.600 
#    7.200    0.000    0.000    0.000    0.000    0.000 
#    0.000    0.000    0.000    0.000    0.000    0.000 
#
# Total GULP energy -123919.660048 kJ/mol
# GULP energy per Si atom -12391.966005 kJ/mol
# Density = 2.714088 g / cm^3
# Si number density = 27.202796 Si / 1000 Ang^3
#
#
#
# Elastic Constant Matrix: (Units=GPa)
#
#
# Indices 1 2 3 4 5 6 
#
# 1 252.7279 87.1454 128.8876 0.0000 6.0783 0.0000
# 2 87.1454 193.7509 129.0805 0.0000 3.6172 0.0000
# 3 128.8876 129.0805 245.6108 0.0000 10.9069 0.0000
# 4 0.0000 0.0000 0.0000 10.9959 0.0000 -9.7298
# 5 6.0783 3.6172 10.9069 0.0000 88.0701 0.0000
# 6 0.0000 0.0000 0.0000 -9.7298 0.0000 46.1747
#
#
#
# Elastic Compliance Matrix: (Units=1/GPa)
#
#
# Indices 1 2 3 4 5 6 
#
# 1 0.005492 -0.000847 -0.002435 0.000000 -0.000043 0.000000
# 2 -0.000847 0.008076 -0.003809 0.000000 0.000198 0.000000
# 3 -0.002435 -0.003809 0.007377 0.000000 -0.000589 0.000000
# 4 0.000000 0.000000 0.000000 0.111786 0.000000 0.023555
# 5 -0.000043 0.000198 -0.000589 0.000000 0.011422 0.000000
# 6 0.000000 0.000000 0.000000 0.023555 0.000000 0.026620
#
#
# Mechanical properties :
#
#
# Convention : Reuss Voigt Hill
#
# Bulk Modulus (GPa) = 147.85032 153.59075 150.72054
# Shear Modulus (GPa) = 26.70817 52.17987 39.44402
#
# Velocity S-wave (km/s) = 3.13680 4.38445 3.81202
# Velocity P-wave (km/s) = 8.22122 9.06726 8.65458
#
# Compressibility (1/GPa) = 0.00676360
#
# Stress axis : x y z
#
# Youngs Moduli (GPa) = 182.09538 123.82472 135.55965
#
# Poissons Ratio (x) = 0.10491 0.33004
# Poissons Ratio (y) = 0.15427 0.51628
# Poissons Ratio (z) = 0.44334 0.47159
#
# Static dielectric constant tensor:
#      x y z
#    x 5.682410 0.000000 -0.189650 
#    y 0.000000 5.063420 0.000000 
#    z -0.189650 0.000000 6.327980 
# 
# 
# High freq. dielectric constant tensor:
#      x y z
#    x 2.126570 0.000000 -0.001570 
#    y 0.000000 2.104350 0.000000 
#    z -0.001570 0.000000 2.134550 
# 
# From -- ./inp_files/659.got.cif
#   From: 2010.06.25/outbox.cif.g09.slc.cpg/sg15_1_cif.got.tgz:659.got - 2010.06.28 07:06:18.
