data_PCOD8155716
_publ_section_title
;
Structure prediction by ZEFSAII (Michael W. Deem and Ramdas Pophale) SiO2 
 PCOD8155716
Probable space group: P 2 2 21
;
_chemical_formula_sum "Si O2"
_cell_formula_units_Z 18
_cell_length_a 8.234220
_cell_length_b 8.073817
_cell_length_c 12.193532
_cell_angle_alpha 90.000000
_cell_angle_beta 90.000000
_cell_angle_gamma 90.000000
_cell_volume 810.645339
_symmetry_space_group_name_H-M "P 2 2 21"
_symmetry_group_IT_number 17
_symmetry_cell_setting 'orthorhombic'
loop_
_space_group_symop_operation_xyz
x,y,z
-x,-y,1/2+z
x,-y,-z
-x,y,1/2-z
loop_
_atom_site_type_symbol
_atom_site_label
_atom_site_fract_x
_atom_site_fract_y
_atom_site_fract_z
Si Si1 0.685870 0.711114 0.234410
Si Si2 0.594301 0.500000 0.500000
Si Si3 0.802138 0.179951 0.544741
Si Si4 0.369070 0.625736 0.676753
Si Si5 0.174774 0.188053 0.504134
O O1 0.500000 0.768279 0.250000
O O2 0.793210 0.814749 0.322440
O O3 0.718821 0.512303 0.254695
O O4 0.745874 0.739906 0.111675
O O5 0.693629 0.328337 0.497092
O O6 0.476331 0.499410 0.603675
O O7 0.982966 0.214913 0.502824
O O8 0.742807 0.000000 0.500000
O O9 0.500000 0.732989 0.750000
O O10 0.244723 0.734139 0.608158
O O11 0.225737 0.000000 0.500000
#
# Coordination Sequence:
#
# PCOD8155716 Si02
#       5
#     4   2   4   4   4
#     4  11  21  44  69  96 137 183 235 295 356 423
#     4  12  22  42  72  98 138 182 232 294 346 424
#     4  11  26  45  68 105 143 185 236 297 362 431
#     4  11  22  43  69 104 134 183 248 285 358 433
#     4  11  25  43  68 102 145 182 234 302 358 432
#
# _framework density 22.204530999999999
#
# number of rings (size 3 to 8) (size 9 to 14) (size 15 to 20)
#    0.000    0.889    6.667    0.667    3.111    6.222 
#    0.000    3.333    0.000    0.000    0.000    0.000 
#    0.000    0.000    0.000    0.000    0.000    0.000 
#
# Total GULP energy -223025.624682 kJ/mol
# GULP energy per Si atom -12390.312482 kJ/mol
# Density = 2.215399 g / cm^3
# Si number density = 22.204531 Si / 1000 Ang^3
#
#
#
# Elastic Constant Matrix: (Units=GPa)
#
#
# Indices 1 2 3 4 5 6 
#
# 1 89.7552 60.0864 24.2680 0.0000 0.0000 0.0000
# 2 60.0864 137.7660 25.6375 0.0000 0.0000 0.0000
# 3 24.2680 25.6375 75.2808 0.0000 0.0000 0.0000
# 4 0.0000 0.0000 0.0000 41.0072 0.0000 0.0000
# 5 0.0000 0.0000 0.0000 0.0000 44.4905 0.0000
# 6 0.0000 0.0000 0.0000 0.0000 0.0000 39.1757
#
#
#
# Elastic Compliance Matrix: (Units=1/GPa)
#
#
# Indices 1 2 3 4 5 6 
#
# 1 0.016361 -0.006571 -0.003037 0.000000 0.000000 0.000000
# 2 -0.006571 0.010389 -0.001420 0.000000 0.000000 0.000000
# 3 -0.003037 -0.001420 0.014746 0.000000 0.000000 0.000000
# 4 0.000000 0.000000 0.000000 0.024386 0.000000 0.000000
# 5 0.000000 0.000000 0.000000 0.000000 0.022477 0.000000
# 6 0.000000 0.000000 0.000000 0.000000 0.000000 0.025526
#
#
# Mechanical properties :
#
#
# Convention : Reuss Voigt Hill
#
# Bulk Modulus (GPa) = 51.43588 58.08731 54.76159
# Shear Modulus (GPa) = 35.10751 37.78869 36.44810
#
# Velocity S-wave (km/s) = 3.98061 4.12982 4.05590
# Velocity P-wave (km/s) = 6.65897 6.99696 6.83006
#
# Compressibility (1/GPa) = 0.01944168
#
# Stress axis : x y z
#
# Youngs Moduli (GPa) = 61.11988 96.25792 67.81501
#
# Poissons Ratio (x) = 0.63250 0.20592
# Poissons Ratio (y) = 0.40161 0.09628
# Poissons Ratio (z) = 0.18559 0.13666
#
# Static dielectric constant tensor:
#      x y z
#    x 3.984810 0.000000 0.000000 
#    y 0.000000 3.995400 0.000000 
#    z 0.000000 0.000000 4.306470 
# 
# 
# High freq. dielectric constant tensor:
#      x y z
#    x 1.870340 0.000000 0.000000 
#    y 0.000000 1.868510 0.000000 
#    z 0.000000 0.000000 1.894450 
# 
# From -- ./inp_files/6402.got.cif
#   From: 2010.03.12/outbox.cif.g09.slc.cpg/sg17_4_cif.got.tgz:6402.got - 2010.04.10 18:46:23.
