data_PCOD8155329
_publ_section_title
;
Structure prediction by ZEFSAII (Michael W. Deem and Ramdas Pophale) SiO2 
 PCOD8155329
Probable space group: P 2 2 2
;
_chemical_formula_sum "Si O2"
_cell_formula_units_Z 15
_cell_length_a 8.990824
_cell_length_b 12.479650
_cell_length_c 5.567167
_cell_angle_alpha 90.000000
_cell_angle_beta 90.000000
_cell_angle_gamma 90.000000
_cell_volume 624.649146
_symmetry_space_group_name_H-M "P 2 2 2"
_symmetry_group_IT_number 16
_symmetry_cell_setting 'orthorhombic'
loop_
_space_group_symop_operation_xyz
x,y,z
-x,-y,z
x,-y,-z
-x,y,-z
loop_
_atom_site_type_symbol
_atom_site_label
_atom_site_fract_x
_atom_site_fract_y
_atom_site_fract_z
Si Si1 0.349741 0.782461 0.120652
Si Si2 0.755910 0.407622 0.811832
Si Si3 0.500000 0.636662 0.500000
Si Si4 0.057973 0.879325 0.247321
Si Si5 0.000000 0.500000 0.500000
O O1 0.390468 0.709580 0.344776
O O2 0.238595 0.873559 0.224800
O O3 0.500000 0.832283 0.000000
O O4 0.261469 0.710157 0.925823
O O5 0.606059 0.436265 0.665033
O O6 0.902327 0.415086 0.649317
O O7 0.774322 0.500000 0.000000
O O8 0.000000 0.826004 0.500000
O O9 0.000000 0.000000 0.248674
O O10 0.000000 0.822745 0.000000
#
# Coordination Sequence:
#
# PCOD8155329 Si02
#       5
#     4   4   2   4   1
#     4  10  24  44  71 103 141 191 247 300 370 447
#     4  11  25  43  62  99 138 191 240 298 356 430
#     4  10  24  43  68  93 138 186 240 295 358 435
#     4  10  24  47  76 107 146 187 241 309 384 451
#     4  12  26  42  60  94 146 190 250 296 358 426
#
# _framework density 24.013480000000001
#
# number of rings (size 3 to 8) (size 9 to 14) (size 15 to 20)
#    0.000    1.600    0.000    2.000    7.467   17.067 
#    2.400    2.667    0.000    0.000    0.000    0.000 
#    0.000    0.000    0.000    0.000    0.000    0.000 
#
# Total GULP energy -185871.504570 kJ/mol
# GULP energy per Si atom -12391.433638 kJ/mol
# Density = 2.395882 g / cm^3
# Si number density = 24.013480 Si / 1000 Ang^3
#
#
#
# Elastic Constant Matrix: (Units=GPa)
#
#
# Indices 1 2 3 4 5 6 
#
# 1 213.9287 64.4548 79.2399 0.0000 0.0000 0.0000
# 2 64.4548 62.8045 21.9662 0.0000 0.0000 0.0000
# 3 79.2399 21.9662 175.6684 0.0000 0.0000 0.0000
# 4 0.0000 0.0000 0.0000 -3.4730 0.0000 0.0000
# 5 0.0000 0.0000 0.0000 0.0000 46.7454 0.0000
# 6 0.0000 0.0000 0.0000 0.0000 0.0000 56.2270
#
#
#
# Elastic Compliance Matrix: (Units=1/GPa)
#
#
# Indices 1 2 3 4 5 6 
#
# 1 0.007773 -0.007060 -0.002624 0.000000 0.000000 0.000000
# 2 -0.007060 0.023063 0.000301 0.000000 0.000000 0.000000
# 3 -0.002624 0.000301 0.006838 0.000000 0.000000 0.000000
# 4 0.000000 0.000000 0.000000 -0.287939 0.000000 0.000000
# 5 0.000000 0.000000 0.000000 0.000000 0.021393 0.000000
# 6 0.000000 0.000000 0.000000 0.000000 0.000000 0.017785
#
#
# Mechanical properties :
#
#
# Convention : Reuss Voigt Hill
#
# Bulk Modulus (GPa) = 52.88532 87.08037 69.98285
# Shear Modulus (GPa) = -26.87912 39.01593 6.06841
#
# Velocity S-wave (km/s) = -3.34928 4.03519 1.59140
# Velocity P-wave (km/s) = 2.66723 7.61920 5.70817
#
# Compressibility (1/GPa) = 0.01890884
#
# Stress axis : x y z
#
# Youngs Moduli (GPa) = 128.64464 43.35996 146.23374
#
# Poissons Ratio (x) = 0.30612 0.38365
# Poissons Ratio (y) = 0.90823 -0.04398
# Poissons Ratio (z) = 0.33751 -0.01304
#
# Static dielectric constant tensor:
#      x y z
#    x 4.751340 0.000000 0.000000 
#    y 0.000000 3.969440 0.000000 
#    z 0.000000 0.000000 5.449840 
# 
# 
# High freq. dielectric constant tensor:
#      x y z
#    x 1.970200 0.000000 0.000000 
#    y 0.000000 1.905040 0.000000 
#    z 0.000000 0.000000 1.984950 
# 
# From -- ./inp_files/622.got.cif
#   From: 2010.03.12/outbox.cif.g09.slc.cpg/sg16_1_cif.got.tgz:622.got - 2010.03.31 00:51:45.
