data_PCOD8155445
_publ_section_title
;
Structure prediction by ZEFSAII (Michael W. Deem and Ramdas Pophale) SiO2 
 PCOD8155445
Probable space group: P 2 2 21
;
_chemical_formula_sum "Si O2"
_cell_formula_units_Z 32
_cell_length_a 11.594421
_cell_length_b 9.201716
_cell_length_c 15.884376
_cell_angle_alpha 90.000000
_cell_angle_beta 90.000000
_cell_angle_gamma 90.000000
_cell_volume 1694.681348
_symmetry_space_group_name_H-M "P 2 2 21"
_symmetry_group_IT_number 17
_symmetry_cell_setting 'orthorhombic'
loop_
_space_group_symop_operation_xyz
x,y,z
-x,-y,1/2+z
x,-y,-z
-x,y,1/2-z
loop_
_atom_site_type_symbol
_atom_site_label
_atom_site_fract_x
_atom_site_fract_y
_atom_site_fract_z
Si Si1 0.753220 0.957078 0.402325
Si Si2 0.137347 0.407320 0.578336
Si Si3 0.519879 0.155463 0.652112
Si Si4 0.130499 0.536614 0.753594
Si Si5 0.686510 0.228104 0.296915
Si Si6 0.614981 0.338346 0.972092
Si Si7 0.445617 0.831059 0.633821
Si Si8 0.056335 0.756619 0.166031
O O1 0.653415 0.845691 0.374286
O O2 0.871509 0.874457 0.384586
O O3 0.742104 0.000000 0.500000
O O4 0.751697 0.098291 0.343688
O O5 0.089366 0.500000 0.500000
O O6 0.168799 0.510537 0.657392
O O7 0.252334 0.324306 0.552146
O O8 0.042763 0.288359 0.601075
O O9 0.500000 0.180677 0.750000
O O10 0.461632 0.292081 0.607016
O O11 0.467785 0.001639 0.624444
O O12 0.224983 0.637242 0.799330
O O13 0.128545 0.385819 0.805651
O O14 0.000000 0.603528 0.750000
O O15 0.656822 0.188851 0.200844
O O16 0.563272 0.256277 0.342277
O O17 0.579863 0.500000 0.000000
O O18 0.596791 0.224280 0.045483
O O19 0.000000 0.827345 0.250000
#
# Coordination Sequence:
#
# PCOD8155445 Si02
#       8
#     4   4   4   4   4   4   4   4
#     4  11  23  40  60  87 122 156 205 255 295 368
#     4   9  19  38  60  85 119 152 192 247 303 352
#     4  11  22  41  63  86 124 173 195 234 320 373
#     4   9  20  37  59  84 116 162 199 241 301 365
#     4  10  19  37  59  85 119 156 202 244 298 356
#     4  11  23  38  60  95 120 150 207 262 291 355
#     4  10  20  39  59  87 123 162 197 246 306 363
#     4   9  22  40  59  81 118 159 200 243 306 366
#
# _framework density 18.882607
#
# number of rings (size 3 to 8) (size 9 to 14) (size 15 to 20)
#    0.000    2.250    2.500    3.375    3.500    3.500 
#    2.250    3.125    0.000    0.000    0.000    0.000 
#    0.000    0.000    0.000    0.000    0.000    0.000 
#
# Total GULP energy -396721.968982 kJ/mol
# GULP energy per Si atom -12397.561531 kJ/mol
# Density = 1.883963 g / cm^3
# Si number density = 18.882607 Si / 1000 Ang^3
#
#
#
# Elastic Constant Matrix: (Units=GPa)
#
#
# Indices 1 2 3 4 5 6 
#
# 1 105.9505 53.0636 65.4274 0.0000 0.0000 0.0000
# 2 53.0636 77.4211 58.2771 0.0000 0.0000 0.0000
# 3 65.4274 58.2771 144.4867 0.0000 0.0000 0.0000
# 4 0.0000 0.0000 0.0000 25.1583 0.0000 0.0000
# 5 0.0000 0.0000 0.0000 0.0000 30.1725 0.0000
# 6 0.0000 0.0000 0.0000 0.0000 0.0000 31.1869
#
#
#
# Elastic Compliance Matrix: (Units=1/GPa)
#
#
# Indices 1 2 3 4 5 6 
#
# 1 0.015841 -0.007837 -0.004012 0.000000 0.000000 0.000000
# 2 -0.007837 0.022425 -0.005496 0.000000 0.000000 0.000000
# 3 -0.004012 -0.005496 0.010955 0.000000 0.000000 0.000000
# 4 0.000000 0.000000 0.000000 0.039748 0.000000 0.000000
# 5 0.000000 0.000000 0.000000 0.000000 0.033143 0.000000
# 6 0.000000 0.000000 0.000000 0.000000 0.000000 0.032065
#
#
# Mechanical properties :
#
#
# Convention : Reuss Voigt Hill
#
# Bulk Modulus (GPa) = 68.82372 75.71049 72.26710
# Shear Modulus (GPa) = 25.81170 27.37622 26.59396
#
# Velocity S-wave (km/s) = 3.70125 3.81177 3.75692
# Velocity P-wave (km/s) = 7.40223 7.71720 7.56135
#
# Compressibility (1/GPa) = 0.01452987
#
# Stress axis : x y z
#
# Youngs Moduli (GPa) = 63.12649 44.59338 91.28577
#
# Poissons Ratio (x) = 0.34949 0.36626
# Poissons Ratio (y) = 0.49474 0.50170
# Poissons Ratio (z) = 0.25328 0.24508
#
# Static dielectric constant tensor:
#      x y z
#    x 3.488300 0.000000 0.000000 
#    y 0.000000 3.293190 0.000000 
#    z 0.000000 0.000000 3.613830 
# 
# 
# High freq. dielectric constant tensor:
#      x y z
#    x 1.735680 0.000000 0.000000 
#    y 0.000000 1.715340 0.000000 
#    z 0.000000 0.000000 1.748240 
# 
# From -- ./inp_files/8577.got.cif
#   From: 2010.03.12/outbox.cif.g09.slc.cpg/sg17_5_cif.got.tgz:8577.got - 2010.04.10 18:46:23.
