data_PCOD8155339
_publ_section_title
;
Structure prediction by ZEFSAII (Michael W. Deem and Ramdas Pophale) SiO2 
 PCOD8155339
Probable space group: P 2 2 2
;
_chemical_formula_sum "Si O2"
_cell_formula_units_Z 18
_cell_length_a 9.338966
_cell_length_b 11.480852
_cell_length_c 8.854334
_cell_angle_alpha 90.000000
_cell_angle_beta 90.000000
_cell_angle_gamma 90.000000
_cell_volume 949.355374
_symmetry_space_group_name_H-M "P 2 2 2"
_symmetry_group_IT_number 16
_symmetry_cell_setting 'orthorhombic'
loop_
_space_group_symop_operation_xyz
x,y,z
-x,-y,z
x,-y,-z
-x,y,-z
loop_
_atom_site_type_symbol
_atom_site_label
_atom_site_fract_x
_atom_site_fract_y
_atom_site_fract_z
Si Si1 0.979182 0.372020 0.320857
Si Si2 0.472671 0.869225 0.824848
Si Si3 0.500000 0.500000 0.500000
Si Si4 0.674996 0.297115 0.365767
Si Si5 0.000000 0.000000 0.500000
Si Si6 0.198224 0.814296 0.660554
O O1 0.822972 0.322919 0.278428
O O2 0.000000 0.500000 0.248867
O O3 0.000000 0.377218 0.500000
O O4 0.099496 0.283997 0.260943
O O5 0.575398 0.783166 0.734889
O O6 0.305400 0.849428 0.792934
O O7 0.500000 0.000000 0.771188
O O8 0.500000 0.849766 0.000000
O O9 0.599148 0.420680 0.393913
O O10 0.705510 0.233112 0.523315
O O11 0.900441 0.921042 0.393671
#
# Coordination Sequence:
#
# PCOD8155339 Si02
#       6
#     4   4   1   4   1   4
#     4   9  18  33  57  86 118 147 186 243 305 360
#     4  11  25  42  59  83 124 167 208 247 302 367
#     4  12  20  32  66 100 120 156 200 258 312 368
#     4  11  20  37  63  92 121 154 202 253 310 363
#     4  12  20  32  64  98 120 148 214 260 320 356
#     4  11  20  37  62  91 119 153 199 262 305 365
#
# _framework density 18.960234
#
# number of rings (size 3 to 8) (size 9 to 14) (size 15 to 20)
#    0.000    1.333    5.556    4.000    0.000    0.889 
#    0.000    1.667    0.000    1.333    0.000    0.000 
#    0.000    0.000    0.000    0.000    0.000    0.000 
#
# Total GULP energy -223201.879448 kJ/mol
# GULP energy per Si atom -12400.104414 kJ/mol
# Density = 1.891708 g / cm^3
# Si number density = 18.960234 Si / 1000 Ang^3
#
#
#
# Elastic Constant Matrix: (Units=GPa)
#
#
# Indices 1 2 3 4 5 6 
#
# 1 172.2021 91.0598 53.9744 0.0000 0.0000 0.0000
# 2 91.0598 167.6380 48.3303 0.0000 0.0000 0.0000
# 3 53.9744 48.3303 53.0750 0.0000 0.0000 0.0000
# 4 0.0000 0.0000 0.0000 15.5578 0.0000 0.0000
# 5 0.0000 0.0000 0.0000 0.0000 21.9292 0.0000
# 6 0.0000 0.0000 0.0000 0.0000 0.0000 45.0984
#
#
#
# Elastic Compliance Matrix: (Units=1/GPa)
#
#
# Indices 1 2 3 4 5 6 
#
# 1 0.009699 -0.003288 -0.006869 0.000000 0.000000 0.000000
# 2 -0.003288 0.009203 -0.005037 0.000000 0.000000 0.000000
# 3 -0.006869 -0.005037 0.030414 0.000000 0.000000 0.000000
# 4 0.000000 0.000000 0.000000 0.064276 0.000000 0.000000
# 5 0.000000 0.000000 0.000000 0.000000 0.045601 0.000000
# 6 0.000000 0.000000 0.000000 0.000000 0.000000 0.022174
#
#
# Mechanical properties :
#
#
# Convention : Reuss Voigt Hill
#
# Bulk Modulus (GPa) = 52.83305 86.62713 69.73009
# Shear Modulus (GPa) = 22.92898 29.82045 26.37471
#
# Velocity S-wave (km/s) = 3.48130 3.97014 3.73373
# Velocity P-wave (km/s) = 6.63965 8.17338 7.44611
#
# Compressibility (1/GPa) = 0.01892755
#
# Stress axis : x y z
#
# Youngs Moduli (GPa) = 103.10518 108.65552 32.88011
#
# Poissons Ratio (x) = 0.35725 0.22586
# Poissons Ratio (y) = 0.33900 0.16562
# Poissons Ratio (z) = 0.70825 0.54730
#
# Static dielectric constant tensor:
#      x y z
#    x 3.876750 0.000000 0.000000 
#    y 0.000000 3.742850 0.000000 
#    z 0.000000 0.000000 2.955610 
# 
# 
# High freq. dielectric constant tensor:
#      x y z
#    x 1.765630 0.000000 0.000000 
#    y 0.000000 1.759680 0.000000 
#    z 0.000000 0.000000 1.676250 
# 
# From -- ./inp_files/3701.got.cif
#   From: 2010.03.12/outbox.cif.g09.slc.cpg/sg16_2_cif.got.tgz:3701.got - 2010.03.31 00:51:45.
