data_PCOD8155215
_publ_section_title
;
Structure prediction by ZEFSAII (Michael W. Deem and Ramdas Pophale) SiO2 
 PCOD8155215
Probable space group: P 2 2 2
;
_chemical_formula_sum "Si O2"
_cell_formula_units_Z 32
_cell_length_a 36.320751
_cell_length_b 5.200568
_cell_length_c 7.744812
_cell_angle_alpha 90.000000
_cell_angle_beta 90.000000
_cell_angle_gamma 90.000000
_cell_volume 1462.906196
_symmetry_space_group_name_H-M "P 2 2 2"
_symmetry_group_IT_number 16
_symmetry_cell_setting 'orthorhombic'
loop_
_space_group_symop_operation_xyz
x,y,z
-x,-y,z
x,-y,-z
-x,y,-z
loop_
_atom_site_type_symbol
_atom_site_label
_atom_site_fract_x
_atom_site_fract_y
_atom_site_fract_z
Si Si1 0.916418 0.997496 0.205823
Si Si2 0.515915 0.745983 0.304448
Si Si3 0.041553 0.500915 0.205875
Si Si4 0.833320 0.994154 0.205895
Si Si5 0.208432 0.491261 0.794293
Si Si6 0.403793 0.242167 0.392298
Si Si7 0.291261 0.482325 0.794830
Si Si8 0.667128 0.025463 0.795829
O O1 0.936708 0.251186 0.276836
O O2 0.874874 0.982056 0.277066
O O3 0.938168 0.751322 0.277468
O O4 0.916212 0.000000 0.000000
O O5 0.500000 0.500000 0.204229
O O6 0.500000 0.745234 0.500000
O O7 0.559749 0.700102 0.283637
O O8 0.500000 0.000000 0.210803
O O9 0.000000 0.500000 0.277630
O O10 0.041333 0.500000 0.000000
O O11 0.815132 0.253800 0.277732
O O12 0.809893 0.752727 0.276729
O O13 0.833278 0.000000 0.000000
O O14 0.249852 0.448923 0.725041
O O15 0.208525 0.500000 0.000000
O O16 0.391765 0.500000 0.500000
O O17 0.417585 0.000000 0.500000
O O18 0.371629 0.120610 0.276335
O O19 0.317748 0.250294 0.726091
O O20 0.304668 0.758559 0.728431
O O21 0.291960 0.500000 0.000000
O O22 0.663761 0.000000 0.000000
#
# Coordination Sequence:
#
# PCOD8155215 Si02
#       8
#     4   4   4   4   4   4   4   4
#     4   9  15  21  27  36  53  71  93 138 195 242
#     4  10  16  30  49  76 103 125 159 203 248 281
#     4   9  15  21  27  33  43  67 101 133 176 247
#     4   9  15  21  30  47  65  82 110 156 207 249
#     4   9  15  23  37  53  69  94 130 163 196 255
#     4  12  21  33  55  82 104 131 172 215 249 295
#     4   9  17  31  47  63  88 124 157 184 223 284
#     4  10  21  35  50  72 103 135 163 199 249 296
#
# _framework density 21.874267
#
# number of rings (size 3 to 8) (size 9 to 14) (size 15 to 20)
#    0.000    2.375    2.500    2.625    0.000    7.500 
#    0.000    0.000    0.000    0.375    0.000    1.750 
#    0.000    0.000    0.000    0.000    0.000    0.000 
#
# Total GULP energy -396498.464957 kJ/mol
# GULP energy per Si atom -12390.577030 kJ/mol
# Density = 2.182448 g / cm^3
# Si number density = 21.874267 Si / 1000 Ang^3
#
#
#
# Elastic Constant Matrix: (Units=GPa)
#
#
# Indices 1 2 3 4 5 6 
#
# 1 216.9819 101.4493 11.2398 0.0000 0.0000 0.0000
# 2 101.4493 230.7492 10.7351 0.0000 0.0000 0.0000
# 3 11.2398 10.7351 12.0163 0.0000 0.0000 0.0000
# 4 0.0000 0.0000 0.0000 2.1427 0.0000 0.0000
# 5 0.0000 0.0000 0.0000 0.0000 22.9299 0.0000
# 6 0.0000 0.0000 0.0000 0.0000 0.0000 51.4316
#
#
#
# Elastic Compliance Matrix: (Units=1/GPa)
#
#
# Indices 1 2 3 4 5 6 
#
# 1 0.005928 -0.002450 -0.003356 0.000000 0.000000 0.000000
# 2 -0.002450 0.005534 -0.002652 0.000000 0.000000 0.000000
# 3 -0.003356 -0.002652 0.088729 0.000000 0.000000 0.000000
# 4 0.000000 0.000000 0.000000 0.466706 0.000000 0.000000
# 5 0.000000 0.000000 0.000000 0.000000 0.043611 0.000000
# 6 0.000000 0.000000 0.000000 0.000000 0.000000 0.019443
#
#
# Mechanical properties :
#
#
# Convention : Reuss Voigt Hill
#
# Bulk Modulus (GPa) = 12.00856 78.51065 45.25960
# Shear Modulus (GPa) = 7.41150 37.72239 22.56694
#
# Velocity S-wave (km/s) = 1.84271 4.15723 3.21544
# Velocity P-wave (km/s) = 3.16689 7.68200 5.87547
#
# Compressibility (1/GPa) = 0.08327395
#
# Stress axis : x y z
#
# Youngs Moduli (GPa) = 168.68828 180.69042 11.27029
#
# Poissons Ratio (x) = 0.44272 0.03782
# Poissons Ratio (y) = 0.41331 0.02989
# Poissons Ratio (z) = 0.56613 0.47927
#
# Static dielectric constant tensor:
#      x y z
#    x 4.107980 0.000000 0.000000 
#    y 0.000000 5.046780 0.000000 
#    z 0.000000 0.000000 3.121860 
# 
# 
# High freq. dielectric constant tensor:
#      x y z
#    x 1.875860 0.000000 0.000000 
#    y 0.000000 1.886670 0.000000 
#    z 0.000000 0.000000 1.780880 
# 
# From -- ./inp_files/5661.got.cif
#   From: 2010.03.12/outbox.cif.g09.slc.cpg/sg16_3_cif.got.tgz:5661.got - 2010.03.31 00:51:45.
