data_PCOD8155373
_publ_section_title
;
Structure prediction by ZEFSAII (Michael W. Deem and Ramdas Pophale) SiO2 
 PCOD8155373
Probable space group: P 2 2 21
;
_chemical_formula_sum "Si O2"
_cell_formula_units_Z 32
_cell_length_a 11.113594
_cell_length_b 12.505181
_cell_length_c 13.281311
_cell_angle_alpha 90.000000
_cell_angle_beta 90.000000
_cell_angle_gamma 90.000000
_cell_volume 1845.803460
_symmetry_space_group_name_H-M "P 2 2 21"
_symmetry_group_IT_number 17
_symmetry_cell_setting 'orthorhombic'
loop_
_space_group_symop_operation_xyz
x,y,z
-x,-y,1/2+z
x,-y,-z
-x,y,1/2-z
loop_
_atom_site_type_symbol
_atom_site_label
_atom_site_fract_x
_atom_site_fract_y
_atom_site_fract_z
Si Si1 0.910926 0.219138 0.527843
Si Si2 0.417560 0.874454 0.480630
Si Si3 0.441983 0.763138 0.855253
Si Si4 0.145953 0.114434 0.552775
Si Si5 0.413385 0.758032 0.168930
Si Si6 0.182249 0.124637 0.779250
Si Si7 0.288499 0.626083 0.997562
Si Si8 0.739957 0.936122 0.592210
O O1 0.894784 0.200820 0.647547
O O2 0.851122 0.332808 0.496187
O O3 0.839752 0.131516 0.465028
O O4 0.053244 0.202871 0.505510
O O5 0.448056 0.799921 0.575411
O O6 0.280181 0.842261 0.458963
O O7 0.509187 0.845620 0.391595
O O8 0.426135 0.000000 0.500000
O O9 0.500000 0.727464 0.750000
O O10 0.354312 0.865119 0.846023
O O11 0.364801 0.664705 0.900725
O O12 0.118659 0.106941 0.672182
O O13 0.124907 0.000000 0.500000
O O14 0.500000 0.699390 0.250000
O O15 0.314465 0.823867 0.231422
O O16 0.354268 0.670490 0.096827
O O17 0.192789 0.007662 0.827082
O O18 0.286026 0.500000 0.000000
O O19 0.673029 0.000000 0.500000
#
# Coordination Sequence:
#
# PCOD8155373 Si02
#       8
#     4   4   4   4   4   4   4   4
#     4   9  19  35  50  69  97 129 175 220 246 277
#     4  10  20  30  44  77 116 144 165 184 236 297
#     4  10  20  31  52  76 103 133 161 207 249 300
#     4  11  21  29  45  77 110 141 169 193 229 294
#     4  10  18  32  50  77 107 131 155 211 254 293
#     4  10  18  29  50  74 102 143 172 192 233 294
#     4   9  20  38  58  75  87 121 175 217 264 308
#     4   9  17  31  48  69 103 139 174 200 234 285
#
# _framework density 17.336624
#
# number of rings (size 3 to 8) (size 9 to 14) (size 15 to 20)
#    0.000    2.250    1.250    4.875    3.500    1.500 
#    0.000    0.000    0.000    3.000    6.500    0.000 
#    0.000    0.000    0.000    0.000    0.000    0.000 
#
# Total GULP energy -396536.709877 kJ/mol
# GULP energy per Si atom -12391.772184 kJ/mol
# Density = 1.729717 g / cm^3
# Si number density = 17.336624 Si / 1000 Ang^3
#
#
#
# Elastic Constant Matrix: (Units=GPa)
#
#
# Indices 1 2 3 4 5 6 
#
# 1 97.7066 36.9208 21.3503 0.0000 0.0000 0.0000
# 2 36.9208 103.2765 28.4365 0.0000 0.0000 0.0000
# 3 21.3503 28.4365 80.4470 0.0000 0.0000 0.0000
# 4 0.0000 0.0000 0.0000 11.0465 0.0000 0.0000
# 5 0.0000 0.0000 0.0000 0.0000 15.1954 0.0000
# 6 0.0000 0.0000 0.0000 0.0000 0.0000 16.4355
#
#
#
# Elastic Compliance Matrix: (Units=1/GPa)
#
#
# Indices 1 2 3 4 5 6 
#
# 1 0.012079 -0.003806 -0.001860 0.000000 0.000000 0.000000
# 2 -0.003806 0.011926 -0.003206 0.000000 0.000000 0.000000
# 3 -0.001860 -0.003206 0.014057 0.000000 0.000000 0.000000
# 4 0.000000 0.000000 0.000000 0.090526 0.000000 0.000000
# 5 0.000000 0.000000 0.000000 0.000000 0.065809 0.000000
# 6 0.000000 0.000000 0.000000 0.000000 0.000000 0.060844
#
#
# Mechanical properties :
#
#
# Convention : Reuss Voigt Hill
#
# Bulk Modulus (GPa) = 49.21555 50.53836 49.87695
# Shear Modulus (GPa) = 17.87250 21.51698 19.69474
#
# Velocity S-wave (km/s) = 3.21426 3.52679 3.37415
# Velocity P-wave (km/s) = 6.49809 6.76748 6.63415
#
# Compressibility (1/GPa) = 0.02031878
#
# Stress axis : x y z
#
# Youngs Moduli (GPa) = 82.78498 83.85025 71.13698
#
# Poissons Ratio (x) = 0.31914 0.13235
# Poissons Ratio (y) = 0.31509 0.22803
# Poissons Ratio (z) = 0.15402 0.26878
#
# Static dielectric constant tensor:
#      x y z
#    x 3.485350 0.000000 0.000000 
#    y 0.000000 2.862730 0.000000 
#    z 0.000000 0.000000 3.266670 
# 
# 
# High freq. dielectric constant tensor:
#      x y z
#    x 1.680810 0.000000 0.000000 
#    y 0.000000 1.623030 0.000000 
#    z 0.000000 0.000000 1.668710 
# 
# From -- ./inp_files/7074.got.cif
#   From: 2010.03.12/outbox.cif.g09.slc.cpg/sg17_4_cif.got.tgz:7074.got - 2010.04.10 18:46:23.
