data_PCOD8155970
_publ_section_title
;
Structure prediction by ZEFSAII (Michael W. Deem and Ramdas Pophale) SiO2 
 PCOD8155970
Probable space group: P 21 21 2
;
_chemical_formula_sum "Si O2"
_cell_formula_units_Z 32
_cell_length_a 13.606076
_cell_length_b 10.897139
_cell_length_c 10.467274
_cell_angle_alpha 90.000000
_cell_angle_beta 90.000000
_cell_angle_gamma 90.000000
_cell_volume 1551.954469
_symmetry_space_group_name_H-M "P 21 21 2"
_symmetry_group_IT_number 18
_symmetry_cell_setting 'orthorhombic'
loop_
_space_group_symop_operation_xyz
x,y,z
-x,-y,z
1/2+x,1/2-y,-z
1/2-x,1/2+y,-z
loop_
_atom_site_type_symbol
_atom_site_label
_atom_site_fract_x
_atom_site_fract_y
_atom_site_fract_z
Si Si1 0.358848 0.910830 0.706238
Si Si2 0.422783 0.605175 0.963642
Si Si3 0.391185 0.009100 0.420653
Si Si4 0.756189 0.676870 0.689822
Si Si5 0.255662 0.700411 0.580262
Si Si6 0.104756 0.014466 0.315369
Si Si7 0.767790 0.383487 0.125624
Si Si8 0.489686 0.135950 0.925158
O O1 0.384092 0.963703 0.567126
O O2 0.290158 0.790841 0.692451
O O3 0.459357 0.880299 0.783927
O O4 0.288710 0.002180 0.783036
O O5 0.500000 0.500000 0.013226
O O6 0.313705 0.580598 0.020578
O O7 0.411264 0.593723 0.812101
O O8 0.459897 0.745613 0.993969
O O9 0.334263 0.932106 0.312885
O O10 0.500000 0.000000 0.371526
O O11 0.355432 0.150278 0.405599
O O12 0.764472 0.739693 0.554841
O O13 0.648043 0.620289 0.715907
O O14 0.783090 0.772778 0.798508
O O15 0.325459 0.580568 0.582415
O O16 0.000000 0.000000 0.384480
O O17 0.873204 0.335987 0.074835
O O18 0.500000 0.000000 0.993301
#
# Coordination Sequence:
#
# PCOD8155970 Si02
#       8
#     4   4   4   4   4   4   4   4
#     4  10  20  37  64  92 120 163 216 259 313 382
#     4  11  24  44  65  94 130 170 216 265 323 379
#     4  10  20  37  58  87 125 164 204 254 314 390
#     4  10  22  35  60  93 121 157 206 257 320 378
#     4  10  20  37  61  93 122 157 206 262 316 379
#     4  10  21  40  65  88 122 165 218 259 309 375
#     4  11  22  41  65  91 130 161 211 268 319 375
#     4  10  22  39  68  97 114 166 223 262 311 371
#
# _framework density 20.619160999999998
#
# number of rings (size 3 to 8) (size 9 to 14) (size 15 to 20)
#    0.000    1.750    2.500    2.625    0.000    5.000 
#    2.250    2.500    0.000    0.000    0.000    0.000 
#    0.000    0.000    0.000    0.000    0.000    0.000 
#
# Total GULP energy -396469.776103 kJ/mol
# GULP energy per Si atom -12389.680503 kJ/mol
# Density = 2.057223 g / cm^3
# Si number density = 20.619161 Si / 1000 Ang^3
#
#
#
# Elastic Constant Matrix: (Units=GPa)
#
#
# Indices 1 2 3 4 5 6 
#
# 1 136.3784 29.7326 29.1959 0.0000 0.0000 0.0000
# 2 29.7326 93.9892 17.4184 0.0000 0.0000 0.0000
# 3 29.1959 17.4184 22.4465 0.0000 0.0000 0.0000
# 4 0.0000 0.0000 0.0000 26.5597 0.0000 0.0000
# 5 0.0000 0.0000 0.0000 0.0000 22.5718 0.0000
# 6 0.0000 0.0000 0.0000 0.0000 0.0000 19.9274
#
#
#
# Elastic Compliance Matrix: (Units=1/GPa)
#
#
# Indices 1 2 3 4 5 6 
#
# 1 0.010227 -0.000899 -0.012604 0.000000 0.000000 0.000000
# 2 -0.000899 0.012506 -0.008535 0.000000 0.000000 0.000000
# 3 -0.012604 -0.008535 0.067567 0.000000 0.000000 0.000000
# 4 0.000000 0.000000 0.000000 0.037651 0.000000 0.000000
# 5 0.000000 0.000000 0.000000 0.000000 0.044303 0.000000
# 6 0.000000 0.000000 0.000000 0.000000 0.000000 0.050182
#
#
# Mechanical properties :
#
#
# Convention : Reuss Voigt Hill
#
# Bulk Modulus (GPa) = 21.63391 45.05640 33.34516
# Shear Modulus (GPa) = 17.73551 25.57624 21.65588
#
# Velocity S-wave (km/s) = 2.93601 3.52577 3.24432
# Velocity P-wave (km/s) = 4.69132 6.20273 5.49920
#
# Compressibility (1/GPa) = 0.04622372
#
# Stress axis : x y z
#
# Youngs Moduli (GPa) = 97.78135 79.96363 14.80007
#
# Poissons Ratio (x) = 0.07191 0.18654
# Poissons Ratio (y) = 0.08794 0.12631
# Poissons Ratio (z) = 1.23245 0.68246
#
# Static dielectric constant tensor:
#      x y z
#    x 3.709940 0.000000 0.000000 
#    y 0.000000 4.378150 0.000000 
#    z 0.000000 0.000000 3.386570 
# 
# 
# High freq. dielectric constant tensor:
#      x y z
#    x 1.810520 0.000000 0.000000 
#    y 0.000000 1.827620 0.000000 
#    z 0.000000 0.000000 1.766210 
# 
# From -- ./inp_files/5946.got.cif
#   From: 2010.03.12/outbox.cif.g09.slc.cpg/sg18_3_cif.got.tgz:5946.got - 2010.04.10 18:53:55.
