data_PCOD8155177
_publ_section_title
;
Structure prediction by ZEFSAII (Michael W. Deem and Ramdas Pophale) SiO2 
 PCOD8155177
Probable space group: C 2/C
;
_chemical_formula_sum "Si O2"
_cell_formula_units_Z 28
_cell_length_a 15.011624
_cell_length_b 11.022283
_cell_length_c 10.488945
_cell_angle_alpha 90.000000
_cell_angle_beta 48.410919
_cell_angle_gamma 90.000000
_cell_volume 1298.042353
_symmetry_space_group_name_H-M "C 2/C"
_symmetry_group_IT_number 15
_symmetry_cell_setting 'monoclinic'
loop_
_space_group_symop_operation_xyz
x,y,z
-x,y,1/2-z
-x,-y,-z
x,-y,1/2+z
1/2+x,1/2+y,z
1/2-x,1/2+y,1/2-z
1/2-x,1/2-y,-z
1/2+x,1/2-y,1/2+z
loop_
_atom_site_type_symbol
_atom_site_label
_atom_site_fract_x
_atom_site_fract_y
_atom_site_fract_z
Si Si1 0.485998 0.811012 0.538436
Si Si2 0.338066 0.999777 0.052640
Si Si3 0.500000 0.152508 0.750000
Si Si4 0.564615 0.555459 0.817873
O O1 0.605177 0.865204 0.489994
O O2 0.518676 0.767706 0.360883
O O3 0.436443 0.701050 0.668432
O O4 0.385533 0.917445 0.626738
O O5 0.197426 0.994156 0.186195
O O6 0.384094 0.064870 0.879068
O O7 0.500000 0.515406 0.750000
O O8 0.500000 0.500000 0.000000
#
# Coordination Sequence:
#
# PCOD8155177 Si02
#       4
#     8   8   4   8
#     4   9  22  42  74  99 128 192 227 286 340 406
#     4   9  22  44  71  99 138 182 240 271 351 420
#     4   8  18  42  78  90 128 188 240 264 340 418
#     4  12  30  43  67 109 148 176 229 295 350 398
#
# _framework density 21.570944000000001
#
# number of rings (size 3 to 8) (size 9 to 14) (size 15 to 20)
#    1.714    0.571    0.000    0.000   12.000    1.143 
#    0.000    4.286    0.000    0.000    0.000    0.000 
#    0.000    0.000    0.000    0.000    0.000    0.000 
#
# Total GULP energy -173462.246041 kJ/mol
# GULP energy per Si atom -12390.160431 kJ/mol
# Density = 2.152185 g / cm^3
# Si number density = 21.570944 Si / 1000 Ang^3
#
#
#
# Elastic Constant Matrix: (Units=GPa)
#
#
# Indices 1 2 3 4 5 6 
#
# 1 138.0967 23.8141 65.2991 0.0000 -24.4273 0.0000
# 2 23.8141 57.5385 22.1606 0.0000 -13.5328 0.0000
# 3 65.2991 22.1606 123.2669 0.0000 -21.9266 0.0000
# 4 0.0000 0.0000 0.0000 31.9991 0.0000 6.7842
# 5 -24.4273 -13.5328 -21.9266 0.0000 50.4174 0.0000
# 6 0.0000 0.0000 0.0000 6.7842 0.0000 22.4638
#
#
#
# Elastic Compliance Matrix: (Units=1/GPa)
#
#
# Indices 1 2 3 4 5 6 
#
# 1 0.010178 -0.001862 -0.004627 0.000000 0.002419 0.000000
# 2 -0.001862 0.019729 -0.001928 0.000000 0.003555 0.000000
# 3 -0.004627 -0.001928 0.011293 0.000000 0.002152 0.000000
# 4 0.000000 0.000000 0.000000 0.033389 0.000000 -0.010084
# 5 0.002419 0.003555 0.002152 0.000000 0.022897 0.000000
# 6 0.000000 0.000000 0.000000 -0.010084 0.000000 0.047561
#
#
# Mechanical properties :
#
#
# Convention : Reuss Voigt Hill
#
# Bulk Modulus (GPa) = 41.03945 60.16107 50.60026
# Shear Modulus (GPa) = 29.41145 34.81796 32.11470
#
# Velocity S-wave (km/s) = 3.69653 4.02196 3.86268
# Velocity P-wave (km/s) = 6.10621 7.03695 6.58804
#
# Compressibility (1/GPa) = 0.02436680
#
# Stress axis : x y z
#
# Youngs Moduli (GPa) = 98.25130 50.68699 88.55154
#
# Poissons Ratio (x) = 0.09435 0.40970
# Poissons Ratio (y) = 0.18290 0.17076
# Poissons Ratio (z) = 0.45457 0.09774
#
# Static dielectric constant tensor:
#      x y z
#    x 9.846090 0.000000 8.982940 
#    y 0.000000 3.761990 0.000000 
#    z 8.982940 0.000000 16.327140 
# 
# 
# High freq. dielectric constant tensor:
#      x y z
#    x 1.832400 0.000000 0.008800 
#    y 0.000000 1.838230 0.000000 
#    z 0.008800 0.000000 1.841010 
# 
# From -- ./inp_files/36681.got.cif
#   From: 2010.06.25/outbox.cif.g09.slc.cpg/sg15_19_cif.got.tgz:36681.got - 2010.06.28 07:06:18.
