data_PCOD8155549
_publ_section_title
;
Structure prediction by ZEFSAII (Michael W. Deem and Ramdas Pophale) SiO2 
 PCOD8155549
Probable space group: P 2 2 21
;
_chemical_formula_sum "Si O2"
_cell_formula_units_Z 20
_cell_length_a 13.209470
_cell_length_b 5.754511
_cell_length_c 11.966323
_cell_angle_alpha 90.000000
_cell_angle_beta 90.000000
_cell_angle_gamma 90.000000
_cell_volume 909.608560
_symmetry_space_group_name_H-M "P 2 2 21"
_symmetry_group_IT_number 17
_symmetry_cell_setting 'orthorhombic'
loop_
_space_group_symop_operation_xyz
x,y,z
-x,-y,1/2+z
x,-y,-z
-x,y,1/2-z
loop_
_atom_site_type_symbol
_atom_site_label
_atom_site_fract_x
_atom_site_fract_y
_atom_site_fract_z
Si Si1 0.135594 0.252139 0.563926
Si Si2 0.000000 0.933002 0.250000
Si Si3 0.500000 0.071891 0.250000
Si Si4 0.317139 0.772163 0.276966
Si Si5 0.365205 0.610949 0.882366
Si Si6 0.183013 0.070952 0.121309
O O1 0.115981 0.500000 0.500000
O O2 0.048992 0.238023 0.658139
O O3 0.247499 0.276206 0.616048
O O4 0.131396 0.000000 0.500000
O O5 0.915959 0.106541 0.301937
O O6 0.549392 0.200443 0.356062
O O7 0.410386 0.933641 0.312455
O O8 0.369925 0.545402 0.227837
O O9 0.251979 0.870892 0.173988
O O10 0.249475 0.698630 0.889051
O O11 0.396385 0.500000 0.000000
O O12 0.143504 0.000000 0.000000
#
# Coordination Sequence:
#
# PCOD8155549 Si02
#       6
#     4   2   2   4   4   4
#     4  11  27  50  72 107 150 195 238 299 371 427
#     4  10  24  46  72 106 142 184 244 294 346 442
#     4  10  24  42  68 102 138 178 248 300 350 438
#     4  10  23  45  64 100 143 183 235 296 354 427
#     4  11  22  43  72 100 138 187 237 297 362 428
#     4  10  20  41  67  98 137 180 229 290 349 420
#
# _framework density 21.987477999999999
#
# number of rings (size 3 to 8) (size 9 to 14) (size 15 to 20)
#    0.000    1.600    2.000    1.200    8.400    0.800 
#   18.000    0.000    0.000    0.000    0.000    0.000 
#    0.000    0.000    0.000    0.000    0.000    0.000 
#
# Total GULP energy -247823.252624 kJ/mol
# GULP energy per Si atom -12391.162631 kJ/mol
# Density = 2.193743 g / cm^3
# Si number density = 21.987478 Si / 1000 Ang^3
#
#
#
# Elastic Constant Matrix: (Units=GPa)
#
#
# Indices 1 2 3 4 5 6 
#
# 1 153.0542 45.0726 67.2382 0.0000 0.0000 0.0000
# 2 45.0726 115.4179 61.1120 0.0000 0.0000 0.0000
# 3 67.2382 61.1120 125.1501 0.0000 0.0000 0.0000
# 4 0.0000 0.0000 0.0000 31.2603 0.0000 0.0000
# 5 0.0000 0.0000 0.0000 0.0000 14.0934 0.0000
# 6 0.0000 0.0000 0.0000 0.0000 0.0000 19.9157
#
#
#
# Elastic Compliance Matrix: (Units=1/GPa)
#
#
# Indices 1 2 3 4 5 6 
#
# 1 0.008682 -0.001242 -0.004058 0.000000 0.000000 0.000000
# 2 -0.001242 0.011863 -0.005126 0.000000 0.000000 0.000000
# 3 -0.004058 -0.005126 0.012674 0.000000 0.000000 0.000000
# 4 0.000000 0.000000 0.000000 0.031989 0.000000 0.000000
# 5 0.000000 0.000000 0.000000 0.000000 0.070955 0.000000
# 6 0.000000 0.000000 0.000000 0.000000 0.000000 0.050212
#
#
# Mechanical properties :
#
#
# Convention : Reuss Voigt Hill
#
# Bulk Modulus (GPa) = 80.85696 82.27419 81.56557
# Shear Modulus (GPa) = 23.65757 27.73385 25.69571
#
# Velocity S-wave (km/s) = 3.28374 3.55540 3.42226
# Velocity P-wave (km/s) = 7.15759 7.37254 7.26586
#
# Compressibility (1/GPa) = 0.01236752
#
# Stress axis : x y z
#
# Youngs Moduli (GPa) = 115.17917 84.29513 78.90387
#
# Poissons Ratio (x) = 0.10467 0.32021
# Poissons Ratio (y) = 0.14302 0.40444
# Poissons Ratio (z) = 0.46742 0.43207
#
# Static dielectric constant tensor:
#      x y z
#    x 4.193210 0.000000 0.000000 
#    y 0.000000 4.027360 0.000000 
#    z 0.000000 0.000000 3.883080 
# 
# 
# High freq. dielectric constant tensor:
#      x y z
#    x 1.881930 0.000000 0.000000 
#    y 0.000000 1.855570 0.000000 
#    z 0.000000 0.000000 1.862910 
# 
# From -- ./inp_files/7171.got.cif
#   From: 2010.03.12/outbox.cif.g09.slc.cpg/sg17_4_cif.got.tgz:7171.got - 2010.04.10 18:46:23.
