data_PCOD8155949
_publ_section_title
;
Structure prediction by ZEFSAII (Michael W. Deem and Ramdas Pophale) SiO2 
 PCOD8155949
Probable space group: P 21 21 2
;
_chemical_formula_sum "Si O2"
_cell_formula_units_Z 32
_cell_length_a 30.428787
_cell_length_b 5.408963
_cell_length_c 9.797590
_cell_angle_alpha 90.000000
_cell_angle_beta 90.000000
_cell_angle_gamma 90.000000
_cell_volume 1612.567536
_symmetry_space_group_name_H-M "P 21 21 2"
_symmetry_group_IT_number 18
_symmetry_cell_setting 'orthorhombic'
loop_
_space_group_symop_operation_xyz
x,y,z
-x,-y,z
1/2+x,1/2-y,-z
1/2-x,1/2+y,-z
loop_
_atom_site_type_symbol
_atom_site_label
_atom_site_fract_x
_atom_site_fract_y
_atom_site_fract_z
Si Si1 0.191067 0.369706 0.219149
Si Si2 0.668330 0.183360 0.068944
Si Si3 0.300996 0.477866 0.554814
Si Si4 0.121152 0.834835 0.983369
Si Si5 0.022047 0.750948 0.981028
Si Si6 0.522428 0.751921 0.695695
Si Si7 0.231007 0.185934 0.701056
Si Si8 0.377405 0.242311 0.714676
O O1 0.230699 0.564587 0.208988
O O2 0.141646 0.477675 0.238505
O O3 0.201026 0.218030 0.352744
O O4 0.192341 0.234690 0.072462
O O5 0.635155 0.414353 0.096981
O O6 0.702027 0.158510 0.193574
O O7 0.649444 0.906939 0.054588
O O8 0.255016 0.345756 0.585715
O O9 0.301837 0.517946 0.391142
O O10 0.345475 0.336091 0.595205
O O11 0.072536 0.759502 0.937372
O O12 0.123129 0.904485 0.145655
O O13 0.000000 0.500000 0.920430
O O14 0.016591 0.746644 0.142947
O O15 0.000000 0.000000 0.921106
O O16 0.500000 0.500000 0.636360
O O17 0.573671 0.767404 0.653874
O O18 0.500000 0.000000 0.633942
#
# Coordination Sequence:
#
# PCOD8155949 Si02
#       8
#     4   4   4   4   4   4   4   4
#     4  10  22  37  57  79 117 151 195 237 294 342
#     4  11  24  37  58  84 116 156 191 248 291 346
#     4  11  21  40  55  82 113 156 194 244 290 343
#     4  10  20  36  54  85 120 149 194 237 297 351
#     4   9  16  28  50  79 114 150 180 228 291 351
#     4   9  18  29  50  82 117 146 183 232 286 346
#     4  11  25  37  60  83 114 155 207 245 288 349
#     4   9  20  34  56  82 115 159 186 235 297 350
#
# _framework density 19.844128999999999
#
# number of rings (size 3 to 8) (size 9 to 14) (size 15 to 20)
#    0.000    2.000    2.500    0.750    5.250    3.000 
#    0.000    0.000    0.000    0.000    0.000    3.500 
#    0.000    0.000    0.000    0.000    0.000    0.000 
#
# Total GULP energy -396457.769038 kJ/mol
# GULP energy per Si atom -12389.305282 kJ/mol
# Density = 1.979896 g / cm^3
# Si number density = 19.844129 Si / 1000 Ang^3
#
#
#
# Elastic Constant Matrix: (Units=GPa)
#
#
# Indices 1 2 3 4 5 6 
#
# 1 124.8517 37.6970 48.7510 0.0000 0.0000 0.0000
# 2 37.6970 103.9253 20.7803 0.0000 0.0000 0.0000
# 3 48.7510 20.7803 61.0820 0.0000 0.0000 0.0000
# 4 0.0000 0.0000 0.0000 22.1713 0.0000 0.0000
# 5 0.0000 0.0000 0.0000 0.0000 10.3173 0.0000
# 6 0.0000 0.0000 0.0000 0.0000 0.0000 18.3750
#
#
#
# Elastic Compliance Matrix: (Units=1/GPa)
#
#
# Indices 1 2 3 4 5 6 
#
# 1 0.012294 -0.002680 -0.008900 0.000000 0.000000 0.000000
# 2 -0.002680 0.010909 -0.001572 0.000000 0.000000 0.000000
# 3 -0.008900 -0.001572 0.024010 0.000000 0.000000 0.000000
# 4 0.000000 0.000000 0.000000 0.045103 0.000000 0.000000
# 5 0.000000 0.000000 0.000000 0.000000 0.096925 0.000000
# 6 0.000000 0.000000 0.000000 0.000000 0.000000 0.054422
#
#
# Mechanical properties :
#
#
# Convention : Reuss Voigt Hill
#
# Bulk Modulus (GPa) = 47.82970 56.03509 51.93239
# Shear Modulus (GPa) = 18.05465 22.34810 20.20138
#
# Velocity S-wave (km/s) = 3.01960 3.35950 3.19408
# Velocity P-wave (km/s) = 6.02597 6.58386 6.31109
#
# Compressibility (1/GPa) = 0.02090751
#
# Stress axis : x y z
#
# Youngs Moduli (GPa) = 81.34060 91.66968 41.64920
#
# Poissons Ratio (x) = 0.24565 0.37070
# Poissons Ratio (y) = 0.21797 0.06549
# Poissons Ratio (z) = 0.72397 0.14414
#
# Static dielectric constant tensor:
#      x y z
#    x 3.681570 0.000000 0.000000 
#    y 0.000000 3.841380 0.000000 
#    z 0.000000 0.000000 3.228420 
# 
# 
# High freq. dielectric constant tensor:
#      x y z
#    x 1.776330 0.000000 0.000000 
#    y 0.000000 1.780920 0.000000 
#    z 0.000000 0.000000 1.722940 
# 
# From -- ./inp_files/4858.got.cif
#   From: 2010.03.12/outbox.cif.g09.slc.cpg/sg18_3_cif.got.tgz:4858.got - 2010.04.10 18:53:55.
