data_PCOD8155089
_publ_section_title
;
Structure prediction by ZEFSAII (Michael W. Deem and Ramdas Pophale) SiO2 
 PCOD8155089
Probable space group: C 2/C
;
_chemical_formula_sum "Si O2"
_cell_formula_units_Z 44
_cell_length_a 14.219767
_cell_length_b 12.057067
_cell_length_c 11.752084
_cell_angle_alpha 90.000000
_cell_angle_beta 102.217051
_cell_angle_gamma 90.000000
_cell_volume 1969.248280
_symmetry_space_group_name_H-M "C 2/C"
_symmetry_group_IT_number 15
_symmetry_cell_setting 'monoclinic'
loop_
_space_group_symop_operation_xyz
x,y,z
-x,y,1/2-z
-x,-y,-z
x,-y,1/2+z
1/2+x,1/2+y,z
1/2-x,1/2+y,1/2-z
1/2-x,1/2-y,-z
1/2+x,1/2-y,1/2+z
loop_
_atom_site_type_symbol
_atom_site_label
_atom_site_fract_x
_atom_site_fract_y
_atom_site_fract_z
Si Si1 0.202358 0.270943 0.610102
Si Si2 0.905238 0.545276 0.531938
Si Si3 0.500000 0.822874 0.250000
Si Si4 0.269815 0.377656 0.011023
Si Si5 0.629330 0.357940 0.688276
Si Si6 0.897337 0.901601 0.259096
O O1 0.250000 0.250000 0.500000
O O2 0.125969 0.366974 0.570804
O O3 0.277472 0.317501 0.719807
O O4 0.147153 0.161811 0.642620
O O5 0.925435 0.601457 0.660244
O O6 0.826096 0.450252 0.531297
O O7 0.000000 0.500000 0.500000
O O8 0.445421 0.744407 0.327165
O O9 0.316171 0.401150 0.143152
O O10 0.250000 0.250000 0.000000
O O11 0.345753 0.398836 0.931432
O O12 0.580243 0.468815 0.721118
O O13 0.000000 0.845966 0.250000
#
# Coordination Sequence:
#
# PCOD8155089 Si02
#       6
#     8   8   4   8   8   8
#     4  12  26  49  75 105 152 205 249 308 386 456
#     4  12  29  46  77 110 150 198 255 311 382 456
#     4  12  28  48  72 114 152 202 254 318 380 460
#     4  12  27  48  75 110 152 199 253 321 382 456
#     4  12  26  47  74 105 156 197 253 314 386 448
#     4  12  29  47  77 114 150 200 260 316 383 459
#
# _framework density 22.343551999999999
#
# number of rings (size 3 to 8) (size 9 to 14) (size 15 to 20)
#    0.000    0.000    6.364    2.182    7.636    0.727 
#    0.000    0.000    0.000    0.000    0.000    0.000 
#    0.000    0.000    0.000    0.000    0.000    0.000 
#
# Total GULP energy -272741.229306 kJ/mol
# GULP energy per Si atom -12397.328605 kJ/mol
# Density = 2.229270 g / cm^3
# Si number density = 22.343552 Si / 1000 Ang^3
#
#
#
# Elastic Constant Matrix: (Units=GPa)
#
#
# Indices 1 2 3 4 5 6 
#
# 1 142.3529 65.8498 42.0150 0.0000 -14.2541 0.0000
# 2 65.8498 157.0715 46.9597 0.0000 -0.3900 0.0000
# 3 42.0150 46.9597 92.7741 0.0000 -10.5705 0.0000
# 4 0.0000 0.0000 0.0000 33.8808 0.0000 -0.3434
# 5 -14.2541 -0.3900 -10.5705 0.0000 41.0453 0.0000
# 6 0.0000 0.0000 0.0000 -0.3434 0.0000 44.5929
#
#
#
# Elastic Compliance Matrix: (Units=1/GPa)
#
#
# Indices 1 2 3 4 5 6 
#
# 1 0.009497 -0.003276 -0.002339 0.000000 0.002665 0.000000
# 2 -0.003276 0.008666 -0.003115 0.000000 -0.001857 0.000000
# 3 -0.002339 -0.003115 0.013722 0.000000 0.002692 0.000000
# 4 0.000000 0.000000 0.000000 0.029518 0.000000 0.000227
# 5 0.002665 -0.001857 0.002692 0.000000 0.025964 0.000000
# 6 0.000000 0.000000 0.000000 0.000227 0.000000 0.022427
#
#
# Mechanical properties :
#
#
# Convention : Reuss Voigt Hill
#
# Bulk Modulus (GPa) = 69.32145 77.98305 73.65225
# Shear Modulus (GPa) = 37.86086 39.72873 38.79480
#
# Velocity S-wave (km/s) = 4.12088 4.22131 4.17140
# Velocity P-wave (km/s) = 7.33040 7.66400 7.49906
#
# Compressibility (1/GPa) = 0.01442555
#
# Stress axis : x y z
#
# Youngs Moduli (GPa) = 105.29303 115.38815 72.87703
#
# Poissons Ratio (x) = 0.37796 0.17050
# Poissons Ratio (y) = 0.34489 0.22701
# Poissons Ratio (z) = 0.24633 0.35942
#
# Static dielectric constant tensor:
#      x y z
#    x 4.091580 0.000000 0.177280 
#    y 0.000000 4.550920 0.000000 
#    z 0.177280 0.000000 4.111280 
# 
# 
# High freq. dielectric constant tensor:
#      x y z
#    x 1.893390 0.000000 -0.001060 
#    y 0.000000 1.898800 0.000000 
#    z -0.001060 0.000000 1.884120 
# 
# From -- ./inp_files/95058.got.cif
#   From: 2010.06.25/outbox.cif.g09.slc.cpg/sg15_48_cif.got.tgz:95058.got - 2010.06.28 07:06:18.
