data_PCOD8155403
_publ_section_title
;
Structure prediction by ZEFSAII (Michael W. Deem and Ramdas Pophale) SiO2 
 PCOD8155403
Probable space group: P 2 2 21
;
_chemical_formula_sum "Si O2"
_cell_formula_units_Z 18
_cell_length_a 8.714793
_cell_length_b 8.427834
_cell_length_c 12.880796
_cell_angle_alpha 90.000000
_cell_angle_beta 90.000000
_cell_angle_gamma 90.000000
_cell_volume 946.053618
_symmetry_space_group_name_H-M "P 2 2 21"
_symmetry_group_IT_number 17
_symmetry_cell_setting 'orthorhombic'
loop_
_space_group_symop_operation_xyz
x,y,z
-x,-y,1/2+z
x,-y,-z
-x,y,1/2-z
loop_
_atom_site_type_symbol
_atom_site_label
_atom_site_fract_x
_atom_site_fract_y
_atom_site_fract_z
Si Si1 0.258449 0.041028 0.620777
Si Si2 0.770283 0.354212 0.315019
Si Si3 0.063968 0.500000 0.000000
Si Si4 0.500000 0.837646 0.750000
Si Si5 0.000000 0.902939 0.750000
Si Si6 0.868389 0.356152 0.826773
O O1 0.267813 0.229553 0.648748
O O2 0.272005 0.000000 0.500000
O O3 0.395084 0.947932 0.677561
O O4 0.087445 0.001339 0.660977
O O5 0.813692 0.417980 0.426240
O O6 0.599084 0.284834 0.318700
O O7 0.796336 0.482884 0.222532
O O8 0.875554 0.202813 0.304749
O O9 0.950669 0.613603 0.063451
O O10 0.000000 0.288348 0.750000
#
# Coordination Sequence:
#
# PCOD8155403 Si02
#       6
#     4   4   2   2   2   4
#     4  11  23  41  63  91 126 167 205 251 318 362
#     4  10  20  40  61  88 127 159 199 254 304 361
#     4  10  18  36  68  94 112 148 222 254 302 342
#     4  10  26  44  52  92 136 170 188 250 314 378
#     4  10  18  38  64  90 124 152 204 272 296 352
#     4  10  20  37  66  97 113 154 209 266 296 355
#
# _framework density 19.026406000000001
#
# number of rings (size 3 to 8) (size 9 to 14) (size 15 to 20)
#    0.000    1.778    4.444    1.333    3.111    0.889 
#   12.000    2.222    0.000    0.000    0.000    0.000 
#    0.000    0.000    0.000    0.000    0.000    0.000 
#
# Total GULP energy -222995.659767 kJ/mol
# GULP energy per Si atom -12388.647765 kJ/mol
# Density = 1.898310 g / cm^3
# Si number density = 19.026406 Si / 1000 Ang^3
#
#
#
# Elastic Constant Matrix: (Units=GPa)
#
#
# Indices 1 2 3 4 5 6 
#
# 1 108.9787 56.6876 51.9590 0.0000 0.0000 0.0000
# 2 56.6876 99.3042 53.7250 0.0000 0.0000 0.0000
# 3 51.9590 53.7250 133.8442 0.0000 0.0000 0.0000
# 4 0.0000 0.0000 0.0000 14.7152 0.0000 0.0000
# 5 0.0000 0.0000 0.0000 0.0000 11.0718 0.0000
# 6 0.0000 0.0000 0.0000 0.0000 0.0000 49.2991
#
#
#
# Elastic Compliance Matrix: (Units=1/GPa)
#
#
# Indices 1 2 3 4 5 6 
#
# 1 0.013833 -0.006376 -0.002811 0.000000 0.000000 0.000000
# 2 -0.006376 0.015802 -0.003868 0.000000 0.000000 0.000000
# 3 -0.002811 -0.003868 0.010115 0.000000 0.000000 0.000000
# 4 0.000000 0.000000 0.000000 0.067957 0.000000 0.000000
# 5 0.000000 0.000000 0.000000 0.000000 0.090320 0.000000
# 6 0.000000 0.000000 0.000000 0.000000 0.000000 0.020284
#
#
# Mechanical properties :
#
#
# Convention : Reuss Voigt Hill
#
# Bulk Modulus (GPa) = 73.30681 74.09670 73.70176
# Shear Modulus (GPa) = 20.08299 27.00090 23.54195
#
# Velocity S-wave (km/s) = 3.25242 3.77122 3.52139
# Velocity P-wave (km/s) = 7.26064 7.61521 7.44004
#
# Compressibility (1/GPa) = 0.01364130
#
# Stress axis : x y z
#
# Youngs Moduli (GPa) = 72.29265 63.28218 98.86219
#
# Poissons Ratio (x) = 0.40347 0.27787
# Poissons Ratio (y) = 0.46092 0.38239
# Poissons Ratio (z) = 0.20319 0.24477
#
# Static dielectric constant tensor:
#      x y z
#    x 4.529800 0.000000 0.000000 
#    y 0.000000 4.019430 0.000000 
#    z 0.000000 0.000000 3.220620 
# 
# 
# High freq. dielectric constant tensor:
#      x y z
#    x 1.729300 0.000000 0.000000 
#    y 0.000000 1.753090 0.000000 
#    z 0.000000 0.000000 1.740070 
# 
# From -- ./inp_files/6334.got.cif
#   From: 2010.03.12/outbox.cif.g09.slc.cpg/sg17_4_cif.got.tgz:6334.got - 2010.04.10 18:46:23.
