data_PCOD8155005
_publ_section_title
;
Structure prediction by ZEFSAII (Michael W. Deem and Ramdas Pophale) SiO2 
 PCOD8155005
Probable space group: C 2/C
;
_chemical_formula_sum "Si O2"
_cell_formula_units_Z 36
_cell_length_a 14.940281
_cell_length_b 10.712913
_cell_length_c 15.871996
_cell_angle_alpha 90.000000
_cell_angle_beta 38.596179
_cell_angle_gamma 90.000000
_cell_volume 1584.755941
_symmetry_space_group_name_H-M "C 2/C"
_symmetry_group_IT_number 15
_symmetry_cell_setting 'monoclinic'
loop_
_space_group_symop_operation_xyz
x,y,z
-x,y,1/2-z
-x,-y,-z
x,-y,1/2+z
1/2+x,1/2+y,z
1/2-x,1/2+y,1/2-z
1/2-x,1/2-y,-z
1/2+x,1/2-y,1/2+z
loop_
_atom_site_type_symbol
_atom_site_label
_atom_site_fract_x
_atom_site_fract_y
_atom_site_fract_z
Si Si1 0.000000 0.054069 0.750000
Si Si2 0.602111 0.973215 0.247749
Si Si3 0.099384 0.257356 0.807586
Si Si4 0.342506 0.362087 0.970556
Si Si5 0.076042 0.721897 0.896127
O O1 0.932377 0.136709 0.725364
O O2 0.871267 0.967269 0.878847
O O3 0.500000 0.918770 0.250000
O O4 0.555850 0.917110 0.372401
O O5 0.589256 0.121546 0.256699
O O6 0.761962 0.927475 0.107857
O O7 0.256830 0.255068 0.731447
O O8 0.981357 0.269279 0.967313
O O9 0.495286 0.317389 0.893659
O O10 0.250000 0.250000 0.000000
#
# Coordination Sequence:
#
# PCOD8155005 Si02
#       5
#     4   8   8   8   8
#     4  12  30  48  78 108 158 192 246 318 380 440
#     4  12  25  46  76 106 154 198 249 306 377 448
#     4  12  29  48  74 115 151 196 249 314 380 434
#     4  12  26  48  75 110 148 201 250 303 375 450
#     4  12  27  48  76 111 148 199 255 306 368 451
#
# _framework density 22.716431
#
# number of rings (size 3 to 8) (size 9 to 14) (size 15 to 20)
#    0.000    0.000    5.556    3.333    6.222    3.556 
#    0.000    0.000    0.000    0.000    0.000    0.000 
#    0.000    0.000    0.000    0.000    0.000    0.000 
#
# Total GULP energy -223293.883204 kJ/mol
# GULP energy per Si atom -12405.215734 kJ/mol
# Density = 2.266473 g / cm^3
# Si number density = 22.716431 Si / 1000 Ang^3
#
#
#
# Elastic Constant Matrix: (Units=GPa)
#
#
# Indices 1 2 3 4 5 6 
#
# 1 103.4632 40.8691 38.6212 0.0000 3.6264 0.0000
# 2 40.8691 150.4856 69.7700 0.0000 16.4741 0.0000
# 3 38.6212 69.7700 120.9246 0.0000 11.0151 0.0000
# 4 0.0000 0.0000 0.0000 43.6897 0.0000 12.3207
# 5 3.6264 16.4741 11.0151 0.0000 37.5188 0.0000
# 6 0.0000 0.0000 0.0000 12.3207 0.0000 37.3230
#
#
#
# Elastic Compliance Matrix: (Units=1/GPa)
#
#
# Indices 1 2 3 4 5 6 
#
# 1 0.011374 -0.001965 -0.002546 0.000000 0.000511 0.000000
# 2 -0.001965 0.009648 -0.004696 0.000000 -0.002668 0.000000
# 3 -0.002546 -0.004696 0.011900 0.000000 -0.001186 0.000000
# 4 0.000000 0.000000 0.000000 0.025238 0.000000 -0.008331
# 5 0.000511 -0.002668 -0.001186 0.000000 0.028123 0.000000
# 6 0.000000 0.000000 0.000000 -0.008331 0.000000 0.029543
#
#
# Mechanical properties :
#
#
# Convention : Reuss Voigt Hill
#
# Bulk Modulus (GPa) = 68.92161 74.82154 71.87158
# Shear Modulus (GPa) = 35.95159 38.74717 37.34938
#
# Velocity S-wave (km/s) = 3.98254 4.13448 4.05922
# Velocity P-wave (km/s) = 7.18006 7.46998 7.32646
#
# Compressibility (1/GPa) = 0.01450924
#
# Stress axis : x y z
#
# Youngs Moduli (GPa) = 87.92283 103.64801 84.03230
#
# Poissons Ratio (x) = 0.20362 0.21391
# Poissons Ratio (y) = 0.17273 0.39463
# Poissons Ratio (z) = 0.22381 0.48675
#
# Static dielectric constant tensor:
#      x y z
#    x 3.965860 0.000000 -0.018420 
#    y 0.000000 4.141740 0.000000 
#    z -0.018420 0.000000 4.178890 
# 
# 
# High freq. dielectric constant tensor:
#      x y z
#    x 1.899920 0.000000 0.001810 
#    y 0.000000 1.905920 0.000000 
#    z 0.001810 0.000000 1.907640 
# 
# From -- ./inp_files/152404.got.cif
#   From: 2010.06.25/outbox.cif.g09.slc.cpg/sg15_77_cif.got.tgz:152404.got - 2010.06.28 07:06:18.
