data_PCOD8155180
_publ_section_title
;
Structure prediction by ZEFSAII (Michael W. Deem and Ramdas Pophale) SiO2 
 PCOD8155180
Probable space group: C 2/C
;
_chemical_formula_sum "Si O2"
_cell_formula_units_Z 52
_cell_length_a 19.394669
_cell_length_b 7.964063
_cell_length_c 24.952565
_cell_angle_alpha 90.000000
_cell_angle_beta 141.010462
_cell_angle_gamma 90.000000
_cell_volume 2424.968559
_symmetry_space_group_name_H-M "C 2/C"
_symmetry_group_IT_number 15
_symmetry_cell_setting 'monoclinic'
loop_
_space_group_symop_operation_xyz
x,y,z
-x,y,1/2-z
-x,-y,-z
x,-y,1/2+z
1/2+x,1/2+y,z
1/2-x,1/2+y,1/2-z
1/2-x,1/2-y,-z
1/2+x,1/2-y,1/2+z
loop_
_atom_site_type_symbol
_atom_site_label
_atom_site_fract_x
_atom_site_fract_y
_atom_site_fract_z
Si Si1 0.826240 0.461261 0.000000
Si Si2 0.271746 0.444104 0.347247
Si Si3 0.170701 0.941519 0.000000
Si Si4 0.577251 0.444105 0.652752
Si Si5 0.796006 0.919737 0.671225
Si Si6 0.000000 0.749999 0.750000
Si Si7 0.046445 0.580264 0.671225
O O1 0.828067 0.259379 1.000000
O O2 0.784495 0.527577 0.916164
O O3 0.747047 0.522644 0.000001
O O4 0.952167 0.527577 0.083836
O O5 0.285468 0.508810 0.416283
O O6 0.375634 0.499998 0.375634
O O7 0.266543 0.241998 0.342797
O O8 0.157997 0.520339 0.253226
O O9 0.047098 0.008810 0.916283
O O10 0.651542 0.520340 0.746773
O O11 0.580948 0.242000 0.657202
O O12 0.891967 0.862278 0.688705
O O13 0.014556 0.637720 0.811295
#
# Coordination Sequence:
#
# PCOD8155180 Si02
#       7
#     8   8   8   8   8   4   8
#     4   9  14  24  37  58  79  97 125 151 200 233
#     4   9  16  25  35  54  81 106 130 150 183 231
#     4   9  15  22  40  58  78 102 119 158 195 234
#     4   9  16  25  35  54  81 106 130 150 183 231
#     4   9  16  24  39  56  79 104 123 158 190 228
#     4   8  12  22  36  56  76  92 120 152 200 228
#     4   9  16  24  39  56  79 104 123 158 190 228
#
# _framework density 21.443577999999999
#
# number of rings (size 3 to 8) (size 9 to 14) (size 15 to 20)
#    0.000    3.385    0.000    6.000    0.000    0.000 
#    0.000    0.769    0.000    0.000    0.000    0.000 
#    0.000  187.077    0.000    0.000    0.000    0.000 
#
# Total GULP energy -322098.772132 kJ/mol
# GULP energy per Si atom -12388.414313 kJ/mol
# Density = 2.139477 g / cm^3
# Si number density = 21.443578 Si / 1000 Ang^3
#
#
#
# Elastic Constant Matrix: (Units=GPa)
#
#
# Indices 1 2 3 4 5 6 
#
# 1 129.6641 16.8309 56.1981 0.0000 2.2024 0.0000
# 2 16.8309 9.6545 2.8951 0.0001 1.1801 0.0002
# 3 56.1981 2.8951 213.8711 0.0000 -9.3276 0.0000
# 4 0.0000 0.0001 0.0000 0.6435 0.0000 1.0928
# 5 2.2024 1.1801 -9.3276 0.0000 24.7064 0.0000
# 6 0.0000 0.0002 0.0000 1.0928 0.0000 13.5519
#
#
#
# Elastic Compliance Matrix: (Units=1/GPa)
#
#
# Indices 1 2 3 4 5 6 
#
# 1 0.011391 -0.018880 -0.002789 0.000003 -0.001166 0.000000
# 2 -0.018880 0.136057 0.002958 -0.000022 -0.003699 0.000000
# 3 -0.002789 0.002958 0.005463 -0.000001 0.002170 0.000000
# 4 0.000003 -0.000022 -0.000001 1.800490 -0.000001 -0.145182
# 5 -0.001166 -0.003699 0.002170 -0.000001 0.041575 0.000000
# 6 0.000000 0.000000 0.000000 -0.145182 0.000000 0.085497
#
#
# Mechanical properties :
#
#
# Convention : Reuss Voigt Hill
#
# Bulk Modulus (GPa) = 8.65874 56.11531 32.38703
# Shear Modulus (GPa) = 2.31869 26.26474 14.29172
#
# Velocity S-wave (km/s) = 1.04098 3.50355 2.58443
# Velocity P-wave (km/s) = 2.34340 6.52627 4.90325
#
# Compressibility (1/GPa) = 0.11549023
#
# Stress axis : x y z
#
# Youngs Moduli (GPa) = 87.78624 7.34987 183.04817
#
# Poissons Ratio (x) = 0.13876 0.51044
# Poissons Ratio (y) = 1.65739 -0.54144
# Poissons Ratio (z) = 0.24480 -0.02174
#
# Static dielectric constant tensor:
#      x y z
#    x 3.725890 0.000000 -0.092580 
#    y 0.000000 2.845970 0.000000 
#    z -0.092580 0.000000 4.819780 
# 
# 
# High freq. dielectric constant tensor:
#      x y z
#    x 1.838310 0.000000 -0.003430 
#    y 0.000000 1.733490 0.000000 
#    z -0.003430 0.000000 1.878780 
# 
# From -- ./inp_files/298697.got.cif
#   From: 2010.06.25/outbox.cif.g09.slc.cpg/sg15_150_cif.got.tgz:298697.got - 2010.06.28 07:06:18.
