data_PCOD8155750
_publ_section_title
;
Structure prediction by ZEFSAII (Michael W. Deem and Ramdas Pophale) SiO2 
 PCOD8155750
Probable space group: P 2 2 21
;
_chemical_formula_sum "Si O2"
_cell_formula_units_Z 16
_cell_length_a 9.348508
_cell_length_b 9.129172
_cell_length_c 7.508944
_cell_angle_alpha 90.000000
_cell_angle_beta 90.000000
_cell_angle_gamma 90.000000
_cell_volume 640.844349
_symmetry_space_group_name_H-M "P 2 2 21"
_symmetry_group_IT_number 17
_symmetry_cell_setting 'orthorhombic'
loop_
_space_group_symop_operation_xyz
x,y,z
-x,-y,1/2+z
x,-y,-z
-x,y,1/2-z
loop_
_atom_site_type_symbol
_atom_site_label
_atom_site_fract_x
_atom_site_fract_y
_atom_site_fract_z
Si Si1 0.298090 0.002700 0.704183
Si Si2 0.392992 0.699086 0.110870
Si Si3 0.069506 0.654793 0.064177
Si Si4 0.500000 0.244503 0.250000
Si Si5 0.000000 0.121009 0.250000
O O1 0.364508 0.134916 0.817816
O O2 0.349910 0.000000 0.500000
O O3 0.357509 0.851668 0.780998
O O4 0.127779 0.993535 0.719279
O O5 0.500000 0.620123 0.250000
O O6 0.238585 0.625981 0.091617
O O7 0.489195 0.667928 0.933715
O O8 0.000000 0.702152 0.250000
O O9 0.003131 0.500000 0.000000
O O10 0.030054 0.779167 0.921791
#
# Coordination Sequence:
#
# PCOD8155750 Si02
#       5
#     4   4   4   2   2
#     4  12  23  41  69 106 149 186 222 289 362 426
#     4  12  26  46  71 107 145 186 232 287 359 427
#     4  12  28  53  75  99 140 193 243 299 348 411
#     4  12  22  42  66  98 150 186 218 284 356 428
#     4  12  28  44  70 112 140 186 246 288 354 432
#
# _framework density 24.967063
#
# number of rings (size 3 to 8) (size 9 to 14) (size 15 to 20)
#    0.000    0.000    7.500    2.250    5.250    0.000 
#    2.250    0.000    0.000    0.000    0.000    0.000 
#    0.000    0.000    0.000    0.000    0.000    0.000 
#
# Total GULP energy -198273.694082 kJ/mol
# GULP energy per Si atom -12392.105880 kJ/mol
# Density = 2.491024 g / cm^3
# Si number density = 24.967063 Si / 1000 Ang^3
#
#
#
# Elastic Constant Matrix: (Units=GPa)
#
#
# Indices 1 2 3 4 5 6 
#
# 1 143.0654 2.0009 47.3739 0.0000 0.0000 0.0000
# 2 2.0009 34.9731 32.3081 0.0000 0.0000 0.0000
# 3 47.3739 32.3081 217.2247 0.0000 0.0000 0.0000
# 4 0.0000 0.0000 0.0000 167.3041 0.0000 0.0000
# 5 0.0000 0.0000 0.0000 0.0000 48.8651 0.0000
# 6 0.0000 0.0000 0.0000 0.0000 0.0000 44.1544
#
#
#
# Elastic Compliance Matrix: (Units=1/GPa)
#
#
# Indices 1 2 3 4 5 6 
#
# 1 0.007582 0.001268 -0.001842 0.000000 0.000000 0.000000
# 2 0.001268 0.033360 -0.005238 0.000000 0.000000 0.000000
# 3 -0.001842 -0.005238 0.005784 0.000000 0.000000 0.000000
# 4 0.000000 0.000000 0.000000 0.005977 0.000000 0.000000
# 5 0.000000 0.000000 0.000000 0.000000 0.020464 0.000000
# 6 0.000000 0.000000 0.000000 0.000000 0.000000 0.022648
#
#
# Mechanical properties :
#
#
# Convention : Reuss Voigt Hill
#
# Bulk Modulus (GPa) = 28.48871 62.06989 45.27930
# Shear Modulus (GPa) = 41.96709 72.97009 57.46859
#
# Velocity S-wave (km/s) = 4.10432 5.41202 4.80289
# Velocity P-wave (km/s) = 5.82202 7.99800 6.99514
#
# Compressibility (1/GPa) = 0.03510162
#
# Stress axis : x y z
#
# Youngs Moduli (GPa) = 131.89006 29.97610 172.88009
#
# Poissons Ratio (x) = -0.03801 0.31847
# Poissons Ratio (y) = -0.16723 0.90558
# Poissons Ratio (z) = 0.24296 0.15702
#
# Static dielectric constant tensor:
#      x y z
#    x 4.522380 0.000000 0.000000 
#    y 0.000000 4.016790 0.000000 
#    z 0.000000 0.000000 4.535700 
# 
# 
# High freq. dielectric constant tensor:
#      x y z
#    x 2.003210 0.000000 0.000000 
#    y 0.000000 1.974130 0.000000 
#    z 0.000000 0.000000 2.022900 
# 
# From -- ./inp_files/3789.got.cif
#   From: 2010.03.12/outbox.cif.g09.slc.cpg/sg17_2_cif.got.tgz:3789.got - 2010.04.10 18:46:23.
