data_PCOD8155776
_publ_section_title
;
Structure prediction by ZEFSAII (Michael W. Deem and Ramdas Pophale) SiO2 
 PCOD8155776
Probable space group: P 21 21 2
;
_chemical_formula_sum "Si O2"
_cell_formula_units_Z 22
_cell_length_a 17.656397
_cell_length_b 12.556487
_cell_length_c 5.118255
_cell_angle_alpha 90.000000
_cell_angle_beta 90.000000
_cell_angle_gamma 90.000000
_cell_volume 1134.729005
_symmetry_space_group_name_H-M "P 21 21 2"
_symmetry_group_IT_number 18
_symmetry_cell_setting 'orthorhombic'
loop_
_space_group_symop_operation_xyz
x,y,z
-x,-y,z
1/2+x,1/2-y,-z
1/2-x,1/2+y,-z
loop_
_atom_site_type_symbol
_atom_site_label
_atom_site_fract_x
_atom_site_fract_y
_atom_site_fract_z
Si Si1 0.484524 0.772949 0.565191
Si Si2 0.500000 0.000000 0.716762
Si Si3 0.853077 0.312816 0.565399
Si Si4 0.894784 0.748813 0.921838
Si Si5 0.368465 0.998031 0.102645
Si Si6 0.766270 0.335809 0.056032
O O1 0.472614 0.901050 0.539482
O O2 0.572755 0.745013 0.516116
O O3 0.434858 0.714508 0.344967
O O4 0.456046 0.736289 0.848978
O O5 0.566443 0.957762 0.908811
O O6 0.878556 0.438298 0.617856
O O7 0.790590 0.297684 0.342064
O O8 0.813564 0.270098 0.832699
O O9 0.866141 0.628260 0.881261
O O10 0.823219 0.822772 0.980456
O O11 0.287964 0.039163 0.982264
#
# Coordination Sequence:
#
# PCOD8155776 Si02
#       6
#     4   2   4   4   4   4
#     4  11  19  31  50  78 102 135 164 210 255 317
#     4  10  16  32  50  84 104 130 166 210 268 320
#     4  10  18  35  49  72 104 138 164 207 261 296
#     4  11  22  31  50  79 106 135 172 204 257 313
#     4   9  20  31  53  74 109 133 167 204 265 305
#     4  10  21  34  47  74 110 139 166 207 256 310
#
# _framework density 19.387889999999999
#
# number of rings (size 3 to 8) (size 9 to 14) (size 15 to 20)
#    1.091    0.727    1.818    5.455    2.545    0.727 
#    0.000    0.000    0.000    0.000    0.000    7.636 
#    0.000    0.000    0.000    0.000    0.000    0.000 
#
# Total GULP energy -272591.515830 kJ/mol
# GULP energy per Si atom -12390.523447 kJ/mol
# Density = 1.934376 g / cm^3
# Si number density = 19.387890 Si / 1000 Ang^3
#
#
#
# Elastic Constant Matrix: (Units=GPa)
#
#
# Indices 1 2 3 4 5 6 
#
# 1 43.8126 -9.8397 17.7390 0.0000 0.0000 0.0000
# 2 -9.8397 5.3590 -2.0155 0.0000 0.0000 0.0000
# 3 17.7390 -2.0155 121.6841 0.0000 0.0000 0.0000
# 4 0.0000 0.0000 0.0000 12.2203 0.0000 0.0000
# 5 0.0000 0.0000 0.0000 0.0000 39.2281 0.0000
# 6 0.0000 0.0000 0.0000 0.0000 0.0000 29.7072
#
#
#
# Elastic Compliance Matrix: (Units=1/GPa)
#
#
# Indices 1 2 3 4 5 6 
#
# 1 0.041466 0.074327 -0.004814 0.000000 0.000000 0.000000
# 2 0.074327 0.321001 -0.005519 0.000000 0.000000 0.000000
# 3 -0.004814 -0.005519 0.008828 0.000000 0.000000 0.000000
# 4 0.000000 0.000000 0.000000 0.081831 0.000000 0.000000
# 5 0.000000 0.000000 0.000000 0.000000 0.025492 0.000000
# 6 0.000000 0.000000 0.000000 0.000000 0.000000 0.033662
#
#
# Mechanical properties :
#
#
# Convention : Reuss Voigt Hill
#
# Bulk Modulus (GPa) = 2.00286 20.29146 11.14716
# Shear Modulus (GPa) = 9.07904 27.22927 18.15415
#
# Velocity S-wave (km/s) = 2.16633 3.75166 3.06333
# Velocity P-wave (km/s) = 2.70049 5.40882 4.27481
#
# Compressibility (1/GPa) = 0.49928515
#
# Stress axis : x y z
#
# Youngs Moduli (GPa) = 24.11587 3.11526 113.27137
#
# Poissons Ratio (x) = -0.23155 0.54527
# Poissons Ratio (y) = -1.79246 0.62509
# Poissons Ratio (z) = 0.11609 0.01719
#
# Static dielectric constant tensor:
#      x y z
#    x 3.449920 0.000000 0.000000 
#    y 0.000000 2.840070 0.000000 
#    z 0.000000 0.000000 3.675790 
# 
# 
# High freq. dielectric constant tensor:
#      x y z
#    x 1.757290 0.000000 0.000000 
#    y 0.000000 1.667870 0.000000 
#    z 0.000000 0.000000 1.779630 
# 
# From -- ./inp_files/1572.got.cif
#   From: 2010.03.12/outbox.cif.g09.slc.cpg/sg18_1_cif.got.tgz:1572.got - 2010.04.10 18:53:55.
