data_PCOD8155435
_publ_section_title
;
Structure prediction by ZEFSAII (Michael W. Deem and Ramdas Pophale) SiO2 
 PCOD8155435
Probable space group: P 2 2 21
;
_chemical_formula_sum "Si O2"
_cell_formula_units_Z 14
_cell_length_a 7.981100
_cell_length_b 16.488165
_cell_length_c 4.918103
_cell_angle_alpha 90.000000
_cell_angle_beta 90.000000
_cell_angle_gamma 90.000000
_cell_volume 647.191340
_symmetry_space_group_name_H-M "P 2 2 21"
_symmetry_group_IT_number 17
_symmetry_cell_setting 'orthorhombic'
loop_
_space_group_symop_operation_xyz
x,y,z
-x,-y,1/2+z
x,-y,-z
-x,y,1/2-z
loop_
_atom_site_type_symbol
_atom_site_label
_atom_site_fract_x
_atom_site_fract_y
_atom_site_fract_z
Si Si1 0.383038 0.000000 0.500000
Si Si2 0.813980 0.670964 0.137483
Si Si3 0.621127 0.825195 0.997759
Si Si4 0.314356 0.416006 0.132895
O O1 0.285221 0.085983 0.460109
O O2 0.500000 0.016981 0.750000
O O3 0.690210 0.649095 0.387617
O O4 0.000000 0.671114 0.250000
O O5 0.767441 0.759337 0.022451
O O6 0.803960 0.607676 0.886663
O O7 0.500000 0.803338 0.750000
O O8 0.500000 0.824085 0.250000
O O9 0.500000 0.423322 0.250000
O O10 0.251916 0.500000 0.000000
#
# Coordination Sequence:
#
# PCOD8155435 Si02
#       4
#     2   4   4   4
#     4   8  16  30  54  88 116 150 202 252 288 334
#     4  12  25  40  62  93 127 159 195 245 307 362
#     4  10  19  35  61  88 119 159 205 248 291 348
#     4  12  25  44  66  88 116 157 206 252 297 355
#
# _framework density 21.631933
#
# number of rings (size 3 to 8) (size 9 to 14) (size 15 to 20)
#    0.000    1.143    0.000    8.571    0.000    2.286 
#    0.000    1.429    0.000   13.714    0.000    0.000 
#    0.000    0.000    0.000    0.000    0.000    0.000 
#
# Total GULP energy -173485.824197 kJ/mol
# GULP energy per Si atom -12391.844586 kJ/mol
# Density = 2.158270 g / cm^3
# Si number density = 21.631933 Si / 1000 Ang^3
#
#
#
# Elastic Constant Matrix: (Units=GPa)
#
#
# Indices 1 2 3 4 5 6 
#
# 1 83.4547 77.6216 47.2010 0.0000 0.0000 0.0000
# 2 77.6216 181.9111 65.6026 0.0000 0.0000 0.0000
# 3 47.2010 65.6026 166.8949 0.0000 0.0000 0.0000
# 4 0.0000 0.0000 0.0000 35.4461 0.0000 0.0000
# 5 0.0000 0.0000 0.0000 0.0000 37.4954 0.0000
# 6 0.0000 0.0000 0.0000 0.0000 0.0000 10.0058
#
#
#
# Elastic Compliance Matrix: (Units=1/GPa)
#
#
# Indices 1 2 3 4 5 6 
#
# 1 0.020939 -0.007922 -0.002808 0.000000 0.000000 0.000000
# 2 -0.007922 0.009402 -0.001455 0.000000 0.000000 0.000000
# 3 -0.002808 -0.001455 0.007358 0.000000 0.000000 0.000000
# 4 0.000000 0.000000 0.000000 0.028212 0.000000 0.000000
# 5 0.000000 0.000000 0.000000 0.000000 0.026670 0.000000
# 6 0.000000 0.000000 0.000000 0.000000 0.000000 0.099942
#
#
# Mechanical properties :
#
#
# Convention : Reuss Voigt Hill
#
# Bulk Modulus (GPa) = 75.02632 90.34568 82.68600
# Shear Modulus (GPa) = 22.58998 32.71182 27.65090
#
# Velocity S-wave (km/s) = 3.23505 3.89292 3.57913
# Velocity P-wave (km/s) = 6.97943 7.87795 7.44226
#
# Compressibility (1/GPa) = 0.01332866
#
# Stress axis : x y z
#
# Youngs Moduli (GPa) = 47.75769 106.35607 135.90629
#
# Poissons Ratio (x) = 0.84256 0.38162
# Poissons Ratio (y) = 0.37834 0.19779
# Poissons Ratio (z) = 0.13410 0.15479
#
# Static dielectric constant tensor:
#      x y z
#    x 3.278970 0.000000 0.000000 
#    y 0.000000 4.800360 0.000000 
#    z 0.000000 0.000000 4.499090 
# 
# 
# High freq. dielectric constant tensor:
#      x y z
#    x 1.789960 0.000000 0.000000 
#    y 0.000000 1.874520 0.000000 
#    z 0.000000 0.000000 1.886420 
# 
# From -- ./inp_files/705.got.cif
#   From: 2010.03.12/outbox.cif.g09.slc.cpg/sg17_1_cif.got.tgz:705.got - 2010.04.10 18:46:23.
