data_PCOD8155245
_publ_section_title
;
Structure prediction by ZEFSAII (Michael W. Deem and Ramdas Pophale) SiO2 
 PCOD8155245
Probable space group: P 2 2 2
;
_chemical_formula_sum "Si O2"
_cell_formula_units_Z 28
_cell_length_a 12.521822
_cell_length_b 22.100749
_cell_length_c 5.102466
_cell_angle_alpha 90.000000
_cell_angle_beta 90.000000
_cell_angle_gamma 90.000000
_cell_volume 1412.064835
_symmetry_space_group_name_H-M "P 2 2 2"
_symmetry_group_IT_number 16
_symmetry_cell_setting 'orthorhombic'
loop_
_space_group_symop_operation_xyz
x,y,z
-x,-y,z
x,-y,-z
-x,y,-z
loop_
_atom_site_type_symbol
_atom_site_label
_atom_site_fract_x
_atom_site_fract_y
_atom_site_fract_z
Si Si1 0.381762 0.527384 0.748248
Si Si2 0.069216 0.226826 0.745179
Si Si3 0.930322 0.909456 0.740035
Si Si4 0.614826 0.665673 0.381528
Si Si5 0.298371 0.961724 0.247310
Si Si6 0.292649 0.278254 0.853683
Si Si7 0.573448 0.838424 0.749727
O O1 0.500000 0.500000 0.748796
O O2 0.318693 0.500000 0.500000
O O3 0.388536 0.599315 0.742640
O O4 0.320467 0.500000 0.000000
O O5 0.107834 0.159062 0.671947
O O6 0.165802 0.269525 0.838821
O O7 0.000000 0.253678 0.500000
O O8 0.000000 0.221106 0.000000
O O9 0.827770 0.951307 0.772840
O O10 0.000000 0.934800 0.500000
O O11 0.000000 0.913702 0.000000
O O12 0.500000 0.686349 0.500000
O O13 0.688677 0.668680 0.639157
O O14 0.660132 0.707235 0.143783
O O15 0.358643 0.898850 0.258399
O O16 0.329517 0.000000 0.500000
O O17 0.338373 0.000000 0.000000
O O18 0.346483 0.217641 0.748552
O O19 0.500000 0.832680 0.500000
O O20 0.500000 0.837311 0.000000
#
# Coordination Sequence:
#
# PCOD8155245 Si02
#       7
#     4   4   4   4   4   4   4
#     4  10  19  34  54  79 125 181 203 242 282 340
#     4  10  21  40  65  88 118 160 198 252 327 385
#     4  10  21  39  64  89 117 148 186 247 326 390
#     4  12  23  36  59  93 133 174 213 239 296 355
#     4  12  26  42  63  88 115 151 205 256 302 378
#     4  12  24  40  62  93 125 159 213 261 307 375
#     4  12  26  45  61  82 120 162 203 252 308 351
#
# _framework density 19.829117
#
# number of rings (size 3 to 8) (size 9 to 14) (size 15 to 20)
#    0.000    0.857    2.857    6.000    2.000    3.429 
#    0.000    0.000    0.000    0.000    0.000    0.000 
#    0.000   40.000    0.000    0.000    0.000    0.000 
#
# Total GULP energy -347078.233228 kJ/mol
# GULP energy per Si atom -12395.651187 kJ/mol
# Density = 1.978399 g / cm^3
# Si number density = 19.829117 Si / 1000 Ang^3
#
#
#
# Elastic Constant Matrix: (Units=GPa)
#
#
# Indices 1 2 3 4 5 6 
#
# 1 68.4029 28.7361 31.7201 0.0000 0.0000 0.0000
# 2 28.7361 83.3590 28.8054 0.0000 0.0000 0.0000
# 3 31.7201 28.8054 167.7734 0.0000 0.0000 0.0000
# 4 0.0000 0.0000 0.0000 41.8696 0.0000 0.0000
# 5 0.0000 0.0000 0.0000 0.0000 6.6946 0.0000
# 6 0.0000 0.0000 0.0000 0.0000 0.0000 19.2286
#
#
#
# Elastic Compliance Matrix: (Units=1/GPa)
#
#
# Indices 1 2 3 4 5 6 
#
# 1 0.018022 -0.005353 -0.002488 0.000000 0.000000 0.000000
# 2 -0.005353 0.014343 -0.001451 0.000000 0.000000 0.000000
# 3 -0.002488 -0.001451 0.006680 0.000000 0.000000 0.000000
# 4 0.000000 0.000000 0.000000 0.023884 0.000000 0.000000
# 5 0.000000 0.000000 0.000000 0.000000 0.149375 0.000000
# 6 0.000000 0.000000 0.000000 0.000000 0.000000 0.052006
#
#
# Mechanical properties :
#
#
# Convention : Reuss Voigt Hill
#
# Bulk Modulus (GPa) = 48.87250 55.33983 52.10616
# Shear Modulus (GPa) = 17.25849 28.91014 23.08431
#
# Velocity S-wave (km/s) = 2.95339 3.82247 3.41568
# Velocity P-wave (km/s) = 6.02747 6.88845 6.47229
#
# Compressibility (1/GPa) = 0.02046141
#
# Stress axis : x y z
#
# Youngs Moduli (GPa) = 55.48828 69.72151 149.70259
#
# Poissons Ratio (x) = 0.37320 0.37250
# Poissons Ratio (y) = 0.29702 0.21715
# Poissons Ratio (z) = 0.13807 0.10113
#
# Static dielectric constant tensor:
#      x y z
#    x 3.402300 0.000000 0.000000 
#    y 0.000000 3.633320 0.000000 
#    z 0.000000 0.000000 3.185300 
# 
# 
# High freq. dielectric constant tensor:
#      x y z
#    x 1.745500 0.000000 0.000000 
#    y 0.000000 1.768760 0.000000 
#    z 0.000000 0.000000 1.804460 
# 
# From -- ./inp_files/1659.got.cif
#   From: 2010.03.12/outbox.cif.g09.slc.cpg/sg16_1_cif.got.tgz:1659.got - 2010.03.31 00:51:45.
