data_PCOD8155488
_publ_section_title
;
Structure prediction by ZEFSAII (Michael W. Deem and Ramdas Pophale) SiO2 
 PCOD8155488
Probable space group: P 2 2 21
;
_chemical_formula_sum "Si O2"
_cell_formula_units_Z 28
_cell_length_a 7.974260
_cell_length_b 18.964288
_cell_length_c 8.821653
_cell_angle_alpha 90.000000
_cell_angle_beta 90.000000
_cell_angle_gamma 90.000000
_cell_volume 1334.064737
_symmetry_space_group_name_H-M "P 2 2 21"
_symmetry_group_IT_number 17
_symmetry_cell_setting 'orthorhombic'
loop_
_space_group_symop_operation_xyz
x,y,z
-x,-y,1/2+z
x,-y,-z
-x,y,1/2-z
loop_
_atom_site_type_symbol
_atom_site_label
_atom_site_fract_x
_atom_site_fract_y
_atom_site_fract_z
Si Si1 0.826939 0.074119 0.435092
Si Si2 0.356967 0.299446 0.037826
Si Si3 0.431608 0.572462 0.585189
Si Si4 0.672400 0.210750 0.963835
Si Si5 0.826795 0.795883 0.342553
Si Si6 0.777837 0.931124 0.906325
Si Si7 0.174638 0.680843 0.664339
O O1 0.782338 0.138656 0.547176
O O2 0.734528 0.074695 0.272225
O O3 0.025058 0.077618 0.420868
O O4 0.765972 0.000000 0.500000
O O5 0.433852 0.376578 0.998373
O O6 0.313528 0.295999 0.214186
O O7 0.494273 0.240249 0.010339
O O8 0.191389 0.277495 0.939391
O O9 0.409498 0.500000 0.500000
O O10 0.500000 0.554079 0.750000
O O11 0.246977 0.609112 0.589413
O O12 0.683566 0.210916 0.783120
O O13 0.678491 0.131007 0.015545
O O14 0.827115 0.256324 0.039712
O O15 0.000000 0.804703 0.250000
O O16 0.718658 0.000000 0.000000
O O17 0.000000 0.667636 0.750000
#
# Coordination Sequence:
#
# PCOD8155488 Si02
#       7
#     4   4   4   4   4   4   4
#     4  10  21  34  55  85 123 159 206 261 311 375
#     4  10  23  41  60  90 124 161 207 251 313 379
#     4   9  20  40  66  91 126 169 205 246 307 379
#     4  11  21  35  59  86 121 162 202 257 311 372
#     4  12  22  36  58  91 123 158 208 263 313 364
#     4  10  20  35  57  85 118 163 208 255 314 372
#     4  10  21  39  64  95 124 160 210 260 306 366
#
# _framework density 20.988486999999999
#
# number of rings (size 3 to 8) (size 9 to 14) (size 15 to 20)
#    0.000    1.714    1.429    4.286    4.000    2.286 
#    0.000    3.571    0.000    6.000    0.000    0.000 
#    0.000    0.000    0.000    0.000    0.000    0.000 
#
# Total GULP energy -346985.018659 kJ/mol
# GULP energy per Si atom -12392.322095 kJ/mol
# Density = 2.094072 g / cm^3
# Si number density = 20.988487 Si / 1000 Ang^3
#
#
#
# Elastic Constant Matrix: (Units=GPa)
#
#
# Indices 1 2 3 4 5 6 
#
# 1 53.0614 37.3461 13.8481 0.0000 0.0000 0.0000
# 2 37.3461 173.6971 76.5345 0.0000 0.0000 0.0000
# 3 13.8481 76.5345 120.1152 0.0000 0.0000 0.0000
# 4 0.0000 0.0000 0.0000 45.8640 0.0000 0.0000
# 5 0.0000 0.0000 0.0000 0.0000 23.4302 0.0000
# 6 0.0000 0.0000 0.0000 0.0000 0.0000 44.7906
#
#
#
# Elastic Compliance Matrix: (Units=1/GPa)
#
#
# Indices 1 2 3 4 5 6 
#
# 1 0.022245 -0.005079 0.000671 0.000000 0.000000 0.000000
# 2 -0.005079 0.009164 -0.005254 0.000000 0.000000 0.000000
# 3 0.000671 -0.005254 0.011595 0.000000 0.000000 0.000000
# 4 0.000000 0.000000 0.000000 0.021804 0.000000 0.000000
# 5 0.000000 0.000000 0.000000 0.000000 0.042680 0.000000
# 6 0.000000 0.000000 0.000000 0.000000 0.000000 0.022326
#
#
# Mechanical properties :
#
#
# Convention : Reuss Voigt Hill
#
# Bulk Modulus (GPa) = 42.22444 66.92567 54.57505
# Shear Modulus (GPa) = 31.84095 37.42662 34.63378
#
# Velocity S-wave (km/s) = 3.89918 4.22737 4.06659
# Velocity P-wave (km/s) = 6.35870 7.46885 6.93602
#
# Compressibility (1/GPa) = 0.02368297
#
# Stress axis : x y z
#
# Youngs Moduli (GPa) = 44.95301 109.12361 86.24151
#
# Poissons Ratio (x) = 0.55421 -0.05790
# Poissons Ratio (y) = 0.22831 0.45307
# Poissons Ratio (z) = -0.03018 0.57328
#
# Static dielectric constant tensor:
#      x y z
#    x 3.678580 0.000000 0.000000 
#    y 0.000000 3.784980 0.000000 
#    z 0.000000 0.000000 2.779550 
# 
# 
# High freq. dielectric constant tensor:
#      x y z
#    x 1.810160 0.000000 0.000000 
#    y 0.000000 1.812890 0.000000 
#    z 0.000000 0.000000 1.838530 
# 
# From -- ./inp_files/4401.got.cif
#   From: 2010.03.12/outbox.cif.g09.slc.cpg/sg17_3_cif.got.tgz:4401.got - 2010.04.10 18:46:23.
