data_PCOD8155592
_publ_section_title
;
Structure prediction by ZEFSAII (Michael W. Deem and Ramdas Pophale) SiO2 
 PCOD8155592
Probable space group: P 2 2 21
;
_chemical_formula_sum "Si O2"
_cell_formula_units_Z 20
_cell_length_a 5.942325
_cell_length_b 17.739143
_cell_length_c 8.864146
_cell_angle_alpha 90.000000
_cell_angle_beta 90.000000
_cell_angle_gamma 90.000000
_cell_volume 934.385168
_symmetry_space_group_name_H-M "P 2 2 21"
_symmetry_group_IT_number 17
_symmetry_cell_setting 'orthorhombic'
loop_
_space_group_symop_operation_xyz
x,y,z
-x,-y,1/2+z
x,-y,-z
-x,y,1/2-z
loop_
_atom_site_type_symbol
_atom_site_label
_atom_site_fract_x
_atom_site_fract_y
_atom_site_fract_z
Si Si1 0.000000 0.641214 0.750000
Si Si2 0.299401 0.293931 0.495447
Si Si3 0.683169 0.000000 0.500000
Si Si4 0.616465 0.133072 0.906895
Si Si5 0.000000 0.357260 0.750000
Si Si6 0.000000 0.949037 0.250000
Si Si7 0.309808 0.583346 0.003890
O O1 0.857354 0.588861 0.638088
O O2 0.166080 0.695344 0.658947
O O3 0.384951 0.208521 0.493894
O O4 0.138303 0.303274 0.639153
O O5 0.502125 0.352997 0.500595
O O6 0.525279 0.073221 0.496414
O O7 0.830636 0.998815 0.653385
O O8 0.500000 0.152643 0.750000
O O9 0.866465 0.102139 0.871403
O O10 0.168959 0.410250 0.842275
O O11 0.421408 0.500000 0.000000
#
# Coordination Sequence:
#
# PCOD8155592 Si02
#       7
#     2   4   2   4   2   2   4
#     4  10  25  42  59  92 128 162 202 249 310 369
#     4  11  23  42  64  90 124 162 205 255 304 360
#     4  10  22  40  66  96 124 160 206 250 300 370
#     4  10  21  40  65  92 121 160 211 252 298 365
#     4  10  22  38  64  92 114 162 214 248 304 368
#     4  10  21  42  65  90 128 164 198 253 310 355
#     4  11  23  41  63  89 124 162 204 256 308 361
#
# _framework density 21.404450000000001
#
# number of rings (size 3 to 8) (size 9 to 14) (size 15 to 20)
#    0.000    1.600    0.000    4.200    0.000   11.200 
#    0.000   19.000    0.000    0.000    0.000    0.000 
#    0.000    0.000    0.000    0.000    0.000    0.000 
#
# Total GULP energy -248077.963976 kJ/mol
# GULP energy per Si atom -12403.898199 kJ/mol
# Density = 2.135573 g / cm^3
# Si number density = 21.404450 Si / 1000 Ang^3
#
#
#
# Elastic Constant Matrix: (Units=GPa)
#
#
# Indices 1 2 3 4 5 6 
#
# 1 123.6807 67.7375 35.6095 0.0000 0.0000 0.0000
# 2 67.7375 179.4871 47.3007 0.0000 0.0000 0.0000
# 3 35.6095 47.3007 93.1769 0.0000 0.0000 0.0000
# 4 0.0000 0.0000 0.0000 18.3553 0.0000 0.0000
# 5 0.0000 0.0000 0.0000 0.0000 16.4538 0.0000
# 6 0.0000 0.0000 0.0000 0.0000 0.0000 30.7281
#
#
#
# Elastic Compliance Matrix: (Units=1/GPa)
#
#
# Indices 1 2 3 4 5 6 
#
# 1 0.010615 -0.003390 -0.002335 0.000000 0.000000 0.000000
# 2 -0.003390 0.007515 -0.002519 0.000000 0.000000 0.000000
# 3 -0.002335 -0.002519 0.012904 0.000000 0.000000 0.000000
# 4 0.000000 0.000000 0.000000 0.054480 0.000000 0.000000
# 5 0.000000 0.000000 0.000000 0.000000 0.060776 0.000000
# 6 0.000000 0.000000 0.000000 0.000000 0.000000 0.032543
#
#
# Mechanical properties :
#
#
# Convention : Reuss Voigt Hill
#
# Bulk Modulus (GPa) = 68.76144 77.51555 73.13850
# Shear Modulus (GPa) = 24.97867 29.48724 27.23296
#
# Velocity S-wave (km/s) = 3.41982 3.71566 3.57081
# Velocity P-wave (km/s) = 6.91290 7.39604 7.15855
#
# Compressibility (1/GPa) = 0.01454303
#
# Stress axis : x y z
#
# Youngs Moduli (GPa) = 94.20963 133.07013 77.49747
#
# Poissons Ratio (x) = 0.45117 0.18099
# Poissons Ratio (y) = 0.31941 0.19523
# Poissons Ratio (z) = 0.22002 0.33522
#
# Static dielectric constant tensor:
#      x y z
#    x 4.143730 0.000000 0.000000 
#    y 0.000000 3.624940 0.000000 
#    z 0.000000 0.000000 3.879290 
# 
# 
# High freq. dielectric constant tensor:
#      x y z
#    x 1.853860 0.000000 0.000000 
#    y 0.000000 1.830590 0.000000 
#    z 0.000000 0.000000 1.845000 
# 
# From -- ./inp_files/3520.got.cif
#   From: 2010.03.12/outbox.cif.g09.slc.cpg/sg17_2_cif.got.tgz:3520.got - 2010.04.10 18:46:23.
