data_PCOD8155654
_publ_section_title
;
Structure prediction by ZEFSAII (Michael W. Deem and Ramdas Pophale) SiO2 
 PCOD8155654
Probable space group: P 2 2 21
;
_chemical_formula_sum "Si O2"
_cell_formula_units_Z 32
_cell_length_a 11.285624
_cell_length_b 9.247963
_cell_length_c 14.794378
_cell_angle_alpha 90.000000
_cell_angle_beta 90.000000
_cell_angle_gamma 90.000000
_cell_volume 1544.074928
_symmetry_space_group_name_H-M "P 2 2 21"
_symmetry_group_IT_number 17
_symmetry_cell_setting 'orthorhombic'
loop_
_space_group_symop_operation_xyz
x,y,z
-x,-y,1/2+z
x,-y,-z
-x,y,1/2-z
loop_
_atom_site_type_symbol
_atom_site_label
_atom_site_fract_x
_atom_site_fract_y
_atom_site_fract_z
Si Si1 0.377160 0.199743 0.287752
Si Si2 0.874144 0.126684 0.939891
Si Si3 0.366965 0.474472 0.756773
Si Si4 0.859012 0.880003 0.437852
Si Si5 0.136084 0.980505 0.746381
Si Si6 0.317105 0.647247 0.051559
Si Si7 0.465384 0.171084 0.488367
Si Si8 0.290437 0.628317 0.430460
O O1 0.500000 0.123332 0.250000
O O2 0.364422 0.351950 0.235735
O O3 0.249884 0.124905 0.266460
O O4 0.400842 0.215747 0.394622
O O5 0.829658 0.289597 0.958085
O O6 0.007877 0.132605 0.971956
O O7 0.860294 0.093088 0.834883
O O8 0.809560 0.000000 0.000000
O O9 0.500000 0.418971 0.750000
O O10 0.322424 0.389290 0.843292
O O11 0.287085 0.431864 0.670786
O O12 0.808867 0.722477 0.459042
O O13 0.794584 0.000000 0.500000
O O14 0.841880 0.925015 0.334559
O O15 0.000000 0.909394 0.750000
O O16 0.327094 0.500000 0.000000
O O17 0.407094 0.759118 0.004724
O O18 0.387648 0.243884 0.567002
O O19 0.473554 0.000000 0.500000
O O20 0.319648 0.500000 0.500000
#
# Coordination Sequence:
#
# PCOD8155654 Si02
#       8
#     4   4   4   4   4   4   4   4
#     4  11  24  40  66 101 135 174 224 277 337 404
#     4  10  22  43  66  94 131 174 218 281 336 404
#     4  11  23  42  63  91 134 176 211 267 345 401
#     4  10  24  43  67  93 131 175 225 272 340 403
#     4  10  22  44  69  96 137 178 224 282 340 406
#     4  12  25  42  66  93 133 173 216 275 334 404
#     4  12  25  42  66  96 134 171 217 278 335 400
#     4  12  22  40  67  95 130 167 221 275 335 401
#
# _framework density 20.724383
#
# number of rings (size 3 to 8) (size 9 to 14) (size 15 to 20)
#    0.000    1.000    2.500    4.875    5.250    0.500 
#    0.000    1.250    0.000    0.000    0.000    0.000 
#    0.000    0.000    0.000    0.000    0.000    0.000 
#
# Total GULP energy -396452.032013 kJ/mol
# GULP energy per Si atom -12389.126000 kJ/mol
# Density = 2.067721 g / cm^3
# Si number density = 20.724383 Si / 1000 Ang^3
#
#
#
# Elastic Constant Matrix: (Units=GPa)
#
#
# Indices 1 2 3 4 5 6 
#
# 1 111.9457 55.4500 21.8807 0.0000 0.0000 0.0000
# 2 55.4500 132.8974 27.0183 0.0000 0.0000 0.0000
# 3 21.8807 27.0183 77.1349 0.0000 0.0000 0.0000
# 4 0.0000 0.0000 0.0000 77.2081 0.0000 0.0000
# 5 0.0000 0.0000 0.0000 0.0000 15.1724 0.0000
# 6 0.0000 0.0000 0.0000 0.0000 0.0000 29.4050
#
#
#
# Elastic Compliance Matrix: (Units=1/GPa)
#
#
# Indices 1 2 3 4 5 6 
#
# 1 0.011463 -0.004438 -0.001697 0.000000 0.000000 0.000000
# 2 -0.004438 0.009820 -0.002181 0.000000 0.000000 0.000000
# 3 -0.001697 -0.002181 0.014210 0.000000 0.000000 0.000000
# 4 0.000000 0.000000 0.000000 0.012952 0.000000 0.000000
# 5 0.000000 0.000000 0.000000 0.000000 0.065909 0.000000
# 6 0.000000 0.000000 0.000000 0.000000 0.000000 0.034008
#
#
# Mechanical properties :
#
#
# Convention : Reuss Voigt Hill
#
# Bulk Modulus (GPa) = 53.02031 58.96400 55.99216
# Shear Modulus (GPa) = 29.19215 38.86568 34.02892
#
# Velocity S-wave (km/s) = 3.75719 4.33524 4.05652
# Velocity P-wave (km/s) = 6.66791 7.31931 7.00119
#
# Compressibility (1/GPa) = 0.01886070
#
# Stress axis : x y z
#
# Youngs Moduli (GPa) = 87.23921 101.83813 70.37497
#
# Poissons Ratio (x) = 0.45192 0.11944
# Poissons Ratio (y) = 0.38714 0.15347
# Poissons Ratio (z) = 0.14806 0.22208
#
# Static dielectric constant tensor:
#      x y z
#    x 4.015990 0.000000 0.000000 
#    y 0.000000 3.755290 0.000000 
#    z 0.000000 0.000000 3.733210 
# 
# 
# High freq. dielectric constant tensor:
#      x y z
#    x 1.812980 0.000000 0.000000 
#    y 0.000000 1.806370 0.000000 
#    z 0.000000 0.000000 1.823840 
# 
# From -- ./inp_files/8313.got.cif
#   From: 2010.03.12/outbox.cif.g09.slc.cpg/sg17_5_cif.got.tgz:8313.got - 2010.04.10 18:46:23.
