data_PCOD8155166
_publ_section_title
;
Structure prediction by ZEFSAII (Michael W. Deem and Ramdas Pophale) SiO2 
 PCOD8155166
Probable space group: C 2/C
;
_chemical_formula_sum "Si O2"
_cell_formula_units_Z 32
_cell_length_a 16.344035
_cell_length_b 11.205640
_cell_length_c 7.784956
_cell_angle_alpha 90.000000
_cell_angle_beta 63.185168
_cell_angle_gamma 90.000000
_cell_volume 1272.463361
_symmetry_space_group_name_H-M "C 2/C"
_symmetry_group_IT_number 15
_symmetry_cell_setting 'monoclinic'
loop_
_space_group_symop_operation_xyz
x,y,z
-x,y,1/2-z
-x,-y,-z
x,-y,1/2+z
1/2+x,1/2+y,z
1/2-x,1/2+y,1/2-z
1/2-x,1/2-y,-z
1/2+x,1/2-y,1/2+z
loop_
_atom_site_type_symbol
_atom_site_label
_atom_site_fract_x
_atom_site_fract_y
_atom_site_fract_z
Si Si1 0.295757 0.236384 0.773144
Si Si2 0.621803 0.189583 0.296105
Si Si3 0.476355 0.366555 0.576485
Si Si4 0.900193 0.466578 0.023066
O O1 0.215742 0.234336 0.701634
O O2 0.368220 0.341629 0.655465
O O3 0.348473 0.110942 0.716439
O O4 0.250000 0.250000 0.000000
O O5 0.533983 0.274513 0.405117
O O6 0.601910 0.106665 0.150749
O O7 0.643514 0.099664 0.437774
O O8 0.500000 0.342909 0.750000
O O9 0.500000 0.500000 0.500000
O O10 0.000000 0.500000 0.000000
#
# Coordination Sequence:
#
# PCOD8155166 Si02
#       4
#     8   8   8   8
#     4  12  27  51  80 120 165 214 279 340 421 499
#     4  12  28  51  83 121 167 219 283 348 423 501
#     4  12  30  52  80 116 168 220 273 342 425 506
#     4  12  27  50  84 119 164 215 278 350 416 497
#
# _framework density 25.148071000000002
#
# number of rings (size 3 to 8) (size 9 to 14) (size 15 to 20)
#    0.000    0.000    5.000    3.000    7.000    2.000 
#    0.000    0.000    0.000    0.000    0.000    0.000 
#    0.000    0.000    0.000    0.000    0.000    0.000 
#
# Total GULP energy -198251.035226 kJ/mol
# GULP energy per Si atom -12390.689702 kJ/mol
# Density = 2.509083 g / cm^3
# Si number density = 25.148071 Si / 1000 Ang^3
#
#
#
# Elastic Constant Matrix: (Units=GPa)
#
#
# Indices 1 2 3 4 5 6 
#
# 1 136.2388 31.1366 63.2342 0.0000 -24.7422 0.0000
# 2 31.1366 181.1415 85.5715 0.0000 -5.2854 0.0000
# 3 63.2342 85.5715 165.7050 0.0000 -22.7155 0.0000
# 4 0.0000 0.0000 0.0000 58.6561 0.0000 -3.3597
# 5 -24.7422 -5.2854 -22.7155 0.0000 51.2104 0.0000
# 6 0.0000 0.0000 0.0000 -3.3597 0.0000 47.9430
#
#
#
# Elastic Compliance Matrix: (Units=1/GPa)
#
#
# Indices 1 2 3 4 5 6 
#
# 1 0.009369 -0.000044 -0.003123 0.000000 0.003137 0.000000
# 2 -0.000044 0.007348 -0.003915 0.000000 -0.000999 0.000000
# 3 -0.003123 -0.003915 0.009568 0.000000 0.002331 0.000000
# 4 0.000000 0.000000 0.000000 0.017117 0.000000 0.001200
# 5 0.003137 -0.000999 0.002331 0.000000 0.021974 0.000000
# 6 0.000000 0.000000 0.000000 0.001200 0.000000 0.020942
#
#
# Mechanical properties :
#
#
# Convention : Reuss Voigt Hill
#
# Bulk Modulus (GPa) = 82.49267 93.66332 88.07799
# Shear Modulus (GPa) = 47.83664 51.77145 49.80405
#
# Velocity S-wave (km/s) = 4.36615 4.54217 4.45503
# Velocity P-wave (km/s) = 7.63490 8.05196 7.84620
#
# Compressibility (1/GPa) = 0.01212229
#
# Stress axis : x y z
#
# Youngs Moduli (GPa) = 106.73336 136.08412 104.51718
#
# Poissons Ratio (x) = 0.00596 0.32637
# Poissons Ratio (y) = 0.00467 0.40919
# Poissons Ratio (z) = 0.33329 0.53278
#
# Static dielectric constant tensor:
#      x y z
#    x 4.619470 0.000000 -0.537240 
#    y 0.000000 10.404000 0.000000 
#    z -0.537240 0.000000 5.297910 
# 
# 
# High freq. dielectric constant tensor:
#      x y z
#    x 2.012220 0.000000 -0.005290 
#    y 0.000000 2.016410 0.000000 
#    z -0.005290 0.000000 2.024990 
# 
# From -- ./inp_files/69261.got.cif
#   From: 2010.06.25/outbox.cif.g09.slc.cpg/sg15_35_cif.got.tgz:69261.got - 2010.06.28 07:06:18.
