data_PCOD8155626
_publ_section_title
;
Structure prediction by ZEFSAII (Michael W. Deem and Ramdas Pophale) SiO2 
 PCOD8155626
Probable space group: P 2 2 21
;
_chemical_formula_sum "Si O2"
_cell_formula_units_Z 24
_cell_length_a 8.753536
_cell_length_b 9.698993
_cell_length_c 15.132849
_cell_angle_alpha 90.000000
_cell_angle_beta 90.000000
_cell_angle_gamma 90.000000
_cell_volume 1284.786210
_symmetry_space_group_name_H-M "P 2 2 21"
_symmetry_group_IT_number 17
_symmetry_cell_setting 'orthorhombic'
loop_
_space_group_symop_operation_xyz
x,y,z
-x,-y,1/2+z
x,-y,-z
-x,y,1/2-z
loop_
_atom_site_type_symbol
_atom_site_label
_atom_site_fract_x
_atom_site_fract_y
_atom_site_fract_z
Si Si1 0.844102 0.129493 0.940198
Si Si2 0.321083 0.041531 0.733913
Si Si3 0.109961 0.761751 0.167442
Si Si4 0.900589 0.453509 0.337935
Si Si5 0.811789 0.623549 0.939326
Si Si6 0.679456 0.275310 0.239647
O O1 0.725938 0.103715 0.860561
O O2 0.012832 0.174215 0.911425
O O3 0.773682 0.244557 0.002531
O O4 0.869166 0.000000 0.000000
O O5 0.500000 0.049303 0.750000
O O6 0.248023 0.134145 0.811589
O O7 0.262197 0.883297 0.737294
O O8 0.165412 0.607183 0.141975
O O9 0.000000 0.748693 0.250000
O O10 0.759386 0.348660 0.323862
O O11 0.000000 0.454973 0.250000
O O12 0.008148 0.400498 0.417816
O O13 0.719157 0.639388 0.848504
O O14 0.748948 0.500000 0.000000
O O15 0.500000 0.280812 0.250000
#
# Coordination Sequence:
#
# PCOD8155626 Si02
#       6
#     4   4   4   4   4   4
#     4  11  21  36  60  86 111 148 193 241 289 330
#     4  10  22  39  57  83 119 155 190 229 282 351
#     4   9  19  35  56  82 109 142 187 229 276 337
#     4   9  19  35  57  81 108 145 185 229 277 336
#     4  11  21  38  60  84 115 146 190 249 287 326
#     4  10  22  39  58  82 116 158 191 225 285 354
#
# _framework density 18.680149
#
# number of rings (size 3 to 8) (size 9 to 14) (size 15 to 20)
#    0.000    2.000    3.333    0.000    4.667    2.667 
#    0.000    3.333    0.000    0.000    0.000    0.000 
#    0.000    0.000    0.000    0.000    0.000    0.000 
#
# Total GULP energy -297509.233142 kJ/mol
# GULP energy per Si atom -12396.218048 kJ/mol
# Density = 1.863763 g / cm^3
# Si number density = 18.680149 Si / 1000 Ang^3
#
#
#
# Elastic Constant Matrix: (Units=GPa)
#
#
# Indices 1 2 3 4 5 6 
#
# 1 70.2469 41.4746 20.6309 0.0000 0.0000 0.0000
# 2 41.4746 147.3938 37.8153 0.0000 0.0000 0.0000
# 3 20.6309 37.8153 68.7689 0.0000 0.0000 0.0000
# 4 0.0000 0.0000 0.0000 25.6652 0.0000 0.0000
# 5 0.0000 0.0000 0.0000 0.0000 25.4760 0.0000
# 6 0.0000 0.0000 0.0000 0.0000 0.0000 27.8276
#
#
#
# Elastic Compliance Matrix: (Units=1/GPa)
#
#
# Indices 1 2 3 4 5 6 
#
# 1 0.017579 -0.004184 -0.002973 0.000000 0.000000 0.000000
# 2 -0.004184 0.008895 -0.003636 0.000000 0.000000 0.000000
# 3 -0.002973 -0.003636 0.017433 0.000000 0.000000 0.000000
# 4 0.000000 0.000000 0.000000 0.038963 0.000000 0.000000
# 5 0.000000 0.000000 0.000000 0.000000 0.039253 0.000000
# 6 0.000000 0.000000 0.000000 0.000000 0.000000 0.035936
#
#
# Mechanical properties :
#
#
# Convention : Reuss Voigt Hill
#
# Bulk Modulus (GPa) = 44.80151 54.02793 49.41472
# Shear Modulus (GPa) = 26.72608 28.22636 27.47622
#
# Velocity S-wave (km/s) = 3.78659 3.89142 3.83936
# Velocity P-wave (km/s) = 6.56911 7.01258 6.79447
#
# Compressibility (1/GPa) = 0.02232068
#
# Stress axis : x y z
#
# Youngs Moduli (GPa) = 56.88684 112.42776 57.36325
#
# Poissons Ratio (x) = 0.47036 0.17055
# Poissons Ratio (y) = 0.23799 0.20857
# Poissons Ratio (z) = 0.16913 0.40878
#
# Static dielectric constant tensor:
#      x y z
#    x 3.229290 0.000000 0.000000 
#    y 0.000000 3.811260 0.000000 
#    z 0.000000 0.000000 3.556980 
# 
# 
# High freq. dielectric constant tensor:
#      x y z
#    x 1.696240 0.000000 0.000000 
#    y 0.000000 1.747790 0.000000 
#    z 0.000000 0.000000 1.721690 
# 
# From -- ./inp_files/8086.got.cif
#   From: 2010.03.12/outbox.cif.g09.slc.cpg/sg17_5_cif.got.tgz:8086.got - 2010.04.10 18:46:23.
