data_PCOD8155310
_publ_section_title
;
Structure prediction by ZEFSAII (Michael W. Deem and Ramdas Pophale) SiO2 
 PCOD8155310
Probable space group: P 2 2 2
;
_chemical_formula_sum "Si O2"
_cell_formula_units_Z 21
_cell_length_a 4.957692
_cell_length_b 12.540498
_cell_length_c 16.142739
_cell_angle_alpha 90.000000
_cell_angle_beta 90.000000
_cell_angle_gamma 90.000000
_cell_volume 1003.625184
_symmetry_space_group_name_H-M "P 2 2 2"
_symmetry_group_IT_number 16
_symmetry_cell_setting 'orthorhombic'
loop_
_space_group_symop_operation_xyz
x,y,z
-x,-y,z
x,-y,-z
-x,y,-z
loop_
_atom_site_type_symbol
_atom_site_label
_atom_site_fract_x
_atom_site_fract_y
_atom_site_fract_z
Si Si1 0.744799 0.572231 0.313777
Si Si2 0.240983 0.248581 0.441765
Si Si3 0.000000 0.500000 0.000000
Si Si4 0.169707 0.297813 0.923758
Si Si5 0.258097 0.073953 0.301425
Si Si6 0.678577 0.743937 0.178490
O O1 0.500000 0.500000 0.342850
O O2 0.820818 0.641940 0.393662
O O3 0.620633 0.647210 0.241311
O O4 0.000000 0.500000 0.285863
O O5 0.500000 0.255390 0.500000
O O6 0.232720 0.153508 0.376911
O O7 0.000000 0.220384 0.500000
O O8 0.810946 0.424850 0.057374
O O9 0.474758 0.259754 0.901692
O O10 0.990399 0.273551 0.844117
O O11 0.000000 0.241746 0.000000
O O12 0.338933 0.139735 0.219004
O O13 0.500000 0.000000 0.326824
O O14 0.000000 0.000000 0.284993
#
# Coordination Sequence:
#
# PCOD8155310 Si02
#       6
#     4   4   1   4   4   4
#     4  11  24  37  58  88 123 173 212 245 304 376
#     4  11  24  41  61  90 125 157 207 264 316 379
#     4   8  24  34  60  98 126 174 202 242 304 370
#     4  10  22  37  60  91 131 158 205 241 302 360
#     4  11  24  43  67  91 118 157 210 265 328 375
#     4  11  23  40  61  90 126 162 205 261 302 371
#
# _framework density 20.924146
#
# number of rings (size 3 to 8) (size 9 to 14) (size 15 to 20)
#    0.571    0.762    0.000    5.143    4.000   11.429 
#    0.000    0.000    0.000    8.571    0.000    0.000 
#    0.000    0.000    0.000    0.000    0.000    0.000 
#
# Total GULP energy -260240.725636 kJ/mol
# GULP energy per Si atom -12392.415506 kJ/mol
# Density = 2.087652 g / cm^3
# Si number density = 20.924146 Si / 1000 Ang^3
#
#
#
# Elastic Constant Matrix: (Units=GPa)
#
#
# Indices 1 2 3 4 5 6 
#
# 1 125.3363 40.9328 20.3946 0.0000 0.0000 0.0000
# 2 40.9328 116.3537 38.9701 0.0000 0.0000 0.0000
# 3 20.3946 38.9701 78.4838 0.0000 0.0000 0.0000
# 4 0.0000 0.0000 0.0000 13.9995 0.0000 0.0000
# 5 0.0000 0.0000 0.0000 0.0000 39.7212 0.0000
# 6 0.0000 0.0000 0.0000 0.0000 0.0000 29.0426
#
#
#
# Elastic Compliance Matrix: (Units=1/GPa)
#
#
# Indices 1 2 3 4 5 6 
#
# 1 0.009070 -0.002880 -0.000927 0.000000 0.000000 0.000000
# 2 -0.002880 0.011224 -0.004824 0.000000 0.000000 0.000000
# 3 -0.000927 -0.004824 0.015378 0.000000 0.000000 0.000000
# 4 0.000000 0.000000 0.000000 0.071431 0.000000 0.000000
# 5 0.000000 0.000000 0.000000 0.000000 0.025176 0.000000
# 6 0.000000 0.000000 0.000000 0.000000 0.000000 0.034432
#
#
# Mechanical properties :
#
#
# Convention : Reuss Voigt Hill
#
# Bulk Modulus (GPa) = 54.32314 57.86321 56.09318
# Shear Modulus (GPa) = 26.30065 31.21108 28.75586
#
# Velocity S-wave (km/s) = 3.54920 3.86635 3.71116
# Velocity P-wave (km/s) = 6.54324 6.90257 6.72530
#
# Compressibility (1/GPa) = 0.01840836
#
# Stress axis : x y z
#
# Youngs Moduli (GPa) = 110.25328 89.09756 65.02881
#
# Poissons Ratio (x) = 0.25664 0.06026
# Poissons Ratio (y) = 0.31758 0.31373
# Poissons Ratio (z) = 0.10217 0.42985
#
# Static dielectric constant tensor:
#      x y z
#    x 3.720530 0.000000 0.000000 
#    y 0.000000 3.857940 0.000000 
#    z 0.000000 0.000000 3.849020 
# 
# 
# High freq. dielectric constant tensor:
#      x y z
#    x 1.829540 0.000000 0.000000 
#    y 0.000000 1.810580 0.000000 
#    z 0.000000 0.000000 1.825830 
# 
# From -- ./inp_files/7524.got.cif
#   From: 2010.03.12/outbox.cif.g09.slc.cpg/sg16_4_cif.got.tgz:7524.got - 2010.03.31 00:51:45.
