data_PCOD8155546
_publ_section_title
;
Structure prediction by ZEFSAII (Michael W. Deem and Ramdas Pophale) SiO2 
 PCOD8155546
Probable space group: P 2 2 21
;
_chemical_formula_sum "Si O2"
_cell_formula_units_Z 20
_cell_length_a 5.951480
_cell_length_b 11.100593
_cell_length_c 13.824718
_cell_angle_alpha 90.000000
_cell_angle_beta 90.000000
_cell_angle_gamma 90.000000
_cell_volume 913.329403
_symmetry_space_group_name_H-M "P 2 2 21"
_symmetry_group_IT_number 17
_symmetry_cell_setting 'orthorhombic'
loop_
_space_group_symop_operation_xyz
x,y,z
-x,-y,1/2+z
x,-y,-z
-x,y,1/2-z
loop_
_atom_site_type_symbol
_atom_site_label
_atom_site_fract_x
_atom_site_fract_y
_atom_site_fract_z
Si Si1 0.056437 0.314353 0.862760
Si Si2 0.053391 0.744963 0.851291
Si Si3 0.310481 0.140410 0.987629
Si Si4 0.678214 0.679570 0.990796
Si Si5 0.371830 0.530879 0.851039
O O1 0.123240 0.183550 0.908446
O O2 0.273406 0.399949 0.880502
O O3 0.000000 0.301157 0.750000
O O4 0.841156 0.368953 0.922181
O O5 0.153856 0.612332 0.834345
O O6 0.000000 0.808711 0.750000
O O7 0.821657 0.739103 0.906890
O O8 0.238319 0.822919 0.904937
O O9 0.538710 0.210439 0.962514
O O10 0.349642 0.000000 0.000000
O O11 0.527487 0.575187 0.940312
O O12 0.500000 0.521893 0.750000
#
# Coordination Sequence:
#
# PCOD8155546 Si02
#       5
#     4   4   4   4   4
#     4  11  27  45  67 103 142 181 229 281 347 411
#     4  10  20  40  69 101 129 170 221 275 342 404
#     4  10  25  45  67  95 130 179 237 285 336 398
#     4  10  24  44  66  95 141 176 222 276 345 398
#     4  11  23  41  69 101 140 174 219 274 340 422
#
# _framework density 21.897904
#
# number of rings (size 3 to 8) (size 9 to 14) (size 15 to 20)
#    0.000    1.600    2.000    0.600    2.800   12.800 
#    0.000    2.000    0.000    0.000    0.000    0.000 
#    0.000    0.000    0.000    0.000    0.000    0.000 
#
# Total GULP energy -247899.459959 kJ/mol
# GULP energy per Si atom -12394.972998 kJ/mol
# Density = 2.184806 g / cm^3
# Si number density = 21.897904 Si / 1000 Ang^3
#
#
#
# Elastic Constant Matrix: (Units=GPa)
#
#
# Indices 1 2 3 4 5 6 
#
# 1 108.8751 45.0391 53.5966 0.0000 0.0000 0.0000
# 2 45.0391 120.4286 46.3115 0.0000 0.0000 0.0000
# 3 53.5966 46.3115 163.5712 0.0000 0.0000 0.0000
# 4 0.0000 0.0000 0.0000 14.8573 0.0000 0.0000
# 5 0.0000 0.0000 0.0000 0.0000 42.7859 0.0000
# 6 0.0000 0.0000 0.0000 0.0000 0.0000 16.7027
#
#
#
# Elastic Compliance Matrix: (Units=1/GPa)
#
#
# Indices 1 2 3 4 5 6 
#
# 1 0.012048 -0.003353 -0.002998 0.000000 0.000000 0.000000
# 2 -0.003353 0.010251 -0.001804 0.000000 0.000000 0.000000
# 3 -0.002998 -0.001804 0.007607 0.000000 0.000000 0.000000
# 4 0.000000 0.000000 0.000000 0.067307 0.000000 0.000000
# 5 0.000000 0.000000 0.000000 0.000000 0.023372 0.000000
# 6 0.000000 0.000000 0.000000 0.000000 0.000000 0.059870
#
#
# Mechanical properties :
#
#
# Convention : Reuss Voigt Hill
#
# Bulk Modulus (GPa) = 73.55173 75.86326 74.70749
# Shear Modulus (GPa) = 24.83890 31.39769 28.11829
#
# Velocity S-wave (km/s) = 3.37160 3.79069 3.58727
# Velocity P-wave (km/s) = 6.98701 7.34019 7.16578
#
# Compressibility (1/GPa) = 0.01359587
#
# Stress axis : x y z
#
# Youngs Moduli (GPa) = 83.00252 97.54916 131.46240
#
# Poissons Ratio (x) = 0.32705 0.39418
# Poissons Ratio (y) = 0.27828 0.23714
# Poissons Ratio (z) = 0.24888 0.17596
#
# Static dielectric constant tensor:
#      x y z
#    x 4.209730 0.000000 0.000000 
#    y 0.000000 3.629520 0.000000 
#    z 0.000000 0.000000 4.150870 
# 
# 
# High freq. dielectric constant tensor:
#      x y z
#    x 1.881030 0.000000 0.000000 
#    y 0.000000 1.824580 0.000000 
#    z 0.000000 0.000000 1.877120 
# 
# From -- ./inp_files/7607.got.cif
#   From: 2010.03.12/outbox.cif.g09.slc.cpg/sg17_4_cif.got.tgz:7607.got - 2010.04.10 18:46:23.
