data_PCOD8155155
_publ_section_title
;
Structure prediction by ZEFSAII (Michael W. Deem and Ramdas Pophale) SiO2 
 PCOD8155155
Probable space group: C 2/C
;
_chemical_formula_sum "Si O2"
_cell_formula_units_Z 44
_cell_length_a 18.604524
_cell_length_b 11.357296
_cell_length_c 9.007367
_cell_angle_alpha 90.000000
_cell_angle_beta 102.912444
_cell_angle_gamma 90.000000
_cell_volume 1855.102811
_symmetry_space_group_name_H-M "C 2/C"
_symmetry_group_IT_number 15
_symmetry_cell_setting 'monoclinic'
loop_
_space_group_symop_operation_xyz
x,y,z
-x,y,1/2-z
-x,-y,-z
x,-y,1/2+z
1/2+x,1/2+y,z
1/2-x,1/2+y,1/2-z
1/2-x,1/2-y,-z
1/2+x,1/2-y,1/2+z
loop_
_atom_site_type_symbol
_atom_site_label
_atom_site_fract_x
_atom_site_fract_y
_atom_site_fract_z
Si Si1 0.882936 0.237019 0.689670
Si Si2 0.299195 0.480420 0.014313
Si Si3 0.500000 0.243919 0.750000
Si Si4 0.939388 0.099902 0.970258
Si Si5 0.201764 0.568859 0.207860
Si Si6 0.068926 0.588264 0.544508
O O1 0.831385 0.146421 0.577112
O O2 0.945054 0.169404 0.816332
O O3 0.833506 0.301939 0.792802
O O4 0.922818 0.330229 0.598428
O O5 0.275423 0.563821 0.140902
O O6 0.358866 0.544589 0.940883
O O7 0.225097 0.465363 0.884937
O O8 0.450025 0.319604 0.617782
O O9 0.557395 0.167716 0.683185
O O10 0.000000 0.000000 0.000000
O O11 0.143711 0.480055 0.109212
O O12 0.000000 0.500000 0.500000
#
# Coordination Sequence:
#
# PCOD8155155 Si02
#       6
#     8   8   4   8   8   8
#     4  12  27  51  79 106 158 206 249 319 393 439
#     4  12  27  49  75 115 155 198 257 315 380 461
#     4  12  28  44  76 108 140 200 250 312 380 442
#     4  12  28  51  76 112 151 200 257 313 374 462
#     4  12  27  48  77 114 155 198 257 314 382 459
#     4  12  28  51  76 112 151 197 259 312 378 459
#
# _framework density 23.718361999999999
#
# number of rings (size 3 to 8) (size 9 to 14) (size 15 to 20)
#    0.000    0.000    3.636    4.909    5.091    5.818 
#    0.000    0.000    0.000    0.000    0.000    0.000 
#    0.000    0.000    0.000    0.000    0.000    0.000 
#
# Total GULP energy -272846.455217 kJ/mol
# GULP energy per Si atom -12402.111601 kJ/mol
# Density = 2.366438 g / cm^3
# Si number density = 23.718362 Si / 1000 Ang^3
#
#
#
# Elastic Constant Matrix: (Units=GPa)
#
#
# Indices 1 2 3 4 5 6 
#
# 1 111.3093 61.0172 58.9722 0.0000 -5.5035 0.0000
# 2 61.0172 134.8827 76.5394 0.0000 -5.5967 0.0000
# 3 58.9722 76.5394 159.1751 0.0000 12.9124 0.0000
# 4 0.0000 0.0000 0.0000 53.8318 0.0000 -1.4937
# 5 -5.5035 -5.5967 12.9124 0.0000 49.0292 0.0000
# 6 0.0000 0.0000 0.0000 -1.4937 0.0000 22.1328
#
#
#
# Elastic Compliance Matrix: (Units=1/GPa)
#
#
# Indices 1 2 3 4 5 6 
#
# 1 0.012867 -0.004073 -0.002951 0.000000 0.001757 0.000000
# 2 -0.004073 0.011797 -0.004328 0.000000 0.002029 0.000000
# 3 -0.002951 -0.004328 0.009732 0.000000 -0.003388 0.000000
# 4 0.000000 0.000000 0.000000 0.018611 0.000000 0.001256
# 5 0.001757 0.002029 -0.003388 0.000000 0.021717 0.000000
# 6 0.000000 0.000000 0.000000 0.001256 0.000000 0.045267
#
#
# Mechanical properties :
#
#
# Convention : Reuss Voigt Hill
#
# Bulk Modulus (GPa) = 85.53579 88.71386 87.12482
# Shear Modulus (GPa) = 34.10837 38.92130 36.51484
#
# Velocity S-wave (km/s) = 3.79629 4.05529 3.92793
# Velocity P-wave (km/s) = 7.44024 7.70788 7.57524
#
# Compressibility (1/GPa) = 0.01169101
#
# Stress axis : x y z
#
# Youngs Moduli (GPa) = 77.71731 84.77035 102.75829
#
# Poissons Ratio (x) = 0.34530 0.30323
# Poissons Ratio (y) = 0.31657 0.44472
# Poissons Ratio (z) = 0.22934 0.36688
#
# Static dielectric constant tensor:
#      x y z
#    x 4.259690 0.000000 -0.094990 
#    y 0.000000 4.779090 0.000000 
#    z -0.094990 0.000000 4.455420 
# 
# 
# High freq. dielectric constant tensor:
#      x y z
#    x 1.951530 0.000000 -0.001630 
#    y 0.000000 1.944870 0.000000 
#    z -0.001630 0.000000 1.960860 
# 
# From -- ./inp_files/54456.got.cif
#   From: 2010.06.25/outbox.cif.g09.slc.cpg/sg15_28_cif.got.tgz:54456.got - 2010.06.28 07:06:18.
