data_PCOD8155899
_publ_section_title
;
Structure prediction by ZEFSAII (Michael W. Deem and Ramdas Pophale) SiO2 
 PCOD8155899
Probable space group: P 21 21 2
;
_chemical_formula_sum "Si O2"
_cell_formula_units_Z 30
_cell_length_a 12.858142
_cell_length_b 18.353609
_cell_length_c 6.294529
_cell_angle_alpha 90.000000
_cell_angle_beta 90.000000
_cell_angle_gamma 90.000000
_cell_volume 1485.466738
_symmetry_space_group_name_H-M "P 21 21 2"
_symmetry_group_IT_number 18
_symmetry_cell_setting 'orthorhombic'
loop_
_space_group_symop_operation_xyz
x,y,z
-x,-y,z
1/2+x,1/2-y,-z
1/2-x,1/2+y,-z
loop_
_atom_site_type_symbol
_atom_site_label
_atom_site_fract_x
_atom_site_fract_y
_atom_site_fract_z
Si Si1 0.510755 0.202634 0.565879
Si Si2 0.519391 0.334547 0.857962
Si Si3 0.860235 0.058262 0.288948
Si Si4 0.610460 0.749176 0.189612
Si Si5 0.000000 0.000000 0.656567
Si Si6 0.683692 0.828385 0.802012
Si Si7 0.162487 0.066507 0.959423
Si Si8 0.755344 0.691170 0.528892
O O1 0.512418 0.286669 0.645129
O O2 0.456126 0.197577 0.338744
O O3 0.435678 0.157218 0.725252
O O4 0.627925 0.174041 0.550420
O O5 0.458978 0.410066 0.831174
O O6 0.475136 0.293692 0.059496
O O7 0.636789 0.360273 0.903714
O O8 0.904882 0.030658 0.514006
O O9 0.776275 0.122656 0.324419
O O10 0.810859 0.998157 0.127182
O O11 0.682728 0.693436 0.321269
O O12 0.683239 0.797030 0.039526
O O13 0.061993 0.055245 0.808787
O O14 0.740167 0.907609 0.812056
O O15 0.742306 0.768292 0.653142
#
# Coordination Sequence:
#
# PCOD8155899 Si02
#       8
#     4   4   4   4   2   4   4   4
#     4  10  22  37  62  92 123 164 212 261 310 375
#     4  11  19  38  57  96 126 156 207 250 321 380
#     4  12  23  38  57  97 130 160 215 249 325 391
#     4  10  19  37  64  87 127 156 204 267 308 378
#     4  12  24  38  64  90 128 166 198 266 324 384
#     4  10  23  39  60  93 123 162 215 251 323 379
#     4  12  24  38  62  92 132 167 196 264 322 383
#     4  11  22  38  62  93 125 167 211 264 314 381
#
# _framework density 20.195672999999999
#
# number of rings (size 3 to 8) (size 9 to 14) (size 15 to 20)
#    0.000    1.067    6.667    2.400    1.867    3.200 
#    0.000    0.000    0.000    4.800    0.000    0.000 
#    0.000    0.000    0.000    0.000    0.000    0.000 
#
# Total GULP energy -371704.991079 kJ/mol
# GULP energy per Si atom -12390.166369 kJ/mol
# Density = 2.014971 g / cm^3
# Si number density = 20.195673 Si / 1000 Ang^3
#
#
#
# Elastic Constant Matrix: (Units=GPa)
#
#
# Indices 1 2 3 4 5 6 
#
# 1 111.1553 30.8870 26.2043 0.0000 0.0000 0.0000
# 2 30.8870 66.7276 32.1104 0.0000 0.0000 0.0000
# 3 26.2043 32.1104 93.5206 0.0000 0.0000 0.0000
# 4 0.0000 0.0000 0.0000 19.7714 0.0000 0.0000
# 5 0.0000 0.0000 0.0000 0.0000 27.0520 0.0000
# 6 0.0000 0.0000 0.0000 0.0000 0.0000 31.3963
#
#
#
# Elastic Compliance Matrix: (Units=1/GPa)
#
#
# Indices 1 2 3 4 5 6 
#
# 1 0.010503 -0.004127 -0.001526 0.000000 0.000000 0.000000
# 2 -0.004127 0.019575 -0.005564 0.000000 0.000000 0.000000
# 3 -0.001526 -0.005564 0.013031 0.000000 0.000000 0.000000
# 4 0.000000 0.000000 0.000000 0.050578 0.000000 0.000000
# 5 0.000000 0.000000 0.000000 0.000000 0.036966 0.000000
# 6 0.000000 0.000000 0.000000 0.000000 0.000000 0.031851
#
#
# Mechanical properties :
#
#
# Convention : Reuss Voigt Hill
#
# Bulk Modulus (GPa) = 48.37189 49.97856 49.17522
# Shear Modulus (GPa) = 26.06479 27.79071 26.92775
#
# Velocity S-wave (km/s) = 3.59641 3.71357 3.65546
# Velocity P-wave (km/s) = 6.42255 6.57178 6.49759
#
# Compressibility (1/GPa) = 0.02067316
#
# Stress axis : x y z
#
# Youngs Moduli (GPa) = 95.21072 51.08679 76.74066
#
# Poissons Ratio (x) = 0.21086 0.11709
# Poissons Ratio (y) = 0.39298 0.42702
# Poissons Ratio (z) = 0.14527 0.28427
#
# Static dielectric constant tensor:
#      x y z
#    x 3.828780 0.000000 0.000000 
#    y 0.000000 3.494910 0.000000 
#    z 0.000000 0.000000 3.971470 
# 
# 
# High freq. dielectric constant tensor:
#      x y z
#    x 1.779520 0.000000 0.000000 
#    y 0.000000 1.756060 0.000000 
#    z 0.000000 0.000000 1.807700 
# 
# From -- ./inp_files/1270.got.cif
#   From: 2010.03.12/outbox.cif.g09.slc.cpg/sg18_1_cif.got.tgz:1270.got - 2010.04.10 18:53:55.
