data_PCOD8155648
_publ_section_title
;
Structure prediction by ZEFSAII (Michael W. Deem and Ramdas Pophale) SiO2 
 PCOD8155648
Probable space group: P 2 2 21
;
_chemical_formula_sum "Si O2"
_cell_formula_units_Z 20
_cell_length_a 6.750588
_cell_length_b 5.942246
_cell_length_c 22.831394
_cell_angle_alpha 90.000000
_cell_angle_beta 90.000000
_cell_angle_gamma 90.000000
_cell_volume 915.850652
_symmetry_space_group_name_H-M "P 2 2 21"
_symmetry_group_IT_number 17
_symmetry_cell_setting 'orthorhombic'
loop_
_space_group_symop_operation_xyz
x,y,z
-x,-y,1/2+z
x,-y,-z
-x,y,1/2-z
loop_
_atom_site_type_symbol
_atom_site_label
_atom_site_fract_x
_atom_site_fract_y
_atom_site_fract_z
Si Si1 0.000000 0.398282 0.750000
Si Si2 0.669316 0.521818 0.410658
Si Si3 0.003474 0.813014 0.954627
Si Si4 0.665821 0.500000 0.000000
Si Si5 0.088919 0.098916 0.850717
Si Si6 0.327514 0.723800 0.793390
O O1 0.953409 0.254246 0.808963
O O2 0.191064 0.548642 0.759308
O O3 0.473450 0.583523 0.447170
O O4 0.774799 0.753403 0.393588
O O5 0.597247 0.385194 0.353790
O O6 0.823847 0.372386 0.448447
O O7 0.800472 0.705713 0.977986
O O8 0.960244 0.930899 0.891516
O O9 0.079402 0.000000 0.000000
O O10 0.220309 0.957668 0.805767
O O11 0.500000 0.789940 0.750000
#
# Coordination Sequence:
#
# PCOD8155648 Si02
#       6
#     2   4   4   2   4   4
#     4  10  22  42  66  92 126 164 206 260 312 370
#     4  10  24  44  62  91 133 165 203 261 311 368
#     4  11  24  42  65  93 126 166 210 258 312 369
#     4  12  24  40  66  94 124 166 214 258 310 372
#     4  10  22  43  66  90 129 167 203 258 314 368
#     4  10  23  41  64  94 126 164 208 254 312 373
#
# _framework density 21.837622
#
# number of rings (size 3 to 8) (size 9 to 14) (size 15 to 20)
#    0.000    1.600    0.000    3.600    0.000   15.200 
#    0.000    4.000    0.000    0.000    0.000    0.000 
#    0.000    0.000    0.000    0.000    0.000    0.000 
#
# Total GULP energy -248032.480886 kJ/mol
# GULP energy per Si atom -12401.624044 kJ/mol
# Density = 2.178792 g / cm^3
# Si number density = 21.837622 Si / 1000 Ang^3
#
#
#
# Elastic Constant Matrix: (Units=GPa)
#
#
# Indices 1 2 3 4 5 6 
#
# 1 108.7574 60.5239 85.4109 0.0000 0.0000 0.0000
# 2 60.5239 138.3347 70.7199 0.0000 0.0000 0.0000
# 3 85.4109 70.7199 145.2427 0.0000 0.0000 0.0000
# 4 0.0000 0.0000 0.0000 36.2609 0.0000 0.0000
# 5 0.0000 0.0000 0.0000 0.0000 54.8447 0.0000
# 6 0.0000 0.0000 0.0000 0.0000 0.0000 7.8395
#
#
#
# Elastic Compliance Matrix: (Units=1/GPa)
#
#
# Indices 1 2 3 4 5 6 
#
# 1 0.018156 -0.003309 -0.009065 0.000000 0.000000 0.000000
# 2 -0.003309 0.010228 -0.003034 0.000000 0.000000 0.000000
# 3 -0.009065 -0.003034 0.013693 0.000000 0.000000 0.000000
# 4 0.000000 0.000000 0.000000 0.027578 0.000000 0.000000
# 5 0.000000 0.000000 0.000000 0.000000 0.018233 0.000000
# 6 0.000000 0.000000 0.000000 0.000000 0.000000 0.127559
#
#
# Mechanical properties :
#
#
# Convention : Reuss Voigt Hill
#
# Bulk Modulus (GPa) = 88.81200 91.73825 90.27512
# Shear Modulus (GPa) = 19.99865 31.50104 25.74984
#
# Velocity S-wave (km/s) = 3.02948 3.80216 3.43760
# Velocity P-wave (km/s) = 7.27974 7.83427 7.56209
#
# Compressibility (1/GPa) = 0.01125974
#
# Stress axis : x y z
#
# Youngs Moduli (GPa) = 55.07965 97.77400 73.02865
#
# Poissons Ratio (x) = 0.32353 0.66203
# Poissons Ratio (y) = 0.18226 0.22157
# Poissons Ratio (z) = 0.49931 0.29665
#
# Static dielectric constant tensor:
#      x y z
#    x 3.561370 0.000000 0.000000 
#    y 0.000000 4.117930 0.000000 
#    z 0.000000 0.000000 4.950600 
# 
# 
# High freq. dielectric constant tensor:
#      x y z
#    x 1.826460 0.000000 0.000000 
#    y 0.000000 1.873830 0.000000 
#    z 0.000000 0.000000 1.886750 
# 
# From -- ./inp_files/10759.got.cif
#   From: 2010.03.12/outbox.cif.g09.slc.cpg/sg17_6_cif.got.tgz:10759.got - 2010.04.10 18:46:23.
