data_PCOD8155020
_publ_section_title
;
Structure prediction by ZEFSAII (Michael W. Deem and Ramdas Pophale) SiO2 
 PCOD8155020
Probable space group: C 2/C
;
_chemical_formula_sum "Si O2"
_cell_formula_units_Z 32
_cell_length_a 16.374601
_cell_length_b 9.895769
_cell_length_c 9.274421
_cell_angle_alpha 90.000000
_cell_angle_beta 105.233241
_cell_angle_gamma 90.000000
_cell_volume 1450.017631
_symmetry_space_group_name_H-M "C 2/C"
_symmetry_group_IT_number 15
_symmetry_cell_setting 'monoclinic'
loop_
_space_group_symop_operation_xyz
x,y,z
-x,y,1/2-z
-x,-y,-z
x,-y,1/2+z
1/2+x,1/2+y,z
1/2-x,1/2+y,1/2-z
1/2-x,1/2-y,-z
1/2+x,1/2-y,1/2+z
loop_
_atom_site_type_symbol
_atom_site_label
_atom_site_fract_x
_atom_site_fract_y
_atom_site_fract_z
Si Si1 0.695659 0.497731 0.861783
Si Si2 0.313122 0.021860 0.666321
Si Si3 0.583200 0.737288 0.208396
Si Si4 0.587267 0.759085 0.874104
O O1 0.779272 0.540866 0.812980
O O2 0.653293 0.378121 0.751975
O O3 0.629201 0.617072 0.854036
O O4 0.731764 0.443925 0.029912
O O5 0.347639 0.873765 0.646249
O O6 0.388174 0.130531 0.688208
O O7 0.500000 0.683018 0.250000
O O8 0.566400 0.769593 0.033586
O O9 0.500000 0.776331 0.750000
#
# Coordination Sequence:
#
# PCOD8155020 Si02
#       4
#     8   8   8   8
#     4  12  25  47  74 100 138 182 230 285 341 403
#     4  12  25  47  74 100 138 182 230 285 341 403
#     4  12  28  46  70 104 139 184 229 278 347 408
#     4  12  28  47  68 104 145 177 227 288 339 408
#
# _framework density 22.068698000000001
#
# number of rings (size 3 to 8) (size 9 to 14) (size 15 to 20)
#    0.000    0.000    5.000    4.500    7.000    4.000 
#    0.000    0.000    0.000    0.000    0.000    0.000 
#    0.000    0.000    0.000    0.000    0.000    0.000 
#
# Total GULP energy -198511.614932 kJ/mol
# GULP energy per Si atom -12406.975933 kJ/mol
# Density = 2.201847 g / cm^3
# Si number density = 22.068698 Si / 1000 Ang^3
#
#
#
# Elastic Constant Matrix: (Units=GPa)
#
#
# Indices 1 2 3 4 5 6 
#
# 1 97.4811 12.2250 40.4211 0.0000 -4.8708 0.0000
# 2 12.2250 78.7715 40.8598 0.0000 6.5074 0.0000
# 3 40.4211 40.8598 109.4093 0.0000 13.6202 0.0000
# 4 0.0000 0.0000 0.0000 31.2469 0.0000 2.3612
# 5 -4.8708 6.5074 13.6202 0.0000 44.6045 0.0000
# 6 0.0000 0.0000 0.0000 2.3612 0.0000 33.4926
#
#
#
# Elastic Compliance Matrix: (Units=1/GPa)
#
#
# Indices 1 2 3 4 5 6 
#
# 1 0.012475 0.000500 -0.005152 0.000000 0.002863 0.000000
# 2 0.000500 0.015777 -0.006026 0.000000 -0.000407 0.000000
# 3 -0.005152 -0.006026 0.013778 0.000000 -0.003891 0.000000
# 4 0.000000 0.000000 0.000000 0.032175 0.000000 -0.002268
# 5 0.002863 -0.000407 -0.003891 0.000000 0.023979 0.000000
# 6 0.000000 0.000000 0.000000 -0.002268 0.000000 0.030017
#
#
# Mechanical properties :
#
#
# Convention : Reuss Voigt Hill
#
# Bulk Modulus (GPa) = 48.37025 52.51929 50.44477
# Shear Modulus (GPa) = 31.95944 34.67920 33.31932
#
# Velocity S-wave (km/s) = 3.80962 3.96841 3.88983
# Velocity P-wave (km/s) = 6.42780 6.69683 6.56369
#
# Compressibility (1/GPa) = 0.02067386
#
# Stress axis : x y z
#
# Youngs Moduli (GPa) = 80.16029 63.38451 72.57883
#
# Poissons Ratio (x) = -0.03168 0.37392
# Poissons Ratio (y) = -0.04006 0.43735
# Poissons Ratio (z) = 0.41298 0.38195
#
# Static dielectric constant tensor:
#      x y z
#    x 3.840910 0.000000 0.061910 
#    y 0.000000 3.861560 0.000000 
#    z 0.061910 0.000000 4.063540 
# 
# 
# High freq. dielectric constant tensor:
#      x y z
#    x 1.877750 0.000000 0.003360 
#    y 0.000000 1.873480 0.000000 
#    z 0.003360 0.000000 1.885980 
# 
# From -- ./inp_files/36767.got.cif
#   From: 2010.06.25/outbox.cif.g09.slc.cpg/sg15_19_cif.got.tgz:36767.got - 2010.06.28 07:06:18.
