data_PCOD8155096
_publ_section_title
;
Structure prediction by ZEFSAII (Michael W. Deem and Ramdas Pophale) SiO2 
 PCOD8155096
Probable space group: C 2/C
;
_chemical_formula_sum "Si O2"
_cell_formula_units_Z 40
_cell_length_a 9.187973
_cell_length_b 11.485487
_cell_length_c 17.726468
_cell_angle_alpha 90.000000
_cell_angle_beta 65.180764
_cell_angle_gamma 90.000000
_cell_volume 1697.865713
_symmetry_space_group_name_H-M "C 2/C"
_symmetry_group_IT_number 15
_symmetry_cell_setting 'monoclinic'
loop_
_space_group_symop_operation_xyz
x,y,z
-x,y,1/2-z
-x,-y,-z
x,-y,1/2+z
1/2+x,1/2+y,z
1/2-x,1/2+y,1/2-z
1/2-x,1/2-y,-z
1/2+x,1/2-y,1/2+z
loop_
_atom_site_type_symbol
_atom_site_label
_atom_site_fract_x
_atom_site_fract_y
_atom_site_fract_z
Si Si1 0.378052 0.679033 0.425488
Si Si2 0.344992 0.869174 0.316911
Si Si3 0.680029 0.302033 0.204836
Si Si4 0.181438 0.542467 0.951817
Si Si5 0.286992 0.402661 0.589841
O O1 0.250000 0.750000 0.500000
O O2 0.426855 0.766434 0.348410
O O3 0.296196 0.565209 0.409551
O O4 0.529297 0.638597 0.442345
O O5 0.500000 0.937067 0.250000
O O6 0.240474 0.805248 0.276781
O O7 0.234263 0.959944 0.386820
O O8 0.500000 0.351486 0.250000
O O9 0.798413 0.375342 0.124829
O O10 0.677867 0.171195 0.171526
O O11 0.233122 0.614383 0.015104
O O12 0.000000 0.500000 0.000000
#
# Coordination Sequence:
#
# PCOD8155096 Si02
#       5
#     8   8   8   8   8
#     4  12  26  47  77 107 147 202 253 319 383 468
#     4  12  26  49  74 110 152 198 257 320 393 456
#     4  12  28  44  73 111 153 197 254 325 387 457
#     4  12  27  48  78 110 152 204 261 315 390 469
#     4  12  26  50  75 107 151 204 257 314 387 470
#
# _framework density 23.558989
#
# number of rings (size 3 to 8) (size 9 to 14) (size 15 to 20)
#    0.000    0.000    4.000    5.400    8.400    0.800 
#    0.000    0.000    0.000    0.000    0.000    0.000 
#    0.000    0.000    0.000    0.000    0.000    0.000 
#
# Total GULP energy -248027.081881 kJ/mol
# GULP energy per Si atom -12401.354094 kJ/mol
# Density = 2.350537 g / cm^3
# Si number density = 23.558989 Si / 1000 Ang^3
#
#
#
# Elastic Constant Matrix: (Units=GPa)
#
#
# Indices 1 2 3 4 5 6 
#
# 1 163.6284 26.2358 34.3724 0.0000 -4.1715 0.0000
# 2 26.2358 97.4468 16.1581 0.0000 8.2973 0.0000
# 3 34.3724 16.1581 77.3738 0.0000 7.9186 0.0000
# 4 0.0000 0.0000 0.0000 38.1279 0.0000 -2.8813
# 5 -4.1715 8.2973 7.9186 0.0000 47.0288 0.0000
# 6 0.0000 0.0000 0.0000 -2.8813 0.0000 44.4115
#
#
#
# Elastic Compliance Matrix: (Units=1/GPa)
#
#
# Indices 1 2 3 4 5 6 
#
# 1 0.007007 -0.001517 -0.002938 0.000000 0.001384 0.000000
# 2 -0.001517 0.011068 -0.001449 0.000000 -0.001843 0.000000
# 3 -0.002938 -0.001449 0.014787 0.000000 -0.002495 0.000000
# 4 0.000000 0.000000 0.000000 0.026357 0.000000 0.001710
# 5 0.001384 -0.001843 -0.002495 0.000000 0.022132 0.000000
# 6 0.000000 0.000000 0.000000 0.001710 0.000000 0.022628
#
#
# Mechanical properties :
#
#
# Convention : Reuss Voigt Hill
#
# Bulk Modulus (GPa) = 47.49485 54.66465 51.07975
# Shear Modulus (GPa) = 40.71564 43.35914 42.03739
#
# Velocity S-wave (km/s) = 4.16172 4.29470 4.22874
# Velocity P-wave (km/s) = 6.58005 6.91710 6.75068
#
# Compressibility (1/GPa) = 0.02105491
#
# Stress axis : x y z
#
# Youngs Moduli (GPa) = 142.71364 90.35336 67.62658
#
# Poissons Ratio (x) = 0.13709 0.19866
# Poissons Ratio (y) = 0.21653 0.09796
# Poissons Ratio (z) = 0.41923 0.13089
#
# Static dielectric constant tensor:
#      x y z
#    x 2.362500 0.000000 -1.280180 
#    y 0.000000 -1.339440 0.000000 
#    z -1.280180 0.000000 3.674720 
# 
# 
# High freq. dielectric constant tensor:
#      x y z
#    x 1.949090 0.000000 -0.002770 
#    y 0.000000 1.937710 0.000000 
#    z -0.002770 0.000000 1.940780 
# 
# From -- ./inp_files/187823.got.cif
#   From: 2010.06.25/outbox.cif.g09.slc.cpg/sg15_94_cif.got.tgz:187823.got - 2010.06.28 07:06:18.
