data_PCOD8155892
_publ_section_title
;
Structure prediction by ZEFSAII (Michael W. Deem and Ramdas Pophale) SiO2 
 PCOD8155892
Probable space group: P 21 21 2
;
_chemical_formula_sum "Si O2"
_cell_formula_units_Z 24
_cell_length_a 8.828012
_cell_length_b 15.794217
_cell_length_c 9.697247
_cell_angle_alpha 90.000000
_cell_angle_beta 90.000000
_cell_angle_gamma 90.000000
_cell_volume 1352.102056
_symmetry_space_group_name_H-M "P 21 21 2"
_symmetry_group_IT_number 18
_symmetry_cell_setting 'orthorhombic'
loop_
_space_group_symop_operation_xyz
x,y,z
-x,-y,z
1/2+x,1/2-y,-z
1/2-x,1/2+y,-z
loop_
_atom_site_type_symbol
_atom_site_label
_atom_site_fract_x
_atom_site_fract_y
_atom_site_fract_z
Si Si1 0.834336 0.521341 0.199355
Si Si2 0.889914 0.212975 0.236780
Si Si3 0.078695 0.913680 0.990034
Si Si4 0.369992 0.816140 0.643500
Si Si5 0.558347 0.711541 0.464483
Si Si6 0.646829 0.355596 0.239144
O O1 0.851079 0.584040 0.330463
O O2 0.752508 0.437372 0.253543
O O3 0.000000 0.500000 0.139137
O O4 0.739532 0.567268 0.080384
O O5 0.890066 0.140918 0.123951
O O6 0.888214 0.169225 0.389628
O O7 0.743668 0.271642 0.213156
O O8 0.042812 0.271134 0.227754
O O9 0.000000 0.000000 0.037994
O O10 0.970900 0.863363 0.885592
O O11 0.472383 0.799745 0.505220
O O12 0.206667 0.770769 0.627541
O O13 0.444542 0.650259 0.382583
#
# Coordination Sequence:
#
# PCOD8155892 Si02
#       6
#     4   4   4   4   4   4
#     4  11  21  38  60  85 115 153 200 240 286 348
#     4  10  21  37  59  86 117 152 190 242 295 335
#     4  10  24  39  56  87 121 154 199 242 291 348
#     4  10  20  36  60  87 115 148 188 247 284 351
#     4  10  19  37  57  87 114 146 194 240 286 354
#     4  11  21  36  60  87 113 155 203 235 288 358
#
# _framework density 17.750138
#
# number of rings (size 3 to 8) (size 9 to 14) (size 15 to 20)
#    1.000    0.667    5.000    0.000    2.333    0.000 
#    3.000    1.667    0.000    0.000    0.000    0.000 
#    0.000    0.000    0.000    0.000    0.000    0.000 
#
# Total GULP energy -297387.309919 kJ/mol
# GULP energy per Si atom -12391.137913 kJ/mol
# Density = 1.770974 g / cm^3
# Si number density = 17.750138 Si / 1000 Ang^3
#
#
#
# Elastic Constant Matrix: (Units=GPa)
#
#
# Indices 1 2 3 4 5 6 
#
# 1 155.0489 60.0896 58.4915 0.0000 0.0000 0.0000
# 2 60.0896 93.2015 68.9140 0.0000 0.0000 0.0000
# 3 58.4915 68.9140 103.3634 0.0000 0.0000 0.0000
# 4 0.0000 0.0000 0.0000 29.7068 0.0000 0.0000
# 5 0.0000 0.0000 0.0000 0.0000 19.8336 0.0000
# 6 0.0000 0.0000 0.0000 0.0000 0.0000 27.8539
#
#
#
# Elastic Compliance Matrix: (Units=1/GPa)
#
#
# Indices 1 2 3 4 5 6 
#
# 1 0.008886 -0.003966 -0.002384 0.000000 0.000000 0.000000
# 2 -0.003966 0.022932 -0.013045 0.000000 0.000000 0.000000
# 3 -0.002384 -0.013045 0.019721 0.000000 0.000000 0.000000
# 4 0.000000 0.000000 0.000000 0.033662 0.000000 0.000000
# 5 0.000000 0.000000 0.000000 0.000000 0.050420 0.000000
# 6 0.000000 0.000000 0.000000 0.000000 0.000000 0.035902
#
#
# Mechanical properties :
#
#
# Convention : Reuss Voigt Hill
#
# Bulk Modulus (GPa) = 78.43887 80.73378 79.58633
# Shear Modulus (GPa) = 23.30329 26.42011 24.86170
#
# Velocity S-wave (km/s) = 3.62726 3.86222 3.74658
# Velocity P-wave (km/s) = 7.86315 8.09143 7.97811
#
# Compressibility (1/GPa) = 0.01274878
#
# Stress axis : x y z
#
# Youngs Moduli (GPa) = 112.53512 43.60732 50.70793
#
# Poissons Ratio (x) = 0.17296 0.12089
# Poissons Ratio (y) = 0.44635 0.66147
# Poissons Ratio (z) = 0.26829 0.56884
#
# Static dielectric constant tensor:
#      x y z
#    x 3.619250 0.000000 0.000000 
#    y 0.000000 3.142350 0.000000 
#    z 0.000000 0.000000 3.078280 
# 
# 
# High freq. dielectric constant tensor:
#      x y z
#    x 1.712720 0.000000 0.000000 
#    y 0.000000 1.667100 0.000000 
#    z 0.000000 0.000000 1.664470 
# 
# From -- ./inp_files/3300.got.cif
#   From: 2010.03.12/outbox.cif.g09.slc.cpg/sg18_2_cif.got.tgz:3300.got - 2010.04.10 18:53:55.
