data_PCOD8155589
_publ_section_title
;
Structure prediction by ZEFSAII (Michael W. Deem and Ramdas Pophale) SiO2 
 PCOD8155589
Probable space group: P 2 2 21
;
_chemical_formula_sum "Si O2"
_cell_formula_units_Z 32
_cell_length_a 14.284884
_cell_length_b 8.997529
_cell_length_c 10.896470
_cell_angle_alpha 90.000000
_cell_angle_beta 90.000000
_cell_angle_gamma 90.000000
_cell_volume 1400.508667
_symmetry_space_group_name_H-M "P 2 2 21"
_symmetry_group_IT_number 17
_symmetry_cell_setting 'orthorhombic'
loop_
_space_group_symop_operation_xyz
x,y,z
-x,-y,1/2+z
x,-y,-z
-x,y,1/2-z
loop_
_atom_site_type_symbol
_atom_site_label
_atom_site_fract_x
_atom_site_fract_y
_atom_site_fract_z
Si Si1 0.253426 0.388175 0.820190
Si Si2 0.111033 0.155059 0.247330
Si Si3 0.410334 0.058003 0.619548
Si Si4 0.634495 0.629775 0.084201
Si Si5 0.102539 0.820383 0.301310
Si Si6 0.748764 0.289642 0.415926
Si Si7 0.834383 0.330137 0.023339
Si Si8 0.615109 0.946874 0.630507
O O1 0.338199 0.414652 0.723622
O O2 0.167494 0.306704 0.755923
O O3 0.224728 0.549882 0.865562
O O4 0.278321 0.290982 0.939898
O O5 0.158854 0.188810 0.114607
O O6 0.155667 0.278992 0.336753
O O7 0.000000 0.174357 0.250000
O O8 0.140032 0.986984 0.281435
O O9 0.436465 0.231309 0.597610
O O10 0.352197 0.000000 0.500000
O O11 0.502789 0.954677 0.624798
O O12 0.353270 0.042162 0.747981
O O13 0.725975 0.685659 0.012365
O O14 0.587555 0.500000 0.000000
O O15 0.101421 0.784312 0.446146
O O16 0.000000 0.800547 0.250000
O O17 0.656748 0.218461 0.349668
O O18 0.867538 0.500000 0.000000
O O19 0.659030 0.000000 0.500000
#
# Coordination Sequence:
#
# PCOD8155589 Si02
#       8
#     4   4   4   4   4   4   4   4
#     4  10  24  42  63 102 127 185 228 275 353 411
#     4  11  25  40  61 100 132 177 233 287 345 411
#     4  10  23  40  70 100 133 172 229 278 345 415
#     4  10  21  39  68  97 136 170 226 284 340 412
#     4  10  23  41  62  88 134 172 225 290 347 410
#     4  11  24  41  70  93 136 178 231 279 341 425
#     4  10  22  39  61  93 130 176 226 287 345 410
#     4  10  23  43  69  97 136 175 228 279 345 418
#
# _framework density 22.848842000000001
#
# number of rings (size 3 to 8) (size 9 to 14) (size 15 to 20)
#    0.000    1.750    0.000    3.375   10.500    2.000 
#    0.000    0.000   22.000    0.000    0.000    0.000 
#    0.000    0.000    0.000    0.000    0.000    0.000 
#
# Total GULP energy -396455.685556 kJ/mol
# GULP energy per Si atom -12389.240174 kJ/mol
# Density = 2.279684 g / cm^3
# Si number density = 22.848842 Si / 1000 Ang^3
#
#
#
# Elastic Constant Matrix: (Units=GPa)
#
#
# Indices 1 2 3 4 5 6 
#
# 1 59.6778 30.3590 14.8819 0.0000 0.0000 0.0000
# 2 30.3590 135.6493 58.0003 0.0000 0.0000 0.0000
# 3 14.8819 58.0003 168.9285 0.0000 0.0000 0.0000
# 4 0.0000 0.0000 0.0000 43.6928 0.0000 0.0000
# 5 0.0000 0.0000 0.0000 0.0000 14.9257 0.0000
# 6 0.0000 0.0000 0.0000 0.0000 0.0000 26.0434
#
#
#
# Elastic Compliance Matrix: (Units=1/GPa)
#
#
# Indices 1 2 3 4 5 6 
#
# 1 0.018919 -0.004127 -0.000250 0.000000 0.000000 0.000000
# 2 -0.004127 0.009541 -0.002912 0.000000 0.000000 0.000000
# 3 -0.000250 -0.002912 0.006942 0.000000 0.000000 0.000000
# 4 0.000000 0.000000 0.000000 0.022887 0.000000 0.000000
# 5 0.000000 0.000000 0.000000 0.000000 0.066999 0.000000
# 6 0.000000 0.000000 0.000000 0.000000 0.000000 0.038397
#
#
# Mechanical properties :
#
#
# Convention : Reuss Voigt Hill
#
# Bulk Modulus (GPa) = 48.02443 63.41533 55.71988
# Shear Modulus (GPa) = 26.99737 34.33332 30.66535
#
# Velocity S-wave (km/s) = 3.44112 3.88058 3.66744
# Velocity P-wave (km/s) = 6.07061 6.92048 6.50943
#
# Compressibility (1/GPa) = 0.02082274
#
# Stress axis : x y z
#
# Youngs Moduli (GPa) = 52.85825 104.81245 144.06061
#
# Poissons Ratio (x) = 0.43260 0.03595
# Poissons Ratio (y) = 0.21816 0.41953
# Poissons Ratio (z) = 0.01319 0.30523
#
# Static dielectric constant tensor:
#      x y z
#    x 3.596350 0.000000 0.000000 
#    y 0.000000 4.241460 0.000000 
#    z 0.000000 0.000000 5.062510 
# 
# 
# High freq. dielectric constant tensor:
#      x y z
#    x 1.860080 0.000000 0.000000 
#    y 0.000000 1.911520 0.000000 
#    z 0.000000 0.000000 1.926760 
# 
# From -- ./inp_files/7295.got.cif
#   From: 2010.03.12/outbox.cif.g09.slc.cpg/sg17_4_cif.got.tgz:7295.got - 2010.04.10 18:46:23.
