data_PCOD8155307
_publ_section_title
;
Structure prediction by ZEFSAII (Michael W. Deem and Ramdas Pophale) SiO2 
 PCOD8155307
Probable space group: P 2 2 2
;
_chemical_formula_sum "Si O2"
_cell_formula_units_Z 14
_cell_length_a 18.256473
_cell_length_b 5.077648
_cell_length_c 6.154359
_cell_angle_alpha 90.000000
_cell_angle_beta 90.000000
_cell_angle_gamma 90.000000
_cell_volume 570.508732
_symmetry_space_group_name_H-M "P 2 2 2"
_symmetry_group_IT_number 16
_symmetry_cell_setting 'orthorhombic'
loop_
_space_group_symop_operation_xyz
x,y,z
-x,-y,z
x,-y,-z
-x,y,-z
loop_
_atom_site_type_symbol
_atom_site_label
_atom_site_fract_x
_atom_site_fract_y
_atom_site_fract_z
Si Si1 0.000000 0.500000 0.500000
Si Si2 0.908774 0.254204 0.863222
Si Si3 0.401880 0.753937 0.648478
Si Si4 0.500000 0.500000 0.000000
Si Si5 0.236974 0.757148 0.644456
O O1 0.948757 0.294383 0.632348
O O2 0.820426 0.256819 0.840809
O O3 0.935075 0.500000 0.000000
O O4 0.934322 0.000000 0.000000
O O5 0.407244 0.500000 0.500000
O O6 0.319199 0.801394 0.734970
O O7 0.428400 0.000000 0.500000
O O8 0.451885 0.703031 0.858061
O O9 0.233216 0.500000 0.500000
O O10 0.211234 0.000000 0.500000
#
# Coordination Sequence:
#
# PCOD8155307 Si02
#       5
#     1   4   4   1   4
#     4  12  30  54  72 112 164 188 234 318 372 432
#     4  12  28  48  79 111 145 195 250 294 368 444
#     4  10  25  46  73 109 151 190 250 303 365 443
#     4  12  26  46  80 108 148 208 234 310 380 432
#     4  10  21  47  75 104 146 193 237 311 362 422
#
# _framework density 24.5395
#
# number of rings (size 3 to 8) (size 9 to 14) (size 15 to 20)
#    0.000    1.143    1.429    2.571    2.000    8.000 
#    0.000    0.000    0.000    0.000    0.000    0.000 
#    0.000    0.000    0.000    0.000    0.000    0.000 
#
# Total GULP energy -173604.798304 kJ/mol
# GULP energy per Si atom -12400.342736 kJ/mol
# Density = 2.448365 g / cm^3
# Si number density = 24.539500 Si / 1000 Ang^3
#
#
#
# Elastic Constant Matrix: (Units=GPa)
#
#
# Indices 1 2 3 4 5 6 
#
# 1 168.1565 37.7244 83.9757 0.0000 0.0000 0.0000
# 2 37.7244 195.7109 65.9954 0.0000 0.0000 0.0000
# 3 83.9757 65.9954 134.2165 0.0000 0.0000 0.0000
# 4 0.0000 0.0000 0.0000 46.8872 0.0000 0.0000
# 5 0.0000 0.0000 0.0000 0.0000 66.9814 0.0000
# 6 0.0000 0.0000 0.0000 0.0000 0.0000 35.8572
#
#
#
# Elastic Compliance Matrix: (Units=1/GPa)
#
#
# Indices 1 2 3 4 5 6 
#
# 1 0.008655 0.000189 -0.005508 0.000000 0.000000 0.000000
# 2 0.000189 0.006129 -0.003132 0.000000 0.000000 0.000000
# 3 -0.005508 -0.003132 0.012437 0.000000 0.000000 0.000000
# 4 0.000000 0.000000 0.000000 0.021328 0.000000 0.000000
# 5 0.000000 0.000000 0.000000 0.000000 0.014930 0.000000
# 6 0.000000 0.000000 0.000000 0.000000 0.000000 0.027888
#
#
# Mechanical properties :
#
#
# Convention : Reuss Voigt Hill
#
# Bulk Modulus (GPa) = 96.90905 97.05279 96.98092
# Shear Modulus (GPa) = 44.75883 50.63772 47.69827
#
# Velocity S-wave (km/s) = 4.27541 4.54753 4.41356
# Velocity P-wave (km/s) = 7.99681 8.19810 8.09808
#
# Compressibility (1/GPa) = 0.01031895
#
# Stress axis : x y z
#
# Youngs Moduli (GPa) = 115.53710 163.15030 80.40408
#
# Poissons Ratio (x) = -0.03085 0.44289
# Poissons Ratio (y) = -0.02185 0.25184
# Poissons Ratio (z) = 0.63642 0.51101
#
# Static dielectric constant tensor:
#      x y z
#    x 4.971140 0.000000 0.000000 
#    y 0.000000 4.282840 0.000000 
#    z 0.000000 0.000000 4.140250 
# 
# 
# High freq. dielectric constant tensor:
#      x y z
#    x 2.008140 0.000000 0.000000 
#    y 0.000000 1.989880 0.000000 
#    z 0.000000 0.000000 1.957300 
# 
# From -- ./inp_files/2554.got.cif
#   From: 2010.03.12/outbox.cif.g09.slc.cpg/sg16_2_cif.got.tgz:2554.got - 2010.03.31 00:51:45.
