data_PCOD8155597
_publ_section_title
;
Structure prediction by ZEFSAII (Michael W. Deem and Ramdas Pophale) SiO2 
 PCOD8155597
Probable space group: P 2 2 21
;
_chemical_formula_sum "Si O2"
_cell_formula_units_Z 24
_cell_length_a 7.641340
_cell_length_b 15.073190
_cell_length_c 9.883188
_cell_angle_alpha 90.000000
_cell_angle_beta 90.000000
_cell_angle_gamma 90.000000
_cell_volume 1138.339364
_symmetry_space_group_name_H-M "P 2 2 21"
_symmetry_group_IT_number 17
_symmetry_cell_setting 'orthorhombic'
loop_
_space_group_symop_operation_xyz
x,y,z
-x,-y,1/2+z
x,-y,-z
-x,y,1/2-z
loop_
_atom_site_type_symbol
_atom_site_label
_atom_site_fract_x
_atom_site_fract_y
_atom_site_fract_z
Si Si1 0.198423 0.698412 0.721506
Si Si2 0.239633 0.772880 0.002338
Si Si3 0.477755 0.083086 0.592785
Si Si4 0.353119 0.520000 0.654482
Si Si5 0.835429 0.801668 0.033878
Si Si6 0.191952 0.653685 0.243524
O O1 0.206523 0.595663 0.671836
O O2 0.257302 0.759508 0.597131
O O3 0.000000 0.718340 0.750000
O O4 0.296930 0.733171 0.856145
O O5 0.386435 0.840032 0.053212
O O6 0.242404 0.685244 0.094360
O O7 0.044473 0.818095 0.012142
O O8 0.500000 0.057609 0.750000
O O9 0.274203 0.109372 0.565879
O O10 0.525751 0.000000 0.500000
O O11 0.404814 0.500000 0.500000
O O12 0.500000 0.563510 0.750000
O O13 0.318058 0.425119 0.718758
O O14 0.798507 0.737714 0.159119
O O15 0.000000 0.611344 0.250000
#
# Coordination Sequence:
#
# PCOD8155597 Si02
#       6
#     4   4   4   4   4   4
#     4  10  23  43  66  95 129 176 224 272 322 380
#     4  10  24  43  72  98 128 173 222 264 329 395
#     4  12  28  45  70 101 132 169 211 271 338 401
#     4  12  27  39  57  94 135 174 222 275 319 373
#     4  10  22  45  70  96 131 174 217 270 323 387
#     4  10  21  41  66  88 124 176 217 263 317 375
#
# _framework density 21.083345000000001
#
# number of rings (size 3 to 8) (size 9 to 14) (size 15 to 20)
#    0.000    1.333    3.333    0.500    9.333    0.667 
#    0.000    0.000    0.000    0.000    0.000    0.000 
#    0.000    0.000    0.000    0.000    0.000    0.000 
#
# Total GULP energy -297439.842562 kJ/mol
# GULP energy per Si atom -12393.326773 kJ/mol
# Density = 2.103536 g / cm^3
# Si number density = 21.083345 Si / 1000 Ang^3
#
#
#
# Elastic Constant Matrix: (Units=GPa)
#
#
# Indices 1 2 3 4 5 6 
#
# 1 66.8508 24.1031 24.8706 0.0000 0.0000 0.0000
# 2 24.1031 58.4613 18.8226 0.0000 0.0000 0.0000
# 3 24.8706 18.8226 149.4526 0.0000 0.0000 0.0000
# 4 0.0000 0.0000 0.0000 -19.5284 0.0000 0.0000
# 5 0.0000 0.0000 0.0000 0.0000 26.9817 0.0000
# 6 0.0000 0.0000 0.0000 0.0000 0.0000 24.9583
#
#
#
# Elastic Compliance Matrix: (Units=1/GPa)
#
#
# Indices 1 2 3 4 5 6 
#
# 1 0.018224 -0.006814 -0.002175 0.000000 0.000000 0.000000
# 2 -0.006814 0.020376 -0.001432 0.000000 0.000000 0.000000
# 3 -0.002175 -0.001432 0.007233 0.000000 0.000000 0.000000
# 4 0.000000 0.000000 0.000000 -0.051207 0.000000 0.000000
# 5 0.000000 0.000000 0.000000 0.000000 0.037062 0.000000
# 6 0.000000 0.000000 0.000000 0.000000 0.000000 0.040067
#
#
# Mechanical properties :
#
#
# Convention : Reuss Voigt Hill
#
# Bulk Modulus (GPa) = 40.01226 45.59523 42.80375
# Shear Modulus (GPa) = 49.54087 20.28021 34.91054
#
# Velocity S-wave (km/s) = 4.85269 3.10483 4.07361
# Velocity P-wave (km/s) = 7.10053 5.87592 6.51705
#
# Compressibility (1/GPa) = 0.02499234
#
# Stress axis : x y z
#
# Youngs Moduli (GPa) = 54.87166 49.07814 138.24836
#
# Poissons Ratio (x) = 0.33440 0.30064
# Poissons Ratio (y) = 0.37387 0.19802
# Poissons Ratio (z) = 0.11932 0.07030
#
# Static dielectric constant tensor:
#      x y z
#    x 4.371750 0.000000 0.000000 
#    y 0.000000 3.472110 0.000000 
#    z 0.000000 0.000000 4.475830 
# 
# 
# High freq. dielectric constant tensor:
#      x y z
#    x 1.826120 0.000000 0.000000 
#    y 0.000000 1.805960 0.000000 
#    z 0.000000 0.000000 1.851290 
# 
# From -- ./inp_files/4266.got.cif
#   From: 2010.03.12/outbox.cif.g09.slc.cpg/sg17_3_cif.got.tgz:4266.got - 2010.04.10 18:46:23.
