data_PCOD8155813
_publ_section_title
;
Structure prediction by ZEFSAII (Michael W. Deem and Ramdas Pophale) SiO2 
 PCOD8155813
Probable space group: P 21 21 2
;
_chemical_formula_sum "Si O2"
_cell_formula_units_Z 30
_cell_length_a 11.879269
_cell_length_b 15.998416
_cell_length_c 7.608174
_cell_angle_alpha 90.000000
_cell_angle_beta 90.000000
_cell_angle_gamma 90.000000
_cell_volume 1445.929568
_symmetry_space_group_name_H-M "P 21 21 2"
_symmetry_group_IT_number 18
_symmetry_cell_setting 'orthorhombic'
loop_
_space_group_symop_operation_xyz
x,y,z
-x,-y,z
1/2+x,1/2-y,-z
1/2-x,1/2+y,-z
loop_
_atom_site_type_symbol
_atom_site_label
_atom_site_fract_x
_atom_site_fract_y
_atom_site_fract_z
Si Si1 0.884823 0.544594 0.747282
Si Si2 0.774270 0.391620 0.925240
Si Si3 0.000000 0.000000 0.269164
Si Si4 0.071169 0.177902 0.204280
Si Si5 0.806518 0.063499 0.509179
Si Si6 0.018926 0.808719 0.575008
Si Si7 0.107815 0.051148 0.782021
Si Si8 0.999505 0.304180 0.904224
O O1 0.817906 0.572903 0.572823
O O2 0.000000 0.500000 0.686234
O O3 0.909036 0.622761 0.875307
O O4 0.805870 0.482606 0.855848
O O5 0.681529 0.399495 0.077603
O O6 0.706525 0.335993 0.781146
O O7 0.884980 0.342053 0.984817
O O8 0.888785 0.010203 0.385003
O O9 0.014436 0.086704 0.161139
O O10 0.028471 0.220098 0.384710
O O11 0.043640 0.236756 0.039805
O O12 0.854884 0.156332 0.544447
O O13 0.803534 0.012376 0.691236
O O14 0.939122 0.882915 0.641591
O O15 0.023976 0.732669 0.710369
O O16 0.000000 0.000000 0.861246
#
# Coordination Sequence:
#
# PCOD8155813 Si02
#       8
#     4   4   2   4   4   4   4   4
#     4  10  23  45  64  88 137 187 223 270 337 413
#     4  11  23  42  67  93 136 180 223 282 334 405
#     4  10  18  34  68 100 122 160 228 272 332 390
#     4  11  22  41  68  96 134 175 221 277 344 394
#     4  10  18  39  69  98 123 168 224 279 326 393
#     4  10  21  41  65  97 132 161 224 282 331 401
#     4  10  19  38  68 100 127 161 226 286 328 394
#     4  11  26  45  59  98 143 176 220 281 338 403
#
# _framework density 20.747900000000001
#
# number of rings (size 3 to 8) (size 9 to 14) (size 15 to 20)
#    0.000    1.600    6.000    0.000    0.933    3.200 
#   14.400    0.667    0.000    0.000    0.000    0.000 
#    0.000    0.000    0.000    0.000    0.000    0.000 
#
# Total GULP energy -371840.980628 kJ/mol
# GULP energy per Si atom -12394.699354 kJ/mol
# Density = 2.070068 g / cm^3
# Si number density = 20.747900 Si / 1000 Ang^3
#
#
#
# Elastic Constant Matrix: (Units=GPa)
#
#
# Indices 1 2 3 4 5 6 
#
# 1 103.5121 40.2381 50.2364 0.0000 0.0000 0.0000
# 2 40.2381 101.3795 45.9650 0.0000 0.0000 0.0000
# 3 50.2364 45.9650 90.9751 0.0000 0.0000 0.0000
# 4 0.0000 0.0000 0.0000 26.6318 0.0000 0.0000
# 5 0.0000 0.0000 0.0000 0.0000 31.4084 0.0000
# 6 0.0000 0.0000 0.0000 0.0000 0.0000 30.7575
#
#
#
# Elastic Compliance Matrix: (Units=1/GPa)
#
#
# Indices 1 2 3 4 5 6 
#
# 1 0.013708 -0.002606 -0.006253 0.000000 0.000000 0.000000
# 2 -0.002606 0.013290 -0.005276 0.000000 0.000000 0.000000
# 3 -0.006253 -0.005276 0.017111 0.000000 0.000000 0.000000
# 4 0.000000 0.000000 0.000000 0.037549 0.000000 0.000000
# 5 0.000000 0.000000 0.000000 0.000000 0.031839 0.000000
# 6 0.000000 0.000000 0.000000 0.000000 0.000000 0.032512
#
#
# Mechanical properties :
#
#
# Convention : Reuss Voigt Hill
#
# Bulk Modulus (GPa) = 63.13339 63.19397 63.16368
# Shear Modulus (GPa) = 27.84592 28.38801 28.11697
#
# Velocity S-wave (km/s) = 3.66745 3.70298 3.68526
# Velocity P-wave (km/s) = 6.95906 6.98619 6.97264
#
# Compressibility (1/GPa) = 0.01583948
#
# Stress axis : x y z
#
# Youngs Moduli (GPa) = 72.94757 75.24291 58.44277
#
# Poissons Ratio (x) = 0.19607 0.36546
# Poissons Ratio (y) = 0.19008 0.30834
# Poissons Ratio (z) = 0.45616 0.39698
#
# Static dielectric constant tensor:
#      x y z
#    x 3.842590 0.000000 0.000000 
#    y 0.000000 3.713190 0.000000 
#    z 0.000000 0.000000 3.694570 
# 
# 
# High freq. dielectric constant tensor:
#      x y z
#    x 1.807020 0.000000 0.000000 
#    y 0.000000 1.809760 0.000000 
#    z 0.000000 0.000000 1.803790 
# 
# From -- ./inp_files/3898.got.cif
#   From: 2010.03.12/outbox.cif.g09.slc.cpg/sg18_2_cif.got.tgz:3898.got - 2010.04.10 18:53:55.
