data_PCOD8155540
_publ_section_title
;
Structure prediction by ZEFSAII (Michael W. Deem and Ramdas Pophale) SiO2 
 PCOD8155540
Probable space group: P 2 2 21
;
_chemical_formula_sum "Si O2"
_cell_formula_units_Z 24
_cell_length_a 8.685870
_cell_length_b 26.043461
_cell_length_c 5.113633
_cell_angle_alpha 90.000000
_cell_angle_beta 90.000000
_cell_angle_gamma 90.000000
_cell_volume 1156.755517
_symmetry_space_group_name_H-M "P 2 2 21"
_symmetry_group_IT_number 17
_symmetry_cell_setting 'orthorhombic'
loop_
_space_group_symop_operation_xyz
x,y,z
-x,-y,1/2+z
x,-y,-z
-x,y,1/2-z
loop_
_atom_site_type_symbol
_atom_site_label
_atom_site_fract_x
_atom_site_fract_y
_atom_site_fract_z
Si Si1 0.669704 0.202312 0.158653
Si Si2 0.678280 0.104831 0.821009
Si Si3 0.108458 0.388451 0.499303
Si Si4 0.103373 0.500000 0.500000
Si Si5 0.099262 0.841788 0.998190
Si Si6 0.394544 0.687027 0.499316
Si Si7 0.605545 0.000000 0.000000
O O1 0.500000 0.188830 0.250000
O O2 0.788806 0.205446 0.404208
O O3 0.727405 0.154391 0.988168
O O4 0.670589 0.255020 0.997362
O O5 0.500000 0.107393 0.750000
O O6 0.790379 0.109566 0.569754
O O7 0.711946 0.050392 0.960365
O O8 0.192222 0.445255 0.488529
O O9 0.247501 0.349094 0.503953
O O10 0.000000 0.381185 0.750000
O O11 0.000000 0.379277 0.250000
O O12 0.000000 0.495891 0.750000
O O13 0.000000 0.823478 0.250000
O O14 0.000000 0.859815 0.750000
O O15 0.500000 0.676780 0.250000
O O16 0.500000 0.676442 0.750000
O O17 0.500000 0.989457 0.750000
#
# Coordination Sequence:
#
# PCOD8155540 Si02
#       7
#     4   4   4   2   4   4   2
#     4  11  23  42  70  88 123 175 215 250 313 390
#     4  11  22  43  73  96 127 163 216 257 312 379
#     4  10  20  40  63  93 127 170 218 265 316 375
#     4   8  16  32  62  88 120 168 218 258 308 380
#     4  12  26  42  66  98 131 160 206 264 318 374
#     4  11  25  41  61  92 130 167 210 265 325 380
#     4  10  24  38  70 108 124 152 218 278 300 360
#
# _framework density 20.747688
#
# number of rings (size 3 to 8) (size 9 to 14) (size 15 to 20)
#    0.000    1.333    3.333    2.000    4.667    0.667 
#    3.000    0.833    3.667    0.000    0.000    0.000 
#    0.000    0.000    0.000    0.000    0.000    0.000 
#
# Total GULP energy -297352.848697 kJ/mol
# GULP energy per Si atom -12389.702029 kJ/mol
# Density = 2.070047 g / cm^3
# Si number density = 20.747688 Si / 1000 Ang^3
#
#
#
# Elastic Constant Matrix: (Units=GPa)
#
#
# Indices 1 2 3 4 5 6 
#
# 1 131.4373 67.9385 66.8589 0.0000 0.0000 0.0000
# 2 67.9385 164.7946 51.7150 0.0000 0.0000 0.0000
# 3 66.8589 51.7150 150.8111 0.0000 0.0000 0.0000
# 4 0.0000 0.0000 0.0000 21.7692 0.0000 0.0000
# 5 0.0000 0.0000 0.0000 0.0000 41.1914 0.0000
# 6 0.0000 0.0000 0.0000 0.0000 0.0000 -55.1453
#
#
#
# Elastic Compliance Matrix: (Units=1/GPa)
#
#
# Indices 1 2 3 4 5 6 
#
# 1 0.011361 -0.003477 -0.003844 0.000000 0.000000 0.000000
# 2 -0.003477 0.007864 -0.001155 0.000000 0.000000 0.000000
# 3 -0.003844 -0.001155 0.008731 0.000000 0.000000 0.000000
# 4 0.000000 0.000000 0.000000 0.045936 0.000000 0.000000
# 5 0.000000 0.000000 0.000000 0.000000 0.024277 0.000000
# 6 0.000000 0.000000 0.000000 0.000000 0.000000 -0.018134
#
#
# Mechanical properties :
#
#
# Convention : Reuss Voigt Hill
#
# Bulk Modulus (GPa) = 90.88423 91.11864 91.00143
# Shear Modulus (GPa) = 49.67356 18.93176 34.30266
#
# Velocity S-wave (km/s) = 4.89834 3.02400 4.07052
# Velocity P-wave (km/s) = 8.71156 7.49704 8.12702
#
# Compressibility (1/GPa) = 0.01100301
#
# Stress axis : x y z
#
# Youngs Moduli (GPa) = 88.01984 127.15787 114.53185
#
# Poissons Ratio (x) = 0.44217 0.44029
# Poissons Ratio (y) = 0.30608 0.13230
# Poissons Ratio (z) = 0.33837 0.14689
#
# Static dielectric constant tensor:
#      x y z
#    x 3.778620 0.000000 0.000000 
#    y 0.000000 4.145210 0.000000 
#    z 0.000000 0.000000 5.294870 
# 
# 
# High freq. dielectric constant tensor:
#      x y z
#    x 1.802150 0.000000 0.000000 
#    y 0.000000 1.803610 0.000000 
#    z 0.000000 0.000000 1.835860 
# 
# From -- ./inp_files/1029.got.cif
#   From: 2010.03.12/outbox.cif.g09.slc.cpg/sg17_1_cif.got.tgz:1029.got - 2010.04.10 18:46:23.
