data_PCOD8155624
_publ_section_title
;
Structure prediction by ZEFSAII (Michael W. Deem and Ramdas Pophale) SiO2 
 PCOD8155624
Probable space group: P 2 2 21
;
_chemical_formula_sum "Si O2"
_cell_formula_units_Z 32
_cell_length_a 12.120197
_cell_length_b 8.991773
_cell_length_c 14.964235
_cell_angle_alpha 90.000000
_cell_angle_beta 90.000000
_cell_angle_gamma 90.000000
_cell_volume 1630.833159
_symmetry_space_group_name_H-M "P 2 2 21"
_symmetry_group_IT_number 17
_symmetry_cell_setting 'orthorhombic'
loop_
_space_group_symop_operation_xyz
x,y,z
-x,-y,1/2+z
x,-y,-z
-x,y,1/2-z
loop_
_atom_site_type_symbol
_atom_site_label
_atom_site_fract_x
_atom_site_fract_y
_atom_site_fract_z
Si Si1 0.779461 0.576984 0.905161
Si Si2 0.765273 0.426405 0.595676
Si Si3 0.371761 0.926281 0.755935
Si Si4 0.235930 0.077043 0.908455
Si Si5 0.991336 0.429252 0.903216
Si Si6 0.626724 0.417622 0.256489
Si Si7 0.005076 0.898590 0.353865
Si Si8 0.217100 0.924582 0.592236
O O1 0.678412 0.543699 0.839439
O O2 0.795890 0.750226 0.922362
O O3 0.888605 0.510041 0.854393
O O4 0.754275 0.500000 0.000000
O O5 0.746321 0.500000 0.500000
O O6 0.751992 0.252213 0.581193
O O7 0.887327 0.461763 0.636890
O O8 0.676539 0.483793 0.665125
O O9 0.500000 0.967871 0.750000
O O10 0.354594 0.754205 0.781215
O O11 0.312982 0.963906 0.662362
O O12 0.318543 0.025539 0.832122
O O13 0.110713 0.030159 0.884498
O O14 0.271960 0.000000 0.000000
O O15 0.969299 0.252629 0.907650
O O16 0.987479 0.500000 0.000000
O O17 0.500000 0.460562 0.250000
O O18 0.000000 0.857018 0.250000
O O19 0.099296 0.017417 0.373606
O O20 0.252821 0.000000 0.500000
#
# Coordination Sequence:
#
# PCOD8155624 Si02
#       8
#     4   4   4   4   4   4   4   4
#     4  10  22  38  60  89 118 155 196 244 297 357
#     4  10  22  39  60  89 119 156 195 242 298 353
#     4  10  23  43  61  87 122 157 206 254 299 357
#     4  11  23  39  63  90 122 160 198 248 302 361
#     4   9  20  37  58  89 122 153 190 235 290 352
#     4  10  23  41  61  84 117 158 201 249 297 349
#     4  11  22  38  62  93 126 160 198 247 299 359
#     4  11  22  39  63  88 121 160 198 247 303 361
#
# _framework density 19.621872
#
# number of rings (size 3 to 8) (size 9 to 14) (size 15 to 20)
#    0.000    1.750    1.250    2.625    3.500    6.500 
#    0.000    2.500    0.000    0.000    0.000    0.000 
#    0.000    0.000    0.000    0.000    0.000    0.000 
#
# Total GULP energy -396819.212422 kJ/mol
# GULP energy per Si atom -12400.600388 kJ/mol
# Density = 1.957721 g / cm^3
# Si number density = 19.621872 Si / 1000 Ang^3
#
#
#
# Elastic Constant Matrix: (Units=GPa)
#
#
# Indices 1 2 3 4 5 6 
#
# 1 161.3207 74.7236 71.7946 0.0000 0.0000 0.0000
# 2 74.7236 112.4971 70.9639 0.0000 0.0000 0.0000
# 3 71.7946 70.9639 127.3524 0.0000 0.0000 0.0000
# 4 0.0000 0.0000 0.0000 30.3300 0.0000 0.0000
# 5 0.0000 0.0000 0.0000 0.0000 33.7501 0.0000
# 6 0.0000 0.0000 0.0000 0.0000 0.0000 35.0552
#
#
#
# Elastic Compliance Matrix: (Units=1/GPa)
#
#
# Indices 1 2 3 4 5 6 
#
# 1 0.009585 -0.004562 -0.002862 0.000000 0.000000 0.000000
# 2 -0.004562 0.015878 -0.006276 0.000000 0.000000 0.000000
# 3 -0.002862 -0.006276 0.012963 0.000000 0.000000 0.000000
# 4 0.000000 0.000000 0.000000 0.032971 0.000000 0.000000
# 5 0.000000 0.000000 0.000000 0.000000 0.029630 0.000000
# 6 0.000000 0.000000 0.000000 0.000000 0.000000 0.028526
#
#
# Mechanical properties :
#
#
# Convention : Reuss Voigt Hill
#
# Bulk Modulus (GPa) = 90.68543 92.90383 91.79463
# Shear Modulus (GPa) = 31.12789 32.07294 31.60041
#
# Velocity S-wave (km/s) = 3.98727 4.04734 4.01742
# Velocity P-wave (km/s) = 8.21673 8.32413 8.27060
#
# Compressibility (1/GPa) = 0.01102713
#
# Stress axis : x y z
#
# Youngs Moduli (GPa) = 104.32492 62.98025 77.14377
#
# Poissons Ratio (x) = 0.28729 0.22078
# Poissons Ratio (y) = 0.47588 0.48416
# Poissons Ratio (z) = 0.29857 0.39527
#
# Static dielectric constant tensor:
#      x y z
#    x 3.932730 0.000000 0.000000 
#    y 0.000000 3.574950 0.000000 
#    z 0.000000 0.000000 3.588730 
# 
# 
# High freq. dielectric constant tensor:
#      x y z
#    x 1.769350 0.000000 0.000000 
#    y 0.000000 1.770100 0.000000 
#    z 0.000000 0.000000 1.768010 
# 
# From -- ./inp_files/8565.got.cif
#   From: 2010.03.12/outbox.cif.g09.slc.cpg/sg17_5_cif.got.tgz:8565.got - 2010.04.10 18:46:23.
