data_PCOD8155679
_publ_section_title
;
Structure prediction by ZEFSAII (Michael W. Deem and Ramdas Pophale) SiO2 
 PCOD8155679
Probable space group: P 2 2 21
;
_chemical_formula_sum "Si O2"
_cell_formula_units_Z 8
_cell_length_a 8.045280
_cell_length_b 8.851067
_cell_length_c 5.118788
_cell_angle_alpha 90.000000
_cell_angle_beta 90.000000
_cell_angle_gamma 90.000000
_cell_volume 364.505373
_symmetry_space_group_name_H-M "P 2 2 21"
_symmetry_group_IT_number 17
_symmetry_cell_setting 'orthorhombic'
loop_
_space_group_symop_operation_xyz
x,y,z
-x,-y,1/2+z
x,-y,-z
-x,y,1/2-z
loop_
_atom_site_type_symbol
_atom_site_label
_atom_site_fract_x
_atom_site_fract_y
_atom_site_fract_z
Si Si1 0.000000 0.103419 0.750000
Si Si2 0.340443 0.825451 0.422723
Si Si3 0.500000 0.400599 0.250000
O O1 0.165037 0.206295 0.720291
O O2 0.971343 0.000000 0.500000
O O3 0.500000 0.783072 0.250000
O O4 0.347569 0.711667 0.670222
O O5 0.349585 0.000000 0.500000
O O6 0.555258 0.500000 0.500000
#
# Coordination Sequence:
#
# PCOD8155679 Si02
#       3
#     2   4   2
#     4  10  24  38  68 112 136 164 232 296 336 396
#     4  11  22  42  75 101 136 179 232 283 341 399
#     4  12  26  42  70 102 142 184 226 278 346 410
#
# _framework density 21.947548000000001
#
# number of rings (size 3 to 8) (size 9 to 14) (size 15 to 20)
#    0.000    1.000    5.000    1.500    7.000    0.000 
#    0.000    0.000   11.000    0.000    0.000    0.000 
#    0.000    0.000    0.000    0.000    0.000    0.000 
#
# Total GULP energy -99129.556176 kJ/mol
# GULP energy per Si atom -12391.194522 kJ/mol
# Density = 2.189759 g / cm^3
# Si number density = 21.947548 Si / 1000 Ang^3
#
#
#
# Elastic Constant Matrix: (Units=GPa)
#
#
# Indices 1 2 3 4 5 6 
#
# 1 219.2156 50.1579 73.8844 0.0000 0.0000 0.0000
# 2 50.1579 140.5065 67.3152 0.0000 0.0000 0.0000
# 3 73.8844 67.3152 154.3187 0.0000 0.0000 0.0000
# 4 0.0000 0.0000 0.0000 42.4383 0.0000 0.0000
# 5 0.0000 0.0000 0.0000 0.0000 38.1099 0.0000
# 6 0.0000 0.0000 0.0000 0.0000 0.0000 0.6095
#
#
#
# Elastic Compliance Matrix: (Units=1/GPa)
#
#
# Indices 1 2 3 4 5 6 
#
# 1 0.005526 -0.000891 -0.002257 0.000000 0.000000 0.000000
# 2 -0.000891 0.009141 -0.003561 0.000000 0.000000 0.000000
# 3 -0.002257 -0.003561 0.009114 0.000000 0.000000 0.000000
# 4 0.000000 0.000000 0.000000 0.023564 0.000000 0.000000
# 5 0.000000 0.000000 0.000000 0.000000 0.026240 0.000000
# 6 0.000000 0.000000 0.000000 0.000000 0.000000 1.640797
#
#
# Mechanical properties :
#
#
# Convention : Reuss Voigt Hill
#
# Bulk Modulus (GPa) = 96.49568 99.63954 98.06761
# Shear Modulus (GPa) = 2.88808 37.74374 20.31591
#
# Velocity S-wave (km/s) = 1.14837 4.15146 3.04576
# Velocity P-wave (km/s) = 6.76907 8.27508 7.55967
#
# Compressibility (1/GPa) = 0.01036316
#
# Stress axis : x y z
#
# Youngs Moduli (GPa) = 180.94916 109.39452 109.72233
#
# Poissons Ratio (x) = 0.09752 0.24765
# Poissons Ratio (y) = 0.16131 0.39068
# Poissons Ratio (z) = 0.40841 0.38952
#
# Static dielectric constant tensor:
#      x y z
#    x 4.375680 0.000000 0.000000 
#    y 0.000000 4.032120 0.000000 
#    z 0.000000 0.000000 4.199620 
# 
# 
# High freq. dielectric constant tensor:
#      x y z
#    x 1.848470 0.000000 0.000000 
#    y 0.000000 1.853010 0.000000 
#    z 0.000000 0.000000 1.880930 
# 
# From -- ./inp_files/426.got.cif
#   From: 2010.03.12/outbox.cif.g09.slc.cpg/sg17_1_cif.got.tgz:426.got - 2010.04.10 18:46:23.
