data_PCOD8155011
_publ_section_title
;
Structure prediction by ZEFSAII (Michael W. Deem and Ramdas Pophale) SiO2 
 PCOD8155011
Probable space group: C 2/C
;
_chemical_formula_sum "Si O2"
_cell_formula_units_Z 32
_cell_length_a 9.253397
_cell_length_b 16.311985
_cell_length_c 12.713542
_cell_angle_alpha 90.000000
_cell_angle_beta 128.803076
_cell_angle_gamma 90.000000
_cell_volume 1495.483606
_symmetry_space_group_name_H-M "C 2/C"
_symmetry_group_IT_number 15
_symmetry_cell_setting 'monoclinic'
loop_
_space_group_symop_operation_xyz
x,y,z
-x,y,1/2-z
-x,-y,-z
x,-y,1/2+z
1/2+x,1/2+y,z
1/2-x,1/2+y,1/2-z
1/2-x,1/2-y,-z
1/2+x,1/2-y,1/2+z
loop_
_atom_site_type_symbol
_atom_site_label
_atom_site_fract_x
_atom_site_fract_y
_atom_site_fract_z
Si Si1 0.113454 0.552505 0.631291
Si Si2 0.669100 0.325086 0.522859
Si Si3 0.534232 0.234621 0.887243
Si Si4 0.000000 0.562670 0.250000
Si Si5 0.500000 0.399063 0.250000
O O1 0.125257 0.499455 0.741015
O O2 0.315187 0.549334 0.672455
O O3 0.000000 0.500000 0.500000
O O4 0.029360 0.643272 0.609475
O O5 0.750000 0.250000 0.500000
O O6 0.578826 0.300321 0.593358
O O7 0.509619 0.353180 0.367854
O O8 0.846190 0.384656 0.618023
O O9 0.500000 0.252897 0.750000
O O10 0.750000 0.250000 0.000000
#
# Coordination Sequence:
#
# PCOD8155011 Si02
#       5
#     8   8   8   4   4
#     4  12  26  48  72 110 149 190 241 312 372 440
#     4  12  26  46  79 105 143 199 250 300 369 452
#     4  12  28  47  72 108 150 191 248 307 366 440
#     4  12  27  48  72 109 150 188 248 304 379 438
#     4  12  25  46  78 105 146 192 254 298 375 434
#
# _framework density 21.397759000000001
#
# number of rings (size 3 to 8) (size 9 to 14) (size 15 to 20)
#    0.000    0.000    6.250    2.250    7.000    3.000 
#    0.000    0.000    0.000    0.000    0.000    0.000 
#    0.000    0.000    0.000    0.000    0.000    0.000 
#
# Total GULP energy -198221.116171 kJ/mol
# GULP energy per Si atom -12388.819761 kJ/mol
# Density = 2.134906 g / cm^3
# Si number density = 21.397759 Si / 1000 Ang^3
#
#
#
# Elastic Constant Matrix: (Units=GPa)
#
#
# Indices 1 2 3 4 5 6 
#
# 1 176.5031 63.2987 63.0065 0.0000 1.2861 0.0000
# 2 63.2987 107.7742 50.4434 0.0000 3.5290 0.0000
# 3 63.0065 50.4434 163.3754 0.0000 -3.5207 0.0000
# 4 0.0000 0.0000 0.0000 44.6186 0.0000 0.2646
# 5 1.2861 3.5290 -3.5207 0.0000 51.7124 0.0000
# 6 0.0000 0.0000 0.0000 0.2646 0.0000 12.4006
#
#
#
# Elastic Compliance Matrix: (Units=1/GPa)
#
#
# Indices 1 2 3 4 5 6 
#
# 1 0.007613 -0.003617 -0.001821 0.000000 -0.000066 0.000000
# 2 -0.003617 0.012613 -0.002520 0.000000 -0.000942 0.000000
# 3 -0.001821 -0.002520 0.007617 0.000000 0.000736 0.000000
# 4 0.000000 0.000000 0.000000 0.022415 0.000000 -0.000478
# 5 -0.000066 -0.000942 0.000736 0.000000 0.019454 0.000000
# 6 0.000000 0.000000 0.000000 -0.000478 0.000000 0.080651
#
#
# Mechanical properties :
#
#
# Convention : Reuss Voigt Hill
#
# Bulk Modulus (GPa) = 83.83483 89.01666 86.42575
# Shear Modulus (GPa) = 29.36774 39.80659 34.58716
#
# Velocity S-wave (km/s) = 3.70870 4.31782 4.02480
# Velocity P-wave (km/s) = 7.58970 8.15778 7.87886
#
# Compressibility (1/GPa) = 0.01192822
#
# Stress axis : x y z
#
# Youngs Moduli (GPa) = 131.35021 79.28118 131.28692
#
# Poissons Ratio (x) = 0.28677 0.23903
# Poissons Ratio (y) = 0.47511 0.33082
# Poissons Ratio (z) = 0.23915 0.19977
#
# Static dielectric constant tensor:
#      x y z
#    x 4.403100 0.000000 -0.272370 
#    y 0.000000 46.982380 0.000000 
#    z -0.272370 0.000000 3.857390 
# 
# 
# High freq. dielectric constant tensor:
#      x y z
#    x 1.860440 0.000000 -0.006740 
#    y 0.000000 1.839180 0.000000 
#    z -0.006740 0.000000 1.864770 
# 
# From -- ./inp_files/56353.got.cif
#   From: 2010.06.25/outbox.cif.g09.slc.cpg/sg15_29_cif.got.tgz:56353.got - 2010.06.28 07:06:18.
