data_PCOD8155855
_publ_section_title
;
Structure prediction by ZEFSAII (Michael W. Deem and Ramdas Pophale) SiO2 
 PCOD8155855
Probable space group: P 21 21 2
;
_chemical_formula_sum "Si O2"
_cell_formula_units_Z 20
_cell_length_a 5.014708
_cell_length_b 17.826167
_cell_length_c 11.359906
_cell_angle_alpha 90.000000
_cell_angle_beta 90.000000
_cell_angle_gamma 90.000000
_cell_volume 1015.496330
_symmetry_space_group_name_H-M "P 21 21 2"
_symmetry_group_IT_number 18
_symmetry_cell_setting 'orthorhombic'
loop_
_space_group_symop_operation_xyz
x,y,z
-x,-y,z
1/2+x,1/2-y,-z
1/2-x,1/2+y,-z
loop_
_atom_site_type_symbol
_atom_site_label
_atom_site_fract_x
_atom_site_fract_y
_atom_site_fract_z
Si Si1 0.406365 0.151350 0.966931
Si Si2 0.936108 0.820706 0.610689
Si Si3 0.246562 0.546131 0.236076
Si Si4 0.941965 0.780351 0.351578
Si Si5 0.086006 0.820992 0.108307
O O1 0.120297 0.138652 0.023637
O O2 0.629246 0.144535 0.070067
O O3 0.418142 0.088416 0.866863
O O4 0.429981 0.231542 0.905159
O O5 0.895617 0.901696 0.668107
O O6 0.937573 0.830538 0.469454
O O7 0.692463 0.772205 0.650577
O O8 0.190381 0.775349 0.660155
O O9 0.500000 0.500000 0.185193
O O10 0.000000 0.500000 0.296112
O O11 0.989000 0.837196 0.242181
#
# Coordination Sequence:
#
# PCOD8155855 Si02
#       5
#     4   4   4   4   4
#     4  10  21  33  54  85 114 151 193 229 297 344
#     4  10  21  35  56  88 118 150 195 233 304 345
#     4  12  24  38  58  81 126 163 196 235 275 366
#     4  10  19  35  60  86 120 145 182 261 299 343
#     4  10  19  33  58  83 117 144 181 256 295 340
#
# _framework density 19.694804000000001
#
# number of rings (size 3 to 8) (size 9 to 14) (size 15 to 20)
#    0.000    1.600    2.000    3.600    5.600    0.000 
#    0.000    0.000    0.000    4.800    0.000    0.000 
#    0.000    0.000    0.000    0.000    0.000    0.000 
#
# Total GULP energy -247832.820322 kJ/mol
# GULP energy per Si atom -12391.641016 kJ/mol
# Density = 1.964998 g / cm^3
# Si number density = 19.694804 Si / 1000 Ang^3
#
#
#
# Elastic Constant Matrix: (Units=GPa)
#
#
# Indices 1 2 3 4 5 6 
#
# 1 144.0536 38.1361 31.7888 0.0000 0.0000 0.0000
# 2 38.1361 63.7586 38.5517 0.0000 0.0000 0.0000
# 3 31.7888 38.5517 117.1198 0.0000 0.0000 0.0000
# 4 0.0000 0.0000 0.0000 15.4198 0.0000 0.0000
# 5 0.0000 0.0000 0.0000 0.0000 35.6296 0.0000
# 6 0.0000 0.0000 0.0000 0.0000 0.0000 44.9583
#
#
#
# Elastic Compliance Matrix: (Units=1/GPa)
#
#
# Indices 1 2 3 4 5 6 
#
# 1 0.008304 -0.004499 -0.000773 0.000000 0.000000 0.000000
# 2 -0.004499 0.022019 -0.006027 0.000000 0.000000 0.000000
# 3 -0.000773 -0.006027 0.010732 0.000000 0.000000 0.000000
# 4 0.000000 0.000000 0.000000 0.064852 0.000000 0.000000
# 5 0.000000 0.000000 0.000000 0.000000 0.028067 0.000000
# 6 0.000000 0.000000 0.000000 0.000000 0.000000 0.022243
#
#
# Mechanical properties :
#
#
# Convention : Reuss Voigt Hill
#
# Bulk Modulus (GPa) = 54.17996 60.20948 57.19472
# Shear Modulus (GPa) = 27.03196 33.63190 30.33193
#
# Velocity S-wave (km/s) = 3.70880 4.13686 3.92867
# Velocity P-wave (km/s) = 6.77568 7.31134 7.04860
#
# Compressibility (1/GPa) = 0.01845701
#
# Stress axis : x y z
#
# Youngs Moduli (GPa) = 120.43075 45.41430 93.18094
#
# Poissons Ratio (x) = 0.20434 0.07200
# Poissons Ratio (y) = 0.54186 0.56158
# Poissons Ratio (z) = 0.09306 0.27370
#
# Static dielectric constant tensor:
#      x y z
#    x 3.827890 0.000000 0.000000 
#    y 0.000000 3.185870 0.000000 
#    z 0.000000 0.000000 2.964260 
# 
# 
# High freq. dielectric constant tensor:
#      x y z
#    x 1.796360 0.000000 0.000000 
#    y 0.000000 1.721620 0.000000 
#    z 0.000000 0.000000 1.769000 
# 
# From -- ./inp_files/5082.got.cif
#   From: 2010.03.12/outbox.cif.g09.slc.cpg/sg18_3_cif.got.tgz:5082.got - 2010.04.10 18:53:55.
