data_PCOD8155201
_publ_section_title
;
Structure prediction by ZEFSAII (Michael W. Deem and Ramdas Pophale) SiO2 
 PCOD8155201
Probable space group: C 2/C
;
_chemical_formula_sum "Si O2"
_cell_formula_units_Z 48
_cell_length_a 28.092521
_cell_length_b 11.535316
_cell_length_c 8.653363
_cell_angle_alpha 90.000000
_cell_angle_beta 61.711389
_cell_angle_gamma 90.000000
_cell_volume 2469.276902
_symmetry_space_group_name_H-M "C 2/C"
_symmetry_group_IT_number 15
_symmetry_cell_setting 'monoclinic'
loop_
_space_group_symop_operation_xyz
x,y,z
-x,y,1/2-z
-x,-y,-z
x,-y,1/2+z
1/2+x,1/2+y,z
1/2-x,1/2+y,1/2-z
1/2-x,1/2-y,-z
1/2+x,1/2-y,1/2+z
loop_
_atom_site_type_symbol
_atom_site_label
_atom_site_fract_x
_atom_site_fract_y
_atom_site_fract_z
Si Si1 0.292652 0.630702 0.803311
Si Si2 0.429060 0.960217 0.764529
Si Si3 0.030340 0.355776 0.498612
Si Si4 0.646211 0.537842 0.076524
Si Si5 0.174511 0.326724 0.529069
Si Si6 0.104482 0.842799 0.937285
O O1 0.323698 0.616285 0.594856
O O2 0.308597 0.533837 0.902724
O O3 0.308714 0.755787 0.844287
O O4 0.228514 0.617990 0.873072
O O5 0.465261 0.869390 0.604403
O O6 0.366011 0.926442 0.847582
O O7 0.441416 0.094587 0.700472
O O8 0.446358 0.947760 0.914191
O O9 0.046831 0.223600 0.514505
O O10 0.616016 0.619672 0.244128
O O11 0.603026 0.453018 0.055486
O O12 0.148430 0.247787 0.434578
#
# Coordination Sequence:
#
# PCOD8155201 Si02
#       6
#     8   8   8   8   8   8
#     4   9  18  31  48  71  98 130 167 201 246 294
#     4   9  18  32  51  73 102 129 158 203 248 293
#     4   9  18  33  52  75 100 130 163 199 250 299
#     4   9  18  33  51  71 101 134 165 208 247 290
#     4   9  18  32  49  71  99 131 164 204 247 293
#     4   9  18  33  53  73 100 133 167 205 250 294
#
# _framework density 19.438890000000001
#
# number of rings (size 3 to 8) (size 9 to 14) (size 15 to 20)
#    0.000    3.000    0.000    0.000    0.000    4.667 
#    0.000    3.333    0.000   38.000    0.000    0.000 
#    0.000    0.000    0.000    0.000    0.000    0.000 
#
# Total GULP energy -297390.848190 kJ/mol
# GULP energy per Si atom -12391.285341 kJ/mol
# Density = 1.939465 g / cm^3
# Si number density = 19.438890 Si / 1000 Ang^3
#
#
#
# Elastic Constant Matrix: (Units=GPa)
#
#
# Indices 1 2 3 4 5 6 
#
# 1 56.0103 18.1165 24.6096 0.0000 -14.0101 0.0000
# 2 18.1165 52.3861 28.3775 0.0000 -3.3257 0.0000
# 3 24.6096 28.3775 84.7315 0.0000 11.7731 0.0000
# 4 0.0000 0.0000 0.0000 28.0116 0.0000 -4.5010
# 5 -14.0101 -3.3257 11.7731 0.0000 28.7692 0.0000
# 6 0.0000 0.0000 0.0000 -4.5010 0.0000 20.7463
#
#
#
# Elastic Compliance Matrix: (Units=1/GPa)
#
#
# Indices 1 2 3 4 5 6 
#
# 1 0.027024 -0.003436 -0.008982 0.000000 0.016438 0.000000
# 2 -0.003436 0.024866 -0.007949 0.000000 0.004454 0.000000
# 3 -0.008982 -0.007949 0.018882 0.000000 -0.013020 0.000000
# 4 0.000000 0.000000 0.000000 0.036989 0.000000 0.008025
# 5 0.016438 0.004454 -0.013020 0.000000 0.048607 0.000000
# 6 0.000000 0.000000 0.000000 0.008025 0.000000 0.049942
#
#
# Mechanical properties :
#
#
# Convention : Reuss Voigt Hill
#
# Bulk Modulus (GPa) = 33.29176 37.25945 35.27561
# Shear Modulus (GPa) = 19.45096 23.64037 21.54567
#
# Velocity S-wave (km/s) = 3.16669 3.49110 3.33285
# Velocity P-wave (km/s) = 5.52577 5.95478 5.74428
#
# Compressibility (1/GPa) = 0.03003746
#
# Stress axis : x y z
#
# Youngs Moduli (GPa) = 37.00465 40.21568 52.96087
#
# Poissons Ratio (x) = 0.13820 0.47569
# Poissons Ratio (y) = 0.12716 0.42097
# Poissons Ratio (z) = 0.33237 0.31966
#
# Static dielectric constant tensor:
#      x y z
#    x 3.605200 0.000000 0.004940 
#    y 0.000000 3.442580 0.000000 
#    z 0.004940 0.000000 3.599330 
# 
# 
# High freq. dielectric constant tensor:
#      x y z
#    x 1.748290 0.000000 0.006900 
#    y 0.000000 1.737090 0.000000 
#    z 0.006900 0.000000 1.754550 
# 
# From -- ./inp_files/65034.got.cif
#   From: 2010.06.25/outbox.cif.g09.slc.cpg/sg15_33_cif.got.tgz:65034.got - 2010.06.28 07:06:18.
