data_PCOD8155308
_publ_section_title
;
Structure prediction by ZEFSAII (Michael W. Deem and Ramdas Pophale) SiO2 
 PCOD8155308
Probable space group: P 2 2 2
;
_chemical_formula_sum "Si O2"
_cell_formula_units_Z 23
_cell_length_a 14.428665
_cell_length_b 8.944641
_cell_length_c 8.824576
_cell_angle_alpha 90.000000
_cell_angle_beta 90.000000
_cell_angle_gamma 90.000000
_cell_volume 1138.892971
_symmetry_space_group_name_H-M "P 2 2 2"
_symmetry_group_IT_number 16
_symmetry_cell_setting 'orthorhombic'
loop_
_space_group_symop_operation_xyz
x,y,z
-x,-y,z
x,-y,-z
-x,y,-z
loop_
_atom_site_type_symbol
_atom_site_label
_atom_site_fract_x
_atom_site_fract_y
_atom_site_fract_z
Si Si1 0.500000 0.000000 0.500000
Si Si2 0.733130 0.167887 0.801526
Si Si3 0.000000 0.000000 0.749163
Si Si4 0.000000 0.764747 0.500000
Si Si5 0.391469 0.332347 0.987305
Si Si6 0.658817 0.854142 0.690395
Si Si7 0.858314 0.000000 0.000000
Si Si8 0.798369 0.668880 0.485368
O O1 0.563669 0.889946 0.601276
O O2 0.798229 0.142587 0.948499
O O3 0.786552 0.275054 0.686055
O O4 0.707399 0.009023 0.731496
O O5 0.640818 0.244974 0.863112
O O6 0.916653 0.944931 0.855506
O O7 0.969964 0.137094 0.644451
O O8 0.906970 0.671369 0.536272
O O9 0.361994 0.249081 0.834116
O O10 0.349949 0.500000 0.000000
O O11 0.500000 0.337555 0.000000
O O12 0.733363 0.770995 0.587654
O O13 0.762973 0.500000 0.500000
#
# Coordination Sequence:
#
# PCOD8155308 Si02
#       8
#     1   4   2   2   4   4   2   4
#     4  12  24  40  72 102 136 168 244 280 332 406
#     4  12  22  43  68  97 128 172 225 278 332 397
#     4  10  22  36  66  98 130 160 226 280 332 392
#     4  11  23  40  68  94 130 186 222 284 336 410
#     4  11  25  43  65  96 136 176 217 271 346 409
#     4  12  24  43  69  98 131 177 225 282 330 406
#     4  11  20  38  63 100 124 164 217 280 332 381
#     4  12  26  44  65  98 139 179 227 281 346 403
#
# _framework density 20.195049999999998
#
# number of rings (size 3 to 8) (size 9 to 14) (size 15 to 20)
#    0.000    0.522    5.217    3.391    2.435    0.696 
#    0.000    0.000    0.000    0.000    0.000    0.000 
#    0.000    0.000    0.000    0.000    0.000    0.000 
#
# Total GULP energy -285189.203920 kJ/mol
# GULP energy per Si atom -12399.530605 kJ/mol
# Density = 2.014909 g / cm^3
# Si number density = 20.195050 Si / 1000 Ang^3
#
#
#
# Elastic Constant Matrix: (Units=GPa)
#
#
# Indices 1 2 3 4 5 6 
#
# 1 121.1845 50.6404 48.4966 0.0000 0.0000 0.0000
# 2 50.6404 145.9480 60.5216 0.0000 0.0000 0.0000
# 3 48.4966 60.5216 117.4788 0.0000 0.0000 0.0000
# 4 0.0000 0.0000 0.0000 24.8531 0.0000 0.0000
# 5 0.0000 0.0000 0.0000 0.0000 42.3200 0.0000
# 6 0.0000 0.0000 0.0000 0.0000 0.0000 20.0376
#
#
#
# Elastic Compliance Matrix: (Units=1/GPa)
#
#
# Indices 1 2 3 4 5 6 
#
# 1 0.010479 -0.002343 -0.003119 0.000000 0.000000 0.000000
# 2 -0.002343 0.009237 -0.003792 0.000000 0.000000 0.000000
# 3 -0.003119 -0.003792 0.011753 0.000000 0.000000 0.000000
# 4 0.000000 0.000000 0.000000 0.040236 0.000000 0.000000
# 5 0.000000 0.000000 0.000000 0.000000 0.023629 0.000000
# 6 0.000000 0.000000 0.000000 0.000000 0.000000 0.049906
#
#
# Mechanical properties :
#
#
# Convention : Reuss Voigt Hill
#
# Bulk Modulus (GPa) = 77.14475 78.21428 77.67951
# Shear Modulus (GPa) = 29.74989 32.43901 31.09445
#
# Velocity S-wave (km/s) = 3.84230 4.01220 3.92817
# Velocity P-wave (km/s) = 7.61361 7.76384 7.68909
#
# Compressibility (1/GPa) = 0.01296264
#
# Stress axis : x y z
#
# Youngs Moduli (GPa) = 95.42920 108.26234 85.08457
#
# Poissons Ratio (x) = 0.25361 0.26538
# Poissons Ratio (y) = 0.22355 0.32260
# Poissons Ratio (z) = 0.29765 0.41048
#
# Static dielectric constant tensor:
#      x y z
#    x 3.897990 0.000000 0.000000 
#    y 0.000000 3.896300 0.000000 
#    z 0.000000 0.000000 3.923160 
# 
# 
# High freq. dielectric constant tensor:
#      x y z
#    x 1.804660 0.000000 0.000000 
#    y 0.000000 1.779170 0.000000 
#    z 0.000000 0.000000 1.802760 
# 
# From -- ./inp_files/5151.got.cif
#   From: 2010.03.12/outbox.cif.g09.slc.cpg/sg16_3_cif.got.tgz:5151.got - 2010.03.31 00:51:45.
