data_PCOD8155532
_publ_section_title
;
Structure prediction by ZEFSAII (Michael W. Deem and Ramdas Pophale) SiO2 
 PCOD8155532
Probable space group: P 2 2 21
;
_chemical_formula_sum "Si O2"
_cell_formula_units_Z 24
_cell_length_a 8.238978
_cell_length_b 8.683153
_cell_length_c 16.215960
_cell_angle_alpha 90.000000
_cell_angle_beta 90.000000
_cell_angle_gamma 90.000000
_cell_volume 1160.094749
_symmetry_space_group_name_H-M "P 2 2 21"
_symmetry_group_IT_number 17
_symmetry_cell_setting 'orthorhombic'
loop_
_space_group_symop_operation_xyz
x,y,z
-x,-y,1/2+z
x,-y,-z
-x,y,1/2-z
loop_
_atom_site_type_symbol
_atom_site_label
_atom_site_fract_x
_atom_site_fract_y
_atom_site_fract_z
Si Si1 0.653459 0.000000 0.000000
Si Si2 0.365657 0.517471 0.146690
Si Si3 0.500000 0.081673 0.250000
Si Si4 0.607466 0.871455 0.381393
Si Si5 0.679908 0.642196 0.818885
Si Si6 0.909138 0.237279 0.054303
Si Si7 0.141886 0.000000 0.000000
Si Si8 0.117092 0.500000 0.000000
O O1 0.751363 0.156325 0.017570
O O2 0.552183 0.942755 0.077673
O O3 0.404063 0.697497 0.149138
O O4 0.298864 0.456355 0.234906
O O5 0.538536 0.437276 0.125451
O O6 0.230681 0.474825 0.079495
O O7 0.380775 0.185417 0.303977
O O8 0.627155 0.977101 0.301025
O O9 0.753861 0.881722 0.446062
O O10 0.852811 0.661963 0.865791
O O11 0.037040 0.097170 0.067071
O O12 0.997802 0.353416 0.990869
#
# Coordination Sequence:
#
# PCOD8155532 Si02
#       8
#     2   4   2   4   4   4   2   2
#     4  10  24  40  70  98 130 174 232 272 326 394
#     4  10  24  42  65 100 127 175 224 272 328 397
#     4  10  20  38  68  96 124 172 222 268 332 378
#     4  11  21  42  69  97 127 176 222 280 321 406
#     4  10  24  43  68  96 131 172 231 274 326 400
#     4  11  24  44  63 100 132 176 219 277 338 398
#     4  10  24  42  68  98 136 168 228 274 344 400
#     4  12  26  40  70  90 138 174 214 272 348 394
#
# _framework density 20.687965999999999
#
# number of rings (size 3 to 8) (size 9 to 14) (size 15 to 20)
#    0.000    1.667    3.333    1.000    9.333    0.667 
#    0.000    0.000    3.667    0.000    0.000    0.000 
#    0.000    0.000    0.000    0.000    0.000    0.000 
#
# Total GULP energy -297364.178216 kJ/mol
# GULP energy per Si atom -12390.174092 kJ/mol
# Density = 2.064088 g / cm^3
# Si number density = 20.687966 Si / 1000 Ang^3
#
#
#
# Elastic Constant Matrix: (Units=GPa)
#
#
# Indices 1 2 3 4 5 6 
#
# 1 120.4051 59.3597 60.2498 0.0000 0.0000 0.0000
# 2 59.3597 155.8808 55.5679 0.0000 0.0000 0.0000
# 3 60.2498 55.5679 91.7466 0.0000 0.0000 0.0000
# 4 0.0000 0.0000 0.0000 35.4575 0.0000 0.0000
# 5 0.0000 0.0000 0.0000 0.0000 27.3029 0.0000
# 6 0.0000 0.0000 0.0000 0.0000 0.0000 23.4153
#
#
#
# Elastic Compliance Matrix: (Units=1/GPa)
#
#
# Indices 1 2 3 4 5 6 
#
# 1 0.013062 -0.002444 -0.007097 0.000000 0.000000 0.000000
# 2 -0.002444 0.008639 -0.003627 0.000000 0.000000 0.000000
# 3 -0.007097 -0.003627 0.017757 0.000000 0.000000 0.000000
# 4 0.000000 0.000000 0.000000 0.028203 0.000000 0.000000
# 5 0.000000 0.000000 0.000000 0.000000 0.036626 0.000000
# 6 0.000000 0.000000 0.000000 0.000000 0.000000 0.042707
#
#
# Mechanical properties :
#
#
# Convention : Reuss Voigt Hill
#
# Bulk Modulus (GPa) = 76.21581 79.82081 78.01831
# Shear Modulus (GPa) = 28.13657 30.09215 29.11436
#
# Velocity S-wave (km/s) = 3.69188 3.81802 3.75548
# Velocity P-wave (km/s) = 7.42253 7.62256 7.52321
#
# Compressibility (1/GPa) = 0.01312064
#
# Stress axis : x y z
#
# Youngs Moduli (GPa) = 76.56047 115.75595 56.31449
#
# Poissons Ratio (x) = 0.28289 0.39968
# Poissons Ratio (y) = 0.18710 0.20428
# Poissons Ratio (z) = 0.54338 0.41990
#
# Static dielectric constant tensor:
#      x y z
#    x 3.806640 0.000000 0.000000 
#    y 0.000000 3.877350 0.000000 
#    z 0.000000 0.000000 3.596000 
# 
# 
# High freq. dielectric constant tensor:
#      x y z
#    x 1.806410 0.000000 0.000000 
#    y 0.000000 1.832200 0.000000 
#    z 0.000000 0.000000 1.790230 
# 
# From -- ./inp_files/9450.got.cif
#   From: 2010.03.12/outbox.cif.g09.slc.cpg/sg17_5_cif.got.tgz:9450.got - 2010.04.10 18:46:23.
