data_PCOD8155780
_publ_section_title
;
Structure prediction by ZEFSAII (Michael W. Deem and Ramdas Pophale) SiO2 
 PCOD8155780
Probable space group: P 21 21 2
;
_chemical_formula_sum "Si O2"
_cell_formula_units_Z 22
_cell_length_a 9.226046
_cell_length_b 17.152081
_cell_length_c 7.641806
_cell_angle_alpha 90.000000
_cell_angle_beta 90.000000
_cell_angle_gamma 90.000000
_cell_volume 1209.284379
_symmetry_space_group_name_H-M "P 21 21 2"
_symmetry_group_IT_number 18
_symmetry_cell_setting 'orthorhombic'
loop_
_space_group_symop_operation_xyz
x,y,z
-x,-y,z
1/2+x,1/2-y,-z
1/2-x,1/2+y,-z
loop_
_atom_site_type_symbol
_atom_site_label
_atom_site_fract_x
_atom_site_fract_y
_atom_site_fract_z
Si Si1 0.000000 0.500000 0.105643
Si Si2 0.190174 0.373726 0.281436
Si Si3 0.872332 0.418851 0.786646
Si Si4 0.170254 0.217315 0.121946
Si Si5 0.309858 0.919007 0.332914
Si Si6 0.140604 0.837154 0.034684
O O1 0.929659 0.562971 0.232582
O O2 0.884261 0.455591 0.981641
O O3 0.125663 0.285751 0.259161
O O4 0.238601 0.386095 0.479980
O O5 0.326616 0.382665 0.148171
O O6 0.763262 0.347316 0.776974
O O7 0.810980 0.486772 0.660489
O O8 0.030386 0.388981 0.723750
O O9 0.029502 0.178110 0.039799
O O10 0.268457 0.255606 0.967248
O O11 0.189791 0.889074 0.197608
#
# Coordination Sequence:
#
# PCOD8155780 Si02
#       6
#     2   4   4   4   4   4
#     4  10  16  38  60  86 112 160 202 236 290 386
#     4  10  21  36  62  87 118 159 207 240 305 362
#     4  10  18  36  63  85 112 161 196 247 311 354
#     4  10  21  37  61  86 120 158 200 252 308 351
#     4  10  20  37  61  83 121 152 201 249 298 380
#     4  10  20  39  55  86 120 155 200 251 297 366
#
# _framework density 18.192577
#
# number of rings (size 3 to 8) (size 9 to 14) (size 15 to 20)
#    1.091    1.091    3.636    3.273    0.000    2.182 
#    0.000    1.818    4.000    0.000    0.000    0.000 
#    0.000    0.000    0.000    0.000    0.000    0.000 
#
# Total GULP energy -272653.261855 kJ/mol
# GULP energy per Si atom -12393.330084 kJ/mol
# Density = 1.815117 g / cm^3
# Si number density = 18.192577 Si / 1000 Ang^3
#
#
#
# Elastic Constant Matrix: (Units=GPa)
#
#
# Indices 1 2 3 4 5 6 
#
# 1 74.4657 43.1824 26.1012 0.0000 0.0000 0.0000
# 2 43.1824 101.1561 25.3589 0.0000 0.0000 0.0000
# 3 26.1012 25.3589 101.4977 0.0000 0.0000 0.0000
# 4 0.0000 0.0000 0.0000 22.2656 0.0000 0.0000
# 5 0.0000 0.0000 0.0000 0.0000 9.6801 0.0000
# 6 0.0000 0.0000 0.0000 0.0000 0.0000 36.9105
#
#
#
# Elastic Compliance Matrix: (Units=1/GPa)
#
#
# Indices 1 2 3 4 5 6 
#
# 1 0.018664 -0.007216 -0.002997 0.000000 0.000000 0.000000
# 2 -0.007216 0.013336 -0.001476 0.000000 0.000000 0.000000
# 3 -0.002997 -0.001476 0.010992 0.000000 0.000000 0.000000
# 4 0.000000 0.000000 0.000000 0.044912 0.000000 0.000000
# 5 0.000000 0.000000 0.000000 0.000000 0.103305 0.000000
# 6 0.000000 0.000000 0.000000 0.000000 0.000000 0.027093
#
#
# Mechanical properties :
#
#
# Convention : Reuss Voigt Hill
#
# Bulk Modulus (GPa) = 50.98445 51.82271 51.40358
# Shear Modulus (GPa) = 20.14357 25.93637 23.03997
#
# Velocity S-wave (km/s) = 3.33113 3.77988 3.56258
# Velocity P-wave (km/s) = 6.54836 6.89909 6.72601
#
# Compressibility (1/GPa) = 0.01961382
#
# Stress axis : x y z
#
# Youngs Moduli (GPa) = 53.57904 74.98320 90.97591
#
# Poissons Ratio (x) = 0.54109 0.27263
# Poissons Ratio (y) = 0.38664 0.13431
# Poissons Ratio (z) = 0.16056 0.11070
#
# Static dielectric constant tensor:
#      x y z
#    x 3.049590 0.000000 0.000000 
#    y 0.000000 3.419390 0.000000 
#    z 0.000000 0.000000 3.148340 
# 
# 
# High freq. dielectric constant tensor:
#      x y z
#    x 1.682350 0.000000 0.000000 
#    y 0.000000 1.710510 0.000000 
#    z 0.000000 0.000000 1.687050 
# 
# From -- ./inp_files/3257.got.cif
#   From: 2010.03.12/outbox.cif.g09.slc.cpg/sg18_2_cif.got.tgz:3257.got - 2010.04.10 18:53:55.
