data_PCOD8155859
_publ_section_title
;
Structure prediction by ZEFSAII (Michael W. Deem and Ramdas Pophale) SiO2 
 PCOD8155859
Probable space group: P 21 21 2
;
_chemical_formula_sum "Si O2"
_cell_formula_units_Z 32
_cell_length_a 12.029672
_cell_length_b 14.615758
_cell_length_c 9.362042
_cell_angle_alpha 90.000000
_cell_angle_beta 90.000000
_cell_angle_gamma 90.000000
_cell_volume 1646.060202
_symmetry_space_group_name_H-M "P 21 21 2"
_symmetry_group_IT_number 18
_symmetry_cell_setting 'orthorhombic'
loop_
_space_group_symop_operation_xyz
x,y,z
-x,-y,z
1/2+x,1/2-y,-z
1/2-x,1/2+y,-z
loop_
_atom_site_type_symbol
_atom_site_label
_atom_site_fract_x
_atom_site_fract_y
_atom_site_fract_z
Si Si1 0.427421 0.417897 0.564288
Si Si2 0.253975 0.483295 0.774620
Si Si3 0.325907 0.947735 0.915586
Si Si4 0.045343 0.408137 0.631222
Si Si5 0.464816 0.770865 0.618400
Si Si6 0.056350 0.634700 0.116061
Si Si7 0.366311 0.162993 0.180696
Si Si8 0.779231 0.163422 0.681122
O O1 0.500000 0.500000 0.494500
O O2 0.374592 0.458901 0.710860
O O3 0.511288 0.335724 0.598882
O O4 0.331221 0.384228 0.457280
O O5 0.172566 0.424109 0.672801
O O6 0.233451 0.593347 0.774986
O O7 0.241916 0.452138 0.937779
O O8 0.429188 0.879068 0.934011
O O9 0.237379 0.914634 0.798886
O O10 0.376588 0.041793 0.855735
O O11 0.017164 0.324224 0.528766
O O12 0.000000 0.500000 0.554323
O O13 0.978303 0.391478 0.777926
O O14 0.551953 0.806772 0.738382
O O15 0.336974 0.786171 0.655228
O O16 0.124426 0.684939 0.988690
O O17 0.361019 0.258589 0.261937
#
# Coordination Sequence:
#
# PCOD8155859 Si02
#       8
#     4   4   4   4   4   4   4   4
#     4  12  26  43  60  86 131 169 200 257 314 377
#     4  10  20  39  62  89 120 159 200 250 317 364
#     4   9  19  36  62  90 119 153 198 256 307 352
#     4  10  19  33  62  92 115 149 199 254 303 357
#     4  11  23  39  60  94 118 159 210 253 304 363
#     4   9  19  35  61  90 120 148 202 263 297 351
#     4  10  19  37  61  89 118 160 203 249 301 368
#     4  11  23  39  61  87 124 160 205 254 300 371
#
# _framework density 19.440359000000001
#
# number of rings (size 3 to 8) (size 9 to 14) (size 15 to 20)
#    0.000    1.750    3.750    0.750    5.250    0.000 
#    2.250    0.625   11.000    0.000    0.000    0.000 
#    0.000    0.000    0.000    0.000    0.000    0.000 
#
# Total GULP energy -396614.275049 kJ/mol
# GULP energy per Si atom -12394.196095 kJ/mol
# Density = 1.939611 g / cm^3
# Si number density = 19.440359 Si / 1000 Ang^3
#
#
#
# Elastic Constant Matrix: (Units=GPa)
#
#
# Indices 1 2 3 4 5 6 
#
# 1 63.4040 32.5960 28.4272 0.0000 0.0000 0.0000
# 2 32.5960 103.7836 48.1548 0.0000 0.0000 0.0000
# 3 28.4272 48.1548 99.5628 0.0000 0.0000 0.0000
# 4 0.0000 0.0000 0.0000 27.4827 0.0000 0.0000
# 5 0.0000 0.0000 0.0000 0.0000 18.8226 0.0000
# 6 0.0000 0.0000 0.0000 0.0000 0.0000 29.0692
#
#
#
# Elastic Compliance Matrix: (Units=1/GPa)
#
#
# Indices 1 2 3 4 5 6 
#
# 1 0.019656 -0.004602 -0.003386 0.000000 0.000000 0.000000
# 2 -0.004602 0.013501 -0.005216 0.000000 0.000000 0.000000
# 3 -0.003386 -0.005216 0.013533 0.000000 0.000000 0.000000
# 4 0.000000 0.000000 0.000000 0.036386 0.000000 0.000000
# 5 0.000000 0.000000 0.000000 0.000000 0.053128 0.000000
# 6 0.000000 0.000000 0.000000 0.000000 0.000000 0.034401
#
#
# Mechanical properties :
#
#
# Convention : Reuss Voigt Hill
#
# Bulk Modulus (GPa) = 49.30545 53.90070 51.60308
# Shear Modulus (GPa) = 24.53688 25.57975 25.05831
#
# Velocity S-wave (km/s) = 3.55655 3.63134 3.59414
# Velocity P-wave (km/s) = 6.50253 6.73562 6.62010
#
# Compressibility (1/GPa) = 0.02028173
#
# Stress axis : x y z
#
# Youngs Moduli (GPa) = 50.87458 74.06833 73.89081
#
# Poissons Ratio (x) = 0.34089 0.25021
# Poissons Ratio (y) = 0.23414 0.38541
# Poissons Ratio (z) = 0.17227 0.38633
#
# Static dielectric constant tensor:
#      x y z
#    x 3.364260 0.000000 0.000000 
#    y 0.000000 3.487670 0.000000 
#    z 0.000000 0.000000 3.516430 
# 
# 
# High freq. dielectric constant tensor:
#      x y z
#    x 1.741120 0.000000 0.000000 
#    y 0.000000 1.752550 0.000000 
#    z 0.000000 0.000000 1.759370 
# 
# From -- ./inp_files/3925.got.cif
#   From: 2010.03.12/outbox.cif.g09.slc.cpg/sg18_2_cif.got.tgz:3925.got - 2010.04.10 18:53:55.
