data_PCOD8155870
_publ_section_title
;
Structure prediction by ZEFSAII (Michael W. Deem and Ramdas Pophale) SiO2 
 PCOD8155870
Probable space group: P 21 21 2
;
_chemical_formula_sum "Si O2"
_cell_formula_units_Z 32
_cell_length_a 18.725302
_cell_length_b 17.446006
_cell_length_c 4.974223
_cell_angle_alpha 90.000000
_cell_angle_beta 90.000000
_cell_angle_gamma 90.000000
_cell_volume 1624.987780
_symmetry_space_group_name_H-M "P 21 21 2"
_symmetry_group_IT_number 18
_symmetry_cell_setting 'orthorhombic'
loop_
_space_group_symop_operation_xyz
x,y,z
-x,-y,z
1/2+x,1/2-y,-z
1/2-x,1/2+y,-z
loop_
_atom_site_type_symbol
_atom_site_label
_atom_site_fract_x
_atom_site_fract_y
_atom_site_fract_z
Si Si1 0.525579 0.415732 0.948088
Si Si2 0.829771 0.844884 0.966157
Si Si3 0.329771 0.155116 0.033838
Si Si4 0.670774 0.741603 0.534698
Si Si5 0.030735 0.832925 0.551531
Si Si6 0.530735 0.167075 0.448471
Si Si7 0.670774 0.241603 0.534701
Si Si8 0.025579 0.584268 0.051910
O O1 0.500000 0.500000 0.026322
O O2 0.501722 0.396536 0.646007
O O3 0.611681 0.410510 0.975383
O O4 0.488443 0.354718 0.144894
O O5 0.841887 0.813146 0.666248
O O6 0.750000 0.880118 0.999996
O O7 0.840355 0.773129 0.165373
O O8 0.341885 0.186855 0.333746
O O9 0.388319 0.089490 0.975385
O O10 0.340356 0.226870 0.834620
O O11 0.616433 0.671980 0.479543
O O12 0.750000 0.707301 0.500002
O O13 0.000000 0.750000 0.476046
O O14 0.616433 0.171979 0.479548
O O15 0.511558 0.145282 0.144896
O O16 0.498278 0.103464 0.646009
O O17 0.000000 0.500000 0.973677
#
# Coordination Sequence:
#
# PCOD8155870 Si02
#       8
#     4   4   4   4   4   4   4   4
#     4  12  24  38  57  89 120 152 190 235 289 342
#     4  10  19  35  56  82 113 149 190 231 283 345
#     4  10  19  35  56  82 113 149 190 231 283 345
#     4  10  20  34  58  88 111 142 193 243 281 326
#     4  12  21  38  63  84 114 148 197 239 280 333
#     4  12  21  38  63  84 114 148 197 239 280 333
#     4  10  20  34  58  88 111 142 193 243 281 326
#     4  12  24  38  57  89 120 152 190 235 289 342
#
# _framework density 19.692454999999999
#
# number of rings (size 3 to 8) (size 9 to 14) (size 15 to 20)
#    0.000    1.000    5.000    3.000    0.000    0.000 
#    0.000    2.500    0.000    0.000    0.000    0.000 
#    0.000    0.000    0.000    0.000    0.000    0.000 
#
# Total GULP energy -396964.507860 kJ/mol
# GULP energy per Si atom -12405.140871 kJ/mol
# Density = 1.964763 g / cm^3
# Si number density = 19.692455 Si / 1000 Ang^3
#
#
#
# Elastic Constant Matrix: (Units=GPa)
#
#
# Indices 1 2 3 4 5 6 
#
# 1 154.8819 49.7700 13.3161 0.0000 0.0000 0.0000
# 2 49.7700 60.0981 6.6740 0.0000 0.0000 0.0000
# 3 13.3161 6.6740 74.6666 0.0000 0.0000 0.0000
# 4 0.0000 0.0000 0.0000 23.2383 0.0000 0.0000
# 5 0.0000 0.0000 0.0000 0.0000 27.9058 0.0000
# 6 0.0000 0.0000 0.0000 0.0000 0.0000 23.8877
#
#
#
# Elastic Compliance Matrix: (Units=1/GPa)
#
#
# Indices 1 2 3 4 5 6 
#
# 1 0.008862 -0.007235 -0.000934 0.000000 0.000000 0.000000
# 2 -0.007235 0.022713 -0.000740 0.000000 0.000000 0.000000
# 3 -0.000934 -0.000740 0.013626 0.000000 0.000000 0.000000
# 4 0.000000 0.000000 0.000000 0.043032 0.000000 0.000000
# 5 0.000000 0.000000 0.000000 0.000000 0.035835 0.000000
# 6 0.000000 0.000000 0.000000 0.000000 0.000000 0.041863
#
#
# Mechanical properties :
#
#
# Convention : Reuss Voigt Hill
#
# Bulk Modulus (GPa) = 36.51875 47.68518 42.10197
# Shear Modulus (GPa) = 25.92342 29.66546 27.79444
#
# Velocity S-wave (km/s) = 3.63218 3.88550 3.76097
# Velocity P-wave (km/s) = 6.01457 6.66310 6.34713
#
# Compressibility (1/GPa) = 0.02738319
#
# Stress axis : x y z
#
# Youngs Moduli (GPa) = 112.84442 44.02689 73.39174
#
# Poissons Ratio (x) = 0.31854 0.06853
# Poissons Ratio (y) = 0.81645 0.05430
# Poissons Ratio (z) = 0.10536 0.03257
#
# Static dielectric constant tensor:
#      x y z
#    x 4.095330 0.000000 0.000000 
#    y 0.000000 3.016000 0.000000 
#    z 0.000000 0.000000 3.667780 
# 
# 
# High freq. dielectric constant tensor:
#      x y z
#    x 1.790010 0.000000 0.000000 
#    y 0.000000 1.706330 0.000000 
#    z 0.000000 0.000000 1.789430 
# 
# From -- ./inp_files/1880.got.cif
#   From: 2010.03.12/outbox.cif.g09.slc.cpg/sg18_1_cif.got.tgz:1880.got - 2010.04.10 18:53:55.
