data_PCOD8155038
_publ_section_title
;
Structure prediction by ZEFSAII (Michael W. Deem and Ramdas Pophale) SiO2 
 PCOD8155038
Probable space group: C 2/C
;
_chemical_formula_sum "Si O2"
_cell_formula_units_Z 56
_cell_length_a 30.098095
_cell_length_b 11.822228
_cell_length_c 14.593213
_cell_angle_alpha 90.000000
_cell_angle_beta 28.283398
_cell_angle_gamma 90.000000
_cell_volume 2460.450441
_symmetry_space_group_name_H-M "C 2/C"
_symmetry_group_IT_number 15
_symmetry_cell_setting 'monoclinic'
loop_
_space_group_symop_operation_xyz
x,y,z
-x,y,1/2-z
-x,-y,-z
x,-y,1/2+z
1/2+x,1/2+y,z
1/2-x,1/2+y,1/2-z
1/2-x,1/2-y,-z
1/2+x,1/2-y,1/2+z
loop_
_atom_site_type_symbol
_atom_site_label
_atom_site_fract_x
_atom_site_fract_y
_atom_site_fract_z
Si Si1 0.329731 0.463273 0.897099
Si Si2 0.764080 0.132429 0.324791
Si Si3 0.347845 0.277918 0.365497
Si Si4 0.102970 0.272343 0.529533
Si Si5 0.319716 0.004044 0.678870
Si Si6 0.036985 0.619006 0.469254
Si Si7 0.923526 0.762703 0.808224
O O1 0.281840 0.417378 0.892250
O O2 0.370380 0.589374 0.810719
O O3 0.415941 0.386229 0.775464
O O4 0.249036 0.451593 0.118764
O O5 0.679191 0.222638 0.472986
O O6 0.739925 0.029659 0.301347
O O7 0.860522 0.190702 0.117035
O O8 0.250000 0.250000 0.500000
O O9 0.331840 0.246928 0.500539
O O10 0.430653 0.201231 0.172112
O O11 0.106591 0.400001 0.485875
O O12 0.000000 0.237774 0.750000
O O13 0.377610 0.899058 0.615099
O O14 0.000000 0.500000 0.500000
O O15 0.952622 0.675536 0.676766
O O16 0.000000 0.767190 0.750000
#
# Coordination Sequence:
#
# PCOD8155038 Si02
#       7
#     8   8   8   8   8   8   8
#     4  12  27  48  79 110 156 210 256 315 395 464
#     4  12  26  49  75 109 157 203 257 320 390 460
#     4  12  26  50  74 112 152 203 255 317 387 454
#     4  12  28  46  75 110 148 196 259 317 380 456
#     4  12  25  48  74 112 150 202 257 321 381 460
#     4  12  27  46  79 111 150 198 265 320 382 467
#     4  12  28  48  76 115 154 202 254 325 395 457
#
# _framework density 22.760059999999999
#
# number of rings (size 3 to 8) (size 9 to 14) (size 15 to 20)
#    0.000    0.000    5.714    3.000    8.000    2.286 
#    0.000    0.000    0.000    0.000    0.000    0.000 
#    0.000    0.000    0.000    0.000    0.000    0.000 
#
# Total GULP energy -347326.626002 kJ/mol
# GULP energy per Si atom -12404.522357 kJ/mol
# Density = 2.270826 g / cm^3
# Si number density = 22.760060 Si / 1000 Ang^3
#
#
#
# Elastic Constant Matrix: (Units=GPa)
#
#
# Indices 1 2 3 4 5 6 
#
# 1 122.3509 57.3187 39.3577 0.0000 23.1229 0.0000
# 2 57.3187 166.3647 62.5658 0.0000 5.6648 0.0000
# 3 39.3577 62.5658 119.1179 0.0000 3.3026 0.0000
# 4 0.0000 0.0000 0.0000 45.3075 0.0000 0.6993
# 5 23.1229 5.6648 3.3026 0.0000 25.3550 0.0000
# 6 0.0000 0.0000 0.0000 0.6993 0.0000 42.6639
#
#
#
# Elastic Compliance Matrix: (Units=1/GPa)
#
#
# Indices 1 2 3 4 5 6 
#
# 1 0.012221 -0.003055 -0.002151 0.000000 -0.010182 0.000000
# 2 -0.003055 0.008289 -0.003382 0.000000 0.001375 0.000000
# 3 -0.002151 -0.003382 0.010846 0.000000 0.001305 0.000000
# 4 0.000000 0.000000 0.000000 0.022077 0.000000 -0.000362
# 5 -0.010182 0.001375 0.001305 0.000000 0.048249 0.000000
# 6 0.000000 0.000000 0.000000 -0.000362 0.000000 0.023445
#
#
# Mechanical properties :
#
#
# Convention : Reuss Voigt Hill
#
# Bulk Modulus (GPa) = 70.52637 80.70199 75.61418
# Shear Modulus (GPa) = 34.00708 39.23802 36.62255
#
# Velocity S-wave (km/s) = 3.86963 4.15660 4.01567
# Velocity P-wave (km/s) = 7.14279 7.65317 7.40238
#
# Compressibility (1/GPa) = 0.01417909
#
# Stress axis : x y z
#
# Youngs Moduli (GPa) = 81.82964 120.64814 92.19900
#
# Poissons Ratio (x) = 0.36855 0.19832
# Poissons Ratio (y) = 0.24997 0.31184
# Poissons Ratio (z) = 0.17601 0.40807
#
# Static dielectric constant tensor:
#      x y z
#    x 4.521280 0.000000 0.371140 
#    y 0.000000 4.330080 0.000000 
#    z 0.371140 0.000000 4.591920 
# 
# 
# High freq. dielectric constant tensor:
#      x y z
#    x 1.916470 0.000000 0.009150 
#    y 0.000000 1.905620 0.000000 
#    z 0.009150 0.000000 1.900050 
# 
# From -- ./inp_files/181924.got.cif
#   From: 2010.06.25/outbox.cif.g09.slc.cpg/sg15_91_cif.got.tgz:181924.got - 2010.06.28 07:06:18.
