data_PCOD8155642
_publ_section_title
;
Structure prediction by ZEFSAII (Michael W. Deem and Ramdas Pophale) SiO2 
 PCOD8155642
Probable space group: P 2 2 21
;
_chemical_formula_sum "Si O2"
_cell_formula_units_Z 22
_cell_length_a 7.818604
_cell_length_b 16.785121
_cell_length_c 7.737660
_cell_angle_alpha 90.000000
_cell_angle_beta 90.000000
_cell_angle_gamma 90.000000
_cell_volume 1015.461205
_symmetry_space_group_name_H-M "P 2 2 21"
_symmetry_group_IT_number 17
_symmetry_cell_setting 'orthorhombic'
loop_
_space_group_symop_operation_xyz
x,y,z
-x,-y,1/2+z
x,-y,-z
-x,y,1/2-z
loop_
_atom_site_type_symbol
_atom_site_label
_atom_site_fract_x
_atom_site_fract_y
_atom_site_fract_z
Si Si1 0.155779 0.577063 0.383367
Si Si2 0.667874 0.772630 0.464637
Si Si3 0.500000 0.645955 0.250000
Si Si4 0.673760 0.000000 0.000000
Si Si5 0.183840 0.139950 0.673511
Si Si6 0.500000 0.874170 0.750000
Si Si7 0.040574 0.265968 0.447475
O O1 0.174891 0.500000 0.500000
O O2 0.335160 0.590875 0.284324
O O3 0.123283 0.649288 0.514090
O O4 0.000000 0.566545 0.250000
O O5 0.536500 0.701437 0.419183
O O6 0.665353 0.835847 0.305898
O O7 0.629885 0.815633 0.647597
O O8 0.859235 0.737531 0.454908
O O9 0.791754 0.952755 0.132775
O O10 0.572089 0.068422 0.101487
O O11 0.179037 0.198424 0.506001
O O12 0.000000 0.149084 0.750000
O O13 0.000000 0.252977 0.250000
#
# Coordination Sequence:
#
# PCOD8155642 Si02
#       7
#     4   4   2   2   4   2   4
#     4  12  26  50  75 109 149 190 231 303 365 430
#     4  11  23  43  71  97 139 185 248 291 366 429
#     4  12  24  47  77 104 148 186 244 294 361 437
#     4  12  24  40  58  96 144 174 240 300 370 410
#     4  10  22  41  66  92 135 189 234 301 360 430
#     4  12  26  39  63 102 140 192 240 308 367 441
#     4  11  22  44  71 102 136 188 242 291 361 438
#
# _framework density 21.665033000000001
#
# number of rings (size 3 to 8) (size 9 to 14) (size 15 to 20)
#    0.000    0.727    3.636    4.364    2.545    4.364 
#    3.273    0.000    0.000    0.000    0.000    0.000 
#    0.000    0.000    0.000    0.000    0.000    0.000 
#
# Total GULP energy -272694.356941 kJ/mol
# GULP energy per Si atom -12395.198043 kJ/mol
# Density = 2.161572 g / cm^3
# Si number density = 21.665033 Si / 1000 Ang^3
#
#
#
# Elastic Constant Matrix: (Units=GPa)
#
#
# Indices 1 2 3 4 5 6 
#
# 1 108.3958 43.5961 31.4055 0.0000 0.0000 0.0000
# 2 43.5961 122.7803 33.4552 0.0000 0.0000 0.0000
# 3 31.4055 33.4552 107.7330 0.0000 0.0000 0.0000
# 4 0.0000 0.0000 0.0000 44.2677 0.0000 0.0000
# 5 0.0000 0.0000 0.0000 0.0000 29.7276 0.0000
# 6 0.0000 0.0000 0.0000 0.0000 0.0000 20.3617
#
#
#
# Elastic Compliance Matrix: (Units=1/GPa)
#
#
# Indices 1 2 3 4 5 6 
#
# 1 0.011230 -0.003382 -0.002224 0.000000 0.000000 0.000000
# 2 -0.003382 0.009916 -0.002093 0.000000 0.000000 0.000000
# 3 -0.002224 -0.002093 0.010580 0.000000 0.000000 0.000000
# 4 0.000000 0.000000 0.000000 0.022590 0.000000 0.000000
# 5 0.000000 0.000000 0.000000 0.000000 0.033639 0.000000
# 6 0.000000 0.000000 0.000000 0.000000 0.000000 0.049112
#
#
# Mechanical properties :
#
#
# Convention : Reuss Voigt Hill
#
# Bulk Modulus (GPa) = 61.24089 61.75808 61.49949
# Shear Modulus (GPa) = 31.66434 34.23489 32.94961
#
# Velocity S-wave (km/s) = 3.82716 3.97947 3.90406
# Velocity P-wave (km/s) = 6.91795 7.04860 6.98358
#
# Compressibility (1/GPa) = 0.01632896
#
# Stress axis : x y z
#
# Youngs Moduli (GPa) = 89.04969 100.84969 94.51368
#
# Poissons Ratio (x) = 0.34102 0.21015
# Poissons Ratio (y) = 0.30112 0.19786
# Poissons Ratio (z) = 0.19800 0.21112
#
# Static dielectric constant tensor:
#      x y z
#    x 4.047300 0.000000 0.000000 
#    y 0.000000 3.928790 0.000000 
#    z 0.000000 0.000000 4.162560 
# 
# 
# High freq. dielectric constant tensor:
#      x y z
#    x 1.861320 0.000000 0.000000 
#    y 0.000000 1.850800 0.000000 
#    z 0.000000 0.000000 1.855190 
# 
# From -- ./inp_files/4224.got.cif
#   From: 2010.03.12/outbox.cif.g09.slc.cpg/sg17_3_cif.got.tgz:4224.got - 2010.04.10 18:46:23.
