data_PCOD8155709
_publ_section_title
;
Structure prediction by ZEFSAII (Michael W. Deem and Ramdas Pophale) SiO2 
 PCOD8155709
Probable space group: P 2 2 21
;
_chemical_formula_sum "Si O2"
_cell_formula_units_Z 32
_cell_length_a 13.855522
_cell_length_b 13.825020
_cell_length_c 9.739122
_cell_angle_alpha 90.000000
_cell_angle_beta 90.000000
_cell_angle_gamma 90.000000
_cell_volume 1865.556758
_symmetry_space_group_name_H-M "P 2 2 21"
_symmetry_group_IT_number 17
_symmetry_cell_setting 'orthorhombic'
loop_
_space_group_symop_operation_xyz
x,y,z
-x,-y,1/2+z
x,-y,-z
-x,y,1/2-z
loop_
_atom_site_type_symbol
_atom_site_label
_atom_site_fract_x
_atom_site_fract_y
_atom_site_fract_z
Si Si1 0.123876 0.792505 0.512598
Si Si2 0.117755 0.415830 0.596642
Si Si3 0.110979 0.585129 0.095427
Si Si4 0.204263 0.123012 0.223161
Si Si5 0.793537 0.897771 0.229240
Si Si6 0.416194 0.118864 0.152614
Si Si7 0.585794 0.110711 0.655665
Si Si8 0.899045 0.199528 0.535156
O O1 0.151441 0.684397 0.469505
O O2 0.148337 0.807457 0.672107
O O3 0.190397 0.867047 0.427983
O O4 0.011809 0.813326 0.490242
O O5 0.161067 0.500000 0.500000
O O6 0.157553 0.424147 0.752528
O O7 0.003330 0.424738 0.604205
O O8 0.154454 0.500000 0.000000
O O9 0.135115 0.688896 0.028492
O O10 0.316060 0.153024 0.219199
O O11 0.159607 0.136533 0.073421
O O12 0.192383 0.011865 0.263279
O O13 0.688883 0.861866 0.279774
O O14 0.876285 0.843508 0.315548
O O15 0.500000 0.161934 0.250000
O O16 0.422579 0.003914 0.147376
O O17 0.424972 0.157320 0.996143
O O18 0.500000 0.153314 0.750000
#
# Coordination Sequence:
#
# PCOD8155709 Si02
#       8
#     4   4   4   4   4   4   4   4
#     4  11  23  34  49  74 104 142 178 210 246 298
#     4   9  18  33  50  70  96 125 166 218 265 298
#     4   9  18  32  52  71  91 127 169 216 265 300
#     4  11  23  34  49  74 104 142 178 210 246 298
#     4  11  21  36  51  70 105 141 178 213 246 294
#     4   9  18  33  50  70  96 125 166 218 265 298
#     4   9  18  32  52  71  91 127 169 216 265 300
#     4  11  21  36  51  70 105 141 178 213 246 294
#
# _framework density 17.153055999999999
#
# number of rings (size 3 to 8) (size 9 to 14) (size 15 to 20)
#    0.000    2.000    2.500    1.500    3.500    3.000 
#    0.000    0.000    0.000    0.000    0.000    0.000 
#    0.000    6.000    0.000    0.000    0.000    0.000 
#
# Total GULP energy -396828.806431 kJ/mol
# GULP energy per Si atom -12400.900201 kJ/mol
# Density = 1.711401 g / cm^3
# Si number density = 17.153056 Si / 1000 Ang^3
#
#
#
# Elastic Constant Matrix: (Units=GPa)
#
#
# Indices 1 2 3 4 5 6 
#
# 1 79.9296 22.2478 27.1925 0.0000 0.0000 0.0000
# 2 22.2478 71.9741 27.6126 0.0000 0.0000 0.0000
# 3 27.1925 27.6126 71.4798 0.0000 0.0000 0.0000
# 4 0.0000 0.0000 0.0000 28.1441 0.0000 0.0000
# 5 0.0000 0.0000 0.0000 0.0000 26.4964 0.0000
# 6 0.0000 0.0000 0.0000 0.0000 0.0000 1.0863
#
#
#
# Elastic Compliance Matrix: (Units=1/GPa)
#
#
# Indices 1 2 3 4 5 6 
#
# 1 0.014851 -0.002845 -0.004551 0.000000 0.000000 0.000000
# 2 -0.002845 0.016856 -0.005429 0.000000 0.000000 0.000000
# 3 -0.004551 -0.005429 0.017819 0.000000 0.000000 0.000000
# 4 0.000000 0.000000 0.000000 0.035531 0.000000 0.000000
# 5 0.000000 0.000000 0.000000 0.000000 0.037741 0.000000
# 6 0.000000 0.000000 0.000000 0.000000 0.000000 0.920573
#
#
# Mechanical properties :
#
#
# Convention : Reuss Voigt Hill
#
# Bulk Modulus (GPa) = 41.88286 41.94326 41.91306
# Shear Modulus (GPa) = 4.64261 20.90073 12.77167
#
# Velocity S-wave (km/s) = 1.64695 3.49447 2.73164
# Velocity P-wave (km/s) = 5.29969 6.38648 5.86830
#
# Compressibility (1/GPa) = 0.02387612
#
# Stress axis : x y z
#
# Youngs Moduli (GPa) = 67.33556 59.32549 56.12133
#
# Poissons Ratio (x) = 0.16876 0.25539
# Poissons Ratio (y) = 0.19155 0.30470
# Poissons Ratio (z) = 0.30643 0.32210
#
# Static dielectric constant tensor:
#      x y z
#    x 3.036930 0.000000 0.000000 
#    y 0.000000 3.030580 0.000000 
#    z 0.000000 0.000000 3.456680 
# 
# 
# High freq. dielectric constant tensor:
#      x y z
#    x 1.632900 0.000000 0.000000 
#    y 0.000000 1.632130 0.000000 
#    z 0.000000 0.000000 1.682360 
# 
# From -- ./inp_files/5318.got.cif
#   From: 2010.03.12/outbox.cif.g09.slc.cpg/sg17_3_cif.got.tgz:5318.got - 2010.04.10 18:46:23.
