data_PCOD8155053
_publ_section_title
;
Structure prediction by ZEFSAII (Michael W. Deem and Ramdas Pophale) SiO2 
 PCOD8155053
Probable space group: C 2/C
;
_chemical_formula_sum "Si O2"
_cell_formula_units_Z 40
_cell_length_a 11.124959
_cell_length_b 11.385897
_cell_length_c 20.942866
_cell_angle_alpha 90.000000
_cell_angle_beta 39.712983
_cell_angle_gamma 90.000000
_cell_volume 1694.975084
_symmetry_space_group_name_H-M "C 2/C"
_symmetry_group_IT_number 15
_symmetry_cell_setting 'monoclinic'
loop_
_space_group_symop_operation_xyz
x,y,z
-x,y,1/2-z
-x,-y,-z
x,-y,1/2+z
1/2+x,1/2+y,z
1/2-x,1/2+y,1/2-z
1/2-x,1/2-y,-z
1/2+x,1/2-y,1/2+z
loop_
_atom_site_type_symbol
_atom_site_label
_atom_site_fract_x
_atom_site_fract_y
_atom_site_fract_z
Si Si1 0.064994 0.521209 0.820599
Si Si2 0.371956 0.437275 0.102921
Si Si3 0.695887 0.507590 0.151637
Si Si4 0.260075 0.613151 0.988898
Si Si5 0.334735 0.240840 0.895705
O O1 0.197174 0.489001 0.705490
O O2 0.167647 0.485428 0.843758
O O3 0.023043 0.660795 0.827809
O O4 0.864291 0.451734 0.904307
O O5 0.517781 0.414241 0.100460
O O6 0.305750 0.317842 0.097192
O O7 0.500000 0.500000 0.000000
O O8 0.500000 0.443949 0.250000
O O9 0.808483 0.431631 0.052512
O O10 0.628508 0.631497 0.148280
O O11 0.250000 0.750000 0.000000
O O12 0.250000 0.250000 0.000000
#
# Coordination Sequence:
#
# PCOD8155053 Si02
#       5
#     8   8   8   8   8
#     4  12  26  49  79 108 150 201 253 313 383 459
#     4  12  25  49  72 111 152 189 255 316 379 456
#     4  12  25  51  75 110 151 196 256 312 384 459
#     4  12  27  49  73 110 152 198 252 320 385 458
#     4  12  26  47  81 109 149 206 254 314 384 458
#
# _framework density 23.599167000000001
#
# number of rings (size 3 to 8) (size 9 to 14) (size 15 to 20)
#    0.000    0.000    6.000    3.600    2.800    0.000 
#    3.600    0.000    0.000    0.000    0.000    0.000 
#    0.000    0.000    0.000    0.000    0.000    0.000 
#
# Total GULP energy -247832.228016 kJ/mol
# GULP energy per Si atom -12391.611401 kJ/mol
# Density = 2.354545 g / cm^3
# Si number density = 23.599167 Si / 1000 Ang^3
#
#
#
# Elastic Constant Matrix: (Units=GPa)
#
#
# Indices 1 2 3 4 5 6 
#
# 1 97.2857 21.0669 41.8684 0.0001 2.9080 0.0000
# 2 21.0669 128.4904 51.5717 0.0001 10.9000 0.0000
# 3 41.8684 51.5717 199.5988 0.0005 5.5289 -0.0001
# 4 0.0001 0.0001 0.0005 21.5877 -0.0001 3.7661
# 5 2.9080 10.9000 5.5289 -0.0001 43.1197 0.0000
# 6 0.0000 0.0000 -0.0001 3.7661 0.0000 40.1344
#
#
#
# Elastic Compliance Matrix: (Units=1/GPa)
#
#
# Indices 1 2 3 4 5 6 
#
# 1 0.011419 -0.000996 -0.002131 0.000000 -0.000245 0.000000
# 2 -0.000996 0.008930 -0.002045 0.000000 -0.001928 0.000000
# 3 -0.002131 -0.002045 0.005988 0.000000 -0.000107 0.000000
# 4 0.000000 0.000000 0.000000 0.047094 0.000000 -0.004419
# 5 -0.000245 -0.001928 -0.000107 0.000000 0.023709 0.000000
# 6 0.000000 0.000000 0.000000 -0.004419 0.000000 0.025331
#
#
# Mechanical properties :
#
#
# Convention : Reuss Voigt Hill
#
# Bulk Modulus (GPa) = 62.52577 72.70990 67.61784
# Shear Modulus (GPa) = 36.19326 41.69288 38.94307
#
# Velocity S-wave (km/s) = 3.92045 4.20778 4.06666
# Velocity P-wave (km/s) = 6.85899 7.38136 7.12496
#
# Compressibility (1/GPa) = 0.01599340
#
# Stress axis : x y z
#
# Youngs Moduli (GPa) = 87.57173 111.97738 166.98796
#
# Poissons Ratio (x) = 0.11154 0.35588
# Poissons Ratio (y) = 0.08723 0.34150
# Poissons Ratio (z) = 0.18663 0.22900
#
# Static dielectric constant tensor:
#      x y z
#    x -6.272410 0.000010 9.030100 
#    y 0.000010 4.093630 0.000000 
#    z 9.030100 0.000000 -2.653740 
# 
# 
# High freq. dielectric constant tensor:
#      x y z
#    x 1.951540 0.000000 0.003590 
#    y 0.000000 1.905080 0.000000 
#    z 0.003590 0.000000 1.964780 
# 
# From -- ./inp_files/237350.got.cif
#   From: 2010.06.25/outbox.cif.g09.slc.cpg/sg15_119_cif.got.tgz:237350.got - 2010.06.28 07:06:18.
