data_PCOD8155940
_publ_section_title
;
Structure prediction by ZEFSAII (Michael W. Deem and Ramdas Pophale) SiO2 
 PCOD8155940
Probable space group: P 21 21 2
;
_chemical_formula_sum "Si O2"
_cell_formula_units_Z 24
_cell_length_a 18.826572
_cell_length_b 6.871125
_cell_length_c 9.250620
_cell_angle_alpha 90.000000
_cell_angle_beta 90.000000
_cell_angle_gamma 90.000000
_cell_volume 1196.657701
_symmetry_space_group_name_H-M "P 21 21 2"
_symmetry_group_IT_number 18
_symmetry_cell_setting 'orthorhombic'
loop_
_space_group_symop_operation_xyz
x,y,z
-x,-y,z
1/2+x,1/2-y,-z
1/2-x,1/2+y,-z
loop_
_atom_site_type_symbol
_atom_site_label
_atom_site_fract_x
_atom_site_fract_y
_atom_site_fract_z
Si Si1 0.000000 0.000000 0.241850
Si Si2 0.820056 0.242468 0.113838
Si Si3 0.903833 0.875685 0.004619
Si Si4 0.433455 0.131917 0.667670
Si Si5 0.816939 0.539744 0.878435
Si Si6 0.500000 0.500000 0.242497
Si Si7 0.068250 0.620497 0.657376
O O1 0.046339 0.860758 0.342952
O O2 0.044234 0.151625 0.141678
O O3 0.866353 0.376008 0.223462
O O4 0.752377 0.142254 0.194293
O O5 0.866855 0.081926 0.032881
O O6 0.788642 0.374355 0.986012
O O7 0.946779 0.877080 0.855618
O O8 0.854053 0.691208 0.986979
O O9 0.410152 0.066513 0.507136
O O10 0.500000 0.000000 0.720559
O O11 0.865892 0.442809 0.756563
O O12 0.547614 0.650854 0.335296
O O13 0.000000 0.500000 0.708129
#
# Coordination Sequence:
#
# PCOD8155940 Si02
#       7
#     2   4   4   4   4   2   4
#     4   9  19  36  62  88 120 150 206 254 308 360
#     4  11  23  39  63  89 126 162 207 258 317 375
#     4  10  20  34  60  94 115 154 204 262 307 356
#     4  10  22  41  61  92 122 165 204 257 311 371
#     4  12  22  39  61  91 120 162 206 259 309 374
#     4  11  19  36  60  94 118 154 206 258 310 358
#     4  11  23  37  63  91 127 162 210 259 309 375
#
# _framework density 20.055859000000002
#
# number of rings (size 3 to 8) (size 9 to 14) (size 15 to 20)
#    0.000    1.333    5.000    1.500    0.000    0.667 
#    0.000    3.333    3.667    0.000    0.000    0.000 
#    0.000    0.000    0.000    0.000    0.000    0.000 
#
# Total GULP energy -297431.764279 kJ/mol
# GULP energy per Si atom -12392.990178 kJ/mol
# Density = 2.001021 g / cm^3
# Si number density = 20.055859 Si / 1000 Ang^3
#
#
#
# Elastic Constant Matrix: (Units=GPa)
#
#
# Indices 1 2 3 4 5 6 
#
# 1 121.5128 33.8155 51.3478 0.0000 0.0000 0.0000
# 2 33.8155 72.6952 33.0575 0.0000 0.0000 0.0000
# 3 51.3478 33.0575 86.2721 0.0000 0.0000 0.0000
# 4 0.0000 0.0000 0.0000 -15.0415 0.0000 0.0000
# 5 0.0000 0.0000 0.0000 0.0000 44.5739 0.0000
# 6 0.0000 0.0000 0.0000 0.0000 0.0000 41.9784
#
#
#
# Elastic Compliance Matrix: (Units=1/GPa)
#
#
# Indices 1 2 3 4 5 6 
#
# 1 0.011413 -0.002688 -0.005763 0.000000 0.000000 0.000000
# 2 -0.002688 0.017292 -0.005026 0.000000 0.000000 0.000000
# 3 -0.005763 -0.005026 0.016947 0.000000 0.000000 0.000000
# 4 0.000000 0.000000 0.000000 -0.066483 0.000000 0.000000
# 5 0.000000 0.000000 0.000000 0.000000 0.022435 0.000000
# 6 0.000000 0.000000 0.000000 0.000000 0.000000 0.023822
#
#
# Mechanical properties :
#
#
# Convention : Reuss Voigt Hill
#
# Bulk Modulus (GPa) = 53.48146 57.43574 55.45860
# Shear Modulus (GPa) = 85.30712 25.11944 55.21328
#
# Velocity S-wave (km/s) = 6.52894 3.54287 5.25257
# Velocity P-wave (km/s) = 9.14113 6.74062 8.03107
#
# Compressibility (1/GPa) = 0.01869807
#
# Stress axis : x y z
#
# Youngs Moduli (GPa) = 87.62048 57.82993 59.00805
#
# Poissons Ratio (x) = 0.15547 0.34004
# Poissons Ratio (y) = 0.23556 0.29656
# Poissons Ratio (z) = 0.50492 0.29064
#
# Static dielectric constant tensor:
#      x y z
#    x 3.642570 0.000000 0.000000 
#    y 0.000000 3.548060 0.000000 
#    z 0.000000 0.000000 3.360010 
# 
# 
# High freq. dielectric constant tensor:
#      x y z
#    x 1.775560 0.000000 0.000000 
#    y 0.000000 1.793810 0.000000 
#    z 0.000000 0.000000 1.763490 
# 
# From -- ./inp_files/4492.got.cif
#   From: 2010.03.12/outbox.cif.g09.slc.cpg/sg18_3_cif.got.tgz:4492.got - 2010.04.10 18:53:55.
