data_PCOD8155077
_publ_section_title
;
Structure prediction by ZEFSAII (Michael W. Deem and Ramdas Pophale) SiO2 
 PCOD8155077
Probable space group: C 2/C
;
_chemical_formula_sum "Si O2"
_cell_formula_units_Z 44
_cell_length_a 19.444869
_cell_length_b 6.599010
_cell_length_c 15.155135
_cell_angle_alpha 90.000000
_cell_angle_beta 70.012562
_cell_angle_gamma 90.000000
_cell_volume 1827.528165
_symmetry_space_group_name_H-M "C 2/C"
_symmetry_group_IT_number 15
_symmetry_cell_setting 'monoclinic'
loop_
_space_group_symop_operation_xyz
x,y,z
-x,y,1/2-z
-x,-y,-z
x,-y,1/2+z
1/2+x,1/2+y,z
1/2-x,1/2+y,1/2-z
1/2-x,1/2-y,-z
1/2+x,1/2-y,1/2+z
loop_
_atom_site_type_symbol
_atom_site_label
_atom_site_fract_x
_atom_site_fract_y
_atom_site_fract_z
Si Si1 0.002488 0.508571 0.106923
Si Si2 0.153924 0.447398 0.855831
Si Si3 0.000000 0.835844 0.750000
Si Si4 0.249031 0.310052 0.666489
Si Si5 0.607750 0.639124 0.635067
Si Si6 0.812821 0.145456 0.527309
O O1 0.918976 0.563742 0.171896
O O2 0.013237 0.296270 0.155013
O O3 0.056836 0.678299 0.121008
O O4 0.000000 0.500000 0.000000
O O5 0.221598 0.339763 0.777799
O O6 0.177823 0.675037 0.868642
O O7 0.138553 0.327799 0.953493
O O8 0.068679 0.993296 0.724746
O O9 0.184166 0.219575 0.636734
O O10 0.270571 0.527892 0.622095
O O11 0.629210 0.497693 0.544438
O O12 0.750000 0.250000 0.500000
#
# Coordination Sequence:
#
# PCOD8155077 Si02
#       6
#     8   8   4   8   8   8
#     4  12  29  49  77 112 156 202 257 318 384 463
#     4  12  26  45  74 109 144 198 252 310 375 448
#     4  12  28  50  80 106 160 202 248 318 384 454
#     4  12  26  45  74 109 149 192 255 308 375 454
#     4  12  28  48  75 112 150 201 254 308 388 458
#     4  12  27  45  75 109 148 192 249 312 374 443
#
# _framework density 24.076235
#
# number of rings (size 3 to 8) (size 9 to 14) (size 15 to 20)
#    0.000    0.000    3.636    5.455   10.182    5.818 
#    0.000    0.000    0.000    0.000    0.000    0.000 
#    0.000    0.000    0.000    0.000    0.000    0.000 
#
# Total GULP energy -272650.103336 kJ/mol
# GULP energy per Si atom -12393.186515 kJ/mol
# Density = 2.402144 g / cm^3
# Si number density = 24.076235 Si / 1000 Ang^3
#
#
#
# Elastic Constant Matrix: (Units=GPa)
#
#
# Indices 1 2 3 4 5 6 
#
# 1 114.7863 35.9818 -13.5676 0.0001 -1.1740 0.0000
# 2 35.9818 118.1983 21.6951 0.0000 4.4142 0.0003
# 3 -13.5676 21.6951 70.8936 0.0001 5.4007 0.0000
# 4 0.0001 0.0000 0.0001 48.0914 0.0000 2.4480
# 5 -1.1740 4.4142 5.4007 0.0000 35.5710 0.0000
# 6 0.0000 0.0003 0.0000 2.4480 0.0000 33.1258
#
#
#
# Elastic Compliance Matrix: (Units=1/GPa)
#
#
# Indices 1 2 3 4 5 6 
#
# 1 0.010234 -0.003690 0.003063 0.000000 0.000331 0.000000
# 2 -0.003690 0.010312 -0.003799 0.000000 -0.000825 0.000000
# 3 0.003063 -0.003799 0.015996 0.000000 -0.001856 0.000000
# 4 0.000000 0.000000 0.000000 0.020872 0.000000 -0.001542
# 5 0.000331 -0.000825 -0.001856 0.000000 0.028508 0.000000
# 6 0.000000 0.000000 0.000000 -0.001542 0.000000 0.030302
#
#
# Mechanical properties :
#
#
# Convention : Reuss Voigt Hill
#
# Bulk Modulus (GPa) = 36.11576 43.56632 39.84104
# Shear Modulus (GPa) = 37.22853 40.67554 38.95204
#
# Velocity S-wave (km/s) = 3.93654 4.11475 4.02663
# Velocity P-wave (km/s) = 5.97452 6.38038 6.18079
#
# Compressibility (1/GPa) = 0.02768874
#
# Stress axis : x y z
#
# Youngs Moduli (GPa) = 97.71476 96.97711 62.51670
#
# Poissons Ratio (x) = 0.35783 -0.19146
# Poissons Ratio (y) = 0.36055 0.23750
# Poissons Ratio (z) = -0.29926 0.36841
#
# Static dielectric constant tensor:
#      x y z
#    x 4.633840 0.000000 -0.129590 
#    y 0.000000 5.043460 0.000000 
#    z -0.129590 0.000000 4.520530 
# 
# 
# High freq. dielectric constant tensor:
#      x y z
#    x 1.959800 0.000000 -0.012890 
#    y 0.000000 1.976620 0.000000 
#    z -0.012890 0.000000 1.966590 
# 
# From -- ./inp_files/212811.got.cif
#   From: 2010.06.25/outbox.cif.g09.slc.cpg/sg15_107_cif.got.tgz:212811.got - 2010.06.28 07:06:18.
