data_PCOD8155347
_publ_section_title
;
Structure prediction by ZEFSAII (Michael W. Deem and Ramdas Pophale) SiO2 
 PCOD8155347
Probable space group: P 2 2 2
;
_chemical_formula_sum "Si O2"
_cell_formula_units_Z 32
_cell_length_a 11.589998
_cell_length_b 18.426143
_cell_length_c 8.676981
_cell_angle_alpha 90.000000
_cell_angle_beta 90.000000
_cell_angle_gamma 90.000000
_cell_volume 1853.047043
_symmetry_space_group_name_H-M "P 2 2 2"
_symmetry_group_IT_number 16
_symmetry_cell_setting 'orthorhombic'
loop_
_space_group_symop_operation_xyz
x,y,z
-x,-y,z
x,-y,-z
-x,y,-z
loop_
_atom_site_type_symbol
_atom_site_label
_atom_site_fract_x
_atom_site_fract_y
_atom_site_fract_z
Si Si1 0.863649 0.500000 0.825622
Si Si2 0.863195 0.076678 0.827605
Si Si3 0.500000 0.416798 0.817751
Si Si4 0.863195 0.076678 0.172395
Si Si5 0.264306 0.367087 0.681395
Si Si6 0.866579 0.233886 0.816363
Si Si7 0.866579 0.766114 0.816363
Si Si8 0.264306 0.367087 0.318605
O O1 0.821218 0.571182 0.740080
O O2 0.821218 0.428818 0.740080
O O3 0.000000 0.500000 0.825475
O O4 0.814687 0.500000 0.000000
O O5 0.825137 0.153775 0.753901
O O6 1.000000 0.079164 0.835611
O O7 0.824395 1.000000 0.743623
O O8 0.813158 0.073985 0.000000
O O9 0.500000 0.500000 0.758870
O O10 0.389258 0.375269 0.755316
O O11 0.610742 0.375269 0.755316
O O12 0.500000 0.413715 0.000000
O O13 0.825137 0.153775 0.246099
O O14 0.213801 0.289794 0.728400
O O15 0.275839 0.372964 0.500000
O O16 0.786199 0.289794 0.728400
O O17 1.000000 0.248745 0.773571
O O18 0.849912 0.240199 0.000000
#
# Coordination Sequence:
#
# PCOD8155347 Si02
#       8
#     4   4   4   4   4   4   4   4
#     4  11  23  38  55  74  99 133 171 205 242 293
#     4   7  10  19  39  68  99 131 169 210 246 281
#     4  11  23  41  63  77  91 122 167 214 256 301
#     4   7  10  19  39  68  99 131 169 210 246 281
#     4  12  24  36  53  76 103 131 164 207 255 302
#     4   9  17  30  49  74 106 141 174 208 247 295
#     4   9  17  30  49  74 106 141 174 208 247 295
#     4  12  24  36  53  76 103 131 164 207 255 302
#
# _framework density 17.268854000000001
#
# number of rings (size 3 to 8) (size 9 to 14) (size 15 to 20)
#    0.000    2.250    1.250    6.000    0.000    5.000 
#    0.000    0.000    0.000    0.750    0.000    4.375 
#    0.000    7.000    0.000    0.000    0.000    0.000 
#
# Total GULP energy -396441.460843 kJ/mol
# GULP energy per Si atom -12388.795651 kJ/mol
# Density = 1.722955 g / cm^3
# Si number density = 17.268854 Si / 1000 Ang^3
#
#
#
# Elastic Constant Matrix: (Units=GPa)
#
#
# Indices 1 2 3 4 5 6 
#
# 1 77.0698 52.1051 30.6234 0.0000 0.0000 0.0000
# 2 52.1051 171.4362 39.1051 0.0000 0.0000 0.0000
# 3 30.6234 39.1051 67.2970 0.0000 0.0000 0.0000
# 4 0.0000 0.0000 0.0000 -8.5306 0.0000 0.0000
# 5 0.0000 0.0000 0.0000 0.0000 32.4832 0.0000
# 6 0.0000 0.0000 0.0000 0.0000 0.0000 -3.9709
#
#
#
# Elastic Compliance Matrix: (Units=1/GPa)
#
#
# Indices 1 2 3 4 5 6 
#
# 1 0.018110 -0.004178 -0.005813 0.000000 0.000000 0.000000
# 2 -0.004178 0.007688 -0.002566 0.000000 0.000000 0.000000
# 3 -0.005813 -0.002566 0.018996 0.000000 0.000000 0.000000
# 4 0.000000 0.000000 0.000000 -0.117225 0.000000 0.000000
# 5 0.000000 0.000000 0.000000 0.000000 0.030785 0.000000
# 6 0.000000 0.000000 0.000000 0.000000 0.000000 -0.251833
#
#
# Mechanical properties :
#
#
# Convention : Reuss Voigt Hill
#
# Bulk Modulus (GPa) = 50.81518 62.16337 56.48927
# Shear Modulus (GPa) = -19.09830 16.92762 -1.08534
#
# Velocity S-wave (km/s) = -3.32917 3.13427 -0.79364
# Velocity P-wave (km/s) = 3.83561 7.01240 5.65180
#
# Compressibility (1/GPa) = 0.01967916
#
# Stress axis : x y z
#
# Youngs Moduli (GPa) = 55.21874 130.06699 52.64296
#
# Poissons Ratio (x) = 0.54345 0.30601
# Poissons Ratio (y) = 0.23072 0.13510
# Poissons Ratio (z) = 0.32098 0.33379
#
# Static dielectric constant tensor:
#      x y z
#    x 2.950900 0.000000 0.000000 
#    y 0.000000 3.764660 0.000000 
#    z 0.000000 0.000000 3.055280 
# 
# 
# High freq. dielectric constant tensor:
#      x y z
#    x 1.629240 0.000000 0.000000 
#    y 0.000000 1.691600 0.000000 
#    z 0.000000 0.000000 1.644080 
# 
# From -- ./inp_files/4897.got.cif
#   From: 2010.03.12/outbox.cif.g09.slc.cpg/sg16_3_cif.got.tgz:4897.got - 2010.03.31 00:51:45.
