data_PCOD8155163
_publ_section_title
;
Structure prediction by ZEFSAII (Michael W. Deem and Ramdas Pophale) SiO2 
 PCOD8155163
Probable space group: C 2/C
;
_chemical_formula_sum "Si O2"
_cell_formula_units_Z 28
_cell_length_a 8.487398
_cell_length_b 4.811482
_cell_length_c 27.874157
_cell_angle_alpha 90.000000
_cell_angle_beta 64.189305
_cell_angle_gamma 90.000000
_cell_volume 1024.736680
_symmetry_space_group_name_H-M "C 2/C"
_symmetry_group_IT_number 15
_symmetry_cell_setting 'monoclinic'
loop_
_space_group_symop_operation_xyz
x,y,z
-x,y,1/2-z
-x,-y,-z
x,-y,1/2+z
1/2+x,1/2+y,z
1/2-x,1/2+y,1/2-z
1/2-x,1/2-y,-z
1/2+x,1/2-y,1/2+z
loop_
_atom_site_type_symbol
_atom_site_label
_atom_site_fract_x
_atom_site_fract_y
_atom_site_fract_z
Si Si1 0.827774 0.149070 0.538761
Si Si2 0.000000 0.162128 0.750000
Si Si3 0.163829 0.972622 0.820643
Si Si4 0.534357 0.974362 0.892848
O O1 0.750000 0.250000 0.500000
O O2 0.882514 0.402161 0.566578
O O3 0.678261 0.943885 0.581289
O O4 0.000000 0.000000 0.500000
O O5 0.138004 0.368067 0.706597
O O6 0.083633 0.951184 0.777820
O O7 0.063067 0.796522 0.874841
O O8 0.138406 0.292559 0.839590
#
# Coordination Sequence:
#
# PCOD8155163 Si02
#       4
#     8   4   8   8
#     4  12  27  50  78 114 154 202 255 316 381 455
#     4  12  28  52  78 114 152 202 256 318 382 456
#     4  12  28  50  78 112 154 201 255 316 382 455
#     4  12  27  50  77 113 154 202 254 315 382 455
#
# _framework density 27.324090999999999
#
# number of rings (size 3 to 8) (size 9 to 14) (size 15 to 20)
#    0.000    0.000    0.000    8.571    0.000   12.571 
#    0.000    0.000    0.000    0.000    0.000    0.000 
#    0.000    0.000    0.000    0.000    0.000    0.000 
#
# Total GULP energy -173616.729584 kJ/mol
# GULP energy per Si atom -12401.194970 kJ/mol
# Density = 2.726190 g / cm^3
# Si number density = 27.324091 Si / 1000 Ang^3
#
#
#
# Elastic Constant Matrix: (Units=GPa)
#
#
# Indices 1 2 3 4 5 6 
#
# 1 150.5357 27.3597 44.5362 0.0000 -36.9446 0.0000
# 2 27.3597 75.7274 16.3772 0.0000 -13.5698 -0.0001
# 3 44.5362 16.3772 124.1466 0.0000 -31.1048 0.0000
# 4 0.0000 0.0000 0.0000 21.2831 0.0000 12.6738
# 5 -36.9446 -13.5698 -31.1048 0.0000 56.5792 0.0000
# 6 0.0000 -0.0001 0.0000 12.6738 0.0000 50.2941
#
#
#
# Elastic Compliance Matrix: (Units=1/GPa)
#
#
# Indices 1 2 3 4 5 6 
#
# 1 0.008537 -0.001961 -0.001769 0.000000 0.004131 0.000000
# 2 -0.001961 0.014392 -0.000755 0.000000 0.001756 0.000000
# 3 -0.001769 -0.000755 0.009805 0.000000 0.004054 0.000000
# 4 0.000000 0.000000 0.000000 0.055281 0.000000 -0.013930
# 5 0.004131 0.001756 0.004054 0.000000 0.023022 0.000000
# 6 0.000000 0.000000 0.000000 -0.013930 0.000000 0.023393
#
#
# Mechanical properties :
#
#
# Convention : Reuss Voigt Hill
#
# Bulk Modulus (GPa) = 42.08138 58.55065 50.31601
# Shear Modulus (GPa) = 33.04235 43.10704 38.07470
#
# Velocity S-wave (km/s) = 3.48124 3.97624 3.73694
# Velocity P-wave (km/s) = 5.62076 6.52345 6.08885
#
# Compressibility (1/GPa) = 0.02376348
#
# Stress axis : x y z
#
# Youngs Moduli (GPa) = 117.14262 69.48397 101.99023
#
# Poissons Ratio (x) = 0.13629 0.18037
# Poissons Ratio (y) = 0.22976 0.07700
# Poissons Ratio (z) = 0.20717 0.05246
#
# Static dielectric constant tensor:
#      x y z
#    x 5.230560 0.000000 -0.115520 
#    y 0.000000 4.671610 0.000000 
#    z -0.115520 0.000000 5.469050 
# 
# 
# High freq. dielectric constant tensor:
#      x y z
#    x 2.119700 0.000000 -0.002020 
#    y 0.000000 2.087900 0.000000 
#    z -0.002020 0.000000 2.130380 
# 
# From -- ./inp_files/284950.got.cif
#   From: 2010.06.25/outbox.cif.g09.slc.cpg/sg15_143_cif.got.tgz:284950.got - 2010.06.28 07:06:18.
