data_PCOD8155135
_publ_section_title
;
Structure prediction by ZEFSAII (Michael W. Deem and Ramdas Pophale) SiO2 
 PCOD8155135
Probable space group: C 2/C
;
_chemical_formula_sum "Si O2"
_cell_formula_units_Z 52
_cell_length_a 24.171851
_cell_length_b 9.277774
_cell_length_c 11.701540
_cell_angle_alpha 90.000000
_cell_angle_beta 62.263158
_cell_angle_gamma 90.000000
_cell_volume 2322.663966
_symmetry_space_group_name_H-M "C 2/C"
_symmetry_group_IT_number 15
_symmetry_cell_setting 'monoclinic'
loop_
_space_group_symop_operation_xyz
x,y,z
-x,y,1/2-z
-x,-y,-z
x,-y,1/2+z
1/2+x,1/2+y,z
1/2-x,1/2+y,1/2-z
1/2-x,1/2-y,-z
1/2+x,1/2-y,1/2+z
loop_
_atom_site_type_symbol
_atom_site_label
_atom_site_fract_x
_atom_site_fract_y
_atom_site_fract_z
Si Si1 0.558564 0.417946 0.992989
Si Si2 0.303882 0.647992 0.412598
Si Si3 0.632713 0.827806 0.340600
Si Si4 0.000000 0.785496 0.250000
Si Si5 0.443962 0.093346 0.107289
Si Si6 0.858827 0.169589 0.601555
Si Si7 0.252143 0.655649 0.882932
O O1 0.547556 0.394610 0.139585
O O2 0.500000 0.500000 0.000000
O O3 0.569302 0.252247 0.944148
O O4 0.616405 0.510807 0.889570
O O5 0.250000 0.750000 0.500000
O O6 0.342486 0.725319 0.279494
O O7 0.345237 0.632327 0.484219
O O8 0.274001 0.501254 0.397137
O O9 0.683253 0.847621 0.393797
O O10 0.612332 0.982117 0.309986
O O11 0.961552 0.680703 0.203510
O O12 0.413866 0.210706 0.049705
O O13 0.500000 0.000000 0.000000
O O14 0.801204 0.215047 0.739629
O O15 0.250000 0.750000 0.000000
#
# Coordination Sequence:
#
# PCOD8155135 Si02
#       7
#     8   8   8   4   8   8   8
#     4  12  26  50  74 109 145 200 261 311 380 457
#     4  12  27  46  74 111 148 195 248 309 377 457
#     4  12  27  48  76 112 155 196 251 317 385 455
#     4  12  28  48  78 110 150 208 258 320 398 442
#     4  12  28  50  73 109 152 200 253 313 383 459
#     4  12  27  49  75 110 152 195 255 314 382 451
#     4  12  29  48  79 111 148 199 250 314 386 456
#
# _framework density 22.388085
#
# number of rings (size 3 to 8) (size 9 to 14) (size 15 to 20)
#    0.000    0.000    6.154    1.846   10.769    0.000 
#    0.000    0.000    0.000    0.000    0.000    0.000 
#    0.000    0.000    0.000    0.000    0.000    0.000 
#
# Total GULP energy -322123.984102 kJ/mol
# GULP energy per Si atom -12389.384004 kJ/mol
# Density = 2.233713 g / cm^3
# Si number density = 22.388085 Si / 1000 Ang^3
#
#
#
# Elastic Constant Matrix: (Units=GPa)
#
#
# Indices 1 2 3 4 5 6 
#
# 1 132.1629 50.5442 35.3044 0.0000 10.3952 0.0000
# 2 50.5442 134.1986 48.8576 0.0000 -5.8789 0.0000
# 3 35.3044 48.8576 120.4964 0.0000 4.0627 0.0000
# 4 0.0000 0.0000 0.0000 49.3395 0.0000 -2.4305
# 5 10.3952 -5.8789 4.0627 0.0000 29.1111 0.0000
# 6 0.0000 0.0000 0.0000 -2.4305 0.0000 57.6429
#
#
#
# Elastic Compliance Matrix: (Units=1/GPa)
#
#
# Indices 1 2 3 4 5 6 
#
# 1 0.009467 -0.003252 -0.001325 0.000000 -0.003852 0.000000
# 2 -0.003252 0.010011 -0.003229 0.000000 0.003634 0.000000
# 3 -0.001325 -0.003229 0.010050 0.000000 -0.001581 0.000000
# 4 0.000000 0.000000 0.000000 0.020310 0.000000 0.000856
# 5 -0.003852 0.003634 -0.001581 0.000000 0.036681 0.000000
# 6 0.000000 0.000000 0.000000 0.000856 0.000000 0.017384
#
#
# Mechanical properties :
#
#
# Convention : Reuss Voigt Hill
#
# Bulk Modulus (GPa) = 71.86106 72.91893 72.38999
# Shear Modulus (GPa) = 40.27234 44.02881 42.15058
#
# Velocity S-wave (km/s) = 4.24586 4.43947 4.34374
# Velocity P-wave (km/s) = 7.49694 7.67591 7.58695
#
# Compressibility (1/GPa) = 0.01391574
#
# Stress axis : x y z
#
# Youngs Moduli (GPa) = 105.62880 99.88838 99.50367
#
# Poissons Ratio (x) = 0.32483 0.13188
# Poissons Ratio (y) = 0.34350 0.32129
# Poissons Ratio (z) = 0.14000 0.32253
#
# Static dielectric constant tensor:
#      x y z
#    x 4.273480 0.000000 -0.139700 
#    y 0.000000 4.597050 0.000000 
#    z -0.139700 0.000000 4.118110 
# 
# 
# High freq. dielectric constant tensor:
#      x y z
#    x 1.892730 0.000000 -0.006640 
#    y 0.000000 1.907990 0.000000 
#    z -0.006640 0.000000 1.886060 
# 
# From -- ./inp_files/121835.got.cif
#   From: 2010.06.25/outbox.cif.g09.slc.cpg/sg15_61_cif.got.tgz:121835.got - 2010.06.28 07:06:18.
