data_PCOD8155137
_publ_section_title
;
Structure prediction by ZEFSAII (Michael W. Deem and Ramdas Pophale) SiO2 
 PCOD8155137
Probable space group: C 2/C
;
_chemical_formula_sum "Si O2"
_cell_formula_units_Z 32
_cell_length_a 17.473025
_cell_length_b 4.909135
_cell_length_c 28.141190
_cell_angle_alpha 90.000000
_cell_angle_beta 144.437447
_cell_angle_gamma 90.000000
_cell_volume 1403.891441
_symmetry_space_group_name_H-M "C 2/C"
_symmetry_group_IT_number 15
_symmetry_cell_setting 'monoclinic'
loop_
_space_group_symop_operation_xyz
x,y,z
-x,y,1/2-z
-x,-y,-z
x,-y,1/2+z
1/2+x,1/2+y,z
1/2-x,1/2+y,1/2-z
1/2-x,1/2-y,-z
1/2+x,1/2-y,1/2+z
loop_
_atom_site_type_symbol
_atom_site_label
_atom_site_fract_x
_atom_site_fract_y
_atom_site_fract_z
Si Si1 0.764683 0.930034 0.727261
Si Si2 0.479335 0.710496 0.686339
Si Si3 0.809003 0.708034 0.580891
Si Si4 0.595822 0.251737 0.052437
O O1 0.687087 0.168104 0.717246
O O2 0.889038 0.101029 0.771474
O O3 0.676208 0.793214 0.641737
O O4 0.500000 0.815091 0.750000
O O5 0.375570 0.472698 0.635353
O O6 0.414472 0.966182 0.627118
O O7 0.750000 0.750000 0.500000
O O8 0.693250 0.663931 0.559551
O O9 0.500000 0.500000 0.000000
O O10 0.500000 0.000000 0.000000
#
# Coordination Sequence:
#
# PCOD8155137 Si02
#       4
#     8   8   8   8
#     4  12  28  48  77 111 147 199 251 308 376 442
#     4  12  26  50  76 104 147 194 256 306 361 443
#     4  12  28  48  74 109 146 199 245 305 375 437
#     4  12  28  49  73 108 153 193 243 305 376 446
#
# _framework density 22.793783999999999
#
# number of rings (size 3 to 8) (size 9 to 14) (size 15 to 20)
#    0.000    0.000    2.500    6.000   14.000    0.000 
#    0.000    0.000    0.000    0.000    0.000    0.000 
#    0.000    0.000    0.000    0.000    0.000    0.000 
#
# Total GULP energy -198273.946897 kJ/mol
# GULP energy per Si atom -12392.121681 kJ/mol
# Density = 2.274190 g / cm^3
# Si number density = 22.793784 Si / 1000 Ang^3
#
#
#
# Elastic Constant Matrix: (Units=GPa)
#
#
# Indices 1 2 3 4 5 6 
#
# 1 138.8357 62.4906 80.1911 0.0484 8.0847 -0.0773
# 2 62.4906 195.6000 79.6832 0.0688 21.4811 -0.0194
# 3 80.1911 79.6832 165.0203 0.0172 -12.9384 -0.0123
# 4 0.0484 0.0688 0.0172 70.7529 -0.0170 7.1870
# 5 8.0847 21.4811 -12.9384 -0.0170 84.7329 0.0501
# 6 -0.0773 -0.0194 -0.0123 7.1870 0.0501 37.2069
#
#
#
# Elastic Compliance Matrix: (Units=1/GPa)
#
#
# Indices 1 2 3 4 5 6 
#
# 1 0.010531 -0.001353 -0.004571 -0.000007 -0.001360 0.000023
# 2 -0.001353 0.006933 -0.002852 -0.000006 -0.002064 0.000004
# 3 -0.004571 -0.002852 0.009867 0.000005 0.002666 -0.000012
# 4 -0.000007 -0.000006 0.000005 0.014417 0.000008 -0.002785
# 5 -0.001360 -0.002064 0.002666 0.000008 0.012862 -0.000022
# 6 0.000023 0.000004 -0.000012 -0.002785 -0.000022 0.027415
#
#
# Mechanical properties :
#
#
# Convention : Reuss Voigt Hill
#
# Bulk Modulus (GPa) = 102.25438 104.90953 103.58195
# Shear Modulus (GPa) = 48.62066 57.01128 52.81597
#
# Velocity S-wave (km/s) = 4.62352 5.00660 4.81887
# Velocity P-wave (km/s) = 8.57092 8.91890 8.74664
#
# Compressibility (1/GPa) = 0.00977953
#
# Stress axis : x y z
#
# Youngs Moduli (GPa) = 94.95725 144.22948 101.34514
#
# Poissons Ratio (x) = 0.19516 0.46322
# Poissons Ratio (y) = 0.12849 0.28906
# Poissons Ratio (z) = 0.43403 0.41137
#
# Static dielectric constant tensor:
#      x y z
#    x 4.046760 -0.000160 -0.154090 
#    y -0.000160 4.341120 0.000030 
#    z -0.154090 0.000030 4.229350 
# 
# 
# High freq. dielectric constant tensor:
#      x y z
#    x 1.913720 -0.000010 0.003920 
#    y -0.000010 1.927250 0.000000 
#    z 0.003920 0.000000 1.914190 
# 
# From -- ./inp_files/315165.got.cif
#   From: 2010.06.25/outbox.cif.g09.slc.cpg/sg15_158_cif.got.tgz:315165.got - 2010.06.28 07:06:18.
