data_PCOD8155221
_publ_section_title
;
Structure prediction by ZEFSAII (Michael W. Deem and Ramdas Pophale) SiO2 
 PCOD8155221
Probable space group: P 2 2 2
;
_chemical_formula_sum "Si O2"
_cell_formula_units_Z 25
_cell_length_a 5.157271
_cell_length_b 10.781326
_cell_length_c 22.518470
_cell_angle_alpha 90.000000
_cell_angle_beta 90.000000
_cell_angle_gamma 90.000000
_cell_volume 1252.076921
_symmetry_space_group_name_H-M "P 2 2 2"
_symmetry_group_IT_number 16
_symmetry_cell_setting 'orthorhombic'
loop_
_space_group_symop_operation_xyz
x,y,z
-x,-y,z
x,-y,-z
-x,y,-z
loop_
_atom_site_type_symbol
_atom_site_label
_atom_site_fract_x
_atom_site_fract_y
_atom_site_fract_z
Si Si1 0.000000 0.000000 0.000000
Si Si2 0.929169 0.794333 0.090893
Si Si3 0.500769 0.359273 0.630327
Si Si4 0.428094 0.638636 0.110742
Si Si5 0.001108 0.648351 0.432373
Si Si6 0.066467 0.135230 0.222288
Si Si7 0.578079 0.278966 0.241397
O O1 0.858293 0.902198 0.043357
O O2 0.667605 0.719402 0.090993
O O3 0.994450 0.861162 0.152389
O O4 0.171201 0.698322 0.079110
O O5 0.500000 0.500000 0.608762
O O6 0.250005 0.294520 0.601295
O O7 0.503110 0.358314 0.701712
O O8 0.754800 0.294875 0.602597
O O9 0.500000 0.500000 0.089075
O O10 0.405693 0.636377 0.182517
O O11 0.000000 0.500000 0.428928
O O12 0.000000 0.695035 0.500000
O O13 0.364967 0.170037 0.233996
O O14 0.864512 0.226536 0.254622
O O15 0.000000 0.000000 0.246984
#
# Coordination Sequence:
#
# PCOD8155221 Si02
#       7
#     1   4   4   4   4   4   4
#     4  12  24  46  62  90 112 138 208 232 274 314
#     4  10  23  37  63  84 109 148 179 238 268 325
#     4  10  18  29  45  71 103 136 174 210 248 309
#     4  10  21  40  58  84 116 149 183 213 283 344
#     4   9  17  28  43  64  99 142 176 210 253 297
#     4  10  19  36  52  78 105 134 170 217 277 322
#     4  10  20  31  54  78 106 140 173 215 266 321
#
# _framework density 19.966825
#
# number of rings (size 3 to 8) (size 9 to 14) (size 15 to 20)
#    0.000    2.080    0.800    2.880    0.000    3.840 
#    0.000    7.200    0.000    0.000    0.000    0.000 
#    0.000   44.800    0.000    0.000    0.000    0.000 
#
# Total GULP energy -309745.595620 kJ/mol
# GULP energy per Si atom -12389.823825 kJ/mol
# Density = 1.992138 g / cm^3
# Si number density = 19.966825 Si / 1000 Ang^3
#
#
#
# Elastic Constant Matrix: (Units=GPa)
#
#
# Indices 1 2 3 4 5 6 
#
# 1 130.2902 15.8742 34.9641 0.0000 0.0000 0.0000
# 2 15.8742 60.1211 17.9363 0.0000 0.0000 0.0000
# 3 34.9641 17.9363 93.3204 0.0000 0.0000 0.0000
# 4 0.0000 0.0000 0.0000 15.7069 0.0000 0.0000
# 5 0.0000 0.0000 0.0000 0.0000 5.0528 0.0000
# 6 0.0000 0.0000 0.0000 0.0000 0.0000 11.5097
#
#
#
# Elastic Compliance Matrix: (Units=1/GPa)
#
#
# Indices 1 2 3 4 5 6 
#
# 1 0.008642 -0.001396 -0.002970 0.000000 0.000000 0.000000
# 2 -0.001396 0.017870 -0.002912 0.000000 0.000000 0.000000
# 3 -0.002970 -0.002912 0.012388 0.000000 0.000000 0.000000
# 4 0.000000 0.000000 0.000000 0.063666 0.000000 0.000000
# 5 0.000000 0.000000 0.000000 0.000000 0.197912 0.000000
# 6 0.000000 0.000000 0.000000 0.000000 0.000000 0.086883
#
#
# Mechanical properties :
#
#
# Convention : Reuss Voigt Hill
#
# Bulk Modulus (GPa) = 41.07447 46.80901 43.94174
# Shear Modulus (GPa) = 12.19417 20.78433 16.48925
#
# Velocity S-wave (km/s) = 2.47396 3.22987 2.87685
# Velocity P-wave (km/s) = 5.36439 6.11585 5.75240
#
# Compressibility (1/GPa) = 0.02434602
#
# Stress axis : x y z
#
# Youngs Moduli (GPa) = 115.71171 55.95870 80.72301
#
# Poissons Ratio (x) = 0.07811 0.23972
# Poissons Ratio (y) = 0.16152 0.23504
# Poissons Ratio (z) = 0.34362 0.16294
#
# Static dielectric constant tensor:
#      x y z
#    x 3.959210 0.000000 0.000000 
#    y 0.000000 3.319410 0.000000 
#    z 0.000000 0.000000 3.588890 
# 
# 
# High freq. dielectric constant tensor:
#      x y z
#    x 1.795320 0.000000 0.000000 
#    y 0.000000 1.735470 0.000000 
#    z 0.000000 0.000000 1.771510 
# 
# From -- ./inp_files/9476.got.cif
#   From: 2010.03.12/outbox.cif.g09.slc.cpg/sg16_5_cif.got.tgz:9476.got - 2010.03.31 00:51:45.
