data_PCOD8155122
_publ_section_title
;
Structure prediction by ZEFSAII (Michael W. Deem and Ramdas Pophale) SiO2 
 PCOD8155122
Probable space group: C 2/C
;
_chemical_formula_sum "Si O2"
_cell_formula_units_Z 40
_cell_length_a 23.020682
_cell_length_b 5.257394
_cell_length_c 17.565169
_cell_angle_alpha 90.000000
_cell_angle_beta 48.778786
_cell_angle_gamma 90.000000
_cell_volume 1599.033690
_symmetry_space_group_name_H-M "C 2/C"
_symmetry_group_IT_number 15
_symmetry_cell_setting 'monoclinic'
loop_
_space_group_symop_operation_xyz
x,y,z
-x,y,1/2-z
-x,-y,-z
x,-y,1/2+z
1/2+x,1/2+y,z
1/2-x,1/2+y,1/2-z
1/2-x,1/2-y,-z
1/2+x,1/2-y,1/2+z
loop_
_atom_site_type_symbol
_atom_site_label
_atom_site_fract_x
_atom_site_fract_y
_atom_site_fract_z
Si Si1 0.321952 0.932816 0.450909
Si Si2 0.346112 0.734181 0.060912
Si Si3 0.678128 0.799859 0.696970
Si Si4 0.951657 0.075717 0.360762
Si Si5 0.096706 0.791243 0.824474
O O1 0.250000 0.750000 0.500000
O O2 0.403940 0.799875 0.360345
O O3 0.324147 0.996035 0.539829
O O4 0.315488 0.181132 0.400899
O O5 0.262457 0.626948 0.158689
O O6 0.401280 0.732944 0.085803
O O7 0.388671 0.600463 0.954201
O O8 0.648909 0.522106 0.747373
O O9 0.621364 0.017572 0.773547
O O10 0.000000 0.941010 0.250000
O O11 0.007949 0.174022 0.378511
#
# Coordination Sequence:
#
# PCOD8155122 Si02
#       5
#     8   8   8   8   8
#     4  12  26  48  80 115 153 214 268 324 389 479
#     4  12  28  47  81 111 161 205 267 322 399 471
#     4  12  26  51  78 116 156 206 262 318 393 476
#     4  12  27  48  76 113 156 209 261 329 392 472
#     4  12  29  50  79 118 160 203 259 332 400 468
#
# _framework density 25.015105999999999
#
# number of rings (size 3 to 8) (size 9 to 14) (size 15 to 20)
#    0.000    0.000    4.000    4.800    5.600    1.600 
#    0.000    0.000    0.000    0.000    0.000    0.000 
#    0.000    0.000    0.000    0.000    0.000    0.000 
#
# Total GULP energy -247912.274316 kJ/mol
# GULP energy per Si atom -12395.613716 kJ/mol
# Density = 2.495817 g / cm^3
# Si number density = 25.015106 Si / 1000 Ang^3
#
#
#
# Elastic Constant Matrix: (Units=GPa)
#
#
# Indices 1 2 3 4 5 6 
#
# 1 163.3848 18.7584 37.8735 0.0011 -3.9617 -0.0314
# 2 18.7584 67.3168 20.9102 0.0963 7.5460 -0.0173
# 3 37.8735 20.9102 78.6549 0.1041 -4.1551 -0.0313
# 4 0.0011 0.0963 0.1041 22.3232 0.0059 8.0211
# 5 -3.9617 7.5460 -4.1551 0.0059 56.0626 -0.0046
# 6 -0.0314 -0.0173 -0.0313 8.0211 -0.0046 33.4114
#
#
#
# Elastic Compliance Matrix: (Units=1/GPa)
#
#
# Indices 1 2 3 4 5 6 
#
# 1 0.006957 -0.001036 -0.003053 0.000019 0.000405 -0.000001
# 2 -0.001036 0.016706 -0.004081 -0.000059 -0.002624 0.000018
# 3 -0.003053 -0.004081 0.015347 -0.000063 0.001471 0.000025
# 4 0.000019 -0.000059 -0.000063 0.049026 -0.000002 -0.011770
# 5 0.000405 -0.002624 0.001471 -0.000002 0.018328 0.000003
# 6 -0.000001 0.000018 0.000025 -0.011770 0.000003 0.032756
#
#
# Mechanical properties :
#
#
# Convention : Reuss Voigt Hill
#
# Bulk Modulus (GPa) = 44.11201 51.60452 47.85826
# Shear Modulus (GPa) = 30.67196 37.81372 34.24284
#
# Velocity S-wave (km/s) = 3.50542 3.89219 3.70386
# Velocity P-wave (km/s) = 5.83579 6.39320 6.12084
#
# Compressibility (1/GPa) = 0.02266957
#
# Stress axis : x y z
#
# Youngs Moduli (GPa) = 143.74033 59.86003 65.16075
#
# Poissons Ratio (x) = 0.06199 0.19895
# Poissons Ratio (y) = 0.14886 0.26592
# Poissons Ratio (z) = 0.43887 0.24429
#
# Static dielectric constant tensor:
#      x y z
#    x 4.901760 -0.000450 -0.050410 
#    y -0.000450 4.360810 0.000110 
#    z -0.050410 0.000110 4.631340 
# 
# 
# High freq. dielectric constant tensor:
#      x y z
#    x 2.022780 -0.000030 -0.008240 
#    y -0.000030 1.981340 0.000020 
#    z -0.008240 0.000020 2.004960 
# 
# From -- ./inp_files/254191.got.cif
#   From: 2010.06.25/outbox.cif.g09.slc.cpg/sg15_128_cif.got.tgz:254191.got - 2010.06.28 07:06:18.
