data_PCOD8155983
_publ_section_title
;
Structure prediction by ZEFSAII (Michael W. Deem and Ramdas Pophale) SiO2 
 PCOD8155983
Probable space group: P 21 21 2
;
_chemical_formula_sum "Si O2"
_cell_formula_units_Z 28
_cell_length_a 12.900932
_cell_length_b 12.106531
_cell_length_c 8.865665
_cell_angle_alpha 90.000000
_cell_angle_beta 90.000000
_cell_angle_gamma 90.000000
_cell_volume 1384.688615
_symmetry_space_group_name_H-M "P 21 21 2"
_symmetry_group_IT_number 18
_symmetry_cell_setting 'orthorhombic'
loop_
_space_group_symop_operation_xyz
x,y,z
-x,-y,z
1/2+x,1/2-y,-z
1/2-x,1/2+y,-z
loop_
_atom_site_type_symbol
_atom_site_label
_atom_site_fract_x
_atom_site_fract_y
_atom_site_fract_z
Si Si1 0.119579 0.319329 0.328296
Si Si2 0.132732 0.080949 0.889634
Si Si3 0.500000 0.000000 0.849740
Si Si4 0.559612 0.325851 0.410871
Si Si5 0.500000 0.500000 0.620363
Si Si6 0.850308 0.334200 0.005724
Si Si7 0.350888 0.338928 0.247716
Si Si8 0.513590 0.662534 0.857608
O O1 0.086815 0.287335 0.500617
O O2 0.241511 0.339646 0.330575
O O3 0.086263 0.223150 0.213548
O O4 0.066715 0.429846 0.267981
O O5 0.126103 0.156436 0.739516
O O6 0.234696 0.122285 0.973563
O O7 0.136974 0.950013 0.854257
O O8 0.030004 0.106537 0.988808
O O9 0.571740 0.935498 0.968770
O O10 0.581737 0.430773 0.520165
O O11 0.437184 0.332950 0.376857
O O12 0.562673 0.578094 0.736851
O O13 0.887336 0.241000 0.122974
O O14 0.861528 0.275525 0.844322
#
# Coordination Sequence:
#
# PCOD8155983 Si02
#       8
#     4   4   2   4   2   4   4   4
#     4  10  23  41  66  92 133 174 219 266 346 400
#     4  12  22  41  69 100 130 178 228 276 334 392
#     4  10  22  46  64  94 136 178 216 280 334 398
#     4  11  24  41  66  95 136 168 222 283 330 400
#     4  10  20  38  58  94 122 172 208 272 334 376
#     4  11  23  39  69  96 131 176 220 277 332 398
#     4  12  22  42  68  96 132 177 224 279 334 400
#     4  10  21  38  64  95 128 168 225 272 326 391
#
# _framework density 20.221153000000001
#
# number of rings (size 3 to 8) (size 9 to 14) (size 15 to 20)
#    0.000    1.143    5.714    0.857    0.000    3.429 
#    0.000    0.714    0.000    0.000    0.000    0.000 
#    0.000    0.000    0.000    0.000    0.000    0.000 
#
# Total GULP energy -346930.049611 kJ/mol
# GULP energy per Si atom -12390.358915 kJ/mol
# Density = 2.017513 g / cm^3
# Si number density = 20.221153 Si / 1000 Ang^3
#
#
#
# Elastic Constant Matrix: (Units=GPa)
#
#
# Indices 1 2 3 4 5 6 
#
# 1 109.1016 48.7646 28.3520 0.0000 0.0000 0.0000
# 2 48.7646 112.9542 49.8342 0.0000 0.0000 0.0000
# 3 28.3520 49.8342 99.7953 0.0000 0.0000 0.0000
# 4 0.0000 0.0000 0.0000 41.3662 0.0000 0.0000
# 5 0.0000 0.0000 0.0000 0.0000 24.2364 0.0000
# 6 0.0000 0.0000 0.0000 0.0000 0.0000 21.9754
#
#
#
# Elastic Compliance Matrix: (Units=1/GPa)
#
#
# Indices 1 2 3 4 5 6 
#
# 1 0.011435 -0.004494 -0.001005 0.000000 0.000000 0.000000
# 2 -0.004494 0.013121 -0.005275 0.000000 0.000000 0.000000
# 3 -0.001005 -0.005275 0.012940 0.000000 0.000000 0.000000
# 4 0.000000 0.000000 0.000000 0.024174 0.000000 0.000000
# 5 0.000000 0.000000 0.000000 0.000000 0.041260 0.000000
# 6 0.000000 0.000000 0.000000 0.000000 0.000000 0.045505
#
#
# Mechanical properties :
#
#
# Convention : Reuss Voigt Hill
#
# Bulk Modulus (GPa) = 62.70093 63.97252 63.33673
# Shear Modulus (GPa) = 28.52258 30.50896 29.51577
#
# Velocity S-wave (km/s) = 3.75978 3.88850 3.82468
# Velocity P-wave (km/s) = 7.06561 7.20178 7.13402
#
# Compressibility (1/GPa) = 0.01594873
#
# Stress axis : x y z
#
# Youngs Moduli (GPa) = 87.44802 76.21660 77.27800
#
# Poissons Ratio (x) = 0.34248 0.07766
# Poissons Ratio (y) = 0.39295 0.40766
# Poissons Ratio (z) = 0.08788 0.40206
#
# Static dielectric constant tensor:
#      x y z
#    x 3.533630 0.000000 0.000000 
#    y 0.000000 3.951890 0.000000 
#    z 0.000000 0.000000 3.735850 
# 
# 
# High freq. dielectric constant tensor:
#      x y z
#    x 1.778670 0.000000 0.000000 
#    y 0.000000 1.799040 0.000000 
#    z 0.000000 0.000000 1.789190 
# 
# From -- ./inp_files/4259.got.cif
#   From: 2010.03.12/outbox.cif.g09.slc.cpg/sg18_3_cif.got.tgz:4259.got - 2010.04.10 18:53:55.
