data_PCOD8155996
_publ_section_title
;
Structure prediction by ZEFSAII (Michael W. Deem and Ramdas Pophale) SiO2 
 PCOD8155996
Probable space group: P 21 21 2
;
_chemical_formula_sum "Si O2"
_cell_formula_units_Z 30
_cell_length_a 10.528279
_cell_length_b 8.348762
_cell_length_c 16.687470
_cell_angle_alpha 90.000000
_cell_angle_beta 90.000000
_cell_angle_gamma 90.000000
_cell_volume 1466.796834
_symmetry_space_group_name_H-M "P 21 21 2"
_symmetry_group_IT_number 18
_symmetry_cell_setting 'orthorhombic'
loop_
_space_group_symop_operation_xyz
x,y,z
-x,-y,z
1/2+x,1/2-y,-z
1/2-x,1/2+y,-z
loop_
_atom_site_type_symbol
_atom_site_label
_atom_site_fract_x
_atom_site_fract_y
_atom_site_fract_z
Si Si1 0.647224 0.028660 0.736255
Si Si2 0.259648 0.315759 0.111041
Si Si3 0.757830 0.169876 0.577356
Si Si4 0.130951 0.082694 0.995545
Si Si5 0.336649 0.747807 0.287252
Si Si6 0.000000 0.000000 0.620905
Si Si7 0.147302 0.477584 0.574670
Si Si8 0.026430 0.322960 0.869568
O O1 0.668943 0.122101 0.818869
O O2 0.699756 0.135245 0.663921
O O3 0.500000 0.000000 0.723223
O O4 0.716347 0.857343 0.738847
O O5 0.275152 0.453295 0.044012
O O6 0.396528 0.272843 0.148134
O O7 0.198037 0.156366 0.073491
O O8 0.778559 0.357392 0.568559
O O9 0.660334 0.116869 0.508684
O O10 0.889696 0.073126 0.565038
O O11 0.107427 0.226348 0.933972
O O12 0.000000 0.000000 0.022983
O O13 0.448798 0.639111 0.322132
O O14 0.290656 0.875549 0.353320
O O15 0.392353 0.840667 0.211149
O O16 0.000000 0.500000 0.594136
O O17 0.000000 0.500000 0.903684
#
# Coordination Sequence:
#
# PCOD8155996 Si02
#       8
#     4   4   4   4   4   2   4   4
#     4  11  25  45  66  93 135 180 217 279 342 406
#     4  11  23  43  67  98 135 177 226 280 338 406
#     4  11  24  43  66  98 133 173 224 271 338 391
#     4  10  23  42  65 100 135 176 225 277 342 406
#     4  11  22  42  67  99 130 172 227 274 331 392
#     4  10  20  38  66  94 128 172 214 274 322 386
#     4  12  25  43  69 101 133 175 224 280 326 402
#     4  11  22  38  69  98 130 172 224 280 331 401
#
# _framework density 20.452731
#
# number of rings (size 3 to 8) (size 9 to 14) (size 15 to 20)
#    0.000    1.067    2.667    4.800    2.800    2.667 
#    2.400    0.000    0.000    0.000    0.000    0.000 
#    0.000    0.000    0.000    0.000    0.000    0.000 
#
# Total GULP energy -372203.378149 kJ/mol
# GULP energy per Si atom -12406.779272 kJ/mol
# Density = 2.040618 g / cm^3
# Si number density = 20.452731 Si / 1000 Ang^3
#
#
#
# Elastic Constant Matrix: (Units=GPa)
#
#
# Indices 1 2 3 4 5 6 
#
# 1 78.5470 30.3469 35.3229 0.0000 0.0000 0.0000
# 2 30.3469 125.5204 47.5748 0.0000 0.0000 0.0000
# 3 35.3229 47.5748 109.0121 0.0000 0.0000 0.0000
# 4 0.0000 0.0000 0.0000 37.3449 0.0000 0.0000
# 5 0.0000 0.0000 0.0000 0.0000 24.8127 0.0000
# 6 0.0000 0.0000 0.0000 0.0000 0.0000 30.8672
#
#
#
# Elastic Compliance Matrix: (Units=1/GPa)
#
#
# Indices 1 2 3 4 5 6 
#
# 1 0.015391 -0.002194 -0.004030 0.000000 0.000000 0.000000
# 2 -0.002194 0.009858 -0.003592 0.000000 0.000000 0.000000
# 3 -0.004030 -0.003592 0.012046 0.000000 0.000000 0.000000
# 4 0.000000 0.000000 0.000000 0.026777 0.000000 0.000000
# 5 0.000000 0.000000 0.000000 0.000000 0.040302 0.000000
# 6 0.000000 0.000000 0.000000 0.000000 0.000000 0.032397
#
#
# Mechanical properties :
#
#
# Convention : Reuss Voigt Hill
#
# Bulk Modulus (GPa) = 56.60634 59.95209 58.27922
# Shear Modulus (GPa) = 30.80890 31.92729 31.36809
#
# Velocity S-wave (km/s) = 3.88538 3.95527 3.92048
# Velocity P-wave (km/s) = 6.91845 7.08767 7.00357
#
# Compressibility (1/GPa) = 0.01766586
#
# Stress axis : x y z
#
# Youngs Moduli (GPa) = 64.97321 101.43538 83.01181
#
# Poissons Ratio (x) = 0.22252 0.33452
# Poissons Ratio (y) = 0.14253 0.29815
# Poissons Ratio (z) = 0.26182 0.36432
#
# Static dielectric constant tensor:
#      x y z
#    x 3.782810 0.000000 0.000000 
#    y 0.000000 3.878300 0.000000 
#    z 0.000000 0.000000 3.582710 
# 
# 
# High freq. dielectric constant tensor:
#      x y z
#    x 1.793590 0.000000 0.000000 
#    y 0.000000 1.814050 0.000000 
#    z 0.000000 0.000000 1.797620 
# 
# From -- ./inp_files/6884.got.cif
#   From: 2010.03.12/outbox.cif.g09.slc.cpg/sg18_4_cif.got.tgz:6884.got - 2010.04.10 18:53:55.
