data_PCOD8155323
_publ_section_title
;
Structure prediction by ZEFSAII (Michael W. Deem and Ramdas Pophale) SiO2 
 PCOD8155323
Probable space group: P 2 2 2
;
_chemical_formula_sum "Si O2"
_cell_formula_units_Z 26
_cell_length_a 8.548301
_cell_length_b 16.458341
_cell_length_c 8.882666
_cell_angle_alpha 90.000000
_cell_angle_beta 90.000000
_cell_angle_gamma 90.000000
_cell_volume 1249.709855
_symmetry_space_group_name_H-M "P 2 2 2"
_symmetry_group_IT_number 16
_symmetry_cell_setting 'orthorhombic'
loop_
_space_group_symop_operation_xyz
x,y,z
-x,-y,z
x,-y,-z
-x,y,-z
loop_
_atom_site_type_symbol
_atom_site_label
_atom_site_fract_x
_atom_site_fract_y
_atom_site_fract_z
Si Si1 0.180180 0.515272 0.672487
Si Si2 0.500000 0.787239 0.500000
Si Si3 0.676955 0.318433 0.701937
Si Si4 0.745927 0.912418 0.009269
Si Si5 0.493706 0.086718 0.248287
Si Si6 0.607310 0.391518 0.143063
Si Si7 0.173482 0.262531 0.005017
O O1 0.225314 0.500000 0.500000
O O2 0.196060 0.611338 0.689670
O O3 0.294622 0.467528 0.788458
O O4 0.000000 0.500000 0.711774
O O5 0.348262 0.733681 0.549316
O O6 0.450491 0.842009 0.358646
O O7 0.506232 0.357058 0.730060
O O8 0.740129 0.261614 0.834442
O O9 0.678684 0.897628 0.178196
O O10 0.843463 0.832639 0.958481
O O11 0.607690 0.920051 0.891355
O O12 0.838519 0.000000 0.000000
O O13 0.500000 0.000000 0.335343
O O14 0.500000 0.419031 0.000000
O O15 0.723663 0.317828 0.105455
O O16 0.000000 0.300412 0.000000
#
# Coordination Sequence:
#
# PCOD8155323 Si02
#       7
#     4   2   4   4   4   4   4
#     4  11  24  43  62  87 126 167 206 255 323 393
#     4  12  19  32  57  92 126 148 200 258 311 367
#     4  11  23  36  60  88 119 158 207 263 309 369
#     4   9  18  35  56  83 120 160 203 249 304 365
#     4   9  18  32  56  87 122 160 198 251 310 368
#     4  10  23  41  62  86 119 158 209 259 310 364
#     4  11  22  37  58  87 122 159 208 258 313 377
#
# _framework density 20.804829999999999
#
# number of rings (size 3 to 8) (size 9 to 14) (size 15 to 20)
#    0.000    1.692    1.538    4.385    4.308    5.231 
#    0.000    3.846    0.000    0.000    0.000    0.000 
#    0.000    0.000    0.000    0.000    0.000    0.000 
#
# Total GULP energy -322111.968828 kJ/mol
# GULP energy per Si atom -12388.921878 kJ/mol
# Density = 2.075748 g / cm^3
# Si number density = 20.804830 Si / 1000 Ang^3
#
#
#
# Elastic Constant Matrix: (Units=GPa)
#
#
# Indices 1 2 3 4 5 6 
#
# 1 92.8455 34.9051 23.5823 0.0000 0.0000 0.0000
# 2 34.9051 156.9620 39.8858 0.0000 0.0000 0.0000
# 3 23.5823 39.8858 85.3153 0.0000 0.0000 0.0000
# 4 0.0000 0.0000 0.0000 28.6911 0.0000 0.0000
# 5 0.0000 0.0000 0.0000 0.0000 17.2677 0.0000
# 6 0.0000 0.0000 0.0000 0.0000 0.0000 17.2486
#
#
#
# Elastic Compliance Matrix: (Units=1/GPa)
#
#
# Indices 1 2 3 4 5 6 
#
# 1 0.012165 -0.002100 -0.002381 0.000000 0.000000 0.000000
# 2 -0.002100 0.007592 -0.002969 0.000000 0.000000 0.000000
# 3 -0.002381 -0.002969 0.013767 0.000000 0.000000 0.000000
# 4 0.000000 0.000000 0.000000 0.034854 0.000000 0.000000
# 5 0.000000 0.000000 0.000000 0.000000 0.057911 0.000000
# 6 0.000000 0.000000 0.000000 0.000000 0.000000 0.057976
#
#
# Mechanical properties :
#
#
# Convention : Reuss Voigt Hill
#
# Bulk Modulus (GPa) = 53.69185 59.09659 56.39422
# Shear Modulus (GPa) = 24.34581 28.42479 26.38530
#
# Velocity S-wave (km/s) = 3.42453 3.70030 3.56508
# Velocity P-wave (km/s) = 6.44205 6.83544 6.64166
#
# Compressibility (1/GPa) = 0.01862480
#
# Stress axis : x y z
#
# Youngs Moduli (GPa) = 82.20411 131.70919 72.63585
#
# Poissons Ratio (x) = 0.27662 0.17292
# Poissons Ratio (y) = 0.17265 0.21566
# Poissons Ratio (z) = 0.19570 0.39105
#
# Static dielectric constant tensor:
#      x y z
#    x 3.533340 0.000000 0.000000 
#    y 0.000000 4.162950 0.000000 
#    z 0.000000 0.000000 3.755600 
# 
# 
# High freq. dielectric constant tensor:
#      x y z
#    x 1.786090 0.000000 0.000000 
#    y 0.000000 1.843390 0.000000 
#    z 0.000000 0.000000 1.801380 
# 
# From -- ./inp_files/4175.got.cif
#   From: 2010.03.12/outbox.cif.g09.slc.cpg/sg16_3_cif.got.tgz:4175.got - 2010.03.31 00:51:45.
