data_PCOD8155173
_publ_section_title
;
Structure prediction by ZEFSAII (Michael W. Deem and Ramdas Pophale) SiO2 
 PCOD8155173
Probable space group: C 2/C
;
_chemical_formula_sum "Si O2"
_cell_formula_units_Z 28
_cell_length_a 8.487362
_cell_length_b 5.049785
_cell_length_c 28.252408
_cell_angle_alpha 90.000000
_cell_angle_beta 64.313452
_cell_angle_gamma 90.000000
_cell_volume 1091.219342
_symmetry_space_group_name_H-M "C 2/C"
_symmetry_group_IT_number 15
_symmetry_cell_setting 'monoclinic'
loop_
_space_group_symop_operation_xyz
x,y,z
-x,y,1/2-z
-x,-y,-z
x,-y,1/2+z
1/2+x,1/2+y,z
1/2-x,1/2+y,1/2-z
1/2-x,1/2-y,-z
1/2+x,1/2-y,1/2+z
loop_
_atom_site_type_symbol
_atom_site_label
_atom_site_fract_x
_atom_site_fract_y
_atom_site_fract_z
Si Si1 0.184331 0.112573 0.962009
Si Si2 0.035992 0.378455 0.892023
Si Si3 0.000000 0.607743 0.750000
Si Si4 0.855759 0.882748 0.678094
O O1 0.155600 0.309985 0.921771
O O2 0.328608 0.891203 0.929971
O O3 0.250000 0.250000 0.000000
O O4 0.000000 0.000000 0.000000
O O5 0.103282 0.664921 0.866837
O O6 0.059888 0.161603 0.848059
O O7 0.931010 0.803069 0.718756
O O8 0.851876 0.417315 0.790355
#
# Coordination Sequence:
#
# PCOD8155173 Si02
#       4
#     8   8   4   8
#     4  12  28  50  78 114 154 202 255 316 382 455
#     4  12  29  52  80 115 156 204 257 317 384 457
#     4  12  30  52  80 116 156 204 258 318 384 456
#     4  12  30  52  80 115 156 204 257 318 384 457
#
# _framework density 25.659365999999999
#
# number of rings (size 3 to 8) (size 9 to 14) (size 15 to 20)
#    0.000    0.000    0.000    6.857    0.000   30.857 
#    0.000    0.000    0.000    0.000    0.000    0.000 
#    0.000    0.000    0.000    0.000    0.000    0.000 
#
# Total GULP energy -173693.960495 kJ/mol
# GULP energy per Si atom -12406.711464 kJ/mol
# Density = 2.560096 g / cm^3
# Si number density = 25.659366 Si / 1000 Ang^3
#
#
#
# Elastic Constant Matrix: (Units=GPa)
#
#
# Indices 1 2 3 4 5 6 
#
# 1 196.1696 25.1472 66.4235 0.0000 17.5647 0.0000
# 2 25.1472 110.1104 21.5955 0.0000 -34.3008 0.0000
# 3 66.4235 21.5955 121.9011 -0.0001 -4.9075 0.0000
# 4 0.0000 0.0000 -0.0001 37.5015 0.0000 -25.0282
# 5 17.5647 -34.3008 -4.9075 0.0000 56.8924 0.0000
# 6 0.0000 0.0000 0.0000 -25.0282 0.0000 87.1143
#
#
#
# Elastic Compliance Matrix: (Units=1/GPa)
#
#
# Indices 1 2 3 4 5 6 
#
# 1 0.006880 -0.002012 -0.003539 0.000000 -0.003642 0.000000
# 2 -0.002012 0.012139 -0.000737 0.000000 0.007876 0.000000
# 3 -0.003539 -0.000737 0.010324 0.000000 0.001539 0.000000
# 4 0.000000 0.000000 0.000000 0.032992 0.000000 0.009479
# 5 -0.003642 0.007876 0.001539 0.000000 0.023583 0.000000
# 6 0.000000 0.000000 0.000000 0.009479 0.000000 0.014202
#
#
# Mechanical properties :
#
#
# Convention : Reuss Voigt Hill
#
# Bulk Modulus (GPa) = 59.63916 72.72373 66.18145
# Shear Modulus (GPa) = 42.27029 57.30264 49.78646
#
# Velocity S-wave (km/s) = 4.06318 4.73081 4.40964
# Velocity P-wave (km/s) = 6.73095 7.63179 7.19548
#
# Compressibility (1/GPa) = 0.01676751
#
# Stress axis : x y z
#
# Youngs Moduli (GPa) = 145.34871 82.37589 96.85801
#
# Poissons Ratio (x) = 0.16572 0.34279
# Poissons Ratio (y) = 0.29241 0.07141
# Poissons Ratio (z) = 0.51441 0.06073
#
# Static dielectric constant tensor:
#      x y z
#    x 4.445770 0.000000 -0.093580 
#    y 0.000000 4.613960 0.000000 
#    z -0.093580 0.000000 5.307180 
# 
# 
# High freq. dielectric constant tensor:
#      x y z
#    x 2.049160 0.000000 -0.000020 
#    y 0.000000 2.027390 0.000000 
#    z -0.000020 0.000000 2.055220 
# 
# From -- ./inp_files/284968.got.cif
#   From: 2010.06.25/outbox.cif.g09.slc.cpg/sg15_143_cif.got.tgz:284968.got - 2010.06.28 07:06:18.
