data_PCOD8155721
_publ_section_title
;
Structure prediction by ZEFSAII (Michael W. Deem and Ramdas Pophale) SiO2 
 PCOD8155721
Probable space group: P 2 2 21
;
_chemical_formula_sum "Si O2"
_cell_formula_units_Z 28
_cell_length_a 12.244175
_cell_length_b 5.204448
_cell_length_c 20.904552
_cell_angle_alpha 90.000000
_cell_angle_beta 90.000000
_cell_angle_gamma 90.000000
_cell_volume 1332.125269
_symmetry_space_group_name_H-M "P 2 2 21"
_symmetry_group_IT_number 17
_symmetry_cell_setting 'orthorhombic'
loop_
_space_group_symop_operation_xyz
x,y,z
-x,-y,1/2+z
x,-y,-z
-x,y,1/2-z
loop_
_atom_site_type_symbol
_atom_site_label
_atom_site_fract_x
_atom_site_fract_y
_atom_site_fract_z
Si Si1 0.562742 0.892346 0.816465
Si Si2 0.948718 0.020700 0.361304
Si Si3 0.748851 0.270955 0.656181
Si Si4 0.306512 0.614746 0.294071
Si Si5 0.399195 0.956149 0.930382
Si Si6 0.054444 0.540825 0.316282
Si Si7 0.184018 0.658223 0.939528
O O1 0.500000 0.942107 0.750000
O O2 0.622296 0.622608 0.816050
O O3 0.484971 0.863366 0.877878
O O4 0.647679 0.126136 0.826951
O O5 0.903533 0.109477 0.431167
O O6 0.019155 0.248358 0.329983
O O7 0.833295 0.958144 0.323453
O O8 0.019220 0.759753 0.367658
O O9 0.681882 0.362247 0.717455
O O10 0.824842 0.495613 0.626732
O O11 0.663146 0.199771 0.600322
O O12 0.183968 0.554897 0.314161
O O13 0.308444 0.744617 0.947253
O O14 0.456456 0.000000 0.000000
O O15 0.000000 0.632139 0.250000
O O16 0.144297 0.500000 0.000000
#
# Coordination Sequence:
#
# PCOD8155721 Si02
#       7
#     4   4   4   4   4   4   4
#     4  12  26  43  67  98 138 177 223 282 343 405
#     4  11  23  38  62  98 134 171 214 269 334 408
#     4  11  22  41  63 103 135 169 218 282 337 414
#     4  12  26  42  66  98 138 174 226 279 337 405
#     4  11  24  41  69 101 137 180 227 279 351 415
#     4  12  23  39  65  93 134 176 217 266 336 407
#     4  11  22  39  68 100 137 169 222 284 349 411
#
# _framework density 21.019043
#
# number of rings (size 3 to 8) (size 9 to 14) (size 15 to 20)
#    0.000    0.571    5.714    2.571    6.000    0.000 
#    0.000    0.000    0.000    3.429    0.000    0.000 
#    0.000    0.000    0.000    0.000    0.000    0.000 
#
# Total GULP energy -347022.344704 kJ/mol
# GULP energy per Si atom -12393.655168 kJ/mol
# Density = 2.097120 g / cm^3
# Si number density = 21.019043 Si / 1000 Ang^3
#
#
#
# Elastic Constant Matrix: (Units=GPa)
#
#
# Indices 1 2 3 4 5 6 
#
# 1 87.5319 21.9081 47.4538 0.0000 0.0000 0.0000
# 2 21.9081 113.2205 33.3340 0.0000 0.0000 0.0000
# 3 47.4538 33.3340 109.1160 0.0000 0.0000 0.0000
# 4 0.0000 0.0000 0.0000 23.5271 0.0000 0.0000
# 5 0.0000 0.0000 0.0000 0.0000 21.3018 0.0000
# 6 0.0000 0.0000 0.0000 0.0000 0.0000 38.5461
#
#
#
# Elastic Compliance Matrix: (Units=1/GPa)
#
#
# Indices 1 2 3 4 5 6 
#
# 1 0.015069 -0.001084 -0.006222 0.000000 0.000000 0.000000
# 2 -0.001084 0.009783 -0.002517 0.000000 0.000000 0.000000
# 3 -0.006222 -0.002517 0.012640 0.000000 0.000000 0.000000
# 4 0.000000 0.000000 0.000000 0.042504 0.000000 0.000000
# 5 0.000000 0.000000 0.000000 0.000000 0.046944 0.000000
# 6 0.000000 0.000000 0.000000 0.000000 0.000000 0.025943
#
#
# Mechanical properties :
#
#
# Convention : Reuss Voigt Hill
#
# Bulk Modulus (GPa) = 56.03868 57.25116 56.64492
# Shear Modulus (GPa) = 28.01457 30.48649 29.25053
#
# Velocity S-wave (km/s) = 3.65474 3.81257 3.73449
# Velocity P-wave (km/s) = 6.67295 6.83212 6.75300
#
# Compressibility (1/GPa) = 0.01784482
#
# Stress axis : x y z
#
# Youngs Moduli (GPa) = 66.36144 102.21608 79.11637
#
# Poissons Ratio (x) = 0.11079 0.49228
# Poissons Ratio (y) = 0.07193 0.19916
# Poissons Ratio (z) = 0.41292 0.25731
#
# Static dielectric constant tensor:
#      x y z
#    x 3.883760 0.000000 0.000000 
#    y 0.000000 4.122280 0.000000 
#    z 0.000000 0.000000 3.688800 
# 
# 
# High freq. dielectric constant tensor:
#      x y z
#    x 1.815580 0.000000 0.000000 
#    y 0.000000 1.846920 0.000000 
#    z 0.000000 0.000000 1.796090 
# 
# From -- ./inp_files/10196.got.cif
#   From: 2010.03.12/outbox.cif.g09.slc.cpg/sg17_6_cif.got.tgz:10196.got - 2010.04.10 18:46:23.
