data_PCOD8155935
_publ_section_title
;
Structure prediction by ZEFSAII (Michael W. Deem and Ramdas Pophale) SiO2 
 PCOD8155935
Probable space group: P 21 21 2
;
_chemical_formula_sum "Si O2"
_cell_formula_units_Z 32
_cell_length_a 8.517708
_cell_length_b 18.291873
_cell_length_c 10.922432
_cell_angle_alpha 90.000000
_cell_angle_beta 90.000000
_cell_angle_gamma 90.000000
_cell_volume 1701.767694
_symmetry_space_group_name_H-M "P 21 21 2"
_symmetry_group_IT_number 18
_symmetry_cell_setting 'orthorhombic'
loop_
_space_group_symop_operation_xyz
x,y,z
-x,-y,z
1/2+x,1/2-y,-z
1/2-x,1/2+y,-z
loop_
_atom_site_type_symbol
_atom_site_label
_atom_site_fract_x
_atom_site_fract_y
_atom_site_fract_z
Si Si1 0.321343 0.867851 0.317952
Si Si2 0.528691 0.219628 0.949432
Si Si3 0.144278 0.162435 0.588976
Si Si4 0.490120 0.582631 0.620158
Si Si5 0.731311 0.325152 0.787442
Si Si6 0.992647 0.583639 0.908365
Si Si7 0.572859 0.794302 0.441357
Si Si8 0.812041 0.778598 0.829962
O O1 0.375019 0.921111 0.207842
O O2 0.455547 0.863153 0.422110
O O3 0.299970 0.786816 0.265776
O O4 0.168143 0.891635 0.388524
O O5 0.648476 0.257953 0.857343
O O6 0.350650 0.216335 0.902785
O O7 0.579042 0.135726 0.983830
O O8 0.542921 0.266408 0.076503
O O9 0.097694 0.089808 0.512295
O O10 0.320376 0.187809 0.557024
O O11 0.145844 0.153110 0.738034
O O12 0.019481 0.219837 0.533438
O O13 0.500000 0.500000 0.660671
O O14 0.401547 0.624299 0.728580
O O15 0.829631 0.284497 0.683649
O O16 0.840947 0.377662 0.871999
O O17 0.000000 0.500000 0.957114
#
# Coordination Sequence:
#
# PCOD8155935 Si02
#       8
#     4   4   4   4   4   4   4   4
#     4   9  18  34  54  84 110 142 190 240 291 341
#     4  11  20  35  59  82 114 149 203 243 284 340
#     4  10  20  34  53  82 113 141 182 229 293 346
#     4  11  21  35  58  84 120 152 189 241 301 355
#     4  10  20  35  57  88 108 151 200 245 287 347
#     4  10  20  35  55  83 122 152 189 244 309 356
#     4   9  19  32  56  82 106 135 180 239 287 337
#     4  10  20  34  56  82 110 145 191 246 276 333
#
# _framework density 18.803975999999999
#
# number of rings (size 3 to 8) (size 9 to 14) (size 15 to 20)
#    0.000    2.000    2.500    3.000    1.750    0.000 
#    0.000    0.000    2.750    0.750    0.000    0.000 
#    0.000    0.000    0.000    0.000    0.000    0.000 
#
# Total GULP energy -396458.182140 kJ/mol
# GULP energy per Si atom -12389.318192 kJ/mol
# Density = 1.876118 g / cm^3
# Si number density = 18.803976 Si / 1000 Ang^3
#
#
#
# Elastic Constant Matrix: (Units=GPa)
#
#
# Indices 1 2 3 4 5 6 
#
# 1 101.0632 26.7966 36.8551 0.0000 0.0000 0.0000
# 2 26.7966 69.6126 27.3999 0.0000 0.0000 0.0000
# 3 36.8551 27.3999 88.2459 0.0000 0.0000 0.0000
# 4 0.0000 0.0000 0.0000 63.9492 0.0000 0.0000
# 5 0.0000 0.0000 0.0000 0.0000 24.4975 0.0000
# 6 0.0000 0.0000 0.0000 0.0000 0.0000 18.2878
#
#
#
# Elastic Compliance Matrix: (Units=1/GPa)
#
#
# Indices 1 2 3 4 5 6 
#
# 1 0.012223 -0.003071 -0.004151 0.000000 0.000000 0.000000
# 2 -0.003071 0.017137 -0.004038 0.000000 0.000000 0.000000
# 3 -0.004151 -0.004038 0.014320 0.000000 0.000000 0.000000
# 4 0.000000 0.000000 0.000000 0.015637 0.000000 0.000000
# 5 0.000000 0.000000 0.000000 0.000000 0.040821 0.000000
# 6 0.000000 0.000000 0.000000 0.000000 0.000000 0.054681
#
#
# Mechanical properties :
#
#
# Convention : Reuss Voigt Hill
#
# Bulk Modulus (GPa) = 47.26324 49.00278 48.13301
# Shear Modulus (GPa) = 27.11604 32.53823 29.82713
#
# Velocity S-wave (km/s) = 3.80154 4.16431 3.98705
# Velocity P-wave (km/s) = 6.66770 7.01700 6.84458
#
# Compressibility (1/GPa) = 0.02115809
#
# Stress axis : x y z
#
# Youngs Moduli (GPa) = 81.81337 58.35364 69.83456
#
# Poissons Ratio (x) = 0.17921 0.28990
# Poissons Ratio (y) = 0.25126 0.28201
# Poissons Ratio (z) = 0.33963 0.23565
#
# Static dielectric constant tensor:
#      x y z
#    x 3.085510 0.000000 0.000000 
#    y 0.000000 4.265000 0.000000 
#    z 0.000000 0.000000 3.635960 
# 
# 
# High freq. dielectric constant tensor:
#      x y z
#    x 1.744900 0.000000 0.000000 
#    y 0.000000 1.691870 0.000000 
#    z 0.000000 0.000000 1.726130 
# 
# From -- ./inp_files/5741.got.cif
#   From: 2010.03.12/outbox.cif.g09.slc.cpg/sg18_3_cif.got.tgz:5741.got - 2010.04.10 18:53:55.
