data_PCOD8155903
_publ_section_title
;
Structure prediction by ZEFSAII (Michael W. Deem and Ramdas Pophale) SiO2 
 PCOD8155903
Probable space group: P 21 21 2
;
_chemical_formula_sum "Si O2"
_cell_formula_units_Z 32
_cell_length_a 16.789992
_cell_length_b 11.819659
_cell_length_c 8.404795
_cell_angle_alpha 90.000000
_cell_angle_beta 90.000000
_cell_angle_gamma 90.000000
_cell_volume 1667.948210
_symmetry_space_group_name_H-M "P 21 21 2"
_symmetry_group_IT_number 18
_symmetry_cell_setting 'orthorhombic'
loop_
_space_group_symop_operation_xyz
x,y,z
-x,-y,z
1/2+x,1/2-y,-z
1/2-x,1/2+y,-z
loop_
_atom_site_type_symbol
_atom_site_label
_atom_site_fract_x
_atom_site_fract_y
_atom_site_fract_z
Si Si1 0.845444 0.529181 0.316066
Si Si2 0.185772 0.633412 0.580069
Si Si3 0.314449 0.455677 0.112643
Si Si4 0.327105 0.768993 0.452154
Si Si5 0.558232 0.396202 0.275883
Si Si6 0.582733 0.753679 0.172825
Si Si7 0.278014 0.939245 0.196482
Si Si8 0.416600 0.030953 0.994531
O O1 0.846487 0.414964 0.416200
O O2 0.762393 0.529064 0.221536
O O3 0.864762 0.636129 0.430312
O O4 0.915030 0.510590 0.187880
O O5 0.250709 0.728748 0.549398
O O6 0.106549 0.675369 0.670498
O O7 0.233899 0.536879 0.674712
O O8 0.378657 0.554956 0.147860
O O9 0.349148 0.337283 0.161842
O O10 0.297033 0.447009 0.923522
O O11 0.391760 0.668618 0.415738
O O12 0.292527 0.820380 0.286800
O O13 0.500000 0.500000 0.339290
O O14 0.504620 0.301499 0.188354
O O15 0.591849 0.833502 0.017405
O O16 0.355059 0.957698 0.091735
O O17 0.500000 0.000000 0.072708
#
# Coordination Sequence:
#
# PCOD8155903 Si02
#       8
#     4   4   4   4   4   4   4   4
#     4  10  21  36  60  89 116 148 201 254 287 349
#     4  10  20  36  58  88 116 148 202 246 290 365
#     4  10  19  38  57  90 115 147 203 242 293 355
#     4  11  20  37  62  87 117 160 192 250 306 350
#     4  10  22  37  62  88 123 162 199 242 304 376
#     4  10  21  37  60  83 115 163 192 241 302 362
#     4   9  22  34  59  87 111 151 199 247 289 353
#     4  10  21  39  54  83 118 150 198 245 286 350
#
# _framework density 19.185245999999999
#
# number of rings (size 3 to 8) (size 9 to 14) (size 15 to 20)
#    0.000    2.000    2.500    0.750    1.750    2.000 
#    2.250    1.250    2.750    0.000    0.000    0.000 
#    0.000    0.000    0.000    0.000    0.000    0.000 
#
# Total GULP energy -396522.648889 kJ/mol
# GULP energy per Si atom -12391.332778 kJ/mol
# Density = 1.914158 g / cm^3
# Si number density = 19.185246 Si / 1000 Ang^3
#
#
#
# Elastic Constant Matrix: (Units=GPa)
#
#
# Indices 1 2 3 4 5 6 
#
# 1 76.9158 29.9276 26.8265 0.0000 0.0000 0.0000
# 2 29.9276 90.6682 39.4117 0.0000 0.0000 0.0000
# 3 26.8265 39.4117 98.0998 0.0000 0.0000 0.0000
# 4 0.0000 0.0000 0.0000 24.2473 0.0000 0.0000
# 5 0.0000 0.0000 0.0000 0.0000 5.5149 0.0000
# 6 0.0000 0.0000 0.0000 0.0000 0.0000 30.1282
#
#
#
# Elastic Compliance Matrix: (Units=1/GPa)
#
#
# Indices 1 2 3 4 5 6 
#
# 1 0.015461 -0.003956 -0.002638 0.000000 0.000000 0.000000
# 2 -0.003956 0.014375 -0.004693 0.000000 0.000000 0.000000
# 3 -0.002638 -0.004693 0.012801 0.000000 0.000000 0.000000
# 4 0.000000 0.000000 0.000000 0.041242 0.000000 0.000000
# 5 0.000000 0.000000 0.000000 0.000000 0.181327 0.000000
# 6 0.000000 0.000000 0.000000 0.000000 0.000000 0.033192
#
#
# Mechanical properties :
#
#
# Convention : Reuss Voigt Hill
#
# Bulk Modulus (GPa) = 49.84928 50.89060 50.36994
# Shear Modulus (GPa) = 15.25968 23.27927 19.26948
#
# Velocity S-wave (km/s) = 2.82332 3.48716 3.17265
# Velocity P-wave (km/s) = 6.05539 6.54196 6.30337
#
# Compressibility (1/GPa) = 0.02006047
#
# Stress axis : x y z
#
# Youngs Moduli (GPa) = 64.67937 69.56392 78.12023
#
# Poissons Ratio (x) = 0.27522 0.20612
# Poissons Ratio (y) = 0.25590 0.36665
# Poissons Ratio (z) = 0.17065 0.32649
#
# Static dielectric constant tensor:
#      x y z
#    x 3.568890 0.000000 0.000000 
#    y 0.000000 3.701350 0.000000 
#    z 0.000000 0.000000 3.656830 
# 
# 
# High freq. dielectric constant tensor:
#      x y z
#    x 1.740870 0.000000 0.000000 
#    y 0.000000 1.757160 0.000000 
#    z 0.000000 0.000000 1.738480 
# 
# From -- ./inp_files/4027.got.cif
#   From: 2010.03.12/outbox.cif.g09.slc.cpg/sg18_3_cif.got.tgz:4027.got - 2010.04.10 18:53:55.
