data_PCOD8155869
_publ_section_title
;
Structure prediction by ZEFSAII (Michael W. Deem and Ramdas Pophale) SiO2 
 PCOD8155869
Probable space group: P 21 21 2
;
_chemical_formula_sum "Si O2"
_cell_formula_units_Z 20
_cell_length_a 4.888801
_cell_length_b 12.047527
_cell_length_c 16.558426
_cell_angle_alpha 90.000000
_cell_angle_beta 90.000000
_cell_angle_gamma 90.000000
_cell_volume 975.257546
_symmetry_space_group_name_H-M "P 21 21 2"
_symmetry_group_IT_number 18
_symmetry_cell_setting 'orthorhombic'
loop_
_space_group_symop_operation_xyz
x,y,z
-x,-y,z
1/2+x,1/2-y,-z
1/2-x,1/2+y,-z
loop_
_atom_site_type_symbol
_atom_site_label
_atom_site_fract_x
_atom_site_fract_y
_atom_site_fract_z
Si Si1 0.591808 0.873720 0.936938
Si Si2 0.384927 0.888117 0.510795
Si Si3 0.897956 0.265670 0.893893
Si Si4 0.120679 0.166514 0.409923
Si Si5 0.753603 0.928104 0.243720
O O1 0.393697 0.791137 0.891151
O O2 0.885399 0.836420 0.900727
O O3 0.500000 0.000000 0.919167
O O4 0.570850 0.852393 0.032643
O O5 0.570169 0.858870 0.434019
O O6 0.420738 0.798681 0.581991
O O7 0.082829 0.897147 0.471990
O O8 0.500000 0.000000 0.551122
O O9 0.898741 0.339258 0.813534
O O10 0.084850 0.130068 0.317688
O O11 0.500000 0.000000 0.276408
O O12 0.000000 0.000000 0.200750
#
# Coordination Sequence:
#
# PCOD8155869 Si02
#       5
#     4   4   4   4   4
#     4  10  20  38  60  82 114 153 191 237 283 337
#     4  10  19  35  56  80 111 146 184 227 269 323
#     4  10  22  36  57  89 115 146 196 234 283 351
#     4  10  21  34  55  84 110 143 187 224 273 335
#     4  12  23  37  58  85 118 148 182 240 295 336
#
# _framework density 20.507403
#
# number of rings (size 3 to 8) (size 9 to 14) (size 15 to 20)
#    0.000    1.600    0.000    6.000    0.000    3.200 
#    0.000    1.000    0.000    7.200    0.000    5.600 
#    0.000    0.000    0.000    0.000    0.000    0.000 
#
# Total GULP energy -247842.307491 kJ/mol
# GULP energy per Si atom -12392.115375 kJ/mol
# Density = 2.046073 g / cm^3
# Si number density = 20.507403 Si / 1000 Ang^3
#
#
#
# Elastic Constant Matrix: (Units=GPa)
#
#
# Indices 1 2 3 4 5 6 
#
# 1 82.3763 20.6253 25.2304 0.0000 0.0000 0.0000
# 2 20.6253 129.4429 49.1455 0.0000 0.0000 0.0000
# 3 25.2304 49.1455 78.7947 0.0000 0.0000 0.0000
# 4 0.0000 0.0000 0.0000 23.4122 0.0000 0.0000
# 5 0.0000 0.0000 0.0000 0.0000 21.8624 0.0000
# 6 0.0000 0.0000 0.0000 0.0000 0.0000 26.7413
#
#
#
# Elastic Compliance Matrix: (Units=1/GPa)
#
#
# Indices 1 2 3 4 5 6 
#
# 1 0.013503 -0.000668 -0.003907 0.000000 0.000000 0.000000
# 2 -0.000668 0.010156 -0.006120 0.000000 0.000000 0.000000
# 3 -0.003907 -0.006120 0.017760 0.000000 0.000000 0.000000
# 4 0.000000 0.000000 0.000000 0.042713 0.000000 0.000000
# 5 0.000000 0.000000 0.000000 0.000000 0.045741 0.000000
# 6 0.000000 0.000000 0.000000 0.000000 0.000000 0.037395
#
#
# Mechanical properties :
#
#
# Convention : Reuss Voigt Hill
#
# Bulk Modulus (GPa) = 49.93140 53.40183 51.66662
# Shear Modulus (GPa) = 25.59716 27.44401 26.52059
#
# Velocity S-wave (km/s) = 3.53681 3.66218 3.60004
# Velocity P-wave (km/s) = 6.40933 6.63166 6.52144
#
# Compressibility (1/GPa) = 0.02002748
#
# Stress axis : x y z
#
# Youngs Moduli (GPa) = 74.05551 98.46836 56.30776
#
# Poissons Ratio (x) = 0.06580 0.22000
# Poissons Ratio (y) = 0.04949 0.34462
# Poissons Ratio (z) = 0.28934 0.60265
#
# Static dielectric constant tensor:
#      x y z
#    x 3.944360 0.000000 0.000000 
#    y 0.000000 4.026170 0.000000 
#    z 0.000000 0.000000 3.261550 
# 
# 
# High freq. dielectric constant tensor:
#      x y z
#    x 1.825690 0.000000 0.000000 
#    y 0.000000 1.812350 0.000000 
#    z 0.000000 0.000000 1.757840 
# 
# From -- ./inp_files/6419.got.cif
#   From: 2010.03.12/outbox.cif.g09.slc.cpg/sg18_4_cif.got.tgz:6419.got - 2010.04.10 18:53:55.
