data_PCOD8155954
_publ_section_title
;
Structure prediction by ZEFSAII (Michael W. Deem and Ramdas Pophale) SiO2 
 PCOD8155954
Probable space group: P 21 21 2
;
_chemical_formula_sum "Si O2"
_cell_formula_units_Z 22
_cell_length_a 8.345536
_cell_length_b 8.385236
_cell_length_c 15.784071
_cell_angle_alpha 90.000000
_cell_angle_beta 90.000000
_cell_angle_gamma 90.000000
_cell_volume 1104.558065
_symmetry_space_group_name_H-M "P 21 21 2"
_symmetry_group_IT_number 18
_symmetry_cell_setting 'orthorhombic'
loop_
_space_group_symop_operation_xyz
x,y,z
-x,-y,z
1/2+x,1/2-y,-z
1/2-x,1/2+y,-z
loop_
_atom_site_type_symbol
_atom_site_label
_atom_site_fract_x
_atom_site_fract_y
_atom_site_fract_z
Si Si1 0.000000 0.500000 0.713845
Si Si2 0.255856 0.982914 0.142640
Si Si3 0.500000 0.000000 0.713584
Si Si4 0.500000 0.000000 0.998467
Si Si5 0.240894 0.562553 0.429641
Si Si6 0.530321 0.245457 0.855899
Si Si7 0.563141 0.758723 0.429335
O O1 0.142701 0.444880 0.774028
O O2 0.066339 0.649303 0.659826
O O3 0.199776 0.166051 0.132640
O O4 0.350838 0.949245 0.056441
O O5 0.107259 0.871213 0.157948
O O6 0.648120 0.930272 0.659395
O O7 0.438577 0.858871 0.772875
O O8 0.528070 0.849603 0.938295
O O9 0.384486 0.689223 0.438869
O O10 0.307815 0.383139 0.437806
O O11 0.108603 0.608296 0.500452
#
# Coordination Sequence:
#
# PCOD8155954 Si02
#       7
#     2   4   2   2   4   4   4
#     4  11  21  37  57  82 114 148 189 235 285 343
#     4  10  21  36  56  82 111 145 184 229 281 337
#     4  11  21  37  57  82 114 148 189 235 285 343
#     4  10  20  36  58  80 110 144 182 228 276 338
#     4  11  23  39  60  85 116 154 196 243 293 348
#     4  10  21  36  56  82 111 145 184 229 281 337
#     4  11  23  39  60  85 116 154 196 243 293 348
#
# _framework density 19.917466999999998
#
# number of rings (size 3 to 8) (size 9 to 14) (size 15 to 20)
#    0.000    1.455    0.000    6.000    0.000    0.000 
#    0.000    3.636    0.000   17.455    0.000    0.000 
#    0.000    0.000    0.000    0.000    0.000    0.000 
#
# Total GULP energy -272696.909996 kJ/mol
# GULP energy per Si atom -12395.314091 kJ/mol
# Density = 1.987213 g / cm^3
# Si number density = 19.917467 Si / 1000 Ang^3
#
#
#
# Elastic Constant Matrix: (Units=GPa)
#
#
# Indices 1 2 3 4 5 6 
#
# 1 92.5075 39.9351 50.0105 0.0000 0.0000 0.0000
# 2 39.9351 99.9318 54.1932 0.0000 0.0000 0.0000
# 3 50.0105 54.1932 145.2259 0.0000 0.0000 0.0000
# 4 0.0000 0.0000 0.0000 15.3357 0.0000 0.0000
# 5 0.0000 0.0000 0.0000 0.0000 -37.1744 0.0000
# 6 0.0000 0.0000 0.0000 0.0000 0.0000 35.8600
#
#
#
# Elastic Compliance Matrix: (Units=1/GPa)
#
#
# Indices 1 2 3 4 5 6 
#
# 1 0.014366 -0.003834 -0.003516 0.000000 0.000000 0.000000
# 2 -0.003834 0.013569 -0.003743 0.000000 0.000000 0.000000
# 3 -0.003516 -0.003743 0.009494 0.000000 0.000000 0.000000
# 4 0.000000 0.000000 0.000000 0.065207 0.000000 0.000000
# 5 0.000000 0.000000 0.000000 0.000000 -0.026900 0.000000
# 6 0.000000 0.000000 0.000000 0.000000 0.000000 0.027886
#
#
# Mechanical properties :
#
#
# Convention : Reuss Voigt Hill
#
# Bulk Modulus (GPa) = 65.61107 69.54921 67.58014
# Shear Modulus (GPa) = 38.20011 15.70601 26.95306
#
# Velocity S-wave (km/s) = 4.38416 2.81117 3.68263
# Velocity P-wave (km/s) = 7.65773 6.74770 7.21707
#
# Compressibility (1/GPa) = 0.01524133
#
# Stress axis : x y z
#
# Youngs Moduli (GPa) = 69.60833 73.69785 105.33464
#
# Poissons Ratio (x) = 0.28256 0.37040
# Poissons Ratio (y) = 0.26688 0.39428
# Poissons Ratio (z) = 0.24477 0.27586
#
# Static dielectric constant tensor:
#      x y z
#    x 3.751170 0.000000 0.000000 
#    y 0.000000 3.803070 0.000000 
#    z 0.000000 0.000000 3.599510 
# 
# 
# High freq. dielectric constant tensor:
#      x y z
#    x 1.785740 0.000000 0.000000 
#    y 0.000000 1.787060 0.000000 
#    z 0.000000 0.000000 1.783190 
# 
# From -- ./inp_files/6676.got.cif
#   From: 2010.03.12/outbox.cif.g09.slc.cpg/sg18_4_cif.got.tgz:6676.got - 2010.04.10 18:53:55.
