data_PCOD8155012
_publ_section_title
;
Structure prediction by ZEFSAII (Michael W. Deem and Ramdas Pophale) SiO2 
 PCOD8155012
Probable space group: C 2/C
;
_chemical_formula_sum "Si O2"
_cell_formula_units_Z 36
_cell_length_a 22.166265
_cell_length_b 8.552947
_cell_length_c 8.335642
_cell_angle_alpha 90.000000
_cell_angle_beta 116.066406
_cell_angle_gamma 90.000000
_cell_volume 1419.585917
_symmetry_space_group_name_H-M "C 2/C"
_symmetry_group_IT_number 15
_symmetry_cell_setting 'monoclinic'
loop_
_space_group_symop_operation_xyz
x,y,z
-x,y,1/2-z
-x,-y,-z
x,-y,1/2+z
1/2+x,1/2+y,z
1/2-x,1/2+y,1/2-z
1/2-x,1/2-y,-z
1/2+x,1/2-y,1/2+z
loop_
_atom_site_type_symbol
_atom_site_label
_atom_site_fract_x
_atom_site_fract_y
_atom_site_fract_z
Si Si1 0.371478 0.045695 0.027849
Si Si2 0.601802 0.680534 0.169890
Si Si3 0.500000 0.841569 0.250000
Si Si4 0.826852 0.961511 0.448604
Si Si5 0.296241 0.166156 0.233561
O O1 0.355665 0.135525 0.174321
O O2 0.441788 0.953166 0.116820
O O3 0.370998 0.161030 0.876272
O O4 0.313832 0.920120 0.921054
O O5 0.527404 0.721271 0.145964
O O6 0.604460 0.539240 0.043759
O O7 0.653904 0.634455 0.371609
O O8 0.793300 0.849185 0.274776
O O9 0.775225 0.106462 0.419837
#
# Coordination Sequence:
#
# PCOD8155012 Si02
#       5
#     8   8   4   8   8
#     4  12  25  47  78 110 150 205 255 314 374 455
#     4  12  27  49  76 112 155 202 256 315 379 457
#     4  12  26  50  80 110 154 208 266 302 374 468
#     4  12  27  49  76 118 157 198 256 321 393 453
#     4  12  25  46  78 113 153 200 254 319 389 453
#
# _framework density 25.359508000000002
#
# number of rings (size 3 to 8) (size 9 to 14) (size 15 to 20)
#    0.000    0.000    4.444    4.667    0.000    6.222 
#    0.000    4.444    0.000    0.000    0.000    0.000 
#    0.000    0.000    0.000    0.000    0.000    0.000 
#
# Total GULP energy -223160.526101 kJ/mol
# GULP energy per Si atom -12397.807006 kJ/mol
# Density = 2.530179 g / cm^3
# Si number density = 25.359508 Si / 1000 Ang^3
#
#
#
# Elastic Constant Matrix: (Units=GPa)
#
#
# Indices 1 2 3 4 5 6 
#
# 1 115.7164 53.4266 19.2424 0.0000 -6.7100 0.0000
# 2 53.4266 109.8965 17.4300 0.0000 -4.8689 0.0000
# 3 19.2424 17.4300 71.7201 0.0000 6.2118 0.0000
# 4 0.0000 0.0000 0.0000 35.0205 0.0000 6.6275
# 5 -6.7100 -4.8689 6.2118 0.0000 34.5250 0.0000
# 6 0.0000 0.0000 0.0000 6.6275 0.0000 58.2712
#
#
#
# Elastic Compliance Matrix: (Units=1/GPa)
#
#
# Indices 1 2 3 4 5 6 
#
# 1 0.011470 -0.005180 -0.001979 0.000000 0.001855 0.000000
# 2 -0.005180 0.011912 -0.001588 0.000000 0.000959 0.000000
# 3 -0.001979 -0.001588 0.015149 0.000000 -0.003334 0.000000
# 4 0.000000 0.000000 0.000000 0.029183 0.000000 -0.003319
# 5 0.001855 0.000959 -0.003334 0.000000 0.030060 0.000000
# 6 0.000000 0.000000 0.000000 -0.003319 0.000000 0.017539
#
#
# Mechanical properties :
#
#
# Convention : Reuss Voigt Hill
#
# Bulk Modulus (GPa) = 47.53723 53.05901 50.29812
# Shear Modulus (GPa) = 35.76025 39.37894 37.56959
#
# Velocity S-wave (km/s) = 3.75925 3.94487 3.85317
# Velocity P-wave (km/s) = 6.13422 6.45891 6.29865
#
# Compressibility (1/GPa) = 0.02103614
#
# Stress axis : x y z
#
# Youngs Moduli (GPa) = 87.18240 83.94733 66.01160
#
# Poissons Ratio (x) = 0.43486 0.13065
# Poissons Ratio (y) = 0.45162 0.10484
# Poissons Ratio (z) = 0.17255 0.13333
#
# Static dielectric constant tensor:
#      x y z
#    x 4.625560 0.000000 -0.353810 
#    y 0.000000 4.884570 0.000000 
#    z -0.353810 0.000000 4.400700 
# 
# 
# High freq. dielectric constant tensor:
#      x y z
#    x 2.003560 0.000000 -0.024360 
#    y 0.000000 2.034950 0.000000 
#    z -0.024360 0.000000 2.008470 
# 
# From -- ./inp_files/59856.got.cif
#   From: 2010.06.25/outbox.cif.g09.slc.cpg/sg15_30_cif.got.tgz:59856.got - 2010.06.28 07:06:18.
