data_PCOD8155639
_publ_section_title
;
Structure prediction by ZEFSAII (Michael W. Deem and Ramdas Pophale) SiO2 
 PCOD8155639
Probable space group: P 2 2 21
;
_chemical_formula_sum "Si O2"
_cell_formula_units_Z 20
_cell_length_a 5.094594
_cell_length_b 12.266964
_cell_length_c 15.372102
_cell_angle_alpha 90.000000
_cell_angle_beta 90.000000
_cell_angle_gamma 90.000000
_cell_volume 960.682607
_symmetry_space_group_name_H-M "P 2 2 21"
_symmetry_group_IT_number 17
_symmetry_cell_setting 'orthorhombic'
loop_
_space_group_symop_operation_xyz
x,y,z
-x,-y,1/2+z
x,-y,-z
-x,y,1/2-z
loop_
_atom_site_type_symbol
_atom_site_label
_atom_site_fract_x
_atom_site_fract_y
_atom_site_fract_z
Si Si1 0.252924 0.245407 0.311055
Si Si2 0.477647 0.925339 0.921842
Si Si3 0.725758 0.623160 0.976485
Si Si4 0.225292 0.255930 0.968821
Si Si5 0.743950 0.890095 0.307558
O O1 0.500000 0.260180 0.250000
O O2 0.287372 0.136676 0.371113
O O3 0.245675 0.352502 0.373065
O O4 0.000000 0.235406 0.250000
O O5 0.307991 0.996189 0.855646
O O6 0.273972 0.838180 0.960369
O O7 0.599627 0.000000 0.000000
O O8 0.794232 0.500000 0.000000
O O9 0.438819 0.649575 0.014893
O O10 0.933325 0.700120 0.023617
O O11 0.232310 0.210567 0.872163
O O12 0.500000 0.857153 0.250000
O O13 0.000000 0.905942 0.250000
#
# Coordination Sequence:
#
# PCOD8155639 Si02
#       5
#     4   4   4   4   4
#     4  11  23  41  63  93 125 157 204 265 308 350
#     4   9  21  39  61  88 125 167 202 238 298 372
#     4  11  23  43  67  88 117 161 206 251 310 371
#     4  10  22  41  62  87 120 159 201 246 299 365
#     4  11  23  38  58  90 124 160 199 242 294 356
#
# _framework density 20.818529999999999
#
# number of rings (size 3 to 8) (size 9 to 14) (size 15 to 20)
#    0.000    1.600    0.000    4.800    0.000    8.000 
#    0.000   22.000    0.000    0.000    0.000    0.000 
#    0.000    0.000    0.000    0.000    0.000    0.000 
#
# Total GULP energy -248019.104742 kJ/mol
# GULP energy per Si atom -12400.955237 kJ/mol
# Density = 2.077115 g / cm^3
# Si number density = 20.818530 Si / 1000 Ang^3
#
#
#
# Elastic Constant Matrix: (Units=GPa)
#
#
# Indices 1 2 3 4 5 6 
#
# 1 111.2114 17.4290 65.4467 0.0000 0.0000 0.0000
# 2 17.4290 103.7626 68.6193 0.0000 0.0000 0.0000
# 3 65.4467 68.6193 160.6479 0.0000 0.0000 0.0000
# 4 0.0000 0.0000 0.0000 27.5445 0.0000 0.0000
# 5 0.0000 0.0000 0.0000 0.0000 33.5717 0.0000
# 6 0.0000 0.0000 0.0000 0.0000 0.0000 26.4077
#
#
#
# Elastic Compliance Matrix: (Units=1/GPa)
#
#
# Indices 1 2 3 4 5 6 
#
# 1 0.012039 0.001702 -0.005632 0.000000 0.000000 0.000000
# 2 0.001702 0.013672 -0.006533 0.000000 0.000000 0.000000
# 3 -0.005632 -0.006533 0.011310 0.000000 0.000000 0.000000
# 4 0.000000 0.000000 0.000000 0.036305 0.000000 0.000000
# 5 0.000000 0.000000 0.000000 0.000000 0.029787 0.000000
# 6 0.000000 0.000000 0.000000 0.000000 0.000000 0.037868
#
#
# Mechanical properties :
#
#
# Convention : Reuss Voigt Hill
#
# Bulk Modulus (GPa) = 62.13029 75.40132 68.76581
# Shear Modulus (GPa) = 29.89146 32.44658 31.16902
#
# Velocity S-wave (km/s) = 3.79332 3.95212 3.87353
# Velocity P-wave (km/s) = 7.00673 7.55796 7.28756
#
# Compressibility (1/GPa) = 0.01609521
#
# Stress axis : x y z
#
# Youngs Moduli (GPa) = 83.06076 73.14202 88.41899
#
# Poissons Ratio (x) = -0.12450 0.49796
# Poissons Ratio (y) = -0.14138 0.57767
# Poissons Ratio (z) = 0.46778 0.47786
#
# Static dielectric constant tensor:
#      x y z
#    x 3.549450 0.000000 0.000000 
#    y 0.000000 3.714630 0.000000 
#    z 0.000000 0.000000 4.126490 
# 
# 
# High freq. dielectric constant tensor:
#      x y z
#    x 1.824020 0.000000 0.000000 
#    y 0.000000 1.799320 0.000000 
#    z 0.000000 0.000000 1.831820 
# 
# From -- ./inp_files/7610.got.cif
#   From: 2010.03.12/outbox.cif.g09.slc.cpg/sg17_4_cif.got.tgz:7610.got - 2010.04.10 18:46:23.
