data_PCOD8155161
_publ_section_title
;
Structure prediction by ZEFSAII (Michael W. Deem and Ramdas Pophale) SiO2 
 PCOD8155161
Probable space group: C 2/C
;
_chemical_formula_sum "Si O2"
_cell_formula_units_Z 40
_cell_length_a 13.918664
_cell_length_b 5.421797
_cell_length_c 25.694072
_cell_angle_alpha 90.000000
_cell_angle_beta 57.007964
_cell_angle_gamma 90.000000
_cell_volume 1626.313770
_symmetry_space_group_name_H-M "C 2/C"
_symmetry_group_IT_number 15
_symmetry_cell_setting 'monoclinic'
loop_
_space_group_symop_operation_xyz
x,y,z
-x,y,1/2-z
-x,-y,-z
x,-y,1/2+z
1/2+x,1/2+y,z
1/2-x,1/2+y,1/2-z
1/2-x,1/2-y,-z
1/2+x,1/2-y,1/2+z
loop_
_atom_site_type_symbol
_atom_site_label
_atom_site_fract_x
_atom_site_fract_y
_atom_site_fract_z
Si Si1 0.725589 0.351381 0.288370
Si Si2 0.413285 0.947375 0.314573
Si Si3 0.496452 0.597646 0.365968
Si Si4 0.546961 0.754454 0.460545
Si Si5 0.209318 0.776648 0.070748
O O1 0.739359 0.092888 0.255085
O O2 0.799464 0.347849 0.319552
O O3 0.590243 0.378512 0.341241
O O4 0.500000 0.099449 0.250000
O O5 0.502588 0.736301 0.308544
O O6 0.378302 0.080324 0.378404
O O7 0.516476 0.774476 0.409226
O O8 0.363014 0.525186 0.408659
O O9 0.500000 0.500000 0.500000
O O10 0.683260 0.775898 0.423026
O O11 0.500000 0.000000 0.500000
O O12 0.250000 0.750000 0.000000
#
# Coordination Sequence:
#
# PCOD8155161 Si02
#       5
#     8   8   8   8   8
#     4  12  28  52  81 116 165 215 271 340 416 486
#     4  12  27  50  81 120 160 217 272 339 410 493
#     4  12  28  48  83 114 165 211 275 336 409 489
#     4  12  28  50  79 117 162 211 271 337 409 488
#     4  12  27  49  82 115 165 214 274 334 411 489
#
# _framework density 24.595500999999999
#
# number of rings (size 3 to 8) (size 9 to 14) (size 15 to 20)
#    0.000    0.000    6.000    2.400    5.600    2.400 
#    0.000    0.000    0.000    0.000    0.000    0.000 
#    0.000    0.000    0.000    0.000    0.000    0.000 
#
# Total GULP energy -247804.986306 kJ/mol
# GULP energy per Si atom -12390.249315 kJ/mol
# Density = 2.453952 g / cm^3
# Si number density = 24.595501 Si / 1000 Ang^3
#
#
#
# Elastic Constant Matrix: (Units=GPa)
#
#
# Indices 1 2 3 4 5 6 
#
# 1 199.5230 36.7824 47.9617 -0.0012 5.1623 -0.0018
# 2 36.7824 89.5344 33.1525 0.0066 4.8376 0.0009
# 3 47.9617 33.1525 144.6212 0.0384 -0.8541 0.0113
# 4 -0.0012 0.0066 0.0384 41.0579 0.0079 -6.1640
# 5 5.1623 4.8376 -0.8541 0.0079 52.7122 0.0006
# 6 -0.0018 0.0009 0.0113 -6.1640 0.0006 39.4256
#
#
#
# Elastic Compliance Matrix: (Units=1/GPa)
#
#
# Indices 1 2 3 4 5 6 
#
# 1 0.005707 -0.001770 -0.001489 0.000002 -0.000421 0.000001
# 2 -0.001770 0.012826 -0.002359 0.000000 -0.001042 0.000000
# 3 -0.001489 -0.002359 0.007952 -0.000008 0.000491 -0.000004
# 4 0.000002 0.000000 -0.000008 0.024941 -0.000004 0.003899
# 5 -0.000421 -0.001042 0.000491 -0.000004 0.019116 -0.000001
# 6 0.000001 0.000000 -0.000004 0.003899 -0.000001 0.025974
#
#
# Mechanical properties :
#
#
# Convention : Reuss Voigt Hill
#
# Bulk Modulus (GPa) = 65.58436 74.38577 69.98506
# Shear Modulus (GPa) = 44.31168 47.69126 46.00147
#
# Velocity S-wave (km/s) = 4.24915 4.40821 4.32941
# Velocity P-wave (km/s) = 7.12719 7.49794 7.31491
#
# Compressibility (1/GPa) = 0.01524754
#
# Stress axis : x y z
#
# Youngs Moduli (GPa) = 175.21618 77.96611 125.75034
#
# Poissons Ratio (x) = 0.13803 0.18729
# Poissons Ratio (y) = 0.31021 0.29667
# Poissons Ratio (z) = 0.26096 0.18394
#
# Static dielectric constant tensor:
#      x y z
#    x 5.015910 -0.000080 -0.536800 
#    y -0.000080 4.577370 0.000900 
#    z -0.536800 0.000900 6.566700 
# 
# 
# High freq. dielectric constant tensor:
#      x y z
#    x 2.014100 0.000000 -0.004910 
#    y 0.000000 1.956480 0.000000 
#    z -0.004910 0.000000 1.994780 
# 
# From -- ./inp_files/312014.got.cif
#   From: 2010.06.25/outbox.cif.g09.slc.cpg/sg15_157_cif.got.tgz:312014.got - 2010.06.28 07:06:18.
