data_PCOD8155616
_publ_section_title
;
Structure prediction by ZEFSAII (Michael W. Deem and Ramdas Pophale) SiO2 
 PCOD8155616
Probable space group: P 2 2 21
;
_chemical_formula_sum "Si O2"
_cell_formula_units_Z 32
_cell_length_a 15.234761
_cell_length_b 12.303869
_cell_length_c 9.711254
_cell_angle_alpha 90.000000
_cell_angle_beta 90.000000
_cell_angle_gamma 90.000000
_cell_volume 1820.340608
_symmetry_space_group_name_H-M "P 2 2 21"
_symmetry_group_IT_number 17
_symmetry_cell_setting 'orthorhombic'
loop_
_space_group_symop_operation_xyz
x,y,z
-x,-y,1/2+z
x,-y,-z
-x,y,1/2-z
loop_
_atom_site_type_symbol
_atom_site_label
_atom_site_fract_x
_atom_site_fract_y
_atom_site_fract_z
Si Si1 0.195110 0.811601 0.244145
Si Si2 0.220995 0.807853 0.783935
Si Si3 0.333892 0.128875 0.974026
Si Si4 0.294550 0.129614 0.502759
Si Si5 0.916878 0.622991 0.341979
Si Si6 0.480513 0.894254 0.408414
Si Si7 0.082252 0.994837 0.840252
Si Si8 0.916173 0.628247 0.660344
O O1 0.282273 0.849104 0.165922
O O2 0.216417 0.821853 0.404888
O O3 0.168410 0.688809 0.207915
O O4 0.112301 0.886047 0.205315
O O5 0.277760 0.820712 0.646677
O O6 0.159723 0.910609 0.813326
O O7 0.165863 0.697084 0.784384
O O8 0.291678 0.801235 0.905045
O O9 0.433959 0.172045 0.959538
O O10 0.331861 0.000000 0.000000
O O11 0.389113 0.169623 0.564355
O O12 0.287034 0.000000 0.500000
O O13 0.937736 0.652035 0.500647
O O14 0.892495 0.497580 0.319478
O O15 0.000000 0.656494 0.250000
O O16 0.500000 0.926231 0.250000
O O17 0.470407 0.000000 0.500000
O O18 0.000000 0.956837 0.750000
O O19 0.055562 0.000000 0.000000
O O20 0.000000 0.662282 0.750000
#
# Coordination Sequence:
#
# PCOD8155616 Si02
#       8
#     4   4   4   4   4   4   4   4
#     4  12  20  37  55  80 111 149 183 224 277 332
#     4  12  22  37  55  81 113 149 184 230 280 328
#     4  11  19  36  57  76 116 151 177 227 276 339
#     4  11  23  36  55  85 117 148 187 229 271 339
#     4  10  22  39  60  82 108 148 193 235 282 330
#     4  10  22  34  53  82 115 151 186 224 279 331
#     4  12  24  35  51  75 110 146 183 222 278 337
#     4  10  22  40  58  82 112 144 191 242 279 323
#
# _framework density 17.579128000000001
#
# number of rings (size 3 to 8) (size 9 to 14) (size 15 to 20)
#    0.000    1.000    6.250    0.750    8.750    0.000 
#    0.000    0.000    0.000    0.000    0.000    5.250 
#    0.000    0.000    0.000    0.000    0.000    0.000 
#
# Total GULP energy -396818.686343 kJ/mol
# GULP energy per Si atom -12400.583948 kJ/mol
# Density = 1.753912 g / cm^3
# Si number density = 17.579128 Si / 1000 Ang^3
#
#
#
# Elastic Constant Matrix: (Units=GPa)
#
#
# Indices 1 2 3 4 5 6 
#
# 1 106.3454 37.1466 51.7303 0.0000 0.0000 0.0000
# 2 37.1466 63.0427 19.0993 0.0000 0.0000 0.0000
# 3 51.7303 19.0993 104.9512 0.0000 0.0000 0.0000
# 4 0.0000 0.0000 0.0000 21.6087 0.0000 0.0000
# 5 0.0000 0.0000 0.0000 0.0000 26.4549 0.0000
# 6 0.0000 0.0000 0.0000 0.0000 0.0000 3.4050
#
#
#
# Elastic Compliance Matrix: (Units=1/GPa)
#
#
# Indices 1 2 3 4 5 6 
#
# 1 0.014720 -0.006853 -0.006008 0.000000 0.000000 0.000000
# 2 -0.006853 0.019978 -0.000258 0.000000 0.000000 0.000000
# 3 -0.006008 -0.000258 0.012537 0.000000 0.000000 0.000000
# 4 0.000000 0.000000 0.000000 0.046278 0.000000 0.000000
# 5 0.000000 0.000000 0.000000 0.000000 0.037800 0.000000
# 6 0.000000 0.000000 0.000000 0.000000 0.000000 0.293682
#
#
# Mechanical properties :
#
#
# Convention : Reuss Voigt Hill
#
# Bulk Modulus (GPa) = 47.62699 54.47688 51.05194
# Shear Modulus (GPa) = 10.91152 21.38460 16.14806
#
# Velocity S-wave (km/s) = 2.49411 3.49159 3.03412
# Velocity P-wave (km/s) = 5.95364 6.87835 6.43263
#
# Compressibility (1/GPa) = 0.02099650
#
# Stress axis : x y z
#
# Youngs Moduli (GPa) = 67.93612 50.05399 79.76650
#
# Poissons Ratio (x) = 0.34302 0.47925
# Poissons Ratio (y) = 0.46557 0.02057
# Poissons Ratio (z) = 0.40817 0.01291
#
# Static dielectric constant tensor:
#      x y z
#    x 3.578150 0.000000 0.000000 
#    y 0.000000 3.029390 0.000000 
#    z 0.000000 0.000000 3.487980 
# 
# 
# High freq. dielectric constant tensor:
#      x y z
#    x 1.684640 0.000000 0.000000 
#    y 0.000000 1.640470 0.000000 
#    z 0.000000 0.000000 1.700990 
# 
# From -- ./inp_files/5270.got.cif
#   From: 2010.03.12/outbox.cif.g09.slc.cpg/sg17_3_cif.got.tgz:5270.got - 2010.04.10 18:46:23.
