data_PCOD8155697
_publ_section_title
;
Structure prediction by ZEFSAII (Michael W. Deem and Ramdas Pophale) SiO2 
 PCOD8155697
Probable space group: P 2 2 21
;
_chemical_formula_sum "Si O2"
_cell_formula_units_Z 16
_cell_length_a 22.226261
_cell_length_b 5.456044
_cell_length_c 5.090244
_cell_angle_alpha 90.000000
_cell_angle_beta 90.000000
_cell_angle_gamma 90.000000
_cell_volume 617.280950
_symmetry_space_group_name_H-M "P 2 2 21"
_symmetry_group_IT_number 17
_symmetry_cell_setting 'orthorhombic'
loop_
_space_group_symop_operation_xyz
x,y,z
-x,-y,1/2+z
x,-y,-z
-x,y,1/2-z
loop_
_atom_site_type_symbol
_atom_site_label
_atom_site_fract_x
_atom_site_fract_y
_atom_site_fract_z
Si Si1 0.431782 0.164417 0.750907
Si Si2 0.134825 0.655855 0.742929
Si Si3 0.262304 0.237714 0.146553
Si Si4 0.655142 0.500000 0.000000
Si Si5 0.963225 0.000000 0.000000
O O1 0.500000 0.265848 0.750000
O O2 0.387167 0.398255 0.736337
O O3 0.420258 0.000000 0.500000
O O4 0.416691 0.000000 0.000000
O O5 0.158794 0.500000 0.500000
O O6 0.192181 0.829148 0.799586
O O7 0.076239 0.796848 0.645072
O O8 0.116221 0.500000 0.000000
O O9 0.302797 0.274829 0.404787
O O10 0.265084 0.500000 0.000000
O O11 0.289553 0.000000 0.000000
O O12 0.000000 0.886520 0.250000
#
# Coordination Sequence:
#
# PCOD8155697 Si02
#       5
#     4   4   4   2   2
#     4  10  26  50  78 113 161 217 273 340 417 501
#     4  11  26  51  82 116 164 220 268 341 417 494
#     4  11  29  50  82 123 168 218 279 344 422 501
#     4  12  28  48  82 120 162 212 286 342 428 496
#     4  12  28  48  84 122 160 216 278 342 408 498
#
# _framework density 25.920127999999998
#
# number of rings (size 3 to 8) (size 9 to 14) (size 15 to 20)
#    0.000    1.000    1.250    1.500   15.750    5.000 
#    0.000    0.000    0.000    0.000    0.000    0.000 
#    0.000    0.000    0.000    0.000    0.000    0.000 
#
# Total GULP energy -198350.096600 kJ/mol
# GULP energy per Si atom -12396.881038 kJ/mol
# Density = 2.586113 g / cm^3
# Si number density = 25.920128 Si / 1000 Ang^3
#
#
#
# Elastic Constant Matrix: (Units=GPa)
#
#
# Indices 1 2 3 4 5 6 
#
# 1 181.9263 64.5323 68.7172 0.0000 0.0000 0.0000
# 2 64.5323 128.4143 63.7099 0.0000 0.0000 0.0000
# 3 68.7172 63.7099 190.5345 0.0000 0.0000 0.0000
# 4 0.0000 0.0000 0.0000 54.3828 0.0000 0.0000
# 5 0.0000 0.0000 0.0000 0.0000 43.3067 0.0000
# 6 0.0000 0.0000 0.0000 0.0000 0.0000 28.8434
#
#
#
# Elastic Compliance Matrix: (Units=1/GPa)
#
#
# Indices 1 2 3 4 5 6 
#
# 1 0.007091 -0.002751 -0.001638 0.000000 0.000000 0.000000
# 2 -0.002751 0.010403 -0.002486 0.000000 0.000000 0.000000
# 3 -0.001638 -0.002486 0.006670 0.000000 0.000000 0.000000
# 4 0.000000 0.000000 0.000000 0.018388 0.000000 0.000000
# 5 0.000000 0.000000 0.000000 0.000000 0.023091 0.000000
# 6 0.000000 0.000000 0.000000 0.000000 0.000000 0.034670
#
#
# Mechanical properties :
#
#
# Convention : Reuss Voigt Hill
#
# Bulk Modulus (GPa) = 96.01763 99.42152 97.71958
# Shear Modulus (GPa) = 42.54019 45.56763 44.05391
#
# Velocity S-wave (km/s) = 4.05557 4.19740 4.12710
# Velocity P-wave (km/s) = 7.68468 7.86963 7.77770
#
# Compressibility (1/GPa) = 0.01041475
#
# Stress axis : x y z
#
# Youngs Moduli (GPa) = 141.02138 96.12247 149.91625
#
# Poissons Ratio (x) = 0.26444 0.24550
# Poissons Ratio (y) = 0.38796 0.37276
# Poissons Ratio (z) = 0.23093 0.23900
#
# Static dielectric constant tensor:
#      x y z
#    x 5.031940 0.000000 0.000000 
#    y 0.000000 4.304140 0.000000 
#    z 0.000000 0.000000 4.916500 
# 
# 
# High freq. dielectric constant tensor:
#      x y z
#    x 2.062410 0.000000 0.000000 
#    y 0.000000 2.018130 0.000000 
#    z 0.000000 0.000000 2.050900 
# 
# From -- ./inp_files/2814.got.cif
#   From: 2010.03.12/outbox.cif.g09.slc.cpg/sg17_2_cif.got.tgz:2814.got - 2010.04.10 18:46:23.
