data_PCOD8155206
_publ_section_title
;
Structure prediction by ZEFSAII (Michael W. Deem and Ramdas Pophale) SiO2 
 PCOD8155206
Probable space group: C 2/C
;
_chemical_formula_sum "Si O2"
_cell_formula_units_Z 48
_cell_length_a 11.502246
_cell_length_b 25.260059
_cell_length_c 7.969636
_cell_angle_alpha 90.000000
_cell_angle_beta 81.894443
_cell_angle_gamma 90.000000
_cell_volume 2292.424674
_symmetry_space_group_name_H-M "C 2/C"
_symmetry_group_IT_number 15
_symmetry_cell_setting 'monoclinic'
loop_
_space_group_symop_operation_xyz
x,y,z
-x,y,1/2-z
-x,-y,-z
x,-y,1/2+z
1/2+x,1/2+y,z
1/2-x,1/2+y,1/2-z
1/2-x,1/2-y,-z
1/2+x,1/2-y,1/2+z
loop_
_atom_site_type_symbol
_atom_site_label
_atom_site_fract_x
_atom_site_fract_y
_atom_site_fract_z
Si Si1 0.369041 0.890136 0.286843
Si Si2 0.103557 0.724044 0.603700
Si Si3 0.741989 0.338604 0.014340
Si Si4 0.595173 0.566930 0.493551
Si Si5 0.651666 0.542952 0.863132
Si Si6 0.174664 0.254807 0.750465
O O1 0.500000 0.915345 0.250000
O O2 0.370121 0.838562 0.404450
O O3 0.330637 0.873538 0.106976
O O4 0.277577 0.931946 0.387033
O O5 0.072649 0.740756 0.415133
O O6 0.209159 0.757985 0.658947
O O7 0.000000 0.738117 0.750000
O O8 0.650921 0.376372 0.931702
O O9 0.665314 0.299713 0.149383
O O10 0.823716 0.304981 0.873250
O O11 0.622223 0.558379 0.681754
O O12 0.453469 0.565224 0.494653
O O13 0.657716 0.520667 0.374318
#
# Coordination Sequence:
#
# PCOD8155206 Si02
#       6
#     8   8   8   8   8   8
#     4   9  18  35  55  74 112 150 190 227 285 336
#     4   9  18  35  53  78 114 151 181 233 287 332
#     4   9  18  35  54  82 110 147 189 237 287 339
#     4   9  18  34  55  81 111 139 185 233 293 336
#     4   9  18  34  54  78 109 147 179 237 285 338
#     4   9  18  35  54  78 113 144 193 234 279 347
#
# _framework density 20.938528999999999
#
# number of rings (size 3 to 8) (size 9 to 14) (size 15 to 20)
#    0.000    3.000    0.000    0.000    0.000    1.333 
#   18.000   15.833    0.000    2.000    0.000    0.000 
#    0.000    0.000    0.000    0.000    0.000    0.000 
#
# Total GULP energy -297430.546206 kJ/mol
# GULP energy per Si atom -12392.939425 kJ/mol
# Density = 2.089087 g / cm^3
# Si number density = 20.938529 Si / 1000 Ang^3
#
#
#
# Elastic Constant Matrix: (Units=GPa)
#
#
# Indices 1 2 3 4 5 6 
#
# 1 107.4378 56.1066 19.0013 0.0000 -23.9737 0.0000
# 2 56.1066 95.3335 26.2822 0.0000 -13.3977 0.0000
# 3 19.0013 26.2822 78.9331 0.0000 -25.5016 0.0000
# 4 0.0000 0.0000 0.0000 25.3866 0.0000 0.1903
# 5 -23.9737 -13.3977 -25.5016 0.0000 22.7745 0.0000
# 6 0.0000 0.0000 0.0000 0.1903 0.0000 27.3904
#
#
#
# Elastic Compliance Matrix: (Units=1/GPa)
#
#
# Indices 1 2 3 4 5 6 
#
# 1 0.017114 -0.008818 0.004639 0.000000 0.018022 0.000000
# 2 -0.008818 0.016319 -0.005027 0.000000 -0.005311 0.000000
# 3 0.004639 -0.005027 0.021698 0.000000 0.026222 0.000000
# 4 0.000000 0.000000 0.000000 0.039393 0.000000 -0.000274
# 5 0.018022 -0.005311 0.026222 0.000000 0.089116 0.000000
# 6 0.000000 0.000000 0.000000 -0.000274 0.000000 0.036511
#
#
# Mechanical properties :
#
#
# Convention : Reuss Voigt Hill
#
# Bulk Modulus (GPa) = 27.23468 53.83162 40.53315
# Shear Modulus (GPa) = 19.93606 27.13124 23.53365
#
# Velocity S-wave (km/s) = 3.08900 3.60357 3.35616
# Velocity P-wave (km/s) = 5.07521 6.56349 5.86674
#
# Compressibility (1/GPa) = 0.03671789
#
# Stress axis : x y z
#
# Youngs Moduli (GPa) = 58.43294 61.27977 46.08777
#
# Poissons Ratio (x) = 0.54037 -0.21379
# Poissons Ratio (y) = 0.51527 0.23167
# Poissons Ratio (z) = -0.27106 0.30804
#
# Static dielectric constant tensor:
#      x y z
#    x 4.060460 0.000000 -0.159300 
#    y 0.000000 3.921610 0.000000 
#    z -0.159300 0.000000 3.880040 
# 
# 
# High freq. dielectric constant tensor:
#      x y z
#    x 1.810030 0.000000 -0.003250 
#    y 0.000000 1.804170 0.000000 
#    z -0.003250 0.000000 1.809260 
# 
# From -- ./inp_files/31934.got.cif
#   From: 2010.06.25/outbox.cif.g09.slc.cpg/sg15_16_cif.got.tgz:31934.got - 2010.06.28 07:06:18.
