data_PCOD8155620
_publ_section_title
;
Structure prediction by ZEFSAII (Michael W. Deem and Ramdas Pophale) SiO2 
 PCOD8155620
Probable space group: P 2 2 21
;
_chemical_formula_sum "Si O2"
_cell_formula_units_Z 16
_cell_length_a 7.662522
_cell_length_b 5.199700
_cell_length_c 20.547191
_cell_angle_alpha 90.000000
_cell_angle_beta 90.000000
_cell_angle_gamma 90.000000
_cell_volume 818.657943
_symmetry_space_group_name_H-M "P 2 2 21"
_symmetry_group_IT_number 17
_symmetry_cell_setting 'orthorhombic'
loop_
_space_group_symop_operation_xyz
x,y,z
-x,-y,1/2+z
x,-y,-z
-x,y,1/2-z
loop_
_atom_site_type_symbol
_atom_site_label
_atom_site_fract_x
_atom_site_fract_y
_atom_site_fract_z
Si Si1 0.058939 0.601200 0.928574
Si Si2 0.439805 0.252421 0.043455
Si Si3 0.755736 0.834164 0.862718
Si Si4 0.104883 0.342230 0.684921
O O1 0.253519 0.709449 0.922433
O O2 0.031259 0.372775 0.875465
O O3 0.916921 0.824436 0.914209
O O4 0.020485 0.500000 0.000000
O O5 0.574717 0.209231 0.101170
O O6 0.492313 0.500000 0.000000
O O7 0.433554 0.000000 0.000000
O O8 0.780657 0.604301 0.809662
O O9 0.761156 0.107979 0.827069
O O10 0.000000 0.285698 0.750000
#
# Coordination Sequence:
#
# PCOD8155620 Si02
#       4
#     4   4   4   4
#     4   9  23  37  64  87 123 158 202 252 309 360
#     4  11  23  36  61  95 128 153 203 257 313 366
#     4  10  22  37  63  84 124 156 206 245 309 353
#     4  10  22  40  64  84 124 167 206 246 307 365
#
# _framework density 19.544181999999999
#
# number of rings (size 3 to 8) (size 9 to 14) (size 15 to 20)
#    1.500    0.500    0.000    3.000   10.500    0.000 
#    0.000    1.250    0.000    0.000    0.000    0.000 
#    0.000    0.000    0.000    0.000    0.000    0.000 
#
# Total GULP energy -198284.473263 kJ/mol
# GULP energy per Si atom -12392.779579 kJ/mol
# Density = 1.949970 g / cm^3
# Si number density = 19.544182 Si / 1000 Ang^3
#
#
#
# Elastic Constant Matrix: (Units=GPa)
#
#
# Indices 1 2 3 4 5 6 
#
# 1 49.4078 4.8699 -0.7187 0.0000 0.0000 0.0000
# 2 4.8699 131.4384 12.5631 0.0000 0.0000 0.0000
# 3 -0.7187 12.5631 73.8117 0.0000 0.0000 0.0000
# 4 0.0000 0.0000 0.0000 26.9100 0.0000 0.0000
# 5 0.0000 0.0000 0.0000 0.0000 4.4048 0.0000
# 6 0.0000 0.0000 0.0000 0.0000 0.0000 9.0969
#
#
#
# Elastic Compliance Matrix: (Units=1/GPa)
#
#
# Indices 1 2 3 4 5 6 
#
# 1 0.020322 -0.000785 0.000331 0.000000 0.000000 0.000000
# 2 -0.000785 0.007764 -0.001329 0.000000 0.000000 0.000000
# 3 0.000331 -0.001329 0.013777 0.000000 0.000000 0.000000
# 4 0.000000 0.000000 0.000000 0.037161 0.000000 0.000000
# 5 0.000000 0.000000 0.000000 0.000000 0.227027 0.000000
# 6 0.000000 0.000000 0.000000 0.000000 0.000000 0.109927
#
#
# Mechanical properties :
#
#
# Convention : Reuss Voigt Hill
#
# Bulk Modulus (GPa) = 26.11044 32.00961 29.06003
# Shear Modulus (GPa) = 11.56579 23.94523 17.75551
#
# Velocity S-wave (km/s) = 2.43529 3.50406 3.01737
# Velocity P-wave (km/s) = 4.61478 5.72581 5.20005
#
# Compressibility (1/GPa) = 0.03829885
#
# Stress axis : x y z
#
# Youngs Moduli (GPa) = 49.20806 128.79559 72.58236
#
# Poissons Ratio (x) = 0.10105 -0.02405
# Poissons Ratio (y) = 0.03861 0.09647
# Poissons Ratio (z) = -0.01631 0.17119
#
# Static dielectric constant tensor:
#      x y z
#    x 3.483320 0.000000 0.000000 
#    y 0.000000 3.648350 0.000000 
#    z 0.000000 0.000000 3.590320 
# 
# 
# High freq. dielectric constant tensor:
#      x y z
#    x 1.753930 0.000000 0.000000 
#    y 0.000000 1.771280 0.000000 
#    z 0.000000 0.000000 1.743260 
# 
# From -- ./inp_files/8863.got.cif
#   From: 2010.03.12/outbox.cif.g09.slc.cpg/sg17_5_cif.got.tgz:8863.got - 2010.04.10 18:46:23.
