data_PCOD8155278
_publ_section_title
;
Structure prediction by ZEFSAII (Michael W. Deem and Ramdas Pophale) SiO2 
 PCOD8155278
Probable space group: P 2 2 2
;
_chemical_formula_sum "Si O2"
_cell_formula_units_Z 20
_cell_length_a 8.674105
_cell_length_b 9.367719
_cell_length_c 11.378474
_cell_angle_alpha 90.000000
_cell_angle_beta 90.000000
_cell_angle_gamma 90.000000
_cell_volume 924.575863
_symmetry_space_group_name_H-M "P 2 2 2"
_symmetry_group_IT_number 16
_symmetry_cell_setting 'orthorhombic'
loop_
_space_group_symop_operation_xyz
x,y,z
-x,-y,z
x,-y,-z
-x,y,-z
loop_
_atom_site_type_symbol
_atom_site_label
_atom_site_fract_x
_atom_site_fract_y
_atom_site_fract_z
Si Si1 0.818442 0.025853 0.368512
Si Si2 0.500000 0.500000 0.500000
Si Si3 0.000000 0.000000 0.000000
Si Si4 0.500000 0.000000 0.000000
Si Si5 0.250425 0.849181 0.847780
Si Si6 0.181558 0.525853 0.868512
Si Si7 0.749575 0.650819 0.652220
Si Si8 0.000000 0.500000 0.500000
O O1 0.765311 0.181473 0.327912
O O2 0.757997 0.000000 0.500000
O O3 0.735470 0.915748 0.281630
O O4 0.000000 0.000000 0.360036
O O5 0.599936 0.606573 0.579201
O O6 0.098810 0.100990 0.083448
O O7 0.400064 0.893427 0.920799
O O8 0.234691 0.681473 0.827913
O O9 0.264531 0.415749 0.781629
O O10 0.000000 0.500000 0.860034
O O11 0.242001 0.500000 0.000000
O O12 0.901190 0.600990 0.583448
#
# Coordination Sequence:
#
# PCOD8155278 Si02
#       8
#     4   1   1   1   4   4   4   1
#     4  11  24  41  72 105 135 172 233 290 346 400
#     4  10  28  46  68  94 148 190 234 268 348 410
#     4  10  20  38  72  90 136 182 230 288 336 394
#     4  10  28  46  68  94 148 190 234 268 348 410
#     4  11  24  44  67 100 139 183 230 284 340 409
#     4  11  24  41  72 105 135 172 233 290 346 400
#     4  11  24  44  67 100 139 183 230 284 340 409
#     4  10  20  38  72  90 136 182 230 288 336 394
#
# _framework density 21.631540000000001
#
# number of rings (size 3 to 8) (size 9 to 14) (size 15 to 20)
#    0.000    1.200    2.000    3.600   11.200    1.600 
#    0.000    0.000    0.000    0.000    0.000    0.000 
#    0.000    0.000    0.000    0.000    0.000    0.000 
#
# Total GULP energy -248112.426590 kJ/mol
# GULP energy per Si atom -12405.621330 kJ/mol
# Density = 2.158231 g / cm^3
# Si number density = 21.631540 Si / 1000 Ang^3
#
#
#
# Elastic Constant Matrix: (Units=GPa)
#
#
# Indices 1 2 3 4 5 6 
#
# 1 101.3057 44.8836 50.4368 0.0000 0.0000 0.0000
# 2 44.8836 203.7063 86.9758 0.0000 0.0000 0.0000
# 3 50.4368 86.9758 198.9342 0.0000 0.0000 0.0000
# 4 0.0000 0.0000 0.0000 43.3797 0.0000 0.0000
# 5 0.0000 0.0000 0.0000 0.0000 234.9947 0.0000
# 6 0.0000 0.0000 0.0000 0.0000 0.0000 24.2594
#
#
#
# Elastic Compliance Matrix: (Units=1/GPa)
#
#
# Indices 1 2 3 4 5 6 
#
# 1 0.011713 -0.001614 -0.002264 0.000000 0.000000 0.000000
# 2 -0.001614 0.006258 -0.002327 0.000000 0.000000 0.000000
# 3 -0.002264 -0.002327 0.006618 0.000000 0.000000 0.000000
# 4 0.000000 0.000000 0.000000 0.023052 0.000000 0.000000
# 5 0.000000 0.000000 0.000000 0.000000 0.004255 0.000000
# 6 0.000000 0.000000 0.000000 0.000000 0.000000 0.041221
#
#
# Mechanical properties :
#
#
# Convention : Reuss Voigt Hill
#
# Bulk Modulus (GPa) = 82.10481 96.50429 89.30455
# Shear Modulus (GPa) = 45.62518 81.97012 63.79765
#
# Velocity S-wave (km/s) = 4.59758 6.16247 5.43663
# Velocity P-wave (km/s) = 8.13770 9.76444 8.98795
#
# Compressibility (1/GPa) = 0.01217955
#
# Stress axis : x y z
#
# Youngs Moduli (GPa) = 85.37174 159.79045 151.10009
#
# Poissons Ratio (x) = 0.25794 0.34209
# Poissons Ratio (y) = 0.13781 0.35159
# Poissons Ratio (z) = 0.19328 0.37181
#
# Static dielectric constant tensor:
#      x y z
#    x 4.519580 0.000000 0.000000 
#    y 0.000000 3.693300 0.000000 
#    z 0.000000 0.000000 4.290700 
# 
# 
# High freq. dielectric constant tensor:
#      x y z
#    x 1.835270 0.000000 0.000000 
#    y 0.000000 1.856840 0.000000 
#    z 0.000000 0.000000 1.873030 
# 
# From -- ./inp_files/6435.got.cif
#   From: 2010.03.12/outbox.cif.g09.slc.cpg/sg16_4_cif.got.tgz:6435.got - 2010.03.31 00:51:45.
