data_PCOD8155378
_publ_section_title
;
Structure prediction by ZEFSAII (Michael W. Deem and Ramdas Pophale) SiO2 
 PCOD8155378
Probable space group: P 2 2 21
;
_chemical_formula_sum "Si O2"
_cell_formula_units_Z 24
_cell_length_a 5.340069
_cell_length_b 12.811151
_cell_length_c 17.125279
_cell_angle_alpha 90.000000
_cell_angle_beta 90.000000
_cell_angle_gamma 90.000000
_cell_volume 1171.581956
_symmetry_space_group_name_H-M "P 2 2 21"
_symmetry_group_IT_number 17
_symmetry_cell_setting 'orthorhombic'
loop_
_space_group_symop_operation_xyz
x,y,z
-x,-y,1/2+z
x,-y,-z
-x,y,1/2-z
loop_
_atom_site_type_symbol
_atom_site_label
_atom_site_fract_x
_atom_site_fract_y
_atom_site_fract_z
Si Si1 0.500000 0.931823 0.750000
Si Si2 0.991314 0.672012 0.844282
Si Si3 0.000000 0.763391 0.250000
Si Si4 0.490674 0.570165 0.835682
Si Si5 0.532992 0.000000 0.500000
Si Si6 0.500000 0.369748 0.750000
Si Si7 0.137830 0.054107 0.853727
Si Si8 0.224553 0.877544 0.609378
O O1 0.418052 0.854459 0.680142
O O2 0.277363 0.006066 0.778949
O O3 0.752703 0.604632 0.875370
O O4 0.974603 0.783421 0.889750
O O5 0.000000 0.683504 0.750000
O O6 0.242209 0.616332 0.877509
O O7 0.248946 0.695733 0.263584
O O8 0.049678 0.830632 0.171468
O O9 0.500000 0.621842 0.750000
O O10 0.468831 0.444052 0.826929
O O11 0.693053 0.947668 0.431188
O O12 0.371520 0.899302 0.528924
O O13 0.893156 0.988896 0.872167
#
# Coordination Sequence:
#
# PCOD8155378 Si02
#       8
#     2   4   2   4   2   2   4   4
#     4  10  19  33  54  82 126 156 209 251 304 354
#     4  10  18  30  57  87 120 161 186 245 314 383
#     4  12  22  36  66  90 124 170 218 254 318 378
#     4   8  18  33  50  83 127 148 189 246 328 371
#     4  10  26  40  56  76 146 170 216 254 308 366
#     4  10  21  37  56  90 132 158 191 273 334 358
#     4  11  22  39  56  90 125 172 213 258 301 383
#     4  11  22  35  56  85 126 172 201 257 308 377
#
# _framework density 20.485122
#
# number of rings (size 3 to 8) (size 9 to 14) (size 15 to 20)
#    0.500    1.333    1.667    3.000   10.500    0.000 
#    0.000    0.000    0.000    0.000    0.000    1.167 
#    0.000    0.000    0.000    0.000    0.000    0.000 
#
# Total GULP energy -297339.782688 kJ/mol
# GULP energy per Si atom -12389.157612 kJ/mol
# Density = 2.043850 g / cm^3
# Si number density = 20.485122 Si / 1000 Ang^3
#
#
#
# Elastic Constant Matrix: (Units=GPa)
#
#
# Indices 1 2 3 4 5 6 
#
# 1 149.3419 65.4440 29.0439 0.0000 0.0000 0.0000
# 2 65.4440 130.1420 29.8734 0.0000 0.0000 0.0000
# 3 29.0439 29.8734 71.9553 0.0000 0.0000 0.0000
# 4 0.0000 0.0000 0.0000 5.3030 0.0000 0.0000
# 5 0.0000 0.0000 0.0000 0.0000 22.1214 0.0000
# 6 0.0000 0.0000 0.0000 0.0000 0.0000 45.8995
#
#
#
# Elastic Compliance Matrix: (Units=1/GPa)
#
#
# Indices 1 2 3 4 5 6 
#
# 1 0.008817 -0.003998 -0.001899 0.000000 0.000000 0.000000
# 2 -0.003998 0.010306 -0.002665 0.000000 0.000000 0.000000
# 3 -0.001899 -0.002665 0.015771 0.000000 0.000000 0.000000
# 4 0.000000 0.000000 0.000000 0.188574 0.000000 0.000000
# 5 0.000000 0.000000 0.000000 0.000000 0.045205 0.000000
# 6 0.000000 0.000000 0.000000 0.000000 0.000000 0.021787
#
#
# Mechanical properties :
#
#
# Convention : Reuss Voigt Hill
#
# Bulk Modulus (GPa) = 56.27584 66.68462 61.48023
# Shear Modulus (GPa) = 15.94859 29.80331 22.87595
#
# Velocity S-wave (km/s) = 2.79327 3.81842 3.34535
# Velocity P-wave (km/s) = 6.15909 7.21553 6.70814
#
# Compressibility (1/GPa) = 0.01776961
#
# Stress axis : x y z
#
# Youngs Moduli (GPa) = 113.41218 97.02978 63.40950
#
# Poissons Ratio (x) = 0.38793 0.12043
# Poissons Ratio (y) = 0.45342 0.16899
# Poissons Ratio (z) = 0.21539 0.25858
#
# Static dielectric constant tensor:
#      x y z
#    x 4.054860 0.000000 0.000000 
#    y 0.000000 3.542390 0.000000 
#    z 0.000000 0.000000 3.485540 
# 
# 
# High freq. dielectric constant tensor:
#      x y z
#    x 1.829480 0.000000 0.000000 
#    y 0.000000 1.784940 0.000000 
#    z 0.000000 0.000000 1.744310 
# 
# From -- ./inp_files/9071.got.cif
#   From: 2010.03.12/outbox.cif.g09.slc.cpg/sg17_5_cif.got.tgz:9071.got - 2010.04.10 18:46:23.
