data_PCOD8155171
_publ_section_title
;
Structure prediction by ZEFSAII (Michael W. Deem and Ramdas Pophale) SiO2 
 PCOD8155171
Probable space group: C 2/C
;
_chemical_formula_sum "Si O2"
_cell_formula_units_Z 28
_cell_length_a 14.924475
_cell_length_b 13.473687
_cell_length_c 8.673003
_cell_angle_alpha 90.000000
_cell_angle_beta 141.469798
_cell_angle_gamma 90.000000
_cell_volume 1086.406177
_symmetry_space_group_name_H-M "C 2/C"
_symmetry_group_IT_number 15
_symmetry_cell_setting 'monoclinic'
loop_
_space_group_symop_operation_xyz
x,y,z
-x,y,1/2-z
-x,-y,-z
x,-y,1/2+z
1/2+x,1/2+y,z
1/2-x,1/2+y,1/2-z
1/2-x,1/2-y,-z
1/2+x,1/2-y,1/2+z
loop_
_atom_site_type_symbol
_atom_site_label
_atom_site_fract_x
_atom_site_fract_y
_atom_site_fract_z
Si Si1 0.254886 0.561697 0.729674
Si Si2 0.766245 0.864952 0.907761
Si Si3 0.500000 0.665185 0.250000
Si Si4 0.462149 0.775195 0.493014
O O1 0.228703 0.445372 0.724842
O O2 0.297818 0.577843 0.609573
O O3 0.107872 0.617560 0.574529
O O4 0.385430 0.596544 0.011582
O O5 0.634695 0.786161 0.745560
O O6 0.904193 0.802136 0.041517
O O7 0.422741 0.736297 0.270109
#
# Coordination Sequence:
#
# PCOD8155171 Si02
#       4
#     8   8   4   8
#     4  12  28  51  80 118 154 212 259 326 383 475
#     4  12  29  51  86 112 163 200 271 316 401 455
#     4  12  28  48  82 112 166 198 274 310 400 450
#     4  12  27  52  79 121 155 211 255 334 383 471
#
# _framework density 25.773050000000001
#
# number of rings (size 3 to 8) (size 9 to 14) (size 15 to 20)
#    0.000    0.000    2.857    5.143    8.000    4.571 
#    0.000    0.000    0.000    0.000    0.000    0.000 
#    0.000    0.000    0.000    0.000    0.000    0.000 
#
# Total GULP energy -173724.033220 kJ/mol
# GULP energy per Si atom -12408.859516 kJ/mol
# Density = 2.571439 g / cm^3
# Si number density = 25.773050 Si / 1000 Ang^3
#
#
#
# Elastic Constant Matrix: (Units=GPa)
#
#
# Indices 1 2 3 4 5 6 
#
# 1 187.3279 85.5469 65.6933 0.0000 -14.8206 0.0000
# 2 85.5469 139.2422 24.1382 0.0000 -9.1575 0.0000
# 3 65.6933 24.1382 118.6740 0.0000 -2.1047 0.0000
# 4 0.0000 0.0000 0.0000 30.4539 0.0000 -11.0722
# 5 -14.8206 -9.1575 -2.1047 0.0000 41.4284 0.0000
# 6 0.0000 0.0000 0.0000 -11.0722 0.0000 40.1660
#
#
#
# Elastic Compliance Matrix: (Units=1/GPa)
#
#
# Indices 1 2 3 4 5 6 
#
# 1 0.009074 -0.004747 -0.004022 0.000000 0.001993 0.000000
# 2 -0.004747 0.010031 0.000597 0.000000 0.000549 0.000000
# 3 -0.004022 0.000597 0.010518 0.000000 -0.000773 0.000000
# 4 0.000000 0.000000 0.000000 0.036494 0.000000 0.010060
# 5 0.001993 0.000549 -0.000773 0.000000 0.024933 0.000000
# 6 0.000000 0.000000 0.000000 0.010060 0.000000 0.027670
#
#
# Mechanical properties :
#
#
# Convention : Reuss Voigt Hill
#
# Bulk Modulus (GPa) = 75.30727 88.44455 81.87591
# Shear Modulus (GPa) = 35.84510 40.40072 38.12291
#
# Velocity S-wave (km/s) = 3.73339 3.96353 3.85018
# Velocity P-wave (km/s) = 6.91860 7.43891 7.18347
#
# Compressibility (1/GPa) = 0.01327893
#
# Stress axis : x y z
#
# Youngs Moduli (GPa) = 110.20483 99.69579 95.07636
#
# Poissons Ratio (x) = 0.47321 0.38242
# Poissons Ratio (y) = 0.52309 -0.05676
# Poissons Ratio (z) = 0.44327 -0.05952
#
# Static dielectric constant tensor:
#      x y z
#    x 5.097300 0.000000 -0.282750 
#    y 0.000000 4.772470 0.000000 
#    z -0.282750 0.000000 4.492060 
# 
# 
# High freq. dielectric constant tensor:
#      x y z
#    x 2.051580 0.000000 -0.009530 
#    y 0.000000 2.038290 0.000000 
#    z -0.009530 0.000000 2.038260 
# 
# From -- ./inp_files/27811.got.cif
#   From: 2010.06.25/outbox.cif.g09.slc.cpg/sg15_14_cif.got.tgz:27811.got - 2010.06.28 07:06:18.
