data_PCOD8155452
_publ_section_title
;
Structure prediction by ZEFSAII (Michael W. Deem and Ramdas Pophale) SiO2 
 PCOD8155452
Probable space group: P 2 2 21
;
_chemical_formula_sum "Si O2"
_cell_formula_units_Z 16
_cell_length_a 11.112381
_cell_length_b 8.991181
_cell_length_c 7.585351
_cell_angle_alpha 90.000000
_cell_angle_beta 90.000000
_cell_angle_gamma 90.000000
_cell_volume 757.878428
_symmetry_space_group_name_H-M "P 2 2 21"
_symmetry_group_IT_number 17
_symmetry_cell_setting 'orthorhombic'
loop_
_space_group_symop_operation_xyz
x,y,z
-x,-y,1/2+z
x,-y,-z
-x,y,1/2-z
loop_
_atom_site_type_symbol
_atom_site_label
_atom_site_fract_x
_atom_site_fract_y
_atom_site_fract_z
Si Si1 0.727746 0.674888 0.996844
Si Si2 0.505119 0.835725 0.545491
Si Si3 0.863946 0.859694 0.286117
Si Si4 0.764472 0.174116 0.368364
O O1 0.590122 0.723159 0.045070
O O2 0.765569 0.718232 0.798091
O O3 0.739007 0.500000 0.000000
O O4 0.818243 0.747164 0.136918
O O5 0.500000 0.808306 0.750000
O O6 0.645240 0.810239 0.504212
O O7 0.459509 0.000000 0.500000
O O8 0.864494 0.785924 0.483635
O O9 0.000000 0.907890 0.250000
O O10 0.780867 0.007389 0.291883
#
# Coordination Sequence:
#
# PCOD8155452 Si02
#       4
#     4   4   4   4
#     4  11  25  43  63  99 139 174 211 265 339 407
#     4  10  19  39  65  96 127 164 216 275 330 383
#     4  11  24  43  71  98 123 176 229 277 323 378
#     4  10  23  43  67 102 124 163 229 276 324 384
#
# _framework density 21.111566
#
# number of rings (size 3 to 8) (size 9 to 14) (size 15 to 20)
#    0.000    1.500    2.500    3.750    7.000    1.000 
#   18.000    0.000    0.000    0.000    0.000    0.000 
#    0.000    0.000    0.000    0.000    0.000    0.000 
#
# Total GULP energy -198231.194449 kJ/mol
# GULP energy per Si atom -12389.449653 kJ/mol
# Density = 2.106352 g / cm^3
# Si number density = 21.111566 Si / 1000 Ang^3
#
#
#
# Elastic Constant Matrix: (Units=GPa)
#
#
# Indices 1 2 3 4 5 6 
#
# 1 102.6557 38.4508 41.6611 0.0000 0.0000 0.0000
# 2 38.4508 111.4959 58.7652 0.0000 0.0000 0.0000
# 3 41.6611 58.7652 116.2523 0.0000 0.0000 0.0000
# 4 0.0000 0.0000 0.0000 25.6205 0.0000 0.0000
# 5 0.0000 0.0000 0.0000 0.0000 35.8409 0.0000
# 6 0.0000 0.0000 0.0000 0.0000 0.0000 49.0381
#
#
#
# Elastic Compliance Matrix: (Units=1/GPa)
#
#
# Indices 1 2 3 4 5 6 
#
# 1 0.011901 -0.002530 -0.002986 0.000000 0.000000 0.000000
# 2 -0.002530 0.012764 -0.005546 0.000000 0.000000 0.000000
# 3 -0.002986 -0.005546 0.012475 0.000000 0.000000 0.000000
# 4 0.000000 0.000000 0.000000 0.039031 0.000000 0.000000
# 5 0.000000 0.000000 0.000000 0.000000 0.027901 0.000000
# 6 0.000000 0.000000 0.000000 0.000000 0.000000 0.020392
#
#
# Mechanical properties :
#
#
# Convention : Reuss Voigt Hill
#
# Bulk Modulus (GPa) = 66.59125 67.57312 67.08219
# Shear Modulus (GPa) = 32.98277 34.86836 33.92556
#
# Velocity S-wave (km/s) = 3.95689 4.06843 4.01305
# Velocity P-wave (km/s) = 7.24479 7.35844 7.30183
#
# Compressibility (1/GPa) = 0.01501699
#
# Stress axis : x y z
#
# Youngs Moduli (GPa) = 84.02779 78.34252 80.15889
#
# Poissons Ratio (x) = 0.19825 0.23933
# Poissons Ratio (y) = 0.21263 0.44453
# Poissons Ratio (z) = 0.25088 0.43445
#
# Static dielectric constant tensor:
#      x y z
#    x 5.400570 0.000000 0.000000 
#    y 0.000000 3.425210 0.000000 
#    z 0.000000 0.000000 4.034620 
# 
# 
# High freq. dielectric constant tensor:
#      x y z
#    x 1.833920 0.000000 0.000000 
#    y 0.000000 1.789470 0.000000 
#    z 0.000000 0.000000 1.844360 
# 
# From -- ./inp_files/4514.got.cif
#   From: 2010.03.12/outbox.cif.g09.slc.cpg/sg17_3_cif.got.tgz:4514.got - 2010.04.10 18:46:23.
