data_PCOD8155279
_publ_section_title
;
Structure prediction by ZEFSAII (Michael W. Deem and Ramdas Pophale) SiO2 
 PCOD8155279
Probable space group: P 2 2 2
;
_chemical_formula_sum "Si O2"
_cell_formula_units_Z 17
_cell_length_a 13.975922
_cell_length_b 11.335532
_cell_length_c 5.387029
_cell_angle_alpha 90.000000
_cell_angle_beta 90.000000
_cell_angle_gamma 90.000000
_cell_volume 853.437435
_symmetry_space_group_name_H-M "P 2 2 2"
_symmetry_group_IT_number 16
_symmetry_cell_setting 'orthorhombic'
loop_
_space_group_symop_operation_xyz
x,y,z
-x,-y,z
x,-y,-z
-x,y,-z
loop_
_atom_site_type_symbol
_atom_site_label
_atom_site_fract_x
_atom_site_fract_y
_atom_site_fract_z
Si Si1 0.500000 0.500000 0.500000
Si Si2 0.796117 0.635964 0.996650
Si Si3 0.392442 0.951551 0.746038
Si Si4 0.592909 0.312579 0.840275
Si Si5 0.109435 0.359533 0.497960
O O1 0.573273 0.419177 0.652540
O O2 0.681906 0.652368 0.987186
O O3 0.839563 0.692738 0.249987
O O4 0.825128 0.500000 0.000000
O O5 0.839928 0.693072 0.745877
O O6 0.386632 0.811249 0.709076
O O7 0.500000 0.000000 0.748183
O O8 0.338885 0.000000 0.500000
O O9 0.342248 0.000000 0.000000
O O10 0.500000 0.291917 0.000000
O O11 0.118387 0.500000 0.500000
O O12 0.000000 0.317790 0.500000
#
# Coordination Sequence:
#
# PCOD8155279 Si02
#       5
#     1   4   4   4   4
#     4  12  26  36  54  78 130 176 202 226 302 372
#     4  10  21  33  52  80 116 150 198 232 283 357
#     4  10  20  39  59  77 101 154 203 260 288 319
#     4  12  25  38  56  83 124 166 203 240 298 362
#     4   9  18  34  54  75 106 151 196 240 285 338
#
# _framework density 19.919445
#
# number of rings (size 3 to 8) (size 9 to 14) (size 15 to 20)
#    0.000    1.647    2.353    3.882    8.235    2.824 
#    0.000    0.000    0.000    0.000    0.000    0.000 
#    0.000   14.118    0.000    0.000    0.000    0.000 
#
# Total GULP energy -210716.698462 kJ/mol
# GULP energy per Si atom -12395.099910 kJ/mol
# Density = 1.987411 g / cm^3
# Si number density = 19.919445 Si / 1000 Ang^3
#
#
#
# Elastic Constant Matrix: (Units=GPa)
#
#
# Indices 1 2 3 4 5 6 
#
# 1 116.8726 3.1070 65.2516 0.0000 0.0000 0.0000
# 2 3.1070 97.9473 42.5657 0.0000 0.0000 0.0000
# 3 65.2516 42.5657 201.8723 0.0000 0.0000 0.0000
# 4 0.0000 0.0000 0.0000 18.3177 0.0000 0.0000
# 5 0.0000 0.0000 0.0000 0.0000 24.3996 0.0000
# 6 0.0000 0.0000 0.0000 0.0000 0.0000 -7.3391
#
#
#
# Elastic Compliance Matrix: (Units=1/GPa)
#
#
# Indices 1 2 3 4 5 6 
#
# 1 0.010581 0.001267 -0.003687 0.000000 0.000000 0.000000
# 2 0.001267 0.011391 -0.002811 0.000000 0.000000 0.000000
# 3 -0.003687 -0.002811 0.006738 0.000000 0.000000 0.000000
# 4 0.000000 0.000000 0.000000 0.054592 0.000000 0.000000
# 5 0.000000 0.000000 0.000000 0.000000 0.040984 0.000000
# 6 0.000000 0.000000 0.000000 0.000000 0.000000 -0.136256
#
#
# Mechanical properties :
#
#
# Convention : Reuss Voigt Hill
#
# Bulk Modulus (GPa) = 54.80366 70.94898 62.87632
# Shear Modulus (GPa) = 1092.37184 27.46016 559.91600
#
# Velocity S-wave (km/s) = 23.44323 3.71693 16.78393
# Velocity P-wave (km/s) = 27.57449 7.35636 20.18005
#
# Compressibility (1/GPa) = 0.01824696
#
# Stress axis : x y z
#
# Youngs Moduli (GPa) = 94.50605 87.78766 148.40603
#
# Poissons Ratio (x) = -0.11121 0.54722
# Poissons Ratio (y) = -0.11972 0.41722
# Poissons Ratio (z) = 0.34848 0.24680
#
# Static dielectric constant tensor:
#      x y z
#    x 3.368690 0.000000 0.000000 
#    y 0.000000 3.512710 0.000000 
#    z 0.000000 0.000000 5.031250 
# 
# 
# High freq. dielectric constant tensor:
#      x y z
#    x 1.746650 0.000000 0.000000 
#    y 0.000000 1.729130 0.000000 
#    z 0.000000 0.000000 1.803550 
# 
# From -- ./inp_files/1239.got.cif
#   From: 2010.03.12/outbox.cif.g09.slc.cpg/sg16_1_cif.got.tgz:1239.got - 2010.03.31 00:51:45.
