data_PCOD8155519
_publ_section_title
;
Structure prediction by ZEFSAII (Michael W. Deem and Ramdas Pophale) SiO2 
 PCOD8155519
Probable space group: P 2 2 21
;
_chemical_formula_sum "Si O2"
_cell_formula_units_Z 26
_cell_length_a 11.288546
_cell_length_b 9.684561
_cell_length_c 12.145363
_cell_angle_alpha 90.000000
_cell_angle_beta 90.000000
_cell_angle_gamma 90.000000
_cell_volume 1327.787102
_symmetry_space_group_name_H-M "P 2 2 21"
_symmetry_group_IT_number 17
_symmetry_cell_setting 'orthorhombic'
loop_
_space_group_symop_operation_xyz
x,y,z
-x,-y,1/2+z
x,-y,-z
-x,y,1/2-z
loop_
_atom_site_type_symbol
_atom_site_label
_atom_site_fract_x
_atom_site_fract_y
_atom_site_fract_z
Si Si1 0.430116 0.890344 0.647800
Si Si2 0.519927 0.814320 0.419474
Si Si3 0.954429 0.867921 0.573166
Si Si4 0.172998 0.192754 0.287036
Si Si5 0.271249 0.447891 0.173299
Si Si6 0.762267 0.296133 0.543372
Si Si7 0.500000 0.581169 0.250000
O O1 0.500000 0.823258 0.750000
O O2 0.465603 0.803569 0.541057
O O3 0.290346 0.880898 0.668795
O O4 0.469652 0.049488 0.638169
O O5 0.664799 0.818677 0.419513
O O6 0.478400 0.677530 0.356155
O O7 0.872803 0.895699 0.681175
O O8 0.888678 0.764593 0.489968
O O9 0.078402 0.804603 0.614093
O O10 0.981942 0.000000 0.500000
O O11 0.189499 0.352640 0.251148
O O12 0.210135 0.594213 0.140946
O O13 0.390185 0.479157 0.238950
O O14 0.300816 0.367955 0.060855
#
# Coordination Sequence:
#
# PCOD8155519 Si02
#       7
#     4   4   4   4   4   4   2
#     4  11  22  36  61  89 128 160 194 256 317 377
#     4  10  22  35  58  94 126 155 200 253 310 376
#     4  10  22  39  66  87 120 160 212 266 304 375
#     4  10  23  39  60  91 122 161 208 252 325 363
#     4   9  19  36  62  85 122 159 205 252 298 381
#     4   9  19  37  62  88 115 167 212 246 302 368
#     4  10  20  38  58  92 130 158 202 252 310 374
#
# _framework density 19.581453
#
# number of rings (size 3 to 8) (size 9 to 14) (size 15 to 20)
#    0.000    2.154    0.769    1.846    9.692    0.000 
#    0.000    0.000   23.692    0.000    0.000    0.000 
#    0.000    0.000    0.000    0.000    0.000    0.000 
#
# Total GULP energy -322294.334364 kJ/mol
# GULP energy per Si atom -12395.935937 kJ/mol
# Density = 1.953688 g / cm^3
# Si number density = 19.581453 Si / 1000 Ang^3
#
#
#
# Elastic Constant Matrix: (Units=GPa)
#
#
# Indices 1 2 3 4 5 6 
#
# 1 153.8942 72.2693 67.6784 0.0000 0.0000 0.0000
# 2 72.2693 96.4256 52.5151 0.0000 0.0000 0.0000
# 3 67.6784 52.5151 111.7765 0.0000 0.0000 0.0000
# 4 0.0000 0.0000 0.0000 33.2347 0.0000 0.0000
# 5 0.0000 0.0000 0.0000 0.0000 36.2472 0.0000
# 6 0.0000 0.0000 0.0000 0.0000 0.0000 27.5104
#
#
#
# Elastic Compliance Matrix: (Units=1/GPa)
#
#
# Indices 1 2 3 4 5 6 
#
# 1 0.011100 -0.006261 -0.003779 0.000000 0.000000 0.000000
# 2 -0.006261 0.017468 -0.004416 0.000000 0.000000 0.000000
# 3 -0.003779 -0.004416 0.013310 0.000000 0.000000 0.000000
# 4 0.000000 0.000000 0.000000 0.030089 0.000000 0.000000
# 5 0.000000 0.000000 0.000000 0.000000 0.027588 0.000000
# 6 0.000000 0.000000 0.000000 0.000000 0.000000 0.036350
#
#
# Mechanical properties :
#
#
# Convention : Reuss Voigt Hill
#
# Bulk Modulus (GPa) = 77.13043 83.00246 80.06644
# Shear Modulus (GPa) = 29.56125 30.70735 30.13430
#
# Velocity S-wave (km/s) = 3.88964 3.96433 3.92716
# Velocity P-wave (km/s) = 7.72318 7.96460 7.84482
#
# Compressibility (1/GPa) = 0.01296505
#
# Stress axis : x y z
#
# Youngs Moduli (GPa) = 90.08755 57.24626 75.13425
#
# Poissons Ratio (x) = 0.35843 0.28396
# Poissons Ratio (y) = 0.56405 0.33179
# Poissons Ratio (z) = 0.34047 0.25280
#
# Static dielectric constant tensor:
#      x y z
#    x 3.449690 0.000000 0.000000 
#    y 0.000000 3.568770 0.000000 
#    z 0.000000 0.000000 3.777510 
# 
# 
# High freq. dielectric constant tensor:
#      x y z
#    x 1.750320 0.000000 0.000000 
#    y 0.000000 1.757370 0.000000 
#    z 0.000000 0.000000 1.767950 
# 
# From -- ./inp_files/6962.got.cif
#   From: 2010.03.12/outbox.cif.g09.slc.cpg/sg17_4_cif.got.tgz:6962.got - 2010.04.10 18:46:23.
