data_PCOD8155689
_publ_section_title
;
Structure prediction by ZEFSAII (Michael W. Deem and Ramdas Pophale) SiO2 
 PCOD8155689
Probable space group: P 2 2 21
;
_chemical_formula_sum "Si O2"
_cell_formula_units_Z 14
_cell_length_a 10.227395
_cell_length_b 5.370553
_cell_length_c 10.287707
_cell_angle_alpha 90.000000
_cell_angle_beta 90.000000
_cell_angle_gamma 90.000000
_cell_volume 565.070484
_symmetry_space_group_name_H-M "P 2 2 21"
_symmetry_group_IT_number 17
_symmetry_cell_setting 'orthorhombic'
loop_
_space_group_symop_operation_xyz
x,y,z
-x,-y,1/2+z
x,-y,-z
-x,y,1/2-z
loop_
_atom_site_type_symbol
_atom_site_label
_atom_site_fract_x
_atom_site_fract_y
_atom_site_fract_z
Si Si1 0.272395 0.895468 0.830052
Si Si2 0.500000 0.252911 0.750000
Si Si3 0.048003 0.000000 0.000000
Si Si4 0.798183 0.251282 0.060397
Si Si5 0.417178 0.500000 0.000000
O O1 0.228593 0.716718 0.713315
O O2 0.372548 0.087390 0.767228
O O3 0.143142 0.044096 0.876295
O O4 0.328976 0.733761 0.951369
O O5 0.489909 0.423878 0.620696
O O6 0.954099 0.762689 0.972493
O O7 0.737987 0.500000 0.000000
O O8 0.730152 0.000000 0.000000
#
# Coordination Sequence:
#
# PCOD8155689 Si02
#       5
#     4   2   2   4   2
#     4  12  26  52  77 113 159 201 268 331 399 483
#     4  12  28  52  76 116 154 206 272 332 408 478
#     4  10  24  50  76 114 154 210 250 332 388 480
#     4  10  27  48  78 119 159 208 262 324 398 478
#     4  12  28  48  86 108 156 214 262 334 416 470
#
# _framework density 24.775670000000002
#
# number of rings (size 3 to 8) (size 9 to 14) (size 15 to 20)
#    0.857    0.000    2.857    1.714    6.000    4.571 
#    7.714    0.000    0.000    0.000    0.000    0.000 
#    0.000    0.000    0.000    0.000    0.000    0.000 
#
# Total GULP energy -173494.909079 kJ/mol
# GULP energy per Si atom -12392.493506 kJ/mol
# Density = 2.471928 g / cm^3
# Si number density = 24.775670 Si / 1000 Ang^3
#
#
#
# Elastic Constant Matrix: (Units=GPa)
#
#
# Indices 1 2 3 4 5 6 
#
# 1 59.8091 21.1770 41.6007 0.0000 0.0000 0.0000
# 2 21.1770 115.7853 48.7330 0.0000 0.0000 0.0000
# 3 41.6007 48.7330 202.7769 0.0000 0.0000 0.0000
# 4 0.0000 0.0000 0.0000 52.1288 0.0000 0.0000
# 5 0.0000 0.0000 0.0000 0.0000 57.4282 0.0000
# 6 0.0000 0.0000 0.0000 0.0000 0.0000 -1.0940
#
#
#
# Elastic Compliance Matrix: (Units=1/GPa)
#
#
# Indices 1 2 3 4 5 6 
#
# 1 0.019971 -0.002145 -0.003582 0.000000 0.000000 0.000000
# 2 -0.002145 0.009839 -0.001925 0.000000 0.000000 0.000000
# 3 -0.003582 -0.001925 0.006129 0.000000 0.000000 0.000000
# 4 0.000000 0.000000 0.000000 0.019183 0.000000 0.000000
# 5 0.000000 0.000000 0.000000 0.000000 0.017413 0.000000
# 6 0.000000 0.000000 0.000000 0.000000 0.000000 -0.914060
#
#
# Mechanical properties :
#
#
# Convention : Reuss Voigt Hill
#
# Bulk Modulus (GPa) = 48.45891 66.82141 57.64016
# Shear Modulus (GPa) = -6.10244 39.48331 16.69043
#
# Velocity S-wave (km/s) = -1.57112 3.99636 2.59832
# Velocity P-wave (km/s) = 4.03860 6.95152 5.68480
#
# Compressibility (1/GPa) = 0.02063604
#
# Stress axis : x y z
#
# Youngs Moduli (GPa) = 50.07365 101.63605 163.16387
#
# Poissons Ratio (x) = 0.21803 0.58437
# Poissons Ratio (y) = 0.10742 0.31401
# Poissons Ratio (z) = 0.17934 0.19560
#
# Static dielectric constant tensor:
#      x y z
#    x 4.287730 0.000000 0.000000 
#    y 0.000000 4.187770 0.000000 
#    z 0.000000 0.000000 4.787080 
# 
# 
# High freq. dielectric constant tensor:
#      x y z
#    x 1.985860 0.000000 0.000000 
#    y 0.000000 1.966990 0.000000 
#    z 0.000000 0.000000 2.006520 
# 
# From -- ./inp_files/4455.got.cif
#   From: 2010.03.12/outbox.cif.g09.slc.cpg/sg17_3_cif.got.tgz:4455.got - 2010.04.10 18:46:23.
