data_PCOD8155467
_publ_section_title
;
Structure prediction by ZEFSAII (Michael W. Deem and Ramdas Pophale) SiO2 
 PCOD8155467
Probable space group: P 2 2 21
;
_chemical_formula_sum "Si O2"
_cell_formula_units_Z 20
_cell_length_a 10.033053
_cell_length_b 8.788554
_cell_length_c 10.155651
_cell_angle_alpha 90.000000
_cell_angle_beta 90.000000
_cell_angle_gamma 90.000000
_cell_volume 895.484968
_symmetry_space_group_name_H-M "P 2 2 21"
_symmetry_group_IT_number 17
_symmetry_cell_setting 'orthorhombic'
loop_
_space_group_symop_operation_xyz
x,y,z
-x,-y,1/2+z
x,-y,-z
-x,y,1/2-z
loop_
_atom_site_type_symbol
_atom_site_label
_atom_site_fract_x
_atom_site_fract_y
_atom_site_fract_z
Si Si1 0.592769 0.251136 0.137952
Si Si2 0.361855 0.241360 0.818927
Si Si3 0.558936 0.500000 0.500000
Si Si4 0.113809 0.679493 0.346022
Si Si5 0.454068 0.000000 0.000000
Si Si6 0.111216 0.680430 0.647133
O O1 0.500000 0.181429 0.250000
O O2 0.542077 0.420037 0.102257
O O3 0.745385 0.250071 0.184708
O O4 0.559875 0.136100 0.021322
O O5 0.500000 0.273434 0.750000
O O6 0.250310 0.247308 0.705778
O O7 0.358822 0.072418 0.886354
O O8 0.343992 0.377375 0.927723
O O9 0.080448 0.729190 0.496164
O O10 0.122894 0.499009 0.338660
O O11 0.000000 0.742708 0.250000
O O12 0.000000 0.743525 0.750000
#
# Coordination Sequence:
#
# PCOD8155467 Si02
#       6
#     4   4   2   4   2   4
#     4  11  21  37  61  90 122 161 205 253 306 367
#     4  11  21  38  62  90 127 169 212 264 319 377
#     4  10  20  32  60  98 124 156 210 262 310 370
#     4  10  21  37  61  93 129 165 204 257 317 374
#     4  10  24  38  60  90 124 164 214 262 310 370
#     4  10  21  37  60  94 129 162 205 259 317 375
#
# _framework density 22.334268000000002
#
# number of rings (size 3 to 8) (size 9 to 14) (size 15 to 20)
#    0.000    1.600    0.000    7.200    0.000    6.400 
#    0.000    0.000    0.000   19.200    0.000    1.400 
#    0.000    0.000    0.000    0.000    0.000    0.000 
#
# Total GULP energy -247860.929354 kJ/mol
# GULP energy per Si atom -12393.046468 kJ/mol
# Density = 2.228343 g / cm^3
# Si number density = 22.334268 Si / 1000 Ang^3
#
#
#
# Elastic Constant Matrix: (Units=GPa)
#
#
# Indices 1 2 3 4 5 6 
#
# 1 154.4799 20.5983 87.2163 0.0000 0.0000 0.0000
# 2 20.5983 74.9217 29.3372 0.0000 0.0000 0.0000
# 3 87.2163 29.3372 144.0358 0.0000 0.0000 0.0000
# 4 0.0000 0.0000 0.0000 24.9688 0.0000 0.0000
# 5 0.0000 0.0000 0.0000 0.0000 48.5090 0.0000
# 6 0.0000 0.0000 0.0000 0.0000 0.0000 -7.5386
#
#
#
# Elastic Compliance Matrix: (Units=1/GPa)
#
#
# Indices 1 2 3 4 5 6 
#
# 1 0.009847 -0.000405 -0.005880 0.000000 0.000000 0.000000
# 2 -0.000405 0.014521 -0.002712 0.000000 0.000000 0.000000
# 3 -0.005880 -0.002712 0.011056 0.000000 0.000000 0.000000
# 4 0.000000 0.000000 0.000000 0.040050 0.000000 0.000000
# 5 0.000000 0.000000 0.000000 0.000000 0.020615 0.000000
# 6 0.000000 0.000000 0.000000 0.000000 0.000000 -0.132651
#
#
# Mechanical properties :
#
#
# Convention : Reuss Voigt Hill
#
# Bulk Modulus (GPa) = 57.37656 71.97122 64.67389
# Shear Modulus (GPa) = -391.89368 28.94022 -181.47673
#
# Velocity S-wave (km/s) = -13.26078 3.60360 -9.02393
# Velocity P-wave (km/s) = 14.44710 7.04337 8.91935
#
# Compressibility (1/GPa) = 0.01742872
#
# Stress axis : x y z
#
# Youngs Moduli (GPa) = 101.55241 68.86724 90.45070
#
# Poissons Ratio (x) = 0.02788 0.53187
# Poissons Ratio (y) = 0.04111 0.24535
# Poissons Ratio (z) = 0.59715 0.18680
#
# Static dielectric constant tensor:
#      x y z
#    x 3.916970 0.000000 0.000000 
#    y 0.000000 3.866220 0.000000 
#    z 0.000000 0.000000 4.598680 
# 
# 
# High freq. dielectric constant tensor:
#      x y z
#    x 1.858910 0.000000 0.000000 
#    y 0.000000 1.859710 0.000000 
#    z 0.000000 0.000000 1.895910 
# 
# From -- ./inp_files/6431.got.cif
#   From: 2010.03.12/outbox.cif.g09.slc.cpg/sg17_4_cif.got.tgz:6431.got - 2010.04.10 18:46:23.
