data_PCOD8155735
_publ_section_title
;
Structure prediction by ZEFSAII (Michael W. Deem and Ramdas Pophale) SiO2 
 PCOD8155735
Probable space group: P 2 2 21
;
_chemical_formula_sum "Si O2"
_cell_formula_units_Z 32
_cell_length_a 15.417524
_cell_length_b 11.246185
_cell_length_c 8.297665
_cell_angle_alpha 90.000000
_cell_angle_beta 90.000000
_cell_angle_gamma 90.000000
_cell_volume 1438.718254
_symmetry_space_group_name_H-M "P 2 2 21"
_symmetry_group_IT_number 17
_symmetry_cell_setting 'orthorhombic'
loop_
_space_group_symop_operation_xyz
x,y,z
-x,-y,1/2+z
x,-y,-z
-x,y,1/2-z
loop_
_atom_site_type_symbol
_atom_site_label
_atom_site_fract_x
_atom_site_fract_y
_atom_site_fract_z
Si Si1 0.141174 0.672225 0.870001
Si Si2 0.097839 0.423387 0.782297
Si Si3 0.913163 0.067395 0.332491
Si Si4 0.408115 0.048033 0.324309
Si Si5 0.257643 0.694978 0.316770
Si Si6 0.595725 0.522758 0.308959
Si Si7 0.316526 0.706564 0.680042
Si Si8 0.751851 0.944865 0.322986
O O1 0.096903 0.566608 0.767692
O O2 0.084951 0.791084 0.852630
O O3 0.238623 0.698280 0.809184
O O4 0.138435 0.625903 0.052291
O O5 0.168776 0.379432 0.653303
O O6 0.000000 0.376015 0.750000
O O7 0.000000 0.023095 0.250000
O O8 0.908147 0.000000 0.500000
O O9 0.828544 0.020574 0.232416
O O10 0.500000 0.029488 0.250000
O O11 0.376032 0.180303 0.285993
O O12 0.418151 0.000000 0.500000
O O13 0.341713 0.955728 0.250781
O O14 0.334756 0.625405 0.227326
O O15 0.285007 0.726098 0.497697
O O16 0.229865 0.804890 0.199913
O O17 0.595568 0.500000 0.500000
O O18 0.500000 0.562480 0.250000
O O19 0.622971 0.408093 0.203900
O O20 0.748395 0.000000 0.500000
#
# Coordination Sequence:
#
# PCOD8155735 Si02
#       8
#     4   4   4   4   4   4   4   4
#     4  11  24  45  73 100 143 199 241 304 381 441
#     4  11  25  45  71 107 148 190 254 307 378 449
#     4  11  25  43  68 101 139 185 242 291 361 428
#     4  12  26  49  74 110 145 195 247 306 372 447
#     4  12  26  45  76 106 149 194 248 306 376 450
#     4  12  27  48  75 107 145 189 244 304 379 452
#     4  12  25  47  75 107 150 193 247 307 377 447
#     4  11  25  46  72 101 145 193 242 301 362 434
#
# _framework density 22.24202
#
# number of rings (size 3 to 8) (size 9 to 14) (size 15 to 20)
#    0.000    0.500    3.750    4.500    1.750    7.000 
#    2.250    0.000    0.000    0.000    0.000    0.000 
#    0.000    0.000    0.000    0.000    0.000    0.000 
#
# Total GULP energy -396591.070934 kJ/mol
# GULP energy per Si atom -12393.470967 kJ/mol
# Density = 2.219140 g / cm^3
# Si number density = 22.242020 Si / 1000 Ang^3
#
#
#
# Elastic Constant Matrix: (Units=GPa)
#
#
# Indices 1 2 3 4 5 6 
#
# 1 195.1803 43.7200 50.8572 0.0000 0.0000 0.0000
# 2 43.7200 137.6419 33.4160 0.0000 0.0000 0.0000
# 3 50.8572 33.4160 91.2346 0.0000 0.0000 0.0000
# 4 0.0000 0.0000 0.0000 31.2917 0.0000 0.0000
# 5 0.0000 0.0000 0.0000 0.0000 29.5192 0.0000
# 6 0.0000 0.0000 0.0000 0.0000 0.0000 44.4611
#
#
#
# Elastic Compliance Matrix: (Units=1/GPa)
#
#
# Indices 1 2 3 4 5 6 
#
# 1 0.006180 -0.001237 -0.002992 0.000000 0.000000 0.000000
# 2 -0.001237 0.008222 -0.002322 0.000000 0.000000 0.000000
# 3 -0.002992 -0.002322 0.013479 0.000000 0.000000 0.000000
# 4 0.000000 0.000000 0.000000 0.031957 0.000000 0.000000
# 5 0.000000 0.000000 0.000000 0.000000 0.033876 0.000000
# 6 0.000000 0.000000 0.000000 0.000000 0.000000 0.022492
#
#
# Mechanical properties :
#
#
# Convention : Reuss Voigt Hill
#
# Bulk Modulus (GPa) = 67.66093 75.56034 71.61064
# Shear Modulus (GPa) = 37.24841 40.79199 39.02020
#
# Velocity S-wave (km/s) = 4.09673 4.28718 4.19304
# Velocity P-wave (km/s) = 7.27076 7.65194 7.46378
#
# Compressibility (1/GPa) = 0.01477958
#
# Stress axis : x y z
#
# Youngs Moduli (GPa) = 161.80985 121.62863 74.18897
#
# Poissons Ratio (x) = 0.15041 0.22198
# Poissons Ratio (y) = 0.20010 0.17227
# Poissons Ratio (z) = 0.48414 0.28242
#
# Static dielectric constant tensor:
#      x y z
#    x 4.428040 0.000000 0.000000 
#    y 0.000000 4.259170 0.000000 
#    z 0.000000 0.000000 3.922480 
# 
# 
# High freq. dielectric constant tensor:
#      x y z
#    x 1.894950 0.000000 0.000000 
#    y 0.000000 1.889630 0.000000 
#    z 0.000000 0.000000 1.870100 
# 
# From -- ./inp_files/5271.got.cif
#   From: 2010.03.12/outbox.cif.g09.slc.cpg/sg17_3_cif.got.tgz:5271.got - 2010.04.10 18:46:23.
