data_PCOD8155973
_publ_section_title
;
Structure prediction by ZEFSAII (Michael W. Deem and Ramdas Pophale) SiO2 
 PCOD8155973
Probable space group: P 21 21 2
;
_chemical_formula_sum "Si O2"
_cell_formula_units_Z 30
_cell_length_a 11.966823
_cell_length_b 5.587332
_cell_length_c 22.489958
_cell_angle_alpha 90.000000
_cell_angle_beta 90.000000
_cell_angle_gamma 90.000000
_cell_volume 1503.737360
_symmetry_space_group_name_H-M "P 21 21 2"
_symmetry_group_IT_number 18
_symmetry_cell_setting 'orthorhombic'
loop_
_space_group_symop_operation_xyz
x,y,z
-x,-y,z
1/2+x,1/2-y,-z
1/2-x,1/2+y,-z
loop_
_atom_site_type_symbol
_atom_site_label
_atom_site_fract_x
_atom_site_fract_y
_atom_site_fract_z
Si Si1 0.317462 0.328708 0.688642
Si Si2 0.178588 0.078446 0.069488
Si Si3 0.621199 0.392472 0.799714
Si Si4 0.500000 0.000000 0.736561
Si Si5 0.615436 0.927209 0.985968
Si Si6 0.624913 0.460329 0.368334
Si Si7 0.387140 0.862047 0.479117
Si Si8 0.214251 0.157872 0.413474
O O1 0.305922 0.475080 0.749725
O O2 0.426870 0.163388 0.693075
O O3 0.196680 0.209399 0.675662
O O4 0.350909 0.492568 0.632820
O O5 0.112717 0.835318 0.047282
O O6 0.192397 0.077731 0.140385
O O7 0.128689 0.342834 0.057529
O O8 0.298623 0.070194 0.039509
O O9 0.500000 0.500000 0.811288
O O10 0.594205 0.124069 0.778145
O O11 0.500000 0.000000 0.017510
O O12 0.500000 0.500000 0.341199
O O13 0.611869 0.363621 0.435223
O O14 0.695975 0.701219 0.373386
O O15 0.378786 0.803649 0.549498
O O16 0.500000 0.000000 0.466387
O O17 0.279018 0.018380 0.464993
#
# Coordination Sequence:
#
# PCOD8155973 Si02
#       8
#     4   4   4   2   4   4   4   4
#     4  10  24  41  63  88 124 155 205 256 315 369
#     4  10  22  35  64  95 128 172 219 260 318 377
#     4  10  21  39  62  89 120 162 208 258 309 368
#     4  10  22  44  62  90 120 160 202 266 312 376
#     4  10  20  37  59  96 134 172 211 264 317 377
#     4  11  22  41  65  84 117 157 200 252 303 378
#     4  11  22  39  62  86 115 152 194 248 308 380
#     4  11  22  41  61  91 117 152 199 247 311 377
#
# _framework density 19.950294
#
# number of rings (size 3 to 8) (size 9 to 14) (size 15 to 20)
#    0.000    1.600    2.667    2.000    4.667    0.000 
#    9.600    1.333    5.867    0.000    0.000    0.000 
#    0.000    0.000    0.000    0.000    0.000    0.000 
#
# Total GULP energy -371674.495164 kJ/mol
# GULP energy per Si atom -12389.149839 kJ/mol
# Density = 1.990489 g / cm^3
# Si number density = 19.950294 Si / 1000 Ang^3
#
#
#
# Elastic Constant Matrix: (Units=GPa)
#
#
# Indices 1 2 3 4 5 6 
#
# 1 68.4851 29.3756 44.1717 0.0000 0.0000 0.0000
# 2 29.3756 120.6945 48.5004 0.0000 0.0000 0.0000
# 3 44.1717 48.5004 135.1699 0.0000 0.0000 0.0000
# 4 0.0000 0.0000 0.0000 30.6362 0.0000 0.0000
# 5 0.0000 0.0000 0.0000 0.0000 10.7809 0.0000
# 6 0.0000 0.0000 0.0000 0.0000 0.0000 26.9510
#
#
#
# Elastic Compliance Matrix: (Units=1/GPa)
#
#
# Indices 1 2 3 4 5 6 
#
# 1 0.019128 -0.002505 -0.005352 0.000000 0.000000 0.000000
# 2 -0.002505 0.010009 -0.002773 0.000000 0.000000 0.000000
# 3 -0.005352 -0.002773 0.010142 0.000000 0.000000 0.000000
# 4 0.000000 0.000000 0.000000 0.032641 0.000000 0.000000
# 5 0.000000 0.000000 0.000000 0.000000 0.092757 0.000000
# 6 0.000000 0.000000 0.000000 0.000000 0.000000 0.037104
#
#
# Mechanical properties :
#
#
# Convention : Reuss Voigt Hill
#
# Bulk Modulus (GPa) = 55.49437 63.16055 59.32746
# Shear Modulus (GPa) = 21.82947 27.16039 24.49493
#
# Velocity S-wave (km/s) = 3.31145 3.69372 3.50780
# Velocity P-wave (km/s) = 6.51902 7.06535 6.79767
#
# Compressibility (1/GPa) = 0.01801984
#
# Stress axis : x y z
#
# Youngs Moduli (GPa) = 52.27906 99.90703 98.59973
#
# Poissons Ratio (x) = 0.25025 0.52771
# Poissons Ratio (y) = 0.13095 0.27341
# Poissons Ratio (z) = 0.27980 0.27703
#
# Static dielectric constant tensor:
#      x y z
#    x 3.572370 0.000000 0.000000 
#    y 0.000000 4.127610 0.000000 
#    z 0.000000 0.000000 3.456360 
# 
# 
# High freq. dielectric constant tensor:
#      x y z
#    x 1.770230 0.000000 0.000000 
#    y 0.000000 1.798560 0.000000 
#    z 0.000000 0.000000 1.759580 
# 
# From -- ./inp_files/7567.got.cif
#   From: 2010.03.12/outbox.cif.g09.slc.cpg/sg18_4_cif.got.tgz:7567.got - 2010.04.10 18:53:55.
