data_PCOD8155686
_publ_section_title
;
Structure prediction by ZEFSAII (Michael W. Deem and Ramdas Pophale) SiO2 
 PCOD8155686
Probable space group: P 2 2 21
;
_chemical_formula_sum "Si O2"
_cell_formula_units_Z 14
_cell_length_a 19.427804
_cell_length_b 5.301283
_cell_length_c 5.237591
_cell_angle_alpha 90.000000
_cell_angle_beta 90.000000
_cell_angle_gamma 90.000000
_cell_volume 539.431476
_symmetry_space_group_name_H-M "P 2 2 21"
_symmetry_group_IT_number 17
_symmetry_cell_setting 'orthorhombic'
loop_
_space_group_symop_operation_xyz
x,y,z
-x,-y,1/2+z
x,-y,-z
-x,y,1/2-z
loop_
_atom_site_type_symbol
_atom_site_label
_atom_site_fract_x
_atom_site_fract_y
_atom_site_fract_z
Si Si1 0.148829 0.329433 0.751484
Si Si2 0.351051 0.239320 0.154585
Si Si3 0.000000 0.663074 0.250000
Si Si4 0.747257 0.000000 0.000000
Si Si5 0.500000 0.662237 0.750000
O O1 0.153283 0.500000 0.500000
O O2 0.073116 0.189575 0.770988
O O3 0.205029 0.108373 0.728391
O O4 0.164407 0.500000 0.000000
O O5 0.301259 0.232537 0.401634
O O6 0.430233 0.176170 0.229985
O O7 0.344324 0.500000 0.000000
O O8 0.323966 0.000000 0.000000
O O9 0.006761 0.500000 0.500000
O O10 0.489792 0.500000 0.500000
#
# Coordination Sequence:
#
# PCOD8155686 Si02
#       5
#     4   4   2   2   2
#     4  10  24  45  74 106 153 202 264 325 400 469
#     4  11  30  50  80 115 160 208 268 326 401 474
#     4   8  16  40  70 102 140 198 258 326 384 468
#     4  12  30  44  78 114 160 208 260 330 400 490
#     4  10  26  52  82 114 152 206 266 330 388 468
#
# _framework density 25.953254000000001
#
# number of rings (size 3 to 8) (size 9 to 14) (size 15 to 20)
#    0.000    1.714    0.000    0.000   18.000    1.143 
#    0.000    8.571    0.000    0.000    0.000    0.000 
#    0.000    0.000    0.000    0.000    0.000    0.000 
#
# Total GULP energy -173443.972295 kJ/mol
# GULP energy per Si atom -12388.855164 kJ/mol
# Density = 2.589418 g / cm^3
# Si number density = 25.953254 Si / 1000 Ang^3
#
#
#
# Elastic Constant Matrix: (Units=GPa)
#
#
# Indices 1 2 3 4 5 6 
#
# 1 250.7669 67.3503 49.1721 0.0000 0.0000 0.0000
# 2 67.3503 106.4874 43.4677 0.0000 0.0000 0.0000
# 3 49.1721 43.4677 155.6326 0.0000 0.0000 0.0000
# 4 0.0000 0.0000 0.0000 34.4378 0.0000 0.0000
# 5 0.0000 0.0000 0.0000 0.0000 36.8865 0.0000
# 6 0.0000 0.0000 0.0000 0.0000 0.0000 25.6932
#
#
#
# Elastic Compliance Matrix: (Units=1/GPa)
#
#
# Indices 1 2 3 4 5 6 
#
# 1 0.004884 -0.002775 -0.000768 0.000000 0.000000 0.000000
# 2 -0.002775 0.012176 -0.002524 0.000000 0.000000 0.000000
# 3 -0.000768 -0.002524 0.007373 0.000000 0.000000 0.000000
# 4 0.000000 0.000000 0.000000 0.029038 0.000000 0.000000
# 5 0.000000 0.000000 0.000000 0.000000 0.027110 0.000000
# 6 0.000000 0.000000 0.000000 0.000000 0.000000 0.038921
#
#
# Mechanical properties :
#
#
# Convention : Reuss Voigt Hill
#
# Bulk Modulus (GPa) = 81.30957 92.54080 86.92519
# Shear Modulus (GPa) = 36.83627 42.92997 39.88312
#
# Velocity S-wave (km/s) = 3.77149 4.07151 3.92437
# Velocity P-wave (km/s) = 7.09667 7.60507 7.35526
#
# Compressibility (1/GPa) = 0.01229867
#
# Stress axis : x y z
#
# Youngs Moduli (GPa) = 204.76103 82.12604 135.63138
#
# Poissons Ratio (x) = 0.22793 0.10415
# Poissons Ratio (y) = 0.56829 0.34233
# Poissons Ratio (z) = 0.15723 0.20728
#
# Static dielectric constant tensor:
#      x y z
#    x 5.769780 0.000000 0.000000 
#    y 0.000000 4.104540 0.000000 
#    z 0.000000 0.000000 5.002480 
# 
# 
# High freq. dielectric constant tensor:
#      x y z
#    x 2.081310 0.000000 0.000000 
#    y 0.000000 1.989800 0.000000 
#    z 0.000000 0.000000 2.057210 
# 
# From -- ./inp_files/2805.got.cif
#   From: 2010.03.12/outbox.cif.g09.slc.cpg/sg17_2_cif.got.tgz:2805.got - 2010.04.10 18:46:23.
