data_PCOD8155015
_publ_section_title
;
Structure prediction by ZEFSAII (Michael W. Deem and Ramdas Pophale) SiO2 
 PCOD8155015
Probable space group: C 2/C
;
_chemical_formula_sum "Si O2"
_cell_formula_units_Z 40
_cell_length_a 23.362269
_cell_length_b 8.503997
_cell_length_c 9.008998
_cell_angle_alpha 90.000000
_cell_angle_beta 79.881509
_cell_angle_gamma 90.000000
_cell_volume 1762.003403
_symmetry_space_group_name_H-M "C 2/C"
_symmetry_group_IT_number 15
_symmetry_cell_setting 'monoclinic'
loop_
_space_group_symop_operation_xyz
x,y,z
-x,y,1/2-z
-x,-y,-z
x,-y,1/2+z
1/2+x,1/2+y,z
1/2-x,1/2+y,1/2-z
1/2-x,1/2-y,-z
1/2+x,1/2-y,1/2+z
loop_
_atom_site_type_symbol
_atom_site_label
_atom_site_fract_x
_atom_site_fract_y
_atom_site_fract_z
Si Si1 0.729389 0.178262 0.859366
Si Si2 0.389708 0.659614 0.123587
Si Si3 0.797043 0.684098 0.088198
Si Si4 0.509640 0.168034 0.068191
Si Si5 0.590868 0.340755 0.547622
O O1 0.674348 0.272277 0.819280
O O2 0.787072 0.207685 0.736204
O O3 0.713714 0.996970 0.872970
O O4 0.750000 0.250000 0.000000
O O5 0.384348 0.498008 0.036743
O O6 0.420061 0.637054 0.271090
O O7 0.425226 0.779033 0.001624
O O8 0.862378 0.701946 0.998654
O O9 0.750000 0.750000 0.000000
O O10 0.500000 0.161927 0.250000
O O11 0.468109 0.295496 0.009434
O O12 0.500000 0.000000 0.000000
#
# Coordination Sequence:
#
# PCOD8155015 Si02
#       5
#     8   8   8   8   8
#     4  12  27  43  74 102 146 189 240 299 360 436
#     4  12  26  47  72 106 141 190 240 299 364 429
#     4  12  25  47  68 106 142 189 241 294 364 432
#     4  12  27  48  75 105 142 187 240 298 362 428
#     4  12  26  46  74 102 147 185 243 299 360 435
#
# _framework density 22.701430999999999
#
# number of rings (size 3 to 8) (size 9 to 14) (size 15 to 20)
#    0.000    0.000    2.000    8.400    5.600    0.000 
#    0.000    0.000    0.000    0.000    0.000    0.000 
#    0.000    0.000    0.000    0.000    0.000    0.000 
#
# Total GULP energy -248046.778576 kJ/mol
# GULP energy per Si atom -12402.338929 kJ/mol
# Density = 2.264976 g / cm^3
# Si number density = 22.701431 Si / 1000 Ang^3
#
#
#
# Elastic Constant Matrix: (Units=GPa)
#
#
# Indices 1 2 3 4 5 6 
#
# 1 68.1827 4.3040 16.4814 0.0000 0.8306 0.0000
# 2 4.3040 144.6957 30.4580 0.0000 -3.1920 0.0000
# 3 16.4814 30.4580 180.1641 0.0000 7.4936 0.0000
# 4 0.0000 0.0000 0.0000 37.7728 0.0000 -1.9340
# 5 0.8306 -3.1920 7.4936 0.0000 43.9256 0.0000
# 6 0.0000 0.0000 0.0000 -1.9340 0.0000 39.3600
#
#
#
# Elastic Compliance Matrix: (Units=1/GPa)
#
#
# Indices 1 2 3 4 5 6 
#
# 1 0.015002 -0.000165 -0.001342 0.000000 -0.000067 0.000000
# 2 -0.000165 0.007191 -0.001231 0.000000 0.000736 0.000000
# 3 -0.001342 -0.001231 0.005926 0.000000 -0.001075 0.000000
# 4 0.000000 0.000000 0.000000 0.026541 0.000000 0.001304
# 5 -0.000067 0.000736 -0.001075 0.000000 0.023004 0.000000
# 6 0.000000 0.000000 0.000000 0.001304 0.000000 0.025471
#
#
# Mechanical properties :
#
#
# Convention : Reuss Voigt Hill
#
# Bulk Modulus (GPa) = 44.16351 55.05881 49.61116
# Shear Modulus (GPa) = 43.04447 46.99828 45.02138
#
# Velocity S-wave (km/s) = 4.35916 4.55497 4.45814
# Velocity P-wave (km/s) = 6.69572 7.20900 6.95710
#
# Compressibility (1/GPa) = 0.02264313
#
# Stress axis : x y z
#
# Youngs Moduli (GPa) = 66.65761 139.05545 168.74517
#
# Poissons Ratio (x) = 0.02298 0.22640
# Poissons Ratio (y) = 0.01102 0.20776
# Poissons Ratio (z) = 0.08943 0.17121
#
# Static dielectric constant tensor:
#      x y z
#    x 4.009050 0.000000 0.054800 
#    y 0.000000 4.298070 0.000000 
#    z 0.054800 0.000000 4.475420 
# 
# 
# High freq. dielectric constant tensor:
#      x y z
#    x 1.901360 0.000000 -0.004090 
#    y 0.000000 1.907650 0.000000 
#    z -0.004090 0.000000 1.919420 
# 
# From -- ./inp_files/59904.got.cif
#   From: 2010.06.25/outbox.cif.g09.slc.cpg/sg15_30_cif.got.tgz:59904.got - 2010.06.28 07:06:18.
