data_PCOD8155925
_publ_section_title
;
Structure prediction by ZEFSAII (Michael W. Deem and Ramdas Pophale) SiO2 
 PCOD8155925
Probable space group: P 21 21 2
;
_chemical_formula_sum "Si O2"
_cell_formula_units_Z 26
_cell_length_a 24.373005
_cell_length_b 8.776076
_cell_length_c 6.539757
_cell_angle_alpha 90.000000
_cell_angle_beta 90.000000
_cell_angle_gamma 90.000000
_cell_volume 1398.849734
_symmetry_space_group_name_H-M "P 21 21 2"
_symmetry_group_IT_number 18
_symmetry_cell_setting 'orthorhombic'
loop_
_space_group_symop_operation_xyz
x,y,z
-x,-y,z
1/2+x,1/2-y,-z
1/2-x,1/2+y,-z
loop_
_atom_site_type_symbol
_atom_site_label
_atom_site_fract_x
_atom_site_fract_y
_atom_site_fract_z
Si Si1 0.766718 0.900889 0.740979
Si Si2 0.255817 0.768543 0.861022
Si Si3 0.038029 0.324914 0.379916
Si Si4 0.345527 0.756456 0.534647
Si Si5 0.322352 0.088495 0.410666
Si Si6 0.058851 0.628569 0.622279
Si Si7 0.000000 0.500000 0.001678
O O1 0.819610 0.881871 0.594487
O O2 0.709991 0.874824 0.618854
O O3 0.772699 0.067027 0.839702
O O4 0.767672 0.766420 0.904965
O O5 0.313806 0.772412 0.747326
O O6 0.215674 0.636183 0.778607
O O7 0.091209 0.216479 0.407669
O O8 0.056175 0.482511 0.478487
O O9 0.986013 0.257966 0.512518
O O10 0.025325 0.363531 0.141492
O O11 0.337227 0.909826 0.399632
O O12 0.378710 0.188518 0.394251
O O13 0.044739 0.583701 0.856764
#
# Coordination Sequence:
#
# PCOD8155925 Si02
#       7
#     4   4   4   4   4   4   2
#     4  10  20  33  48  70  98 128 165 201 241 292
#     4  10  20  31  49  71  94 130 163 200 244 286
#     4   8  15  26  42  69  96 122 152 193 243 282
#     4   9  18  32  49  70  97 124 159 199 241 287
#     4   9  18  32  49  71  97 125 159 199 241 286
#     4   8  15  26  44  69  96 124 155 196 241 282
#     4   8  14  24  42  70 100 120 152 192 238 292
#
# _framework density 18.586701000000001
#
# number of rings (size 3 to 8) (size 9 to 14) (size 15 to 20)
#    0.000    3.385    0.000    0.923    0.000    9.846 
#    0.000    0.000    0.000    0.923    0.000    0.000 
#    0.000    0.000    0.000    0.000    0.000    0.000 
#
# Total GULP energy -322089.908232 kJ/mol
# GULP energy per Si atom -12388.073394 kJ/mol
# Density = 1.854440 g / cm^3
# Si number density = 18.586701 Si / 1000 Ang^3
#
#
#
# Elastic Constant Matrix: (Units=GPa)
#
#
# Indices 1 2 3 4 5 6 
#
# 1 99.5538 -3.8138 20.2956 0.0000 0.0000 0.0000
# 2 -3.8138 27.8831 13.4390 0.0000 0.0000 0.0000
# 3 20.2956 13.4390 99.8599 0.0000 0.0000 0.0000
# 4 0.0000 0.0000 0.0000 18.9812 0.0000 0.0000
# 5 0.0000 0.0000 0.0000 0.0000 13.1886 0.0000
# 6 0.0000 0.0000 0.0000 0.0000 0.0000 17.4247
#
#
#
# Elastic Compliance Matrix: (Units=1/GPa)
#
#
# Indices 1 2 3 4 5 6 
#
# 1 0.010663 0.002677 -0.002527 0.000000 0.000000 0.000000
# 2 0.002677 0.039024 -0.005796 0.000000 0.000000 0.000000
# 3 -0.002527 -0.005796 0.011308 0.000000 0.000000 0.000000
# 4 0.000000 0.000000 0.000000 0.052684 0.000000 0.000000
# 5 0.000000 0.000000 0.000000 0.000000 0.075823 0.000000
# 6 0.000000 0.000000 0.000000 0.000000 0.000000 0.057390
#
#
# Mechanical properties :
#
#
# Convention : Reuss Voigt Hill
#
# Bulk Modulus (GPa) = 20.12039 31.90424 26.01232
# Shear Modulus (GPa) = 18.19835 23.07729 20.63782
#
# Velocity S-wave (km/s) = 3.13246 3.52746 3.33581
# Velocity P-wave (km/s) = 4.89201 5.81317 5.37237
#
# Compressibility (1/GPa) = 0.04970083
#
# Stress axis : x y z
#
# Youngs Moduli (GPa) = 93.78590 25.62556 88.43565
#
# Poissons Ratio (x) = -0.06859 0.22350
# Poissons Ratio (y) = -0.25102 0.51255
# Poissons Ratio (z) = 0.23702 0.14852
#
# Static dielectric constant tensor:
#      x y z
#    x 4.617450 0.000000 0.000000 
#    y 0.000000 2.943690 0.000000 
#    z 0.000000 0.000000 3.422150 
# 
# 
# High freq. dielectric constant tensor:
#      x y z
#    x 1.730840 0.000000 0.000000 
#    y 0.000000 1.661790 0.000000 
#    z 0.000000 0.000000 1.725540 
# 
# From -- ./inp_files/651.got.cif
#   From: 2010.03.12/outbox.cif.g09.slc.cpg/sg18_1_cif.got.tgz:651.got - 2010.04.10 18:53:55.
