data_PCOD8155483
_publ_section_title
;
Structure prediction by ZEFSAII (Michael W. Deem and Ramdas Pophale) SiO2 
 PCOD8155483
Probable space group: P 2 2 21
;
_chemical_formula_sum "Si O2"
_cell_formula_units_Z 26
_cell_length_a 6.034897
_cell_length_b 13.533418
_cell_length_c 14.087146
_cell_angle_alpha 90.000000
_cell_angle_beta 90.000000
_cell_angle_gamma 90.000000
_cell_volume 1150.536428
_symmetry_space_group_name_H-M "P 2 2 21"
_symmetry_group_IT_number 17
_symmetry_cell_setting 'orthorhombic'
loop_
_space_group_symop_operation_xyz
x,y,z
-x,-y,1/2+z
x,-y,-z
-x,y,1/2-z
loop_
_atom_site_type_symbol
_atom_site_label
_atom_site_fract_x
_atom_site_fract_y
_atom_site_fract_z
Si Si1 0.358195 0.500000 0.500000
Si Si2 0.304721 0.359526 0.086001
Si Si3 0.454104 0.018863 0.356803
Si Si4 0.934125 0.674227 0.050358
Si Si5 0.312805 0.221658 0.383715
Si Si6 0.090773 0.868467 0.354654
Si Si7 0.830277 0.000000 0.500000
Si Si8 0.000000 0.674583 0.750000
O O1 0.508420 0.555942 0.577676
O O2 0.205022 0.426847 0.563594
O O3 0.430562 0.257837 0.112581
O O4 0.118191 0.389115 0.165474
O O5 0.184844 0.350141 0.983036
O O6 0.500000 0.046446 0.250000
O O7 0.342995 0.910041 0.364395
O O8 0.284952 0.103459 0.391820
O O9 0.673874 0.039021 0.416412
O O10 0.924577 0.748152 0.141175
O O11 0.821378 0.738112 0.970501
O O12 0.198832 0.258392 0.287761
O O13 0.000000 0.900573 0.250000
O O14 0.964963 0.913691 0.446229
#
# Coordination Sequence:
#
# PCOD8155483 Si02
#       8
#     2   4   4   4   4   4   2   2
#     4  10  22  42  72  92 124 174 228 288 360 432
#     4  10  20  39  66  97 126 172 218 284 355 416
#     4  12  24  41  65 102 140 188 243 283 341 417
#     4  10  22  42  69  92 129 176 229 285 354 419
#     4  10  21  36  63  97 131 171 218 280 339 402
#     4  12  26  45  69 101 147 192 238 289 357 430
#     4  12  24  44  68  98 144 196 236 300 340 408
#     4  10  20  34  62  98 134 158 210 280 350 418
#
# _framework density 22.598155999999999
#
# number of rings (size 3 to 8) (size 9 to 14) (size 15 to 20)
#    0.000    1.231    1.538    5.077    1.077    3.692 
#    0.000    0.000   40.615    0.000    0.000    0.000 
#    0.000    0.000    0.000    0.000    0.000    0.000 
#
# Total GULP energy -322132.724660 kJ/mol
# GULP energy per Si atom -12389.720179 kJ/mol
# Density = 2.254672 g / cm^3
# Si number density = 22.598156 Si / 1000 Ang^3
#
#
#
# Elastic Constant Matrix: (Units=GPa)
#
#
# Indices 1 2 3 4 5 6 
#
# 1 98.0021 36.8704 11.2257 0.0000 0.0000 0.0000
# 2 36.8704 122.5938 16.3399 0.0000 0.0000 0.0000
# 3 11.2257 16.3399 72.1413 0.0000 0.0000 0.0000
# 4 0.0000 0.0000 0.0000 25.1108 0.0000 0.0000
# 5 0.0000 0.0000 0.0000 0.0000 25.1973 0.0000
# 6 0.0000 0.0000 0.0000 0.0000 0.0000 30.7354
#
#
#
# Elastic Compliance Matrix: (Units=1/GPa)
#
#
# Indices 1 2 3 4 5 6 
#
# 1 0.011582 -0.003344 -0.001045 0.000000 0.000000 0.000000
# 2 -0.003344 0.009376 -0.001603 0.000000 0.000000 0.000000
# 3 -0.001045 -0.001603 0.014387 0.000000 0.000000 0.000000
# 4 0.000000 0.000000 0.000000 0.039823 0.000000 0.000000
# 5 0.000000 0.000000 0.000000 0.000000 0.039687 0.000000
# 6 0.000000 0.000000 0.000000 0.000000 0.000000 0.032536
#
#
# Mechanical properties :
#
#
# Convention : Reuss Voigt Hill
#
# Bulk Modulus (GPa) = 42.80603 46.84546 44.82574
# Shear Modulus (GPa) = 29.91096 31.42879 30.66988
#
# Velocity S-wave (km/s) = 3.64208 3.73335 3.68800
# Velocity P-wave (km/s) = 6.05555 6.27364 6.16556
#
# Compressibility (1/GPa) = 0.02336120
#
# Stress axis : x y z
#
# Youngs Moduli (GPa) = 86.34387 106.65040 69.50514
#
# Poissons Ratio (x) = 0.35663 0.07262
# Poissons Ratio (y) = 0.28873 0.11145
# Poissons Ratio (z) = 0.09021 0.17100
#
# Static dielectric constant tensor:
#      x y z
#    x 4.421780 0.000000 0.000000 
#    y 0.000000 4.270030 0.000000 
#    z 0.000000 0.000000 4.195930 
# 
# 
# High freq. dielectric constant tensor:
#      x y z
#    x 1.902710 0.000000 0.000000 
#    y 0.000000 1.875700 0.000000 
#    z 0.000000 0.000000 1.882450 
# 
# From -- ./inp_files/7780.got.cif
#   From: 2010.03.12/outbox.cif.g09.slc.cpg/sg17_4_cif.got.tgz:7780.got - 2010.04.10 18:46:23.
