data_PCOD8155156
_publ_section_title
;
Structure prediction by ZEFSAII (Michael W. Deem and Ramdas Pophale) SiO2 
 PCOD8155156
Probable space group: C 2/C
;
_chemical_formula_sum "Si O2"
_cell_formula_units_Z 36
_cell_length_a 21.366605
_cell_length_b 6.764269
_cell_length_c 20.496939
_cell_angle_alpha 90.000000
_cell_angle_beta 147.430330
_cell_angle_gamma 90.000000
_cell_volume 1594.739487
_symmetry_space_group_name_H-M "C 2/C"
_symmetry_group_IT_number 15
_symmetry_cell_setting 'monoclinic'
loop_
_space_group_symop_operation_xyz
x,y,z
-x,y,1/2-z
-x,-y,-z
x,-y,1/2+z
1/2+x,1/2+y,z
1/2-x,1/2+y,1/2-z
1/2-x,1/2-y,-z
1/2+x,1/2-y,1/2+z
loop_
_atom_site_type_symbol
_atom_site_label
_atom_site_fract_x
_atom_site_fract_y
_atom_site_fract_z
Si Si1 0.275372 0.355996 0.090454
Si Si2 0.297694 0.555983 0.364560
Si Si3 0.084728 0.365529 0.115031
Si Si4 0.500000 0.449773 0.750000
Si Si5 0.603064 0.777015 0.455539
O O1 0.260181 0.207997 0.136498
O O2 0.411112 0.417700 0.213914
O O3 0.250000 0.250000 0.000000
O O4 0.188570 0.538914 0.023442
O O5 0.205549 0.477184 0.231262
O O6 0.396673 0.662536 0.408611
O O7 0.347690 0.372539 0.447904
O O8 0.025998 0.334036 0.133983
O O9 0.000000 0.500000 0.000000
O O10 0.413955 0.320336 0.629862
#
# Coordination Sequence:
#
# PCOD8155156 Si02
#       5
#     8   8   8   4   8
#     4  12  28  49  74 113 149 197 249 310 372 447
#     4  12  28  50  74 111 152 191 258 306 376 444
#     4  12  27  48  79 106 149 198 248 310 376 442
#     4  12  28  44  80 104 152 196 246 308 372 442
#     4  12  27  51  75 111 147 199 249 310 373 448
#
# _framework density 22.57422
#
# number of rings (size 3 to 8) (size 9 to 14) (size 15 to 20)
#    0.000    0.000    4.444    4.000   12.444    0.000 
#    0.000    0.000    0.000    0.000    0.000    0.000 
#    0.000    0.000    0.000    0.000    0.000    0.000 
#
# Total GULP energy -223306.245660 kJ/mol
# GULP energy per Si atom -12405.902537 kJ/mol
# Density = 2.252284 g / cm^3
# Si number density = 22.574220 Si / 1000 Ang^3
#
#
#
# Elastic Constant Matrix: (Units=GPa)
#
#
# Indices 1 2 3 4 5 6 
#
# 1 112.2930 43.8367 14.0152 -0.0001 17.2347 0.0000
# 2 43.8367 132.6135 49.1784 -0.0009 6.4855 -0.0005
# 3 14.0152 49.1784 111.1998 -0.0001 -8.0178 0.0000
# 4 -0.0001 -0.0009 -0.0001 42.2918 0.0002 -1.6996
# 5 17.2347 6.4855 -8.0178 0.0002 43.9687 0.0001
# 6 0.0000 -0.0005 0.0000 -1.6996 0.0001 46.0630
#
#
#
# Elastic Compliance Matrix: (Units=1/GPa)
#
#
# Indices 1 2 3 4 5 6 
#
# 1 0.010803 -0.003326 -0.000163 0.000000 -0.003774 0.000000
# 2 -0.003326 0.010237 -0.004178 0.000000 -0.000968 0.000000
# 3 -0.000163 -0.004178 0.011055 0.000000 0.002696 0.000000
# 4 0.000000 0.000000 0.000000 0.023680 0.000000 0.000874
# 5 -0.003774 -0.000968 0.002696 0.000000 0.024857 0.000000
# 6 0.000000 0.000000 0.000000 0.000874 0.000000 0.021742
#
#
# Mechanical properties :
#
#
# Convention : Reuss Voigt Hill
#
# Bulk Modulus (GPa) = 59.65874 63.35187 61.50531
# Shear Modulus (GPa) = 40.55302 43.06977 41.81140
#
# Velocity S-wave (km/s) = 4.24303 4.37271 4.30836
# Velocity P-wave (km/s) = 7.10560 7.32249 7.21486
#
# Compressibility (1/GPa) = 0.01676200
#
# Stress axis : x y z
#
# Youngs Moduli (GPa) = 92.56482 97.68589 90.45368
#
# Poissons Ratio (x) = 0.32493 0.01471
# Poissons Ratio (y) = 0.30789 0.37790
# Poissons Ratio (z) = 0.01505 0.40812
#
# Static dielectric constant tensor:
#      x y z
#    x 0.678430 0.000000 -1.561080 
#    y 0.000000 4.585010 0.000000 
#    z -1.561080 0.000000 3.131530 
# 
# 
# High freq. dielectric constant tensor:
#      x y z
#    x 1.911760 0.000000 0.004080 
#    y 0.000000 1.905550 0.000000 
#    z 0.004080 0.000000 1.895620 
# 
# From -- ./inp_files/115692.got.cif
#   From: 2010.06.25/outbox.cif.g09.slc.cpg/sg15_58_cif.got.tgz:115692.got - 2010.06.28 07:06:18.
