data_PCOD8155243
_publ_section_title
;
Structure prediction by ZEFSAII (Michael W. Deem and Ramdas Pophale) SiO2 
 PCOD8155243
Probable space group: P 2 2 2
;
_chemical_formula_sum "Si O2"
_cell_formula_units_Z 26
_cell_length_a 8.331272
_cell_length_b 9.039405
_cell_length_c 18.090561
_cell_angle_alpha 90.000000
_cell_angle_beta 90.000000
_cell_angle_gamma 90.000000
_cell_volume 1362.395477
_symmetry_space_group_name_H-M "P 2 2 2"
_symmetry_group_IT_number 16
_symmetry_cell_setting 'orthorhombic'
loop_
_space_group_symop_operation_xyz
x,y,z
-x,-y,z
x,-y,-z
-x,y,-z
loop_
_atom_site_type_symbol
_atom_site_label
_atom_site_fract_x
_atom_site_fract_y
_atom_site_fract_z
Si Si1 0.167497 0.830377 0.222276
Si Si2 0.500000 0.500000 0.500000
Si Si3 0.802936 0.248072 0.811395
Si Si4 0.673416 0.928907 0.312695
Si Si5 0.000000 0.500000 0.500000
Si Si6 0.688746 0.517547 0.747234
Si Si7 0.186280 0.985271 0.919991
Si Si8 0.251086 0.650986 0.599683
O O1 0.266807 0.685729 0.240797
O O2 0.235031 0.897439 0.144318
O O3 0.977923 0.800659 0.218969
O O4 0.200679 0.942240 0.290422
O O5 0.404798 0.611234 0.551848
O O6 0.664650 0.183042 0.757030
O O7 0.776923 0.424330 0.812939
O O8 0.774844 0.181103 0.892512
O O9 0.737290 0.826627 0.380662
O O10 0.500000 0.000000 0.330318
O O11 0.902843 0.385476 0.550576
O O12 0.500000 0.500000 0.751023
O O13 0.758725 0.455173 0.670839
O O14 0.000000 0.000000 0.934248
O O15 0.275074 0.000000 0.000000
#
# Coordination Sequence:
#
# PCOD8155243 Si02
#       8
#     4   1   4   4   1   4   4   4
#     4  10  19  33  57  87 115 144 194 249 277 333
#     4  10  20  42  58  78 116 146 200 210 276 358
#     4   9  19  33  53  87 113 146 196 242 280 334
#     4  10  20  35  58  85 116 147 188 231 286 331
#     4  10  24  42  64  88 112 146 188 238 292 350
#     4  11  21  35  60  84 110 151 193 238 288 337
#     4   8  15  31  53  79 114 152 185 231 292 341
#     4  10  22  39  62  83 110 152 187 231 281 349
#
# _framework density 19.084032000000001
#
# number of rings (size 3 to 8) (size 9 to 14) (size 15 to 20)
#    0.000    2.308    0.769    3.692    4.308    0.000 
#    0.000    1.154    0.000   22.154    0.000    0.000 
#    0.000    0.000    0.000    0.000    0.000    0.000 
#
# Total GULP energy -322110.268551 kJ/mol
# GULP energy per Si atom -12388.856483 kJ/mol
# Density = 1.904060 g / cm^3
# Si number density = 19.084032 Si / 1000 Ang^3
#
#
#
# Elastic Constant Matrix: (Units=GPa)
#
#
# Indices 1 2 3 4 5 6 
#
# 1 84.6420 48.1208 45.0116 0.0000 0.0000 0.0000
# 2 48.1208 151.7722 73.0839 0.0000 0.0000 0.0000
# 3 45.0116 73.0839 120.1964 0.0000 0.0000 0.0000
# 4 0.0000 0.0000 0.0000 2.3379 0.0000 0.0000
# 5 0.0000 0.0000 0.0000 0.0000 12.6136 0.0000
# 6 0.0000 0.0000 0.0000 0.0000 0.0000 31.9577
#
#
#
# Elastic Compliance Matrix: (Units=1/GPa)
#
#
# Indices 1 2 3 4 5 6 
#
# 1 0.015680 -0.003032 -0.004029 0.000000 0.000000 0.000000
# 2 -0.003032 0.009903 -0.004886 0.000000 0.000000 0.000000
# 3 -0.004029 -0.004886 0.012799 0.000000 0.000000 0.000000
# 4 0.000000 0.000000 0.000000 0.427734 0.000000 0.000000
# 5 0.000000 0.000000 0.000000 0.000000 0.079279 0.000000
# 6 0.000000 0.000000 0.000000 0.000000 0.000000 0.031291
#
#
# Mechanical properties :
#
#
# Convention : Reuss Voigt Hill
#
# Bulk Modulus (GPa) = 69.01390 76.56034 72.78712
# Shear Modulus (GPa) = 8.25887 22.07480 15.16683
#
# Velocity S-wave (km/s) = 2.08255 3.40474 2.82217
# Velocity P-wave (km/s) = 6.48262 7.46063 6.98875
#
# Compressibility (1/GPa) = 0.01448983
#
# Stress axis : x y z
#
# Youngs Moduli (GPa) = 63.77370 100.98141 78.12958
#
# Poissons Ratio (x) = 0.30614 0.31476
# Poissons Ratio (y) = 0.19334 0.38174
# Poissons Ratio (z) = 0.25693 0.49339
#
# Static dielectric constant tensor:
#      x y z
#    x 3.450190 0.000000 0.000000 
#    y 0.000000 3.785410 0.000000 
#    z 0.000000 0.000000 3.709340 
# 
# 
# High freq. dielectric constant tensor:
#      x y z
#    x 1.735290 0.000000 0.000000 
#    y 0.000000 1.747250 0.000000 
#    z 0.000000 0.000000 1.724080 
# 
# From -- ./inp_files/4206.got.cif
#   From: 2010.03.12/outbox.cif.g09.slc.cpg/sg16_3_cif.got.tgz:4206.got - 2010.03.31 00:51:45.
