data_PCOD8155557
_publ_section_title
;
Structure prediction by ZEFSAII (Michael W. Deem and Ramdas Pophale) SiO2 
 PCOD8155557
Probable space group: P 2 2 21
;
_chemical_formula_sum "Si O2"
_cell_formula_units_Z 14
_cell_length_a 7.689460
_cell_length_b 5.318452
_cell_length_c 13.453315
_cell_angle_alpha 90.000000
_cell_angle_beta 90.000000
_cell_angle_gamma 90.000000
_cell_volume 550.187092
_symmetry_space_group_name_H-M "P 2 2 21"
_symmetry_group_IT_number 17
_symmetry_cell_setting 'orthorhombic'
loop_
_space_group_symop_operation_xyz
x,y,z
-x,-y,1/2+z
x,-y,-z
-x,y,1/2-z
loop_
_atom_site_type_symbol
_atom_site_label
_atom_site_fract_x
_atom_site_fract_y
_atom_site_fract_z
Si Si1 0.856724 0.760288 0.441393
Si Si2 0.475644 0.155936 0.631750
Si Si3 0.000000 0.533050 0.250000
Si Si4 0.654593 0.346367 0.170367
O O1 0.875309 0.500000 0.500000
O O2 0.656928 0.828982 0.423889
O O3 0.957273 0.724168 0.338695
O O4 0.938836 0.000000 0.500000
O O5 0.500000 0.141793 0.750000
O O6 0.359887 0.400280 0.603877
O O7 0.372196 0.899930 0.600732
O O8 0.839562 0.346386 0.226435
O O9 0.500000 0.356394 0.250000
#
# Coordination Sequence:
#
# PCOD8155557 Si02
#       4
#     4   4   2   4
#     4  12  28  48  78 121 163 215 270 337 407 471
#     4  10  20  44  72 106 143 196 256 311 401 462
#     4  12  26  50  86 112 172 204 274 344 394 486
#     4  10  21  40  76 110 138 206 252 310 409 456
#
# _framework density 25.445889999999999
#
# number of rings (size 3 to 8) (size 9 to 14) (size 15 to 20)
#    0.000    1.143    5.714    1.714    4.000    4.571 
#    0.000    5.714    0.000    0.000    0.000    0.000 
#    0.000    0.000    0.000    0.000    0.000    0.000 
#
# Total GULP energy -173559.316233 kJ/mol
# GULP energy per Si atom -12397.094017 kJ/mol
# Density = 2.538797 g / cm^3
# Si number density = 25.445890 Si / 1000 Ang^3
#
#
#
# Elastic Constant Matrix: (Units=GPa)
#
#
# Indices 1 2 3 4 5 6 
#
# 1 155.4895 58.7865 33.9416 0.0000 0.0000 0.0000
# 2 58.7865 283.9845 67.4051 0.0000 0.0000 0.0000
# 3 33.9416 67.4051 93.0749 0.0000 0.0000 0.0000
# 4 0.0000 0.0000 0.0000 14.5268 0.0000 0.0000
# 5 0.0000 0.0000 0.0000 0.0000 34.9812 0.0000
# 6 0.0000 0.0000 0.0000 0.0000 0.0000 7.5390
#
#
#
# Elastic Compliance Matrix: (Units=1/GPa)
#
#
# Indices 1 2 3 4 5 6 
#
# 1 0.007239 -0.001053 -0.001877 0.000000 0.000000 0.000000
# 2 -0.001053 0.004405 -0.002806 0.000000 0.000000 0.000000
# 3 -0.001877 -0.002806 0.013461 0.000000 0.000000 0.000000
# 4 0.000000 0.000000 0.000000 0.068838 0.000000 0.000000
# 5 0.000000 0.000000 0.000000 0.000000 0.028587 0.000000
# 6 0.000000 0.000000 0.000000 0.000000 0.000000 0.132643
#
#
# Mechanical properties :
#
#
# Convention : Reuss Voigt Hill
#
# Bulk Modulus (GPa) = 73.35581 94.75729 84.05655
# Shear Modulus (GPa) = 18.43715 36.23712 27.33714
#
# Velocity S-wave (km/s) = 2.69469 3.77780 3.28124
# Velocity P-wave (km/s) = 6.21068 7.50657 6.88916
#
# Compressibility (1/GPa) = 0.01363219
#
# Stress axis : x y z
#
# Youngs Moduli (GPa) = 138.13664 226.99378 74.28830
#
# Poissons Ratio (x) = 0.23902 0.13947
# Poissons Ratio (y) = 0.14545 0.20848
# Poissons Ratio (z) = 0.25933 0.63704
#
# Static dielectric constant tensor:
#      x y z
#    x 4.436180 0.000000 0.000000 
#    y 0.000000 9.865710 0.000000 
#    z 0.000000 0.000000 4.432860 
# 
# 
# High freq. dielectric constant tensor:
#      x y z
#    x 2.002340 0.000000 0.000000 
#    y 0.000000 2.044950 0.000000 
#    z 0.000000 0.000000 1.999640 
# 
# From -- ./inp_files/7877.got.cif
#   From: 2010.03.12/outbox.cif.g09.slc.cpg/sg17_4_cif.got.tgz:7877.got - 2010.04.10 18:46:23.
