data_PCOD8155362
_publ_section_title
;
Structure prediction by ZEFSAII (Michael W. Deem and Ramdas Pophale) SiO2 
 PCOD8155362
Probable space group: P 2 2 21
;
_chemical_formula_sum "Si O2"
_cell_formula_units_Z 24
_cell_length_a 8.639475
_cell_length_b 4.946246
_cell_length_c 29.900365
_cell_angle_alpha 90.000000
_cell_angle_beta 90.000000
_cell_angle_gamma 90.000000
_cell_volume 1277.731360
_symmetry_space_group_name_H-M "P 2 2 21"
_symmetry_group_IT_number 17
_symmetry_cell_setting 'orthorhombic'
loop_
_space_group_symop_operation_xyz
x,y,z
-x,-y,1/2+z
x,-y,-z
-x,y,1/2-z
loop_
_atom_site_type_symbol
_atom_site_label
_atom_site_fract_x
_atom_site_fract_y
_atom_site_fract_z
Si Si1 0.296012 0.036062 0.642088
Si Si2 0.661828 0.572594 0.270431
Si Si3 0.831201 0.067900 0.234821
Si Si4 0.500646 0.572170 0.045823
Si Si5 0.706290 0.071862 0.046218
Si Si6 0.509800 0.463398 0.359066
O O1 0.172680 0.990660 0.681660
O O2 0.362896 0.337531 0.646700
O O3 0.209258 0.992676 0.593790
O O4 0.443939 0.838112 0.646110
O O5 0.500000 0.675952 0.250000
O O6 0.789613 0.801828 0.263159
O O7 0.644140 0.515556 0.323126
O O8 0.708500 0.300997 0.244961
O O9 0.000000 0.164916 0.250000
O O10 0.655885 0.384131 0.045429
O O11 0.410298 0.506410 0.091954
O O12 0.551498 0.884129 0.045311
O O13 0.405257 0.500000 0.000000
O O14 0.801577 0.000000 0.000000
#
# Coordination Sequence:
#
# PCOD8155362 Si02
#       6
#     4   4   4   4   4   4
#     4  10  17  30  46  69  96 126 159 200 248 287
#     4  12  21  36  55  74  99 132 176 204 243 296
#     4  12  24  36  50  74 105 137 166 208 254 296
#     4   8  14  24  38  64  96 118 144 193 250 287
#     4   8  14  23  39  62  90 118 150 193 241 286
#     4  10  18  28  50  72  92 126 165 203 240 287
#
# _framework density 18.783294000000001
#
# number of rings (size 3 to 8) (size 9 to 14) (size 15 to 20)
#    0.000    2.000    3.333    2.000    0.000    0.000 
#    0.000    0.000    0.000    0.000    0.000    2.333 
#    0.000    0.000    0.000    0.000    0.000    0.000 
#
# Total GULP energy -297377.612366 kJ/mol
# GULP energy per Si atom -12390.733849 kJ/mol
# Density = 1.874054 g / cm^3
# Si number density = 18.783294 Si / 1000 Ang^3
#
#
#
# Elastic Constant Matrix: (Units=GPa)
#
#
# Indices 1 2 3 4 5 6 
#
# 1 31.4284 0.9295 30.0032 0.0000 0.0000 0.0000
# 2 0.9295 71.9752 -2.6775 0.0000 0.0000 0.0000
# 3 30.0032 -2.6775 131.8533 0.0000 0.0000 0.0000
# 4 0.0000 0.0000 0.0000 27.6118 0.0000 0.0000
# 5 0.0000 0.0000 0.0000 0.0000 12.7604 0.0000
# 6 0.0000 0.0000 0.0000 0.0000 0.0000 10.4946
#
#
#
# Elastic Compliance Matrix: (Units=1/GPa)
#
#
# Indices 1 2 3 4 5 6 
#
# 1 0.040703 -0.000871 -0.009280 0.000000 0.000000 0.000000
# 2 -0.000871 0.013923 0.000481 0.000000 0.000000 0.000000
# 3 -0.009280 0.000481 0.009706 0.000000 0.000000 0.000000
# 4 0.000000 0.000000 0.000000 0.036216 0.000000 0.000000
# 5 0.000000 0.000000 0.000000 0.000000 0.078368 0.000000
# 6 0.000000 0.000000 0.000000 0.000000 0.000000 0.095287
#
#
# Mechanical properties :
#
#
# Convention : Reuss Voigt Hill
#
# Bulk Modulus (GPa) = 22.22611 32.41859 27.32235
# Shear Modulus (GPa) = 16.20542 23.97347 20.08945
#
# Velocity S-wave (km/s) = 2.94046 3.57644 3.27393
# Velocity P-wave (km/s) = 4.83601 5.86100 5.37300
#
# Compressibility (1/GPa) = 0.04499213
#
# Stress axis : x y z
#
# Youngs Moduli (GPa) = 24.56821 71.82461 103.03391
#
# Poissons Ratio (x) = 0.06255 0.95612
# Poissons Ratio (y) = 0.02139 -0.04955
# Poissons Ratio (z) = 0.22798 -0.03454
#
# Static dielectric constant tensor:
#      x y z
#    x 2.515170 0.000000 0.000000 
#    y 0.000000 3.583330 0.000000 
#    z 0.000000 0.000000 4.314250 
# 
# 
# High freq. dielectric constant tensor:
#      x y z
#    x 1.611850 0.000000 0.000000 
#    y 0.000000 1.756910 0.000000 
#    z 0.000000 0.000000 1.771230 
# 
# From -- ./inp_files/10950.got.cif
#   From: 2010.03.12/outbox.cif.g09.slc.cpg/sg17_6_cif.got.tgz:10950.got - 2010.04.10 18:46:23.
