data_PCOD8155170
_publ_section_title
;
Structure prediction by ZEFSAII (Michael W. Deem and Ramdas Pophale) SiO2 
 PCOD8155170
Probable space group: C 2/C
;
_chemical_formula_sum "Si O2"
_cell_formula_units_Z 40
_cell_length_a 8.204982
_cell_length_b 15.790937
_cell_length_c 13.226833
_cell_angle_alpha 90.000000
_cell_angle_beta 62.498515
_cell_angle_gamma 90.000000
_cell_volume 1520.073080
_symmetry_space_group_name_H-M "C 2/C"
_symmetry_group_IT_number 15
_symmetry_cell_setting 'monoclinic'
loop_
_space_group_symop_operation_xyz
x,y,z
-x,y,1/2-z
-x,-y,-z
x,-y,1/2+z
1/2+x,1/2+y,z
1/2-x,1/2+y,1/2-z
1/2-x,1/2-y,-z
1/2+x,1/2-y,1/2+z
loop_
_atom_site_type_symbol
_atom_site_label
_atom_site_fract_x
_atom_site_fract_y
_atom_site_fract_z
Si Si1 0.659876 0.270930 0.374903
Si Si2 0.703280 0.588929 0.716141
Si Si3 0.500000 0.657251 0.250000
Si Si4 0.370583 0.126246 0.460771
Si Si5 0.000000 0.493506 0.750000
Si Si6 0.013623 0.095665 0.457891
O O1 0.665454 0.314489 0.262715
O O2 0.482627 0.212122 0.435935
O O3 0.660341 0.345755 0.460555
O O4 0.839357 0.215130 0.338943
O O5 0.500000 0.548690 0.750000
O O6 0.836878 0.585540 0.581018
O O7 0.813580 0.545574 0.778474
O O8 0.556937 0.596016 0.326024
O O9 0.473043 0.060454 0.358997
O O10 0.173269 0.146042 0.470155
O O11 0.000000 0.000000 0.500000
#
# Coordination Sequence:
#
# PCOD8155170 Si02
#       6
#     8   8   4   8   4   8
#     4  12  27  52  78 117 161 215 273 338 419 495
#     4  12  28  52  86 116 166 219 274 345 419 489
#     4  12  29  50  81 118 162 218 276 338 413 500
#     4  12  28  51  82 116 164 213 276 342 415 496
#     4  12  29  52  79 126 162 218 282 338 413 502
#     4  12  28  49  80 117 161 211 275 340 412 489
#
# _framework density 26.314523000000001
#
# number of rings (size 3 to 8) (size 9 to 14) (size 15 to 20)
#    0.000    0.000    2.000    6.000    4.200    8.000 
#    1.800    0.000    0.000    0.000    0.000    0.000 
#    0.000    0.000    0.000    0.000    0.000    0.000 
#
# Total GULP energy -247942.174241 kJ/mol
# GULP energy per Si atom -12397.108712 kJ/mol
# Density = 2.625463 g / cm^3
# Si number density = 26.314523 Si / 1000 Ang^3
#
#
#
# Elastic Constant Matrix: (Units=GPa)
#
#
# Indices 1 2 3 4 5 6 
#
# 1 118.1303 60.0966 27.3913 0.0000 -0.3074 0.0000
# 2 60.0966 154.6813 74.9585 0.0000 -6.3940 0.0000
# 3 27.3913 74.9585 190.6005 0.0000 4.4719 0.0000
# 4 0.0000 0.0000 0.0000 33.8020 0.0000 11.2073
# 5 -0.3074 -6.3940 4.4719 0.0000 45.8783 0.0000
# 6 0.0000 0.0000 0.0000 11.2073 0.0000 13.1078
#
#
#
# Elastic Compliance Matrix: (Units=1/GPa)
#
#
# Indices 1 2 3 4 5 6 
#
# 1 0.010565 -0.004197 0.000144 0.000000 -0.000528 0.000000
# 2 -0.004197 0.009748 -0.003269 0.000000 0.001649 0.000000
# 3 0.000144 -0.003269 0.006537 0.000000 -0.001092 0.000000
# 4 0.000000 0.000000 0.000000 0.041289 0.000000 -0.035302
# 5 -0.000528 0.001649 -0.001092 0.000000 0.022130 0.000000
# 6 0.000000 0.000000 0.000000 -0.035302 0.000000 0.106474
#
#
# Mechanical properties :
#
#
# Convention : Reuss Voigt Hill
#
# Bulk Modulus (GPa) = 81.91653 87.58944 84.75299
# Shear Modulus (GPa) = 23.20675 38.62198 30.91437
#
# Velocity S-wave (km/s) = 2.97290 3.83522 3.43126
# Velocity P-wave (km/s) = 6.55603 7.27803 6.92645
#
# Compressibility (1/GPa) = 0.01220755
#
# Stress axis : x y z
#
# Youngs Moduli (GPa) = 94.64911 102.58724 152.97288
#
# Poissons Ratio (x) = 0.43053 -0.02210
# Poissons Ratio (y) = 0.39721 0.50009
# Poissons Ratio (z) = -0.01368 0.33537
#
# Static dielectric constant tensor:
#      x y z
#    x 3.206200 0.000000 1.157940 
#    y 0.000000 4.672990 0.000000 
#    z 1.157940 0.000000 3.997160 
# 
# 
# High freq. dielectric constant tensor:
#      x y z
#    x 2.050740 0.000000 -0.007020 
#    y 0.000000 2.064070 0.000000 
#    z -0.007020 0.000000 2.077830 
# 
# From -- ./inp_files/133108.got.cif
#   From: 2010.06.25/outbox.cif.g09.slc.cpg/sg15_67_cif.got.tgz:133108.got - 2010.06.28 07:06:18.
