data_PCOD8155283
_publ_section_title
;
Structure prediction by ZEFSAII (Michael W. Deem and Ramdas Pophale) SiO2 
 PCOD8155283
Probable space group: P 2 2 2
;
_chemical_formula_sum "Si O2"
_cell_formula_units_Z 20
_cell_length_a 13.102206
_cell_length_b 12.202699
_cell_length_c 5.706127
_cell_angle_alpha 90.000000
_cell_angle_beta 90.000000
_cell_angle_gamma 90.000000
_cell_volume 912.308572
_symmetry_space_group_name_H-M "P 2 2 2"
_symmetry_group_IT_number 16
_symmetry_cell_setting 'orthorhombic'
loop_
_space_group_symop_operation_xyz
x,y,z
-x,-y,z
x,-y,-z
-x,y,-z
loop_
_atom_site_type_symbol
_atom_site_label
_atom_site_fract_x
_atom_site_fract_y
_atom_site_fract_z
Si Si1 0.859312 0.936978 0.247945
Si Si2 0.826303 0.381121 0.448242
Si Si3 0.000000 0.219955 0.500000
Si Si4 0.635249 0.610554 0.866912
Si Si5 0.500000 0.289748 0.500000
Si Si6 0.309846 0.765906 0.751550
O O1 0.750863 0.878181 0.211241
O O2 0.953233 0.853111 0.288702
O O3 0.852685 0.000000 0.500000
O O4 0.880564 0.000000 0.000000
O O5 0.875531 0.500000 0.500000
O O6 0.914953 0.296000 0.374943
O O7 0.746573 0.400559 0.243514
O O8 0.766073 0.330600 0.668366
O O9 0.539438 0.626643 0.696914
O O10 0.609926 0.500000 0.000000
O O11 0.638519 0.722790 0.013716
O O12 0.596228 0.213645 0.572346
#
# Coordination Sequence:
#
# PCOD8155283 Si02
#       6
#     4   4   2   4   2   4
#     4  11  27  50  75 103 138 182 238 303 362 411
#     4  10  20  41  64  98 144 180 221 274 340 419
#     4  10  24  44  72 104 132 182 234 292 344 426
#     4  11  22  40  64 101 140 186 223 274 344 417
#     4  10  24  39  67 100 140 172 241 276 339 418
#     4  10  23  42  68  94 140 181 226 287 342 412
#
# _framework density 21.922407
#
# number of rings (size 3 to 8) (size 9 to 14) (size 15 to 20)
#    0.000    1.600    2.000    1.200    8.400    4.000 
#    3.600    0.500    0.000    0.000    0.000    0.000 
#    0.000    0.000    0.000    0.000    0.000    0.000 
#
# Total GULP energy -247817.174372 kJ/mol
# GULP energy per Si atom -12390.858719 kJ/mol
# Density = 2.187251 g / cm^3
# Si number density = 21.922407 Si / 1000 Ang^3
#
#
#
# Elastic Constant Matrix: (Units=GPa)
#
#
# Indices 1 2 3 4 5 6 
#
# 1 147.5690 71.9617 48.5253 0.0000 0.0000 0.0000
# 2 71.9617 119.9733 57.3812 0.0000 0.0000 0.0000
# 3 48.5253 57.3812 120.1467 0.0000 0.0000 0.0000
# 4 0.0000 0.0000 0.0000 29.8986 0.0000 0.0000
# 5 0.0000 0.0000 0.0000 0.0000 25.9966 0.0000
# 6 0.0000 0.0000 0.0000 0.0000 0.0000 42.9076
#
#
#
# Elastic Compliance Matrix: (Units=1/GPa)
#
#
# Indices 1 2 3 4 5 6 
#
# 1 0.009779 -0.005154 -0.001488 0.000000 0.000000 0.000000
# 2 -0.005154 0.013519 -0.004375 0.000000 0.000000 0.000000
# 3 -0.001488 -0.004375 0.011014 0.000000 0.000000 0.000000
# 4 0.000000 0.000000 0.000000 0.033446 0.000000 0.000000
# 5 0.000000 0.000000 0.000000 0.000000 0.038467 0.000000
# 6 0.000000 0.000000 0.000000 0.000000 0.000000 0.023306
#
#
# Mechanical properties :
#
#
# Convention : Reuss Voigt Hill
#
# Bulk Modulus (GPa) = 81.44852 82.60282 82.02567
# Shear Modulus (GPa) = 32.12180 33.74862 32.93521
#
# Velocity S-wave (km/s) = 3.83201 3.92785 3.88023
# Velocity P-wave (km/s) = 7.53743 7.63755 7.58765
#
# Compressibility (1/GPa) = 0.01227769
#
# Stress axis : x y z
#
# Youngs Moduli (GPa) = 102.25859 73.96958 90.79612
#
# Poissons Ratio (x) = 0.38123 0.13512
# Poissons Ratio (y) = 0.52703 0.39724
# Poissons Ratio (z) = 0.15218 0.32362
#
# Static dielectric constant tensor:
#      x y z
#    x 4.225710 0.000000 0.000000 
#    y 0.000000 3.894910 0.000000 
#    z 0.000000 0.000000 3.957620 
# 
# 
# High freq. dielectric constant tensor:
#      x y z
#    x 1.882020 0.000000 0.000000 
#    y 0.000000 1.846010 0.000000 
#    z 0.000000 0.000000 1.858180 
# 
# From -- ./inp_files/1915.got.cif
#   From: 2010.03.12/outbox.cif.g09.slc.cpg/sg16_1_cif.got.tgz:1915.got - 2010.03.31 00:51:45.
