data_PCOD8155076
_publ_section_title
;
Structure prediction by ZEFSAII (Michael W. Deem and Ramdas Pophale) SiO2 
 PCOD8155076
Probable space group: C 2/C
;
_chemical_formula_sum "Si O2"
_cell_formula_units_Z 44
_cell_length_a 19.751918
_cell_length_b 11.299511
_cell_length_c 9.232405
_cell_angle_alpha 90.000000
_cell_angle_beta 111.624457
_cell_angle_gamma 90.000000
_cell_volume 1915.529683
_symmetry_space_group_name_H-M "C 2/C"
_symmetry_group_IT_number 15
_symmetry_cell_setting 'monoclinic'
loop_
_space_group_symop_operation_xyz
x,y,z
-x,y,1/2-z
-x,-y,-z
x,-y,1/2+z
1/2+x,1/2+y,z
1/2-x,1/2+y,1/2-z
1/2-x,1/2-y,-z
1/2+x,1/2-y,1/2+z
loop_
_atom_site_type_symbol
_atom_site_label
_atom_site_fract_x
_atom_site_fract_y
_atom_site_fract_z
Si Si1 0.295226 0.935693 0.380979
Si Si2 0.197346 0.963558 0.047747
Si Si3 0.067622 0.412786 0.562907
Si Si4 0.000000 0.264867 0.750000
Si Si5 0.420583 0.286421 0.665660
Si Si6 0.624628 0.291716 0.549014
O O1 0.239101 0.898093 0.210588
O O2 0.327059 0.815782 0.478300
O O3 0.253219 0.016189 0.462537
O O4 0.358599 0.014672 0.361636
O O5 0.168350 0.087757 0.083477
O O6 0.130646 0.881476 0.950740
O O7 0.057344 0.339879 0.701967
O O8 0.071849 0.331413 0.423933
O O9 0.000000 0.500000 0.500000
O O10 0.949886 0.188437 0.601269
O O11 0.500000 0.345505 0.750000
O O12 0.391120 0.250586 0.799789
#
# Coordination Sequence:
#
# PCOD8155076 Si02
#       6
#     8   8   8   4   8   8
#     4  12  26  48  75 106 155 191 251 305 375 450
#     4  12  29  47  74 110 150 204 243 310 379 449
#     4  12  27  47  78 113 148 193 249 310 373 440
#     4  12  26  44  78 112 142 196 250 314 366 440
#     4  12  27  50  76 106 151 197 249 311 378 446
#     4  12  27  48  75 108 149 197 256 307 374 449
#
# _framework density 22.970147999999998
#
# number of rings (size 3 to 8) (size 9 to 14) (size 15 to 20)
#    0.000    0.000    5.455    2.727   10.182    2.182 
#    0.000    0.000    0.000    0.000    0.000    0.000 
#    0.000    0.000    0.000    0.000    0.000    0.000 
#
# Total GULP energy -272903.453465 kJ/mol
# GULP energy per Si atom -12404.702430 kJ/mol
# Density = 2.291787 g / cm^3
# Si number density = 22.970148 Si / 1000 Ang^3
#
#
#
# Elastic Constant Matrix: (Units=GPa)
#
#
# Indices 1 2 3 4 5 6 
#
# 1 115.2632 53.8049 31.2163 0.0000 12.2104 0.0000
# 2 53.8049 87.1543 27.4325 0.0000 10.2787 0.0000
# 3 31.2163 27.4325 121.5994 0.0000 12.8294 0.0000
# 4 0.0000 0.0000 0.0000 31.3210 0.0000 4.1249
# 5 12.2104 10.2787 12.8294 0.0000 51.6563 0.0000
# 6 0.0000 0.0000 0.0000 4.1249 0.0000 32.5471
#
#
#
# Elastic Compliance Matrix: (Units=1/GPa)
#
#
# Indices 1 2 3 4 5 6 
#
# 1 0.012531 -0.007130 -0.001484 0.000000 -0.001175 0.000000
# 2 -0.007130 0.016576 -0.001786 0.000000 -0.001169 0.000000
# 3 -0.001484 -0.001786 0.009173 0.000000 -0.001572 0.000000
# 4 0.000000 0.000000 0.000000 0.032469 0.000000 -0.004115
# 5 -0.001175 -0.001169 -0.001572 0.000000 0.020259 0.000000
# 6 0.000000 0.000000 0.000000 -0.004115 0.000000 0.031246
#
#
# Mechanical properties :
#
#
# Convention : Reuss Voigt Hill
#
# Bulk Modulus (GPa) = 57.20959 60.99160 59.10059
# Shear Modulus (GPa) = 33.58382 37.20910 35.39646
#
# Velocity S-wave (km/s) = 3.82784 4.02915 3.92979
# Velocity P-wave (km/s) = 6.67058 6.94663 6.81000
#
# Compressibility (1/GPa) = 0.01747959
#
# Stress axis : x y z
#
# Youngs Moduli (GPa) = 79.80525 60.32966 109.00986
#
# Poissons Ratio (x) = 0.43015 0.16181
# Poissons Ratio (y) = 0.56901 0.19465
# Poissons Ratio (z) = 0.11846 0.10773
#
# Static dielectric constant tensor:
#      x y z
#    x 9.176520 0.000000 -3.694170 
#    y 0.000000 3.958170 0.000000 
#    z -3.694170 0.000000 7.248030 
# 
# 
# High freq. dielectric constant tensor:
#      x y z
#    x 1.927870 0.000000 0.004200 
#    y 0.000000 1.895500 0.000000 
#    z 0.004200 0.000000 1.923980 
# 
# From -- ./inp_files/54521.got.cif
#   From: 2010.06.25/outbox.cif.g09.slc.cpg/sg15_28_cif.got.tgz:54521.got - 2010.06.28 07:06:18.
