data_PCOD8155427
_publ_section_title
;
Structure prediction by ZEFSAII (Michael W. Deem and Ramdas Pophale) SiO2 
 PCOD8155427
Probable space group: P 2 2 21
;
_chemical_formula_sum "Si O2"
_cell_formula_units_Z 32
_cell_length_a 5.194899
_cell_length_b 17.931247
_cell_length_c 16.964568
_cell_angle_alpha 90.000000
_cell_angle_beta 90.000000
_cell_angle_gamma 90.000000
_cell_volume 1580.266764
_symmetry_space_group_name_H-M "P 2 2 21"
_symmetry_group_IT_number 17
_symmetry_cell_setting 'orthorhombic'
loop_
_space_group_symop_operation_xyz
x,y,z
-x,-y,1/2+z
x,-y,-z
-x,y,1/2-z
loop_
_atom_site_type_symbol
_atom_site_label
_atom_site_fract_x
_atom_site_fract_y
_atom_site_fract_z
Si Si1 0.249478 0.107641 0.710213
Si Si2 0.748782 0.941100 0.720388
Si Si3 0.987710 0.726416 0.933078
Si Si4 0.668930 0.073764 0.461527
Si Si5 0.474584 0.268873 0.164056
Si Si6 0.178226 0.142671 0.527806
Si Si7 0.446170 0.560162 0.834346
Si Si8 0.965253 0.555002 0.928357
O O1 0.500000 0.145126 0.750000
O O2 0.252957 0.125239 0.617562
O O3 0.000000 0.145505 0.750000
O O4 0.249238 0.019597 0.730853
O O5 0.500000 0.895546 0.750000
O O6 0.737994 0.947116 0.627455
O O7 0.000000 0.896395 0.750000
O O8 0.243480 0.764306 0.891701
O O9 0.026669 0.639882 0.956114
O O10 0.753757 0.735827 0.873408
O O11 0.918852 0.772326 0.012553
O O12 0.433179 0.131995 0.472837
O O13 0.936693 0.091970 0.504292
O O14 0.551289 0.000000 0.500000
O O15 0.500000 0.229797 0.250000
O O16 0.383474 0.353248 0.178073
O O17 0.500000 0.521890 0.750000
O O18 0.186890 0.525002 0.869965
O O19 0.686709 0.547666 0.890561
O O20 0.970597 0.500000 0.000000
#
# Coordination Sequence:
#
# PCOD8155427 Si02
#       8
#     4   4   4   4   4   4   4   4
#     4  10  20  37  59  80 101 137 183 222 268 331
#     4  10  19  35  54  77 106 137 174 218 266 323
#     4  10  21  36  55  84 117 151 191 234 284 341
#     4  12  23  38  60  84 108 140 185 236 284 336
#     4   9  17  33  56  78 110 150 189 227 274 340
#     4  12  24  40  60  85 114 146 185 237 292 339
#     4   9  17  30  52  82 110 146 192 237 279 334
#     4  10  19  33  56  84 115 153 195 237 285 338
#
# _framework density 20.249745999999998
#
# number of rings (size 3 to 8) (size 9 to 14) (size 15 to 20)
#    0.000    1.750    0.000    6.750    0.000    3.000 
#    0.000    6.250    0.000    2.250    0.000    0.000 
#    0.000    0.000    0.000    0.000    0.000    0.000 
#
# Total GULP energy -396548.883488 kJ/mol
# GULP energy per Si atom -12392.152609 kJ/mol
# Density = 2.020366 g / cm^3
# Si number density = 20.249746 Si / 1000 Ang^3
#
#
#
# Elastic Constant Matrix: (Units=GPa)
#
#
# Indices 1 2 3 4 5 6 
#
# 1 147.8377 18.3894 30.9111 0.0000 0.0000 0.0000
# 2 18.3894 56.5723 42.5126 0.0000 0.0000 0.0000
# 3 30.9111 42.5126 122.6513 0.0000 0.0000 0.0000
# 4 0.0000 0.0000 0.0000 11.8416 0.0000 0.0000
# 5 0.0000 0.0000 0.0000 0.0000 36.5440 0.0000
# 6 0.0000 0.0000 0.0000 0.0000 0.0000 11.7310
#
#
#
# Elastic Compliance Matrix: (Units=1/GPa)
#
#
# Indices 1 2 3 4 5 6 
#
# 1 0.007213 -0.001323 -0.001359 0.000000 0.000000 0.000000
# 2 -0.001323 0.024145 -0.008036 0.000000 0.000000 0.000000
# 3 -0.001359 -0.008036 0.011281 0.000000 0.000000 0.000000
# 4 0.000000 0.000000 0.000000 0.084448 0.000000 0.000000
# 5 0.000000 0.000000 0.000000 0.000000 0.027364 0.000000
# 6 0.000000 0.000000 0.000000 0.000000 0.000000 0.085244
#
#
# Mechanical properties :
#
#
# Convention : Reuss Voigt Hill
#
# Bulk Modulus (GPa) = 47.16292 56.74307 51.95299
# Shear Modulus (GPa) = 18.64289 27.70656 23.17473
#
# Velocity S-wave (km/s) = 3.03751 3.70299 3.38664
# Velocity P-wave (km/s) = 5.97019 6.80921 6.40345
#
# Compressibility (1/GPa) = 0.02120310
#
# Stress axis : x y z
#
# Youngs Moduli (GPa) = 138.63933 41.41625 88.64487
#
# Poissons Ratio (x) = 0.05480 0.12048
# Poissons Ratio (y) = 0.18345 0.71231
# Poissons Ratio (z) = 0.18844 0.33280
#
# Static dielectric constant tensor:
#      x y z
#    x 4.503020 0.000000 0.000000 
#    y 0.000000 3.392950 0.000000 
#    z 0.000000 0.000000 3.702660 
# 
# 
# High freq. dielectric constant tensor:
#      x y z
#    x 1.828430 0.000000 0.000000 
#    y 0.000000 1.744340 0.000000 
#    z 0.000000 0.000000 1.788040 
# 
# From -- ./inp_files/7821.got.cif
#   From: 2010.03.12/outbox.cif.g09.slc.cpg/sg17_4_cif.got.tgz:7821.got - 2010.04.10 18:46:23.
