data_PCOD8155112
_publ_section_title
;
Structure prediction by ZEFSAII (Michael W. Deem and Ramdas Pophale) SiO2 
 PCOD8155112
Probable space group: C 2/C
;
_chemical_formula_sum "Si O2"
_cell_formula_units_Z 32
_cell_length_a 17.671037
_cell_length_b 7.934913
_cell_length_c 9.767681
_cell_angle_alpha 90.000000
_cell_angle_beta 75.666380
_cell_angle_gamma 90.000000
_cell_volume 1326.971100
_symmetry_space_group_name_H-M "C 2/C"
_symmetry_group_IT_number 15
_symmetry_cell_setting 'monoclinic'
loop_
_space_group_symop_operation_xyz
x,y,z
-x,y,1/2-z
-x,-y,-z
x,-y,1/2+z
1/2+x,1/2+y,z
1/2-x,1/2+y,1/2-z
1/2-x,1/2-y,-z
1/2+x,1/2-y,1/2+z
loop_
_atom_site_type_symbol
_atom_site_label
_atom_site_fract_x
_atom_site_fract_y
_atom_site_fract_z
Si Si1 0.448404 0.966445 0.397126
Si Si2 0.834495 0.031227 0.240157
Si Si3 0.925066 0.087243 0.461695
Si Si4 0.695808 0.848124 0.420872
O O1 0.500000 0.038431 0.250000
O O2 0.438389 0.767737 0.390347
O O3 0.500000 0.000000 0.500000
O O4 0.367741 0.065099 0.452865
O O5 0.891894 0.989667 0.342951
O O6 0.841371 0.222705 0.177000
O O7 0.745011 0.992185 0.320206
O O8 0.858687 0.903956 0.107755
O O9 0.000000 0.000000 0.500000
O O10 0.750000 0.750000 0.500000
#
# Coordination Sequence:
#
# PCOD8155112 Si02
#       4
#     8   8   8   8
#     4  12  29  47  77 108 156 202 260 319 393 465
#     4  12  27  48  79 110 157 203 263 319 398 472
#     4  12  26  48  76 116 156 205 263 325 396 472
#     4  12  28  50  78 117 155 209 260 326 398 474
#
# _framework density 24.115069999999999
#
# number of rings (size 3 to 8) (size 9 to 14) (size 15 to 20)
#    0.000    0.000    2.500    6.750   10.500    2.000 
#    0.000    0.000    0.000    0.000    0.000    0.000 
#    0.000    0.000    0.000    0.000    0.000    0.000 
#
# Total GULP energy -198333.818134 kJ/mol
# GULP energy per Si atom -12395.863633 kJ/mol
# Density = 2.406018 g / cm^3
# Si number density = 24.115070 Si / 1000 Ang^3
#
#
#
# Elastic Constant Matrix: (Units=GPa)
#
#
# Indices 1 2 3 4 5 6 
#
# 1 139.8507 53.3131 81.5050 0.0000 -14.2434 0.0000
# 2 53.3131 77.0548 37.9943 0.0000 -19.9427 0.0000
# 3 81.5050 37.9943 201.9166 0.0000 -14.7584 0.0000
# 4 0.0000 0.0000 0.0000 37.9716 0.0000 -5.0828
# 5 -14.2434 -19.9427 -14.7584 0.0000 72.5955 0.0000
# 6 0.0000 0.0000 0.0000 -5.0828 0.0000 49.2444
#
#
#
# Elastic Compliance Matrix: (Units=1/GPa)
#
#
# Indices 1 2 3 4 5 6 
#
# 1 0.011587 -0.006339 -0.003498 0.000000 -0.000179 0.000000
# 2 -0.006339 0.018668 -0.000680 0.000000 0.003746 0.000000
# 3 -0.003498 -0.000680 0.006526 0.000000 0.000453 0.000000
# 4 0.000000 0.000000 0.000000 0.026704 0.000000 0.002756
# 5 -0.000179 0.003746 0.000453 0.000000 0.014861 0.000000
# 6 0.000000 0.000000 0.000000 0.002756 0.000000 0.020591
#
#
# Mechanical properties :
#
#
# Convention : Reuss Voigt Hill
#
# Bulk Modulus (GPa) = 63.50020 84.93856 74.21938
# Shear Modulus (GPa) = 39.92963 48.36294 44.14629
#
# Velocity S-wave (km/s) = 4.07356 4.48315 4.28325
# Velocity P-wave (km/s) = 6.96524 7.88015 7.43678
#
# Compressibility (1/GPa) = 0.01574798
#
# Stress axis : x y z
#
# Youngs Moduli (GPa) = 86.30368 53.56625 153.24485
#
# Poissons Ratio (x) = 0.33954 0.53598
# Poissons Ratio (y) = 0.54705 0.10426
# Poissons Ratio (z) = 0.30185 0.03644
#
# Static dielectric constant tensor:
#      x y z
#    x 4.924770 0.000000 -0.301730 
#    y 0.000000 4.250380 0.000000 
#    z -0.301730 0.000000 4.709280 
# 
# 
# High freq. dielectric constant tensor:
#      x y z
#    x 1.969570 0.000000 -0.001660 
#    y 0.000000 1.945840 0.000000 
#    z -0.001660 0.000000 1.986480 
# 
# From -- ./inp_files/53414.got.cif
#   From: 2010.06.25/outbox.cif.g09.slc.cpg/sg15_27_cif.got.tgz:53414.got - 2010.06.28 07:06:18.
