data_PCOD8155633
_publ_section_title
;
Structure prediction by ZEFSAII (Michael W. Deem and Ramdas Pophale) SiO2 
 PCOD8155633
Probable space group: P 2 2 21
;
_chemical_formula_sum "Si O2"
_cell_formula_units_Z 20
_cell_length_a 11.330902
_cell_length_b 13.981225
_cell_length_c 6.320693
_cell_angle_alpha 90.000000
_cell_angle_beta 90.000000
_cell_angle_gamma 90.000000
_cell_volume 1001.323492
_symmetry_space_group_name_H-M "P 2 2 21"
_symmetry_group_IT_number 17
_symmetry_cell_setting 'orthorhombic'
loop_
_space_group_symop_operation_xyz
x,y,z
-x,-y,1/2+z
x,-y,-z
-x,y,1/2-z
loop_
_atom_site_type_symbol
_atom_site_label
_atom_site_fract_x
_atom_site_fract_y
_atom_site_fract_z
Si Si1 0.500000 0.150482 0.750000
Si Si2 0.119784 0.736997 0.134239
Si Si3 0.000000 0.349518 0.250000
Si Si4 0.289853 0.104818 0.010105
Si Si5 0.210147 0.395182 0.510106
Si Si6 0.619784 0.236997 0.134239
O O1 0.416603 0.087407 0.898485
O O2 0.412634 0.213673 0.606570
O O3 0.208443 0.825981 0.129480
O O4 0.184542 0.648728 0.256346
O O5 0.000000 0.769105 0.250000
O O6 0.087366 0.713674 0.893430
O O7 0.083397 0.412593 0.398485
O O8 0.315457 0.148728 0.243653
O O9 0.229146 0.000000 0.000000
O O10 0.270855 0.500000 0.500000
O O11 0.291557 0.325981 0.370522
O O12 0.500000 0.269104 0.250000
#
# Coordination Sequence:
#
# PCOD8155633 Si02
#       6
#     2   4   2   4   4   4
#     4  10  22  40  64  88 124 156 208 262 304 360
#     4  10  22  43  61  89 128 161 205 258 301 364
#     4  10  22  40  64  88 124 156 208 262 304 360
#     4  11  23  40  65  90 121 166 205 254 309 363
#     4  11  23  40  65  90 121 166 205 254 309 363
#     4  10  22  43  61  89 128 161 205 258 301 364
#
# _framework density 19.973565000000001
#
# number of rings (size 3 to 8) (size 9 to 14) (size 15 to 20)
#    0.000    1.600    4.000    0.000    8.400    0.000 
#    3.600    0.000    0.000    0.000    0.000    0.000 
#    0.000    0.000    0.000    0.000    0.000    0.000 
#
# Total GULP energy -247861.397558 kJ/mol
# GULP energy per Si atom -12393.069878 kJ/mol
# Density = 1.992810 g / cm^3
# Si number density = 19.973565 Si / 1000 Ang^3
#
#
#
# Elastic Constant Matrix: (Units=GPa)
#
#
# Indices 1 2 3 4 5 6 
#
# 1 69.3996 44.8032 32.1894 0.0000 0.0000 0.0000
# 2 44.8032 155.1809 58.1804 0.0000 0.0000 0.0000
# 3 32.1894 58.1804 109.4684 0.0000 0.0000 0.0000
# 4 0.0000 0.0000 0.0000 23.5818 0.0000 0.0000
# 5 0.0000 0.0000 0.0000 0.0000 43.3435 0.0000
# 6 0.0000 0.0000 0.0000 0.0000 0.0000 17.0352
#
#
#
# Elastic Compliance Matrix: (Units=1/GPa)
#
#
# Indices 1 2 3 4 5 6 
#
# 1 0.018601 -0.004146 -0.003266 0.000000 0.000000 0.000000
# 2 -0.004146 0.008972 -0.003549 0.000000 0.000000 0.000000
# 3 -0.003266 -0.003549 0.011982 0.000000 0.000000 0.000000
# 4 0.000000 0.000000 0.000000 0.042406 0.000000 0.000000
# 5 0.000000 0.000000 0.000000 0.000000 0.023071 0.000000
# 6 0.000000 0.000000 0.000000 0.000000 0.000000 0.058702
#
#
# Mechanical properties :
#
#
# Convention : Reuss Voigt Hill
#
# Bulk Modulus (GPa) = 56.71539 67.15500 61.93519
# Shear Modulus (GPa) = 26.10517 30.05050 28.07783
#
# Velocity S-wave (km/s) = 3.61915 3.88301 3.75340
# Velocity P-wave (km/s) = 6.77652 7.33476 7.06116
#
# Compressibility (1/GPa) = 0.01763190
#
# Stress axis : x y z
#
# Youngs Moduli (GPa) = 53.76151 111.46138 83.45976
#
# Poissons Ratio (x) = 0.46209 0.27259
# Poissons Ratio (y) = 0.22288 0.29622
# Poissons Ratio (z) = 0.17559 0.39560
#
# Static dielectric constant tensor:
#      x y z
#    x 3.726030 0.000000 0.000000 
#    y 0.000000 3.343980 0.000000 
#    z 0.000000 0.000000 3.814560 
# 
# 
# High freq. dielectric constant tensor:
#      x y z
#    x 1.786430 0.000000 0.000000 
#    y 0.000000 1.751350 0.000000 
#    z 0.000000 0.000000 1.790220 
# 
# From -- ./inp_files/1574.got.cif
#   From: 2010.03.12/outbox.cif.g09.slc.cpg/sg17_1_cif.got.tgz:1574.got - 2010.04.10 18:46:23.
