data_PCOD8155025
_publ_section_title
;
Structure prediction by ZEFSAII (Michael W. Deem and Ramdas Pophale) SiO2 
 PCOD8155025
Probable space group: C 2/C
;
_chemical_formula_sum "Si O2"
_cell_formula_units_Z 40
_cell_length_a 10.759588
_cell_length_b 10.042194
_cell_length_c 16.227724
_cell_angle_alpha 90.000000
_cell_angle_beta 107.961851
_cell_angle_gamma 90.000000
_cell_volume 1667.946191
_symmetry_space_group_name_H-M "C 2/C"
_symmetry_group_IT_number 15
_symmetry_cell_setting 'monoclinic'
loop_
_space_group_symop_operation_xyz
x,y,z
-x,y,1/2-z
-x,-y,-z
x,-y,1/2+z
1/2+x,1/2+y,z
1/2-x,1/2+y,1/2-z
1/2-x,1/2-y,-z
1/2+x,1/2-y,1/2+z
loop_
_atom_site_type_symbol
_atom_site_label
_atom_site_fract_x
_atom_site_fract_y
_atom_site_fract_z
Si Si1 0.398988 0.619244 0.989889
Si Si2 0.000000 0.152471 0.750000
Si Si3 0.223551 0.744098 0.188924
Si Si4 0.711849 0.512028 0.884467
Si Si5 0.527682 0.109954 0.575069
Si Si6 0.000000 0.366247 0.250000
O O1 0.325168 0.656440 0.891982
O O2 0.500000 0.500000 0.000000
O O3 0.287408 0.566599 0.029046
O O4 0.464697 0.748062 0.043930
O O5 0.881696 0.241716 0.759544
O O6 0.935193 0.059343 0.666304
O O7 0.225687 0.588847 0.169210
O O8 0.371590 0.778777 0.243349
O O9 0.815017 0.633149 0.901702
O O10 0.482519 0.057882 0.658028
O O11 0.500000 0.000000 0.500000
#
# Coordination Sequence:
#
# PCOD8155025 Si02
#       6
#     8   4   8   8   8   4
#     4  12  26  48  76 111 157 204 256 330 398 463
#     4  12  27  47  72 114 154 196 264 324 384 472
#     4  12  25  49  74 112 151 203 259 325 390 469
#     4  12  25  47  77 107 155 204 261 322 389 472
#     4  12  26  49  80 114 155 210 265 322 394 476
#     4  12  25  47  84 112 154 218 260 322 408 470
#
# _framework density 23.981589
#
# number of rings (size 3 to 8) (size 9 to 14) (size 15 to 20)
#    0.000    0.000    8.000    2.400    0.000    1.600 
#    0.000    0.000    0.000    0.000    0.000    0.000 
#    0.000    0.000    0.000    0.000    0.000    0.000 
#
# Total GULP energy -247843.213374 kJ/mol
# GULP energy per Si atom -12392.160669 kJ/mol
# Density = 2.392701 g / cm^3
# Si number density = 23.981589 Si / 1000 Ang^3
#
#
#
# Elastic Constant Matrix: (Units=GPa)
#
#
# Indices 1 2 3 4 5 6 
#
# 1 166.9346 25.5596 34.6981 0.0000 -14.9737 0.0000
# 2 25.5596 63.1936 20.8938 0.0000 -19.9726 0.0000
# 3 34.6981 20.8938 118.6985 0.0000 -18.6110 0.0000
# 4 0.0000 0.0000 0.0000 24.7728 0.0000 -1.2625
# 5 -14.9737 -19.9726 -18.6110 0.0000 43.0011 0.0000
# 6 0.0000 0.0000 0.0000 -1.2625 0.0000 38.3230
#
#
#
# Elastic Compliance Matrix: (Units=1/GPa)
#
#
# Indices 1 2 3 4 5 6 
#
# 1 0.006668 -0.001964 -0.001483 0.000000 0.000768 0.000000
# 2 -0.001964 0.019604 -0.001670 0.000000 0.007699 0.000000
# 3 -0.001483 -0.001670 0.009601 0.000000 0.002863 0.000000
# 4 0.000000 0.000000 0.000000 0.040435 0.000000 0.001332
# 5 0.000768 0.007699 0.002863 0.000000 0.028338 0.000000
# 6 0.000000 0.000000 0.000000 0.001332 0.000000 0.026138
#
#
# Mechanical properties :
#
#
# Convention : Reuss Voigt Hill
#
# Bulk Modulus (GPa) = 39.00155 56.79220 47.89688
# Shear Modulus (GPa) = 33.43054 39.06441 36.24747
#
# Velocity S-wave (km/s) = 3.73769 4.04038 3.89198
# Velocity P-wave (km/s) = 5.90979 6.74531 6.34133
#
# Compressibility (1/GPa) = 0.02564000
#
# Stress axis : x y z
#
# Youngs Moduli (GPa) = 149.96467 51.00990 104.15455
#
# Poissons Ratio (x) = 0.10018 0.15448
# Poissons Ratio (y) = 0.29453 0.17389
# Poissons Ratio (z) = 0.22242 0.08516
#
# Static dielectric constant tensor:
#      x y z
#    x 4.492370 0.000000 0.057270 
#    y 0.000000 4.085920 0.000000 
#    z 0.057270 0.000000 4.694710 
# 
# 
# High freq. dielectric constant tensor:
#      x y z
#    x 1.980190 0.000000 0.001700 
#    y 0.000000 1.923280 0.000000 
#    z 0.001700 0.000000 1.964770 
# 
# From -- ./inp_files/195254.got.cif
#   From: 2010.06.25/outbox.cif.g09.slc.cpg/sg15_98_cif.got.tgz:195254.got - 2010.06.28 07:06:18.
