data_PCOD8155621
_publ_section_title
;
Structure prediction by ZEFSAII (Michael W. Deem and Ramdas Pophale) SiO2 
 PCOD8155621
Probable space group: P 2 2 21
;
_chemical_formula_sum "Si O2"
_cell_formula_units_Z 16
_cell_length_a 9.494268
_cell_length_b 8.832083
_cell_length_c 8.221883
_cell_angle_alpha 90.000000
_cell_angle_beta 90.000000
_cell_angle_gamma 90.000000
_cell_volume 689.439117
_symmetry_space_group_name_H-M "P 2 2 21"
_symmetry_group_IT_number 17
_symmetry_cell_setting 'orthorhombic'
loop_
_space_group_symop_operation_xyz
x,y,z
-x,-y,1/2+z
x,-y,-z
-x,y,1/2-z
loop_
_atom_site_type_symbol
_atom_site_label
_atom_site_fract_x
_atom_site_fract_y
_atom_site_fract_z
Si Si1 0.589303 0.646643 0.401816
Si Si2 0.146002 0.309633 0.325918
Si Si3 0.848111 0.661040 0.205125
Si Si4 0.400350 0.870000 0.616102
O O1 0.639815 0.500000 0.500000
O O2 0.500000 0.585270 0.250000
O O3 0.728885 0.730223 0.325634
O O4 0.492153 0.753165 0.510774
O O5 0.168586 0.294132 0.519104
O O6 0.160123 0.480745 0.267197
O O7 0.278878 0.208813 0.271540
O O8 0.000000 0.243932 0.250000
O O9 0.000000 0.726195 0.250000
O O10 0.500000 0.949027 0.750000
O O11 0.336699 0.000000 0.500000
#
# Coordination Sequence:
#
# PCOD8155621 Si02
#       4
#     4   4   4   4
#     4  12  23  40  69 105 140 181 230 288 346 413
#     4  10  22  43  66  99 136 178 222 285 345 413
#     4  10  22  37  67 103 137 171 222 280 346 409
#     4  12  27  46  68  96 135 187 235 291 349 415
#
# _framework density 23.207270000000001
#
# number of rings (size 3 to 8) (size 9 to 14) (size 15 to 20)
#    0.000    1.000    2.500    4.500   10.500    0.000 
#    0.000    2.500    0.000    0.000    0.000    0.000 
#    0.000    0.000    0.000    0.000    0.000    0.000 
#
# Total GULP energy -198289.253806 kJ/mol
# GULP energy per Si atom -12393.078363 kJ/mol
# Density = 2.315445 g / cm^3
# Si number density = 23.207270 Si / 1000 Ang^3
#
#
#
# Elastic Constant Matrix: (Units=GPa)
#
#
# Indices 1 2 3 4 5 6 
#
# 1 182.4002 19.3681 43.3307 0.0000 0.0000 0.0000
# 2 19.3681 43.8501 4.8999 0.0000 0.0000 0.0000
# 3 43.3307 4.8999 75.3466 0.0000 0.0000 0.0000
# 4 0.0000 0.0000 0.0000 15.7214 0.0000 0.0000
# 5 0.0000 0.0000 0.0000 0.0000 62.1241 0.0000
# 6 0.0000 0.0000 0.0000 0.0000 0.0000 17.1275
#
#
#
# Elastic Compliance Matrix: (Units=1/GPa)
#
#
# Indices 1 2 3 4 5 6 
#
# 1 0.006614 -0.002515 -0.003640 0.000000 0.000000 0.000000
# 2 -0.002515 0.023928 -0.000110 0.000000 0.000000 0.000000
# 3 -0.003640 -0.000110 0.015373 0.000000 0.000000 0.000000
# 4 0.000000 0.000000 0.000000 0.063608 0.000000 0.000000
# 5 0.000000 0.000000 0.000000 0.000000 0.016097 0.000000
# 6 0.000000 0.000000 0.000000 0.000000 0.000000 0.058386
#
#
# Mechanical properties :
#
#
# Convention : Reuss Voigt Hill
#
# Bulk Modulus (GPa) = 29.95341 48.53270 39.24306
# Shear Modulus (GPa) = 24.07749 34.59448 29.33599
#
# Velocity S-wave (km/s) = 3.22452 3.86511 3.55926
# Velocity P-wave (km/s) = 5.17670 6.39351 5.81701
#
# Compressibility (1/GPa) = 0.03338518
#
# Stress axis : x y z
#
# Youngs Moduli (GPa) = 151.18911 41.79208 65.05091
#
# Poissons Ratio (x) = 0.10509 0.23680
# Poissons Ratio (y) = 0.38019 0.00715
# Poissons Ratio (z) = 0.55036 0.00459
#
# Static dielectric constant tensor:
#      x y z
#    x 4.666910 0.000000 0.000000 
#    y 0.000000 3.723330 0.000000 
#    z 0.000000 0.000000 4.587420 
# 
# 
# High freq. dielectric constant tensor:
#      x y z
#    x 1.936630 0.000000 0.000000 
#    y 0.000000 1.865000 0.000000 
#    z 0.000000 0.000000 1.933130 
# 
# From -- ./inp_files/3732.got.cif
#   From: 2010.03.12/outbox.cif.g09.slc.cpg/sg17_2_cif.got.tgz:3732.got - 2010.04.10 18:46:23.
