data_PCOD8155602
_publ_section_title
;
Structure prediction by ZEFSAII (Michael W. Deem and Ramdas Pophale) SiO2 
 PCOD8155602
Probable space group: P 2 2 21
;
_chemical_formula_sum "Si O2"
_cell_formula_units_Z 32
_cell_length_a 9.111456
_cell_length_b 11.564150
_cell_length_c 14.313353
_cell_angle_alpha 90.000000
_cell_angle_beta 90.000000
_cell_angle_gamma 90.000000
_cell_volume 1508.144243
_symmetry_space_group_name_H-M "P 2 2 21"
_symmetry_group_IT_number 17
_symmetry_cell_setting 'orthorhombic'
loop_
_space_group_symop_operation_xyz
x,y,z
-x,-y,1/2+z
x,-y,-z
-x,y,1/2-z
loop_
_atom_site_type_symbol
_atom_site_label
_atom_site_fract_x
_atom_site_fract_y
_atom_site_fract_z
Si Si1 0.292220 0.759466 0.120188
Si Si2 0.068183 0.634382 0.998655
Si Si3 0.647931 0.117403 0.199300
Si Si4 0.660375 0.451553 0.742846
Si Si5 0.263141 0.680237 0.835987
Si Si6 0.489850 0.243246 0.465296
Si Si7 0.167231 0.896626 0.281827
Si Si8 0.230051 0.315556 0.585797
O O1 0.371917 0.655006 0.173588
O O2 0.260076 0.862398 0.190912
O O3 0.141549 0.704187 0.083437
O O4 0.396246 0.813576 0.039637
O O5 0.121318 0.697584 0.902954
O O6 0.117595 0.500000 0.000000
O O7 0.895166 0.645643 0.013459
O O8 0.500000 0.073317 0.250000
O O9 0.724494 0.221879 0.256641
O O10 0.601796 0.150880 0.094223
O O11 0.769454 0.019234 0.186212
O O12 0.500000 0.509068 0.750000
O O13 0.763699 0.554024 0.706853
O O14 0.745493 0.410965 0.835060
O O15 0.413249 0.676738 0.896908
O O16 0.376118 0.317424 0.524425
O O17 0.189875 0.807161 0.366727
O O18 0.000000 0.907874 0.250000
#
# Coordination Sequence:
#
# PCOD8155602 Si02
#       8
#     4   4   4   4   4   4   4   4
#     4  10  21  41  67  99 130 170 222 273 340 400
#     4  11  22  41  64  98 137 177 215 269 337 413
#     4  10  24  45  66  95 130 177 225 280 340 389
#     4  11  20  37  68 100 132 173 218 275 344 396
#     4  10  23  44  65  92 138 177 219 268 343 416
#     4  10  22  43  65  98 130 168 224 286 324 397
#     4  11  24  44  70  93 134 175 225 280 333 405
#     4  11  25  40  65 103 131 167 229 283 331 400
#
# _framework density 21.218132000000001
#
# number of rings (size 3 to 8) (size 9 to 14) (size 15 to 20)
#    0.000    1.500    3.750    1.125    1.750    3.500 
#    4.500    3.125    0.000    0.000    0.000    0.000 
#    0.000    0.000    0.000    0.000    0.000    0.000 
#
# Total GULP energy -396710.509179 kJ/mol
# GULP energy per Si atom -12397.203412 kJ/mol
# Density = 2.116984 g / cm^3
# Si number density = 21.218132 Si / 1000 Ang^3
#
#
#
# Elastic Constant Matrix: (Units=GPa)
#
#
# Indices 1 2 3 4 5 6 
#
# 1 102.5069 39.4559 44.8994 0.0000 0.0000 0.0000
# 2 39.4559 103.1848 56.5331 0.0000 0.0000 0.0000
# 3 44.8994 56.5331 107.3953 0.0000 0.0000 0.0000
# 4 0.0000 0.0000 0.0000 16.7279 0.0000 0.0000
# 5 0.0000 0.0000 0.0000 0.0000 36.8691 0.0000
# 6 0.0000 0.0000 0.0000 0.0000 0.0000 24.9454
#
#
#
# Elastic Compliance Matrix: (Units=1/GPa)
#
#
# Indices 1 2 3 4 5 6 
#
# 1 0.012449 -0.002682 -0.003793 0.000000 0.000000 0.000000
# 2 -0.002682 0.014197 -0.006352 0.000000 0.000000 0.000000
# 3 -0.003793 -0.006352 0.014241 0.000000 0.000000 0.000000
# 4 0.000000 0.000000 0.000000 0.059781 0.000000 0.000000
# 5 0.000000 0.000000 0.000000 0.000000 0.027123 0.000000
# 6 0.000000 0.000000 0.000000 0.000000 0.000000 0.040088
#
#
# Mechanical properties :
#
#
# Convention : Reuss Voigt Hill
#
# Bulk Modulus (GPa) = 65.64713 66.09601 65.87157
# Shear Modulus (GPa) = 25.17498 27.18839 26.18169
#
# Velocity S-wave (km/s) = 3.44828 3.58351 3.51654
# Velocity P-wave (km/s) = 6.84547 6.95273 6.89931
#
# Compressibility (1/GPa) = 0.01523296
#
# Stress axis : x y z
#
# Youngs Moduli (GPa) = 80.32668 70.43652 70.22114
#
# Poissons Ratio (x) = 0.18894 0.26633
# Poissons Ratio (y) = 0.21547 0.44604
# Poissons Ratio (z) = 0.30465 0.44741
#
# Static dielectric constant tensor:
#      x y z
#    x 3.773640 0.000000 0.000000 
#    y 0.000000 3.504210 0.000000 
#    z 0.000000 0.000000 4.058610 
# 
# 
# High freq. dielectric constant tensor:
#      x y z
#    x 1.834600 0.000000 0.000000 
#    y 0.000000 1.810550 0.000000 
#    z 0.000000 0.000000 1.843320 
# 
# From -- ./inp_files/8310.got.cif
#   From: 2010.03.12/outbox.cif.g09.slc.cpg/sg17_5_cif.got.tgz:8310.got - 2010.04.10 18:46:23.
