data_PCOD8155671
_publ_section_title
;
Structure prediction by ZEFSAII (Michael W. Deem and Ramdas Pophale) SiO2 
 PCOD8155671
Probable space group: P 2 2 21
;
_chemical_formula_sum "Si O2"
_cell_formula_units_Z 32
_cell_length_a 7.060074
_cell_length_b 12.589226
_cell_length_c 17.509069
_cell_angle_alpha 90.000000
_cell_angle_beta 90.000000
_cell_angle_gamma 90.000000
_cell_volume 1556.221236
_symmetry_space_group_name_H-M "P 2 2 21"
_symmetry_group_IT_number 17
_symmetry_cell_setting 'orthorhombic'
loop_
_space_group_symop_operation_xyz
x,y,z
-x,-y,1/2+z
x,-y,-z
-x,y,1/2-z
loop_
_atom_site_type_symbol
_atom_site_label
_atom_site_fract_x
_atom_site_fract_y
_atom_site_fract_z
Si Si1 0.623809 0.894069 0.970222
Si Si2 0.868860 0.251359 0.321251
Si Si3 0.554229 0.348057 0.662322
Si Si4 0.588974 0.061372 0.327676
Si Si5 0.708147 0.138877 0.584367
Si Si6 0.199274 0.567328 0.432605
Si Si7 0.893810 0.507791 0.675230
Si Si8 0.969884 0.760530 0.991367
O O1 0.588017 0.908772 0.880774
O O2 0.752581 0.794727 0.987712
O O3 0.424799 0.878984 0.012051
O O4 0.728534 0.000000 0.000000
O O5 0.695503 0.171538 0.313441
O O6 0.807556 0.374417 0.312016
O O7 0.000000 0.220002 0.250000
O O8 0.954847 0.237916 0.405402
O O9 0.500000 0.339142 0.750000
O O10 0.630914 0.234842 0.635445
O O11 0.365407 0.379424 0.616281
O O12 0.718917 0.434486 0.650241
O O13 0.500000 0.016343 0.250000
O O14 0.719480 0.968103 0.364371
O O15 0.911990 0.163546 0.548070
O O16 0.299051 0.500000 0.500000
O O17 0.043906 0.647141 0.468428
O O18 0.064576 0.487646 0.385556
O O19 0.000000 0.462645 0.750000
#
# Coordination Sequence:
#
# PCOD8155671 Si02
#       8
#     4   4   4   4   4   4   4   4
#     4  10  23  39  66  94 128 171 220 272 329 398
#     4  11  25  43  69  98 137 180 229 279 339 409
#     4  12  25  43  72 100 135 180 226 277 353 410
#     4  11  24  46  66  97 142 175 227 287 339 406
#     4  11  24  43  67 101 132 174 228 283 337 411
#     4  12  25  42  67 103 138 178 228 287 343 414
#     4  11  24  45  66  98 136 176 225 285 338 412
#     4  12  23  41  69  97 135 175 227 278 347 403
#
# _framework density 20.562629000000001
#
# number of rings (size 3 to 8) (size 9 to 14) (size 15 to 20)
#    0.000    0.750    6.250    1.125    1.750    3.000 
#    0.000    0.625    0.000    0.000    0.000    0.000 
#    0.000    0.000    0.000    0.000    0.000    0.000 
#
# Total GULP energy -396707.661257 kJ/mol
# GULP energy per Si atom -12397.114414 kJ/mol
# Density = 2.051583 g / cm^3
# Si number density = 20.562629 Si / 1000 Ang^3
#
#
#
# Elastic Constant Matrix: (Units=GPa)
#
#
# Indices 1 2 3 4 5 6 
#
# 1 77.2174 32.5271 43.0500 0.0000 0.0000 0.0000
# 2 32.5271 97.7319 31.8678 0.0000 0.0000 0.0000
# 3 43.0500 31.8678 140.4110 0.0000 0.0000 0.0000
# 4 0.0000 0.0000 0.0000 33.4959 0.0000 0.0000
# 5 0.0000 0.0000 0.0000 0.0000 17.6532 0.0000
# 6 0.0000 0.0000 0.0000 0.0000 0.0000 71.3066
#
#
#
# Elastic Compliance Matrix: (Units=1/GPa)
#
#
# Indices 1 2 3 4 5 6 
#
# 1 0.017154 -0.004313 -0.004280 0.000000 0.000000 0.000000
# 2 -0.004313 0.012134 -0.001432 0.000000 0.000000 0.000000
# 3 -0.004280 -0.001432 0.008759 0.000000 0.000000 0.000000
# 4 0.000000 0.000000 0.000000 0.029854 0.000000 0.000000
# 5 0.000000 0.000000 0.000000 0.000000 0.056647 0.000000
# 6 0.000000 0.000000 0.000000 0.000000 0.000000 0.014024
#
#
# Mechanical properties :
#
#
# Convention : Reuss Voigt Hill
#
# Bulk Modulus (GPa) = 55.56544 58.91668 57.24106
# Shear Modulus (GPa) = 30.37253 38.35217 34.36235
#
# Velocity S-wave (km/s) = 3.84744 4.32341 4.09235
# Velocity P-wave (km/s) = 6.84239 7.32373 7.08715
#
# Compressibility (1/GPa) = 0.01799680
#
# Stress axis : x y z
#
# Youngs Moduli (GPa) = 58.29610 82.41004 114.16539
#
# Poissons Ratio (x) = 0.35547 0.48867
# Poissons Ratio (y) = 0.25145 0.16343
# Poissons Ratio (z) = 0.24953 0.11797
#
# Static dielectric constant tensor:
#      x y z
#    x 3.499240 0.000000 0.000000 
#    y 0.000000 4.027140 0.000000 
#    z 0.000000 0.000000 3.919040 
# 
# 
# High freq. dielectric constant tensor:
#      x y z
#    x 1.791030 0.000000 0.000000 
#    y 0.000000 1.815340 0.000000 
#    z 0.000000 0.000000 1.825290 
# 
# From -- ./inp_files/9125.got.cif
#   From: 2010.03.12/outbox.cif.g09.slc.cpg/sg17_5_cif.got.tgz:9125.got - 2010.04.10 18:46:23.
