data_PCOD8155506
_publ_section_title
;
Structure prediction by ZEFSAII (Michael W. Deem and Ramdas Pophale) SiO2 
 PCOD8155506
Probable space group: P 2 2 21
;
_chemical_formula_sum "Si O2"
_cell_formula_units_Z 16
_cell_length_a 7.214522
_cell_length_b 12.254699
_cell_length_c 8.369728
_cell_angle_alpha 90.000000
_cell_angle_beta 90.000000
_cell_angle_gamma 90.000000
_cell_volume 739.982681
_symmetry_space_group_name_H-M "P 2 2 21"
_symmetry_group_IT_number 17
_symmetry_cell_setting 'orthorhombic'
loop_
_space_group_symop_operation_xyz
x,y,z
-x,-y,1/2+z
x,-y,-z
-x,y,1/2-z
loop_
_atom_site_type_symbol
_atom_site_label
_atom_site_fract_x
_atom_site_fract_y
_atom_site_fract_z
Si Si1 0.622603 0.260054 0.467175
Si Si2 0.923004 0.887907 0.426047
Si Si3 0.261156 0.500000 0.000000
Si Si4 0.221609 0.240706 0.381873
Si Si5 0.000000 0.569859 0.750000
O O1 0.751379 0.197212 0.594279
O O2 0.619844 0.390604 0.488206
O O3 0.406191 0.233880 0.489975
O O4 0.711070 0.220401 0.299397
O O5 0.000000 0.906393 0.250000
O O6 0.082767 0.848922 0.548788
O O7 0.845160 0.000000 0.500000
O O8 0.137429 0.510097 0.158337
O O9 0.110597 0.355694 0.380144
#
# Coordination Sequence:
#
# PCOD8155506 Si02
#       5
#     4   4   2   4   2
#     4  10  22  40  66  97 127 169 211 262 320 378
#     4  12  25  43  67  92 127 168 215 267 320 381
#     4  10  20  36  62  96 130 168 208 254 318 376
#     4  10  20  43  65  91 128 168 212 260 318 372
#     4  10  20  38  66  88 134 176 204 260 314 374
#
# _framework density 21.622129999999999
#
# number of rings (size 3 to 8) (size 9 to 14) (size 15 to 20)
#    0.000    1.500    5.000    1.500    1.750    3.000 
#    0.000    5.000    0.000    0.000    0.000    0.000 
#    0.000    0.000    0.000    0.000    0.000    0.000 
#
# Total GULP energy -198285.476630 kJ/mol
# GULP energy per Si atom -12392.842289 kJ/mol
# Density = 2.157292 g / cm^3
# Si number density = 21.622130 Si / 1000 Ang^3
#
#
#
# Elastic Constant Matrix: (Units=GPa)
#
#
# Indices 1 2 3 4 5 6 
#
# 1 134.8446 43.4705 8.9074 0.0000 0.0000 0.0000
# 2 43.4705 103.2832 26.2333 0.0000 0.0000 0.0000
# 3 8.9074 26.2333 55.7116 0.0000 0.0000 0.0000
# 4 0.0000 0.0000 0.0000 33.7267 0.0000 0.0000
# 5 0.0000 0.0000 0.0000 0.0000 17.7926 0.0000
# 6 0.0000 0.0000 0.0000 0.0000 0.0000 71.2310
#
#
#
# Elastic Compliance Matrix: (Units=1/GPa)
#
#
# Indices 1 2 3 4 5 6 
#
# 1 0.008587 -0.003709 0.000374 0.000000 0.000000 0.000000
# 2 -0.003709 0.012599 -0.005340 0.000000 0.000000 0.000000
# 3 0.000374 -0.005340 0.020404 0.000000 0.000000 0.000000
# 4 0.000000 0.000000 0.000000 0.029650 0.000000 0.000000
# 5 0.000000 0.000000 0.000000 0.000000 0.056203 0.000000
# 6 0.000000 0.000000 0.000000 0.000000 0.000000 0.014039
#
#
# Mechanical properties :
#
#
# Convention : Reuss Voigt Hill
#
# Bulk Modulus (GPa) = 41.25380 50.11800 45.68590
# Shear Modulus (GPa) = 29.95566 38.89861 34.42713
#
# Velocity S-wave (km/s) = 3.72616 4.24608 3.99459
# Velocity P-wave (km/s) = 6.13459 6.87520 6.51542
#
# Compressibility (1/GPa) = 0.02424019
#
# Stress axis : x y z
#
# Youngs Moduli (GPa) = 116.45558 79.36839 49.00942
#
# Poissons Ratio (x) = 0.29438 -0.01831
# Poissons Ratio (y) = 0.43194 0.26170
# Poissons Ratio (z) = -0.04350 0.42381
#
# Static dielectric constant tensor:
#      x y z
#    x 4.142220 0.000000 0.000000 
#    y 0.000000 3.713530 0.000000 
#    z 0.000000 0.000000 3.669620 
# 
# 
# High freq. dielectric constant tensor:
#      x y z
#    x 1.859530 0.000000 0.000000 
#    y 0.000000 1.836200 0.000000 
#    z 0.000000 0.000000 1.834210 
# 
# From -- ./inp_files/3938.got.cif
#   From: 2010.03.12/outbox.cif.g09.slc.cpg/sg17_2_cif.got.tgz:3938.got - 2010.04.10 18:46:23.
