data_PCOD8155253
_publ_section_title
;
Structure prediction by ZEFSAII (Michael W. Deem and Ramdas Pophale) SiO2 
 PCOD8155253
Probable space group: P 2 2 2
;
_chemical_formula_sum "Si O2"
_cell_formula_units_Z 24
_cell_length_a 15.971891
_cell_length_b 8.580897
_cell_length_c 8.794845
_cell_angle_alpha 90.000000
_cell_angle_beta 90.000000
_cell_angle_gamma 90.000000
_cell_volume 1205.361225
_symmetry_space_group_name_H-M "P 2 2 2"
_symmetry_group_IT_number 16
_symmetry_cell_setting 'orthorhombic'
loop_
_space_group_symop_operation_xyz
x,y,z
-x,-y,z
x,-y,-z
-x,y,-z
loop_
_atom_site_type_symbol
_atom_site_label
_atom_site_fract_x
_atom_site_fract_y
_atom_site_fract_z
Si Si1 0.257431 0.252423 0.638923
Si Si2 0.000000 0.500000 0.000000
Si Si3 0.872830 0.657810 0.210347
Si Si4 0.135780 0.500000 0.500000
Si Si5 0.311778 0.480060 0.172162
Si Si6 0.216911 0.966850 0.822765
Si Si7 0.360393 0.811743 0.654017
Si Si8 0.500000 0.000000 0.500000
O O1 0.192365 0.365547 0.564806
O O2 0.317564 0.348830 0.752967
O O3 0.311877 0.177397 0.505906
O O4 0.202696 0.125206 0.729666
O O5 0.941833 0.622263 0.086258
O O6 0.914485 0.584307 0.364292
O O7 0.784323 0.577968 0.170233
O O8 0.855319 0.842733 0.223813
O O9 0.368612 0.362913 0.275194
O O10 0.345574 0.500000 0.000000
O O11 0.310098 0.908454 0.781367
O O12 0.211818 0.000000 0.000000
O O13 0.449100 0.889684 0.616936
#
# Coordination Sequence:
#
# PCOD8155253 Si02
#       8
#     4   1   4   2   4   4   4   1
#     4  11  17  35  64  94 123 154 227 276 299 383
#     4  12  24  42  62  88 144 174 212 268 352 402
#     4  10  22  38  61  97 123 172 211 267 329 387
#     4  10  20  35  68  93 116 164 230 266 304 383
#     4  10  19  37  66  96 119 161 231 267 309 390
#     4  11  22  36  65  99 125 163 219 276 320 388
#     4  11  21  38  61  94 123 174 213 265 334 394
#     4  12  24  40  60  92 140 168 214 284 356 386
#
# _framework density 19.911042999999999
#
# number of rings (size 3 to 8) (size 9 to 14) (size 15 to 20)
#    0.000    1.333    7.500    2.000    2.333    0.333 
#    0.000    2.500    0.000    1.000    4.333    0.000 
#    0.000    0.000    0.000    0.000    0.000    0.000 
#
# Total GULP energy -297432.164004 kJ/mol
# GULP energy per Si atom -12393.006834 kJ/mol
# Density = 1.986572 g / cm^3
# Si number density = 19.911043 Si / 1000 Ang^3
#
#
#
# Elastic Constant Matrix: (Units=GPa)
#
#
# Indices 1 2 3 4 5 6 
#
# 1 64.3319 55.3484 46.0325 0.0000 0.0000 0.0000
# 2 55.3484 130.7540 41.6372 0.0000 0.0000 0.0000
# 3 46.0325 41.6372 118.5987 0.0000 0.0000 0.0000
# 4 0.0000 0.0000 0.0000 42.9031 0.0000 0.0000
# 5 0.0000 0.0000 0.0000 0.0000 20.4809 0.0000
# 6 0.0000 0.0000 0.0000 0.0000 0.0000 24.6577
#
#
#
# Elastic Compliance Matrix: (Units=1/GPa)
#
#
# Indices 1 2 3 4 5 6 
#
# 1 0.030082 -0.010151 -0.008112 0.000000 0.000000 0.000000
# 2 -0.010151 0.012036 -0.000286 0.000000 0.000000 0.000000
# 3 -0.008112 -0.000286 0.011681 0.000000 0.000000 0.000000
# 4 0.000000 0.000000 0.000000 0.023308 0.000000 0.000000
# 5 0.000000 0.000000 0.000000 0.000000 0.048826 0.000000
# 6 0.000000 0.000000 0.000000 0.000000 0.000000 0.040555
#
#
# Mechanical properties :
#
#
# Convention : Reuss Voigt Hill
#
# Bulk Modulus (GPa) = 59.87477 66.63564 63.25521
# Shear Modulus (GPa) = 23.90597 28.98612 26.44604
#
# Velocity S-wave (km/s) = 3.46878 3.81961 3.64842
# Velocity P-wave (km/s) = 6.79556 7.27955 7.04172
#
# Compressibility (1/GPa) = 0.01670152
#
# Stress axis : x y z
#
# Youngs Moduli (GPa) = 33.24210 83.08644 85.61058
#
# Poissons Ratio (x) = 0.84338 0.69451
# Poissons Ratio (y) = 0.33743 0.02445
# Poissons Ratio (z) = 0.26967 0.02373
#
# Static dielectric constant tensor:
#      x y z
#    x 3.212520 0.000000 0.000000 
#    y 0.000000 4.136880 0.000000 
#    z 0.000000 0.000000 4.143440 
# 
# 
# High freq. dielectric constant tensor:
#      x y z
#    x 1.718200 0.000000 0.000000 
#    y 0.000000 1.794960 0.000000 
#    z 0.000000 0.000000 1.796460 
# 
# From -- ./inp_files/5488.got.cif
#   From: 2010.03.12/outbox.cif.g09.slc.cpg/sg16_3_cif.got.tgz:5488.got - 2010.03.31 00:51:45.
