data_PCOD8155431
_publ_section_title
;
Structure prediction by ZEFSAII (Michael W. Deem and Ramdas Pophale) SiO2 
 PCOD8155431
Probable space group: P 2 2 21
;
_chemical_formula_sum "Si O2"
_cell_formula_units_Z 16
_cell_length_a 6.994148
_cell_length_b 6.579541
_cell_length_c 17.473436
_cell_angle_alpha 90.000000
_cell_angle_beta 90.000000
_cell_angle_gamma 90.000000
_cell_volume 804.097532
_symmetry_space_group_name_H-M "P 2 2 21"
_symmetry_group_IT_number 17
_symmetry_cell_setting 'orthorhombic'
loop_
_space_group_symop_operation_xyz
x,y,z
-x,-y,1/2+z
x,-y,-z
-x,y,1/2-z
loop_
_atom_site_type_symbol
_atom_site_label
_atom_site_fract_x
_atom_site_fract_y
_atom_site_fract_z
Si Si1 0.695882 0.103985 0.182311
Si Si2 0.051400 0.060172 0.087183
Si Si3 0.297896 0.327055 0.173624
Si Si4 0.799054 0.759337 0.286365
O O1 0.496711 0.207291 0.158973
O O2 0.795155 0.245485 0.246934
O O3 0.828046 0.086217 0.107652
O O4 0.675503 0.880956 0.222204
O O5 0.157580 0.275682 0.102769
O O6 0.158138 0.896674 0.139828
O O7 0.071441 0.000000 0.000000
O O8 0.324047 0.568454 0.182806
O O9 0.000000 0.686810 0.250000
#
# Coordination Sequence:
#
# PCOD8155431 Si02
#       4
#     4   4   4   4
#     4   9  20  35  56  83 109 142 185 235 281 324
#     4  10  21  36  54  80 116 149 182 225 278 337
#     4  10  19  34  58  83 108 142 189 234 277 328
#     4   9  18  36  60  83 109 145 188 234 281 329
#
# _framework density 19.898084000000001
#
# number of rings (size 3 to 8) (size 9 to 14) (size 15 to 20)
#    0.000    2.500    0.000    3.750    0.000   10.000 
#    0.000    0.000    0.000   21.000    0.000    0.000 
#    0.000    0.000    0.000    0.000    0.000    0.000 
#
# Total GULP energy -198241.861555 kJ/mol
# GULP energy per Si atom -12390.116347 kJ/mol
# Density = 1.985280 g / cm^3
# Si number density = 19.898084 Si / 1000 Ang^3
#
#
#
# Elastic Constant Matrix: (Units=GPa)
#
#
# Indices 1 2 3 4 5 6 
#
# 1 95.4433 51.6936 31.3578 0.0000 0.0000 0.0000
# 2 51.6936 126.4085 13.5451 0.0000 0.0000 0.0000
# 3 31.3578 13.5451 91.3106 0.0000 0.0000 0.0000
# 4 0.0000 0.0000 0.0000 13.9949 0.0000 0.0000
# 5 0.0000 0.0000 0.0000 0.0000 21.1357 0.0000
# 6 0.0000 0.0000 0.0000 0.0000 0.0000 29.0414
#
#
#
# Elastic Compliance Matrix: (Units=1/GPa)
#
#
# Indices 1 2 3 4 5 6 
#
# 1 0.014951 -0.005654 -0.004296 0.000000 0.000000 0.000000
# 2 -0.005654 0.010177 0.000432 0.000000 0.000000 0.000000
# 3 -0.004296 0.000432 0.012363 0.000000 0.000000 0.000000
# 4 0.000000 0.000000 0.000000 0.071454 0.000000 0.000000
# 5 0.000000 0.000000 0.000000 0.000000 0.047313 0.000000
# 6 0.000000 0.000000 0.000000 0.000000 0.000000 0.034434
#
#
# Mechanical properties :
#
#
# Convention : Reuss Voigt Hill
#
# Bulk Modulus (GPa) = 54.18485 56.26170 55.22327
# Shear Modulus (GPa) = 23.16118 27.27214 25.21666
#
# Velocity S-wave (km/s) = 3.41543 3.70617 3.56376
# Velocity P-wave (km/s) = 6.54552 6.83012 6.68933
#
# Compressibility (1/GPa) = 0.01845534
#
# Stress axis : x y z
#
# Youngs Moduli (GPa) = 66.88539 98.26441 80.88792
#
# Poissons Ratio (x) = 0.55556 0.34747
# Poissons Ratio (y) = 0.37815 -0.03494
# Poissons Ratio (z) = 0.28732 -0.04245
#
# Static dielectric constant tensor:
#      x y z
#    x 3.533680 0.000000 0.000000 
#    y 0.000000 3.699700 0.000000 
#    z 0.000000 0.000000 3.265300 
# 
# 
# High freq. dielectric constant tensor:
#      x y z
#    x 1.781970 0.000000 0.000000 
#    y 0.000000 1.778370 0.000000 
#    z 0.000000 0.000000 1.734930 
# 
# From -- ./inp_files/8856.got.cif
#   From: 2010.03.12/outbox.cif.g09.slc.cpg/sg17_5_cif.got.tgz:8856.got - 2010.04.10 18:46:23.
