data_PCOD8155290
_publ_section_title
;
Structure prediction by ZEFSAII (Michael W. Deem and Ramdas Pophale) SiO2 
 PCOD8155290
Probable space group: P 2 2 2
;
_chemical_formula_sum "Si O2"
_cell_formula_units_Z 19
_cell_length_a 15.297820
_cell_length_b 4.857288
_cell_length_c 12.436835
_cell_angle_alpha 90.000000
_cell_angle_beta 90.000000
_cell_angle_gamma 90.000000
_cell_volume 924.130436
_symmetry_space_group_name_H-M "P 2 2 2"
_symmetry_group_IT_number 16
_symmetry_cell_setting 'orthorhombic'
loop_
_space_group_symop_operation_xyz
x,y,z
-x,-y,z
x,-y,-z
-x,y,-z
loop_
_atom_site_type_symbol
_atom_site_label
_atom_site_fract_x
_atom_site_fract_y
_atom_site_fract_z
Si Si1 0.157531 0.056214 0.876763
Si Si2 0.500000 0.500000 0.000000
Si Si3 0.097242 0.563870 0.751630
Si Si4 0.736887 0.482825 0.375069
Si Si5 0.500000 0.000000 0.144667
Si Si6 0.323235 0.981453 0.749923
O O1 0.096820 0.867433 0.801644
O O2 0.132825 0.367789 0.847084
O O3 0.259841 0.992145 0.853989
O O4 0.136429 0.000000 0.000000
O O5 0.457681 0.266438 0.079357
O O6 0.161347 0.550413 0.648787
O O7 0.000000 0.500000 0.711363
O O8 0.716409 0.500000 0.500000
O O9 0.716360 0.172825 0.342368
O O10 0.674322 0.679784 0.303605
O O11 0.581298 0.093446 0.216921
#
# Coordination Sequence:
#
# PCOD8155290 Si02
#       6
#     4   1   4   4   2   4
#     4  10  21  35  53  81 112 154 186 226 284 345
#     4  10  24  34  60  90 114 158 186 234 276 326
#     4  10  21  36  55  82 112 145 191 239 283 339
#     4  10  21  40  61  83 112 151 193 242 296 340
#     4  11  22  42  57  90 122 154 193 240 273 334
#     4  10  22  39  59  83 119 150 191 241 284 340
#
# _framework density 20.559866
#
# number of rings (size 3 to 8) (size 9 to 14) (size 15 to 20)
#    0.000    1.895    0.000    3.158    2.947    2.947 
#    0.000    3.158    0.000    7.579    0.000    0.000 
#    0.000    0.000    0.000    0.000    0.000    0.000 
#
# Total GULP energy -235430.008922 kJ/mol
# GULP energy per Si atom -12391.053101 kJ/mol
# Density = 2.051307 g / cm^3
# Si number density = 20.559866 Si / 1000 Ang^3
#
#
#
# Elastic Constant Matrix: (Units=GPa)
#
#
# Indices 1 2 3 4 5 6 
#
# 1 112.6481 9.0084 18.1042 0.0000 0.0000 0.0000
# 2 9.0084 82.6005 5.3292 0.0000 0.0000 0.0000
# 3 18.1042 5.3292 71.7943 0.0000 0.0000 0.0000
# 4 0.0000 0.0000 0.0000 18.6059 0.0000 0.0000
# 5 0.0000 0.0000 0.0000 0.0000 7.1383 0.0000
# 6 0.0000 0.0000 0.0000 0.0000 0.0000 21.7552
#
#
#
# Elastic Compliance Matrix: (Units=1/GPa)
#
#
# Indices 1 2 3 4 5 6 
#
# 1 0.009314 -0.000868 -0.002284 0.000000 0.000000 0.000000
# 2 -0.000868 0.012246 -0.000690 0.000000 0.000000 0.000000
# 3 -0.002284 -0.000690 0.014556 0.000000 0.000000 0.000000
# 4 0.000000 0.000000 0.000000 0.053746 0.000000 0.000000
# 5 0.000000 0.000000 0.000000 0.000000 0.140090 0.000000
# 6 0.000000 0.000000 0.000000 0.000000 0.000000 0.045966
#
#
# Mechanical properties :
#
#
# Convention : Reuss Voigt Hill
#
# Bulk Modulus (GPa) = 35.17385 36.88073 36.02729
# Shear Modulus (GPa) = 17.06021 25.13995 21.10008
#
# Velocity S-wave (km/s) = 2.88372 3.50060 3.20703
# Velocity P-wave (km/s) = 5.31347 5.85800 5.59236
#
# Compressibility (1/GPa) = 0.02843021
#
# Stress axis : x y z
#
# Youngs Moduli (GPa) = 107.36813 81.66145 68.70064
#
# Poissons Ratio (x) = 0.07091 0.15692
# Poissons Ratio (y) = 0.09324 0.04740
# Poissons Ratio (z) = 0.24525 0.05635
#
# Static dielectric constant tensor:
#      x y z
#    x 3.438740 0.000000 0.000000 
#    y 0.000000 3.932590 0.000000 
#    z 0.000000 0.000000 3.406580 
# 
# 
# High freq. dielectric constant tensor:
#      x y z
#    x 1.783110 0.000000 0.000000 
#    y 0.000000 1.826520 0.000000 
#    z 0.000000 0.000000 1.785500 
# 
# From -- ./inp_files/1389.got.cif
#   From: 2010.03.12/outbox.cif.g09.slc.cpg/sg16_1_cif.got.tgz:1389.got - 2010.03.31 00:51:45.
