data_PCOD8155469
_publ_section_title
;
Structure prediction by ZEFSAII (Michael W. Deem and Ramdas Pophale) SiO2 
 PCOD8155469
Probable space group: P 2 2 21
;
_chemical_formula_sum "Si O2"
_cell_formula_units_Z 20
_cell_length_a 8.388682
_cell_length_b 11.348745
_cell_length_c 9.363506
_cell_angle_alpha 90.000000
_cell_angle_beta 90.000000
_cell_angle_gamma 90.000000
_cell_volume 891.415256
_symmetry_space_group_name_H-M "P 2 2 21"
_symmetry_group_IT_number 17
_symmetry_cell_setting 'orthorhombic'
loop_
_space_group_symop_operation_xyz
x,y,z
-x,-y,1/2+z
x,-y,-z
-x,y,1/2-z
loop_
_atom_site_type_symbol
_atom_site_label
_atom_site_fract_x
_atom_site_fract_y
_atom_site_fract_z
Si Si1 0.643385 0.448861 0.342453
Si Si2 0.500000 0.851195 0.250000
Si Si3 0.728247 0.958326 0.849587
Si Si4 0.851579 0.605869 0.903394
Si Si5 0.540395 0.251456 0.041994
Si Si6 0.000000 0.802811 0.750000
O O1 0.665678 0.500000 0.500000
O O2 0.500000 0.510829 0.250000
O O3 0.808527 0.449413 0.253467
O O4 0.596932 0.310777 0.362095
O O5 0.528853 0.767226 0.384312
O O6 0.340211 0.929248 0.266958
O O7 0.580825 0.874260 0.890089
O O8 0.848191 0.889141 0.744357
O O9 0.810608 0.000000 0.000000
O O10 0.690188 0.658905 0.970762
O O11 0.978783 0.713603 0.886323
O O12 0.921005 0.500000 0.000000
#
# Coordination Sequence:
#
# PCOD8155469 Si02
#       6
#     4   2   4   4   4   2
#     4  10  20  33  57  91 124 159 201 252 313 382
#     4  10  20  34  64  90 122 160 206 270 310 376
#     4   9  20  39  57  89 122 163 210 262 312 367
#     4  10  22  39  62  88 128 168 203 260 317 380
#     4   9  19  33  59  88 126 157 197 258 324 363
#     4  10  22  42  66  78 126 174 210 256 322 364
#
# _framework density 22.436229999999998
#
# number of rings (size 3 to 8) (size 9 to 14) (size 15 to 20)
#    0.000    2.400    0.000    2.400   11.200    0.800 
#    3.600    0.000    0.000    2.400    0.000    0.000 
#    0.000    0.000    0.000    0.000    0.000    0.000 
#
# Total GULP energy -247838.552559 kJ/mol
# GULP energy per Si atom -12391.927628 kJ/mol
# Density = 2.238516 g / cm^3
# Si number density = 22.436230 Si / 1000 Ang^3
#
#
#
# Elastic Constant Matrix: (Units=GPa)
#
#
# Indices 1 2 3 4 5 6 
#
# 1 50.7362 17.8581 38.3624 0.0000 0.0000 0.0000
# 2 17.8581 83.9459 43.8716 0.0000 0.0000 0.0000
# 3 38.3624 43.8716 135.8336 0.0000 0.0000 0.0000
# 4 0.0000 0.0000 0.0000 51.5054 0.0000 0.0000
# 5 0.0000 0.0000 0.0000 0.0000 26.4037 0.0000
# 6 0.0000 0.0000 0.0000 0.0000 0.0000 31.5592
#
#
#
# Elastic Compliance Matrix: (Units=1/GPa)
#
#
# Indices 1 2 3 4 5 6 
#
# 1 0.025334 -0.001985 -0.006514 0.000000 0.000000 0.000000
# 2 -0.001985 0.014487 -0.004118 0.000000 0.000000 0.000000
# 3 -0.006514 -0.004118 0.010532 0.000000 0.000000 0.000000
# 4 0.000000 0.000000 0.000000 0.019415 0.000000 0.000000
# 5 0.000000 0.000000 0.000000 0.000000 0.037873 0.000000
# 6 0.000000 0.000000 0.000000 0.000000 0.000000 0.031687
#
#
# Mechanical properties :
#
#
# Convention : Reuss Voigt Hill
#
# Bulk Modulus (GPa) = 39.81206 52.30000 46.05603
# Shear Modulus (GPa) = 28.91266 33.25525 31.08395
#
# Velocity S-wave (km/s) = 3.59368 3.85413 3.72618
# Velocity P-wave (km/s) = 5.91629 6.57015 6.25177
#
# Compressibility (1/GPa) = 0.02511802
#
# Stress axis : x y z
#
# Youngs Moduli (GPa) = 39.47336 69.02703 94.95163
#
# Poissons Ratio (x) = 0.13703 0.61847
# Poissons Ratio (y) = 0.07836 0.39105
# Poissons Ratio (z) = 0.25711 0.28428
#
# Static dielectric constant tensor:
#      x y z
#    x 3.720270 0.000000 0.000000 
#    y 0.000000 4.156240 0.000000 
#    z 0.000000 0.000000 4.150220 
# 
# 
# High freq. dielectric constant tensor:
#      x y z
#    x 1.846310 0.000000 0.000000 
#    y 0.000000 1.891260 0.000000 
#    z 0.000000 0.000000 1.880240 
# 
# From -- ./inp_files/4066.got.cif
#   From: 2010.03.12/outbox.cif.g09.slc.cpg/sg17_3_cif.got.tgz:4066.got - 2010.04.10 18:46:23.
