data_PCOD8155061
_publ_section_title
;
Structure prediction by ZEFSAII (Michael W. Deem and Ramdas Pophale) SiO2 
 PCOD8155061
Probable space group: C 2/C
;
_chemical_formula_sum "Si O2"
_cell_formula_units_Z 32
_cell_length_a 19.712095
_cell_length_b 4.818977
_cell_length_c 18.615274
_cell_angle_alpha 90.000000
_cell_angle_beta 137.531767
_cell_angle_gamma 90.000000
_cell_volume 1193.926231
_symmetry_space_group_name_H-M "C 2/C"
_symmetry_group_IT_number 15
_symmetry_cell_setting 'monoclinic'
loop_
_space_group_symop_operation_xyz
x,y,z
-x,y,1/2-z
-x,-y,-z
x,-y,1/2+z
1/2+x,1/2+y,z
1/2-x,1/2+y,1/2-z
1/2-x,1/2-y,-z
1/2+x,1/2-y,1/2+z
loop_
_atom_site_type_symbol
_atom_site_label
_atom_site_fract_x
_atom_site_fract_y
_atom_site_fract_z
Si Si1 0.555178 0.165746 0.722047
Si Si2 0.619921 0.935222 0.005173
Si Si3 0.759339 0.064967 0.937837
Si Si4 0.821914 0.186938 0.305491
O O1 0.500000 0.297433 0.750000
O O2 0.648819 0.984255 0.822981
O O3 0.604645 0.389362 0.704838
O O4 0.483845 0.971042 0.618619
O O5 0.684378 0.725408 0.005160
O O6 0.607766 0.786894 0.073119
O O7 0.675666 0.228286 0.062987
O O8 0.750000 0.250000 0.000000
O O9 0.745573 0.431699 0.222538
#
# Coordination Sequence:
#
# PCOD8155061 Si02
#       4
#     8   8   8   8
#     4  12  27  48  79 115 149 202 256 314 378 456
#     4  12  26  49  78 109 151 203 254 308 377 453
#     4  12  26  49  75 111 156 192 249 318 377 443
#     4  12  25  50  76 107 155 203 248 314 379 445
#
# _framework density 26.802326000000001
#
# number of rings (size 3 to 8) (size 9 to 14) (size 15 to 20)
#    0.000    0.000    7.500    1.500    0.000    4.000 
#    0.000    5.000    0.000    0.000    0.000    0.000 
#    0.000    0.000    0.000    0.000    0.000    0.000 
#
# Total GULP energy -198218.420234 kJ/mol
# GULP energy per Si atom -12388.651265 kJ/mol
# Density = 2.674132 g / cm^3
# Si number density = 26.802326 Si / 1000 Ang^3
#
#
#
# Elastic Constant Matrix: (Units=GPa)
#
#
# Indices 1 2 3 4 5 6 
#
# 1 185.2236 3.1619 52.5964 0.0024 -12.3190 0.0055
# 2 3.1619 95.2611 53.3172 0.0077 22.8318 0.0348
# 3 52.5964 53.3172 230.6381 0.0013 13.0986 0.0009
# 4 0.0024 0.0077 0.0013 21.4034 -0.0008 -10.5625
# 5 -12.3190 22.8318 13.0986 -0.0008 50.2198 -0.0005
# 6 0.0055 0.0348 0.0009 -10.5625 -0.0005 31.4569
#
#
#
# Elastic Compliance Matrix: (Units=1/GPa)
#
#
# Indices 1 2 3 4 5 6 
#
# 1 0.005939 0.000227 -0.001506 -0.000001 0.001746 -0.000002
# 2 0.000227 0.013340 -0.002837 -0.000015 -0.005269 -0.000020
# 3 -0.001506 -0.002837 0.005362 0.000003 -0.000478 0.000004
# 4 -0.000001 -0.000015 0.000003 0.056001 0.000007 0.018804
# 5 0.001746 -0.005269 -0.000478 0.000007 0.022861 0.000008
# 6 -0.000002 -0.000020 0.000004 0.018804 0.000008 0.038103
#
#
# Mechanical properties :
#
#
# Convention : Reuss Voigt Hill
#
# Bulk Modulus (GPa) = 60.93532 81.03043 70.98287
# Shear Modulus (GPa) = 32.19403 47.41917 39.80660
#
# Velocity S-wave (km/s) = 3.46954 4.21077 3.85800
# Velocity P-wave (km/s) = 6.23175 7.34432 6.81079
#
# Compressibility (1/GPa) = 0.01641084
#
# Stress axis : x y z
#
# Youngs Moduli (GPa) = 168.38414 74.95981 186.49263
#
# Poissons Ratio (x) = -0.01704 0.28087
# Poissons Ratio (y) = -0.03827 0.52899
# Poissons Ratio (z) = 0.25359 0.21262
#
# Static dielectric constant tensor:
#      x y z
#    x 5.345940 -0.000130 -0.123580 
#    y -0.000130 3.592920 -0.000050 
#    z -0.123580 -0.000050 5.101050 
# 
# 
# High freq. dielectric constant tensor:
#      x y z
#    x 2.094880 0.000000 -0.020550 
#    y 0.000000 2.042240 0.000000 
#    z -0.020550 0.000000 2.099580 
# 
# From -- ./inp_files/250925.got.cif
#   From: 2010.06.25/outbox.cif.g09.slc.cpg/sg15_126_cif.got.tgz:250925.got - 2010.06.28 07:06:18.
