data_PCOD8155905
_publ_section_title
;
Structure prediction by ZEFSAII (Michael W. Deem and Ramdas Pophale) SiO2 
 PCOD8155905
Probable space group: P 21 21 2
;
_chemical_formula_sum "Si O2"
_cell_formula_units_Z 24
_cell_length_a 12.933420
_cell_length_b 5.614777
_cell_length_c 14.724294
_cell_angle_alpha 90.000000
_cell_angle_beta 90.000000
_cell_angle_gamma 90.000000
_cell_volume 1069.252745
_symmetry_space_group_name_H-M "P 21 21 2"
_symmetry_group_IT_number 18
_symmetry_cell_setting 'orthorhombic'
loop_
_space_group_symop_operation_xyz
x,y,z
-x,-y,z
1/2+x,1/2-y,-z
1/2-x,1/2+y,-z
loop_
_atom_site_type_symbol
_atom_site_label
_atom_site_fract_x
_atom_site_fract_y
_atom_site_fract_z
Si Si1 0.726583 0.606372 0.793336
Si Si2 0.784553 0.869612 0.385768
Si Si3 0.915047 0.301749 0.849823
Si Si4 0.139779 0.011876 0.699585
Si Si5 0.689489 0.633419 0.985858
Si Si6 0.597763 0.167351 0.458563
O O1 0.670227 0.509629 0.702507
O O2 0.803279 0.404253 0.828702
O O3 0.650700 0.648984 0.879756
O O4 0.794272 0.837129 0.771377
O O5 0.723085 0.634511 0.358117
O O6 0.883493 0.815346 0.448930
O O7 0.704532 0.032446 0.440526
O O8 0.940685 0.142040 0.760949
O O9 0.000000 0.500000 0.862296
O O10 0.906788 0.153113 0.944107
O O11 0.072774 0.166903 0.628202
O O12 0.740700 0.374063 0.003269
O O13 0.500000 0.000000 0.474000
#
# Coordination Sequence:
#
# PCOD8155905 Si02
#       6
#     4   4   4   4   4   4
#     4   9  20  35  62  89 125 174 219 271 339 413
#     4  10  21  39  62  96 129 174 228 290 349 423
#     4  10  21  35  60  98 133 166 214 281 349 415
#     4  10  20  39  59  89 135 168 216 287 342 420
#     4  10  19  38  61  96 126 179 221 265 341 419
#     4  11  23  39  64  99 132 179 230 290 360 425
#
# _framework density 22.445584
#
# number of rings (size 3 to 8) (size 9 to 14) (size 15 to 20)
#    0.000    2.000    3.333    0.000    0.000    8.667 
#    0.000    0.000    0.000    1.000   17.333    1.167 
#    0.000    0.000    0.000    0.000    0.000    0.000 
#
# Total GULP energy -297350.089955 kJ/mol
# GULP energy per Si atom -12389.587081 kJ/mol
# Density = 2.239450 g / cm^3
# Si number density = 22.445584 Si / 1000 Ang^3
#
#
#
# Elastic Constant Matrix: (Units=GPa)
#
#
# Indices 1 2 3 4 5 6 
#
# 1 48.2912 16.5376 52.1237 0.0000 0.0000 0.0000
# 2 16.5376 90.1199 34.4453 0.0000 0.0000 0.0000
# 3 52.1237 34.4453 198.3346 0.0000 0.0000 0.0000
# 4 0.0000 0.0000 0.0000 25.0997 0.0000 0.0000
# 5 0.0000 0.0000 0.0000 0.0000 -186.5710 0.0000
# 6 0.0000 0.0000 0.0000 0.0000 0.0000 35.7964
#
#
#
# Elastic Compliance Matrix: (Units=1/GPa)
#
#
# Indices 1 2 3 4 5 6 
#
# 1 0.029475 -0.002622 -0.007291 0.000000 0.000000 0.000000
# 2 -0.002622 0.012119 -0.001416 0.000000 0.000000 0.000000
# 3 -0.007291 -0.001416 0.007204 0.000000 0.000000 0.000000
# 4 0.000000 0.000000 0.000000 0.039841 0.000000 0.000000
# 5 0.000000 0.000000 0.000000 0.000000 -0.005360 0.000000
# 6 0.000000 0.000000 0.000000 0.000000 0.000000 0.027936
#
#
# Mechanical properties :
#
#
# Convention : Reuss Voigt Hill
#
# Bulk Modulus (GPa) = 38.25491 60.32877 49.29184
# Shear Modulus (GPa) = 35.06674 -9.55903 12.75385
#
# Velocity S-wave (km/s) = 3.95688 -2.06591 2.38631
# Velocity P-wave (km/s) = 6.16087 4.60928 5.44067
#
# Compressibility (1/GPa) = 0.02614044
#
# Stress axis : x y z
#
# Youngs Moduli (GPa) = 33.92687 82.51804 138.81339
#
# Poissons Ratio (x) = 0.21638 1.01207
# Poissons Ratio (y) = 0.08896 0.19649
# Poissons Ratio (z) = 0.24736 0.11681
#
# Static dielectric constant tensor:
#      x y z
#    x 3.411250 0.000000 0.000000 
#    y 0.000000 5.641380 0.000000 
#    z 0.000000 0.000000 5.016460 
# 
# 
# High freq. dielectric constant tensor:
#      x y z
#    x 1.820010 0.000000 0.000000 
#    y 0.000000 1.906590 0.000000 
#    z 0.000000 0.000000 1.916890 
# 
# From -- ./inp_files/6972.got.cif
#   From: 2010.03.12/outbox.cif.g09.slc.cpg/sg18_4_cif.got.tgz:6972.got - 2010.04.10 18:53:55.
