data_PCOD8155407
_publ_section_title
;
Structure prediction by ZEFSAII (Michael W. Deem and Ramdas Pophale) SiO2 
 PCOD8155407
Probable space group: P 2 2 21
;
_chemical_formula_sum "Si O2"
_cell_formula_units_Z 16
_cell_length_a 7.416426
_cell_length_b 11.048392
_cell_length_c 7.883963
_cell_angle_alpha 90.000000
_cell_angle_beta 90.000000
_cell_angle_gamma 90.000000
_cell_volume 646.008630
_symmetry_space_group_name_H-M "P 2 2 21"
_symmetry_group_IT_number 17
_symmetry_cell_setting 'orthorhombic'
loop_
_space_group_symop_operation_xyz
x,y,z
-x,-y,1/2+z
x,-y,-z
-x,y,1/2-z
loop_
_atom_site_type_symbol
_atom_site_label
_atom_site_fract_x
_atom_site_fract_y
_atom_site_fract_z
Si Si1 0.290115 0.956968 0.247036
Si Si2 0.466913 0.364112 0.552294
Si Si3 0.236776 0.809241 0.916968
Si Si4 0.899740 0.755419 0.076867
O O1 0.500000 0.927957 0.250000
O O2 0.188531 0.890772 0.402311
O O3 0.258916 0.103199 0.247591
O O4 0.215924 0.896856 0.078016
O O5 0.510438 0.500000 0.500000
O O6 0.500000 0.338688 0.750000
O O7 0.596753 0.282472 0.434365
O O8 0.258175 0.335155 0.517950
O O9 0.040770 0.745163 0.919998
O O10 0.000000 0.711395 0.250000
#
# Coordination Sequence:
#
# PCOD8155407 Si02
#       4
#     4   4   4   4
#     4  10  18  38  67  93 133 171 210 266 335 402
#     4  12  24  45  72  94 131 183 228 277 329 390
#     4  10  21  39  65  99 127 170 221 265 329 405
#     4  10  19  42  65  93 129 172 219 265 340 390
#
# _framework density 24.767472000000001
#
# number of rings (size 3 to 8) (size 9 to 14) (size 15 to 20)
#    0.000    1.500    7.500    0.000    0.000    2.000 
#   22.500    0.000    0.000    0.000    0.000    0.000 
#    0.000    0.000    0.000    0.000    0.000    0.000 
#
# Total GULP energy -198313.384576 kJ/mol
# GULP energy per Si atom -12394.586536 kJ/mol
# Density = 2.471110 g / cm^3
# Si number density = 24.767472 Si / 1000 Ang^3
#
#
#
# Elastic Constant Matrix: (Units=GPa)
#
#
# Indices 1 2 3 4 5 6 
#
# 1 182.3668 33.3342 10.3916 0.0000 0.0000 0.0000
# 2 33.3342 125.9234 16.3214 0.0000 0.0000 0.0000
# 3 10.3916 16.3214 45.4334 0.0000 0.0000 0.0000
# 4 0.0000 0.0000 0.0000 23.1043 0.0000 0.0000
# 5 0.0000 0.0000 0.0000 0.0000 -5.6056 0.0000
# 6 0.0000 0.0000 0.0000 0.0000 0.0000 26.1473
#
#
#
# Elastic Compliance Matrix: (Units=1/GPa)
#
#
# Indices 1 2 3 4 5 6 
#
# 1 0.005791 -0.001428 -0.000812 0.000000 0.000000 0.000000
# 2 -0.001428 0.008681 -0.002792 0.000000 0.000000 0.000000
# 3 -0.000812 -0.002792 0.023199 0.000000 0.000000 0.000000
# 4 0.000000 0.000000 0.000000 0.043282 0.000000 0.000000
# 5 0.000000 0.000000 0.000000 0.000000 -0.178393 0.000000
# 6 0.000000 0.000000 0.000000 0.000000 0.000000 0.038245
#
#
# Mechanical properties :
#
#
# Convention : Reuss Voigt Hill
#
# Bulk Modulus (GPa) = 36.22133 52.64645 44.43389
# Shear Modulus (GPa) = -125.21892 28.30762 -48.45565
#
# Velocity S-wave (km/s) = -7.11812 3.38440 -4.42795
# Velocity P-wave (km/s) = 7.27327 6.04770 2.85708
#
# Compressibility (1/GPa) = 0.02760804
#
# Stress axis : x y z
#
# Youngs Moduli (GPa) = 172.69181 115.19199 43.10558
#
# Poissons Ratio (x) = 0.16446 0.03498
# Poissons Ratio (y) = 0.24655 0.12035
# Poissons Ratio (z) = 0.14015 0.32162
#
# Static dielectric constant tensor:
#      x y z
#    x 4.870710 0.000000 0.000000 
#    y 0.000000 4.358710 0.000000 
#    z 0.000000 0.000000 4.032510 
# 
# 
# High freq. dielectric constant tensor:
#      x y z
#    x 2.011980 0.000000 0.000000 
#    y 0.000000 1.956090 0.000000 
#    z 0.000000 0.000000 1.965590 
# 
# From -- ./inp_files/5779.got.cif
#   From: 2010.03.12/outbox.cif.g09.slc.cpg/sg17_3_cif.got.tgz:5779.got - 2010.04.10 18:46:23.
