data_PCOD8155152
_publ_section_title
;
Structure prediction by ZEFSAII (Michael W. Deem and Ramdas Pophale) SiO2 
 PCOD8155152
Probable space group: C 2/C
;
_chemical_formula_sum "Si O2"
_cell_formula_units_Z 36
_cell_length_a 13.626016
_cell_length_b 12.370330
_cell_length_c 14.746252
_cell_angle_alpha 90.000000
_cell_angle_beta 140.587769
_cell_angle_gamma 90.000000
_cell_volume 1578.098291
_symmetry_space_group_name_H-M "C 2/C"
_symmetry_group_IT_number 15
_symmetry_cell_setting 'monoclinic'
loop_
_space_group_symop_operation_xyz
x,y,z
-x,y,1/2-z
-x,-y,-z
x,-y,1/2+z
1/2+x,1/2+y,z
1/2-x,1/2+y,1/2-z
1/2-x,1/2-y,-z
1/2+x,1/2-y,1/2+z
loop_
_atom_site_type_symbol
_atom_site_label
_atom_site_fract_x
_atom_site_fract_y
_atom_site_fract_z
Si Si1 0.341829 0.852274 0.094331
Si Si2 0.726542 0.236548 0.293028
Si Si3 0.973662 0.622432 0.505255
Si Si4 0.630640 0.473043 0.520297
Si Si5 0.500000 0.622413 0.750000
O O1 0.500000 0.811590 0.250000
O O2 0.376562 0.908143 0.024287
O O3 0.250000 0.750000 0.000000
O O4 0.251287 0.928534 0.100599
O O5 0.868363 0.311602 0.360610
O O6 0.783421 0.133809 0.388338
O O7 0.628518 0.302763 0.295990
O O8 0.624354 0.195469 0.135445
O O9 0.000000 0.500000 0.500000
O O10 0.500000 0.500000 0.500000
O O11 0.564525 0.457085 0.372757
#
# Coordination Sequence:
#
# PCOD8155152 Si02
#       5
#     8   8   8   8   4
#     4  12  28  48  76 112 156 207 259 323 401 479
#     4  12  27  50  75 115 152 207 265 332 399 491
#     4  12  27  47  79 109 155 201 267 330 403 470
#     4  12  29  49  79 115 162 204 265 330 408 483
#     4  12  28  48  80 110 154 206 264 328 396 472
#
# _framework density 22.812268
#
# number of rings (size 3 to 8) (size 9 to 14) (size 15 to 20)
#    0.000    0.000    2.222    6.000   15.556    0.000 
#    0.000    0.000    0.000    0.000    0.000    0.000 
#    0.000    0.000    0.000    0.000    0.000    0.000 
#
# Total GULP energy -223126.164482 kJ/mol
# GULP energy per Si atom -12395.898027 kJ/mol
# Density = 2.276035 g / cm^3
# Si number density = 22.812268 Si / 1000 Ang^3
#
#
#
# Elastic Constant Matrix: (Units=GPa)
#
#
# Indices 1 2 3 4 5 6 
#
# 1 158.1856 47.0640 52.1690 0.0000 5.4509 0.0000
# 2 47.0640 145.8788 53.9022 0.0000 23.6650 0.0000
# 3 52.1690 53.9022 147.8414 -0.0001 8.1738 -0.0001
# 4 0.0000 0.0000 -0.0001 22.2592 0.0000 -13.8970
# 5 5.4509 23.6650 8.1738 0.0000 40.7297 0.0000
# 6 0.0000 0.0000 -0.0001 -13.8970 0.0000 47.8454
#
#
#
# Elastic Compliance Matrix: (Units=1/GPa)
#
#
# Indices 1 2 3 4 5 6 
#
# 1 0.007494 -0.001733 -0.002036 0.000000 0.000412 0.000000
# 2 -0.001733 0.009051 -0.002438 0.000000 -0.004538 0.000000
# 3 -0.002036 -0.002438 0.008371 0.000000 0.000009 0.000000
# 4 0.000000 0.000000 0.000000 0.054877 0.000000 0.015939
# 5 0.000412 -0.004538 0.000009 0.000000 0.027132 0.000000
# 6 0.000000 0.000000 0.000000 0.015939 0.000000 0.025530
#
#
# Mechanical properties :
#
#
# Convention : Reuss Voigt Hill
#
# Bulk Modulus (GPa) = 79.97411 84.24181 82.10796
# Shear Modulus (GPa) = 33.54945 42.08492 37.81718
#
# Velocity S-wave (km/s) = 3.83910 4.29982 4.07597
# Velocity P-wave (km/s) = 7.40170 7.85237 7.63036
#
# Compressibility (1/GPa) = 0.01250405
#
# Stress axis : x y z
#
# Youngs Moduli (GPa) = 133.43464 110.48770 119.46609
#
# Poissons Ratio (x) = 0.19142 0.24319
# Poissons Ratio (y) = 0.23118 0.29121
# Poissons Ratio (z) = 0.27163 0.26933
#
# Static dielectric constant tensor:
#      x y z
#    x 4.570370 0.000000 -0.221330 
#    y 0.000000 4.711480 0.000000 
#    z -0.221330 0.000000 4.750090 
# 
# 
# High freq. dielectric constant tensor:
#      x y z
#    x 1.926520 0.000000 -0.003220 
#    y 0.000000 1.917570 0.000000 
#    z -0.003220 0.000000 1.917250 
# 
# From -- ./inp_files/152803.got.cif
#   From: 2010.06.25/outbox.cif.g09.slc.cpg/sg15_77_cif.got.tgz:152803.got - 2010.06.28 07:06:18.
