data_PCOD8155738
_publ_section_title
;
Structure prediction by ZEFSAII (Michael W. Deem and Ramdas Pophale) SiO2 
 PCOD8155738
Probable space group: P 2 2 21
;
_chemical_formula_sum "Si O2"
_cell_formula_units_Z 16
_cell_length_a 8.728080
_cell_length_b 7.753180
_cell_length_c 10.396667
_cell_angle_alpha 90.000000
_cell_angle_beta 90.000000
_cell_angle_gamma 90.000000
_cell_volume 703.546358
_symmetry_space_group_name_H-M "P 2 2 21"
_symmetry_group_IT_number 17
_symmetry_cell_setting 'orthorhombic'
loop_
_space_group_symop_operation_xyz
x,y,z
-x,-y,1/2+z
x,-y,-z
-x,y,1/2-z
loop_
_atom_site_type_symbol
_atom_site_label
_atom_site_fract_x
_atom_site_fract_y
_atom_site_fract_z
Si Si1 0.035858 0.193644 0.002058
Si Si2 0.248931 0.364636 0.792520
Si Si3 0.000000 0.606559 0.750000
Si Si4 0.475676 0.500000 0.000000
Si Si5 0.679623 0.812060 0.044968
O O1 0.074407 0.279590 0.137620
O O2 0.123519 0.287481 0.888572
O O3 0.854972 0.203483 0.991743
O O4 0.097606 0.000000 0.000000
O O5 0.147196 0.493421 0.703445
O O6 0.377193 0.466072 0.872413
O O7 0.329188 0.222187 0.700132
O O8 0.579253 0.331775 0.028541
O O9 0.616708 0.000000 0.000000
#
# Coordination Sequence:
#
# PCOD8155738 Si02
#       5
#     4   4   2   2   4
#     4  11  25  42  71 109 142 187 251 312 373 431
#     4  12  24  48  74 108 146 193 255 307 370 453
#     4  12  22  42  74 102 142 190 242 316 370 434
#     4  12  26  48  72 114 148 202 244 302 388 454
#     4  11  26  47  74 104 155 199 244 305 377 450
#
# _framework density 22.741925999999999
#
# number of rings (size 3 to 8) (size 9 to 14) (size 15 to 20)
#    0.000    0.500    5.000    2.250    7.000    1.000 
#    0.000    7.500    0.000    0.000    0.000    0.000 
#    0.000    0.000    0.000    0.000    0.000    0.000 
#
# Total GULP energy -198321.353524 kJ/mol
# GULP energy per Si atom -12395.084595 kJ/mol
# Density = 2.269016 g / cm^3
# Si number density = 22.741926 Si / 1000 Ang^3
#
#
#
# Elastic Constant Matrix: (Units=GPa)
#
#
# Indices 1 2 3 4 5 6 
#
# 1 91.5555 60.0674 18.9351 0.0000 0.0000 0.0000
# 2 60.0674 180.3620 63.2527 0.0000 0.0000 0.0000
# 3 18.9351 63.2527 112.1640 0.0000 0.0000 0.0000
# 4 0.0000 0.0000 0.0000 41.3136 0.0000 0.0000
# 5 0.0000 0.0000 0.0000 0.0000 41.0830 0.0000
# 6 0.0000 0.0000 0.0000 0.0000 0.0000 35.8124
#
#
#
# Elastic Compliance Matrix: (Units=1/GPa)
#
#
# Indices 1 2 3 4 5 6 
#
# 1 0.013986 -0.004774 0.000331 0.000000 0.000000 0.000000
# 2 -0.004774 0.008541 -0.004010 0.000000 0.000000 0.000000
# 3 0.000331 -0.004010 0.011121 0.000000 0.000000 0.000000
# 4 0.000000 0.000000 0.000000 0.024205 0.000000 0.000000
# 5 0.000000 0.000000 0.000000 0.000000 0.024341 0.000000
# 6 0.000000 0.000000 0.000000 0.000000 0.000000 0.027923
#
#
# Mechanical properties :
#
#
# Convention : Reuss Voigt Hill
#
# Bulk Modulus (GPa) = 59.73240 74.28797 67.01019
# Shear Modulus (GPa) = 37.70614 39.76357 38.73486
#
# Velocity S-wave (km/s) = 4.07627 4.18601 4.13150
# Velocity P-wave (km/s) = 6.96254 7.49000 7.23108
#
# Compressibility (1/GPa) = 0.01674133
#
# Stress axis : x y z
#
# Youngs Moduli (GPa) = 71.50032 117.08518 89.91799
#
# Poissons Ratio (x) = 0.55896 -0.02978
# Poissons Ratio (y) = 0.34134 0.36061
# Poissons Ratio (z) = -0.02368 0.46957
#
# Static dielectric constant tensor:
#      x y z
#    x 4.223900 0.000000 0.000000 
#    y 0.000000 4.556540 0.000000 
#    z 0.000000 0.000000 4.093820 
# 
# 
# High freq. dielectric constant tensor:
#      x y z
#    x 1.906750 0.000000 0.000000 
#    y 0.000000 1.899540 0.000000 
#    z 0.000000 0.000000 1.894720 
# 
# From -- ./inp_files/3778.got.cif
#   From: 2010.03.12/outbox.cif.g09.slc.cpg/sg17_2_cif.got.tgz:3778.got - 2010.04.10 18:46:23.
