data_PCOD8155650
_publ_section_title
;
Structure prediction by ZEFSAII (Michael W. Deem and Ramdas Pophale) SiO2 
 PCOD8155650
Probable space group: P 2 2 21
;
_chemical_formula_sum "Si O2"
_cell_formula_units_Z 32
_cell_length_a 9.187361
_cell_length_b 11.322484
_cell_length_c 13.879900
_cell_angle_alpha 90.000000
_cell_angle_beta 90.000000
_cell_angle_gamma 90.000000
_cell_volume 1443.839219
_symmetry_space_group_name_H-M "P 2 2 21"
_symmetry_group_IT_number 17
_symmetry_cell_setting 'orthorhombic'
loop_
_space_group_symop_operation_xyz
x,y,z
-x,-y,1/2+z
x,-y,-z
-x,y,1/2-z
loop_
_atom_site_type_symbol
_atom_site_label
_atom_site_fract_x
_atom_site_fract_y
_atom_site_fract_z
Si Si1 0.504844 0.218354 0.968267
Si Si2 0.043735 0.744086 0.423578
Si Si3 0.208371 0.130574 0.020657
Si Si4 0.865028 0.519241 0.198327
Si Si5 0.726895 0.124893 0.813114
Si Si6 0.245104 0.702312 0.600528
Si Si7 0.637087 0.340911 0.692399
Si Si8 0.167159 0.883623 0.760688
O O1 0.607061 0.142392 0.897000
O O2 0.419564 0.327978 0.917071
O O3 0.381310 0.130827 0.005542
O O4 0.595818 0.275187 0.055804
O O5 0.063542 0.621843 0.366998
O O6 0.114789 0.846043 0.357704
O O7 0.122881 0.738899 0.525417
O O8 0.876326 0.778149 0.448248
O O9 0.186005 0.162614 0.131406
O O10 0.146629 0.000000 0.000000
O O11 0.771582 0.435118 0.129261
O O12 0.767827 0.569290 0.286413
O O13 0.000000 0.451874 0.250000
O O14 0.685545 0.210403 0.725960
O O15 0.730802 0.994214 0.768977
O O16 0.220557 0.776215 0.696172
O O17 0.500000 0.390729 0.750000
O O18 0.000000 0.919309 0.750000
#
# Coordination Sequence:
#
# PCOD8155650 Si02
#       8
#     4   4   4   4   4   4   4   4
#     4  10  23  43  67  97 140 179 231 277 349 423
#     4  10  22  42  70 101 133 178 233 284 346 408
#     4  12  25  40  67 106 144 179 226 287 342 425
#     4  11  23  42  74 100 132 178 236 295 347 403
#     4   9  21  40  70  95 135 180 222 277 341 409
#     4  11  25  45  67  96 140 186 227 283 351 421
#     4   9  19  42  68 100 129 173 230 287 334 410
#     4  12  24  42  67  99 141 180 227 280 345 410
#
# _framework density 22.163132000000001
#
# number of rings (size 3 to 8) (size 9 to 14) (size 15 to 20)
#    0.000    1.500    1.250    3.750    1.750    4.500 
#    2.250    0.000    0.000    0.000    0.000    0.000 
#    0.000    0.000    0.000    0.000    0.000    0.000 
#
# Total GULP energy -396708.656331 kJ/mol
# GULP energy per Si atom -12397.145510 kJ/mol
# Density = 2.211269 g / cm^3
# Si number density = 22.163132 Si / 1000 Ang^3
#
#
#
# Elastic Constant Matrix: (Units=GPa)
#
#
# Indices 1 2 3 4 5 6 
#
# 1 138.6570 37.1207 43.5950 0.0000 0.0000 0.0000
# 2 37.1207 82.6109 21.1474 0.0000 0.0000 0.0000
# 3 43.5950 21.1474 103.6631 0.0000 0.0000 0.0000
# 4 0.0000 0.0000 0.0000 18.6011 0.0000 0.0000
# 5 0.0000 0.0000 0.0000 0.0000 34.9829 0.0000
# 6 0.0000 0.0000 0.0000 0.0000 0.0000 24.0153
#
#
#
# Elastic Compliance Matrix: (Units=1/GPa)
#
#
# Indices 1 2 3 4 5 6 
#
# 1 0.009079 -0.003273 -0.003150 0.000000 0.000000 0.000000
# 2 -0.003273 0.013952 -0.001470 0.000000 0.000000 0.000000
# 3 -0.003150 -0.001470 0.011271 0.000000 0.000000 0.000000
# 4 0.000000 0.000000 0.000000 0.053760 0.000000 0.000000
# 5 0.000000 0.000000 0.000000 0.000000 0.028585 0.000000
# 6 0.000000 0.000000 0.000000 0.000000 0.000000 0.041640
#
#
# Mechanical properties :
#
#
# Convention : Reuss Voigt Hill
#
# Bulk Modulus (GPa) = 54.00806 58.73972 56.37389
# Shear Modulus (GPa) = 27.73987 30.39105 29.06546
#
# Velocity S-wave (km/s) = 3.54167 3.70705 3.62530
# Velocity P-wave (km/s) = 6.41450 6.69954 6.55857
#
# Compressibility (1/GPa) = 0.01851575
#
# Stress axis : x y z
#
# Youngs Moduli (GPa) = 110.14691 71.67478 88.72077
#
# Poissons Ratio (x) = 0.23460 0.27950
# Poissons Ratio (y) = 0.36052 0.13040
# Poissons Ratio (z) = 0.34700 0.10534
#
# Static dielectric constant tensor:
#      x y z
#    x 4.216080 0.000000 0.000000 
#    y 0.000000 3.625790 0.000000 
#    z 0.000000 0.000000 4.116670 
# 
# 
# High freq. dielectric constant tensor:
#      x y z
#    x 1.885630 0.000000 0.000000 
#    y 0.000000 1.846100 0.000000 
#    z 0.000000 0.000000 1.881670 
# 
# From -- ./inp_files/8276.got.cif
#   From: 2010.03.12/outbox.cif.g09.slc.cpg/sg17_5_cif.got.tgz:8276.got - 2010.04.10 18:46:23.
