data_PCOD8155682
_publ_section_title
;
Structure prediction by ZEFSAII (Michael W. Deem and Ramdas Pophale) SiO2 
 PCOD8155682
Probable space group: P 2 2 21
;
_chemical_formula_sum "Si O2"
_cell_formula_units_Z 24
_cell_length_a 8.831786
_cell_length_b 5.204349
_cell_length_c 22.383116
_cell_angle_alpha 90.000000
_cell_angle_beta 90.000000
_cell_angle_gamma 90.000000
_cell_volume 1028.810754
_symmetry_space_group_name_H-M "P 2 2 21"
_symmetry_group_IT_number 17
_symmetry_cell_setting 'orthorhombic'
loop_
_space_group_symop_operation_xyz
x,y,z
-x,-y,1/2+z
x,-y,-z
-x,y,1/2-z
loop_
_atom_site_type_symbol
_atom_site_label
_atom_site_fract_x
_atom_site_fract_y
_atom_site_fract_z
Si Si1 0.148628 0.478685 0.375386
Si Si2 0.341022 0.699137 0.765998
Si Si3 0.894638 0.338066 0.701663
Si Si4 0.338555 0.007683 0.873737
Si Si5 0.325976 0.023783 0.658958
Si Si6 0.800351 0.000000 0.500000
Si Si7 0.998533 0.500000 0.000000
O O1 0.209534 0.763980 0.361875
O O2 0.110682 0.452468 0.444665
O O3 0.993067 0.459171 0.337523
O O4 0.271916 0.258400 0.363222
O O5 0.500000 0.563443 0.750000
O O6 0.207641 0.501782 0.751016
O O7 0.335061 0.739900 0.837550
O O8 0.329339 0.975464 0.731154
O O9 0.000000 0.179912 0.750000
O O10 0.793991 0.176976 0.656047
O O11 0.307046 0.957434 0.942906
O O12 0.509917 0.111983 0.866040
O O13 0.899661 0.250479 0.511302
#
# Coordination Sequence:
#
# PCOD8155682 Si02
#       7
#     4   4   4   4   4   2   2
#     4  12  26  47  73 108 144 197 250 308 377 445
#     4  10  24  43  70 106 149 194 240 312 384 445
#     4  12  24  42  77 107 146 193 255 310 380 451
#     4  11  27  45  74 106 151 200 250 307 378 453
#     4  11  27  48  74 108 151 193 247 316 383 451
#     4  12  26  48  76 110 148 198 252 306 368 458
#     4  12  26  48  74 106 154 192 250 318 370 436
#
# _framework density 23.327904
#
# number of rings (size 3 to 8) (size 9 to 14) (size 15 to 20)
#    0.000    0.667    3.333    3.000    7.000    2.667 
#    0.000    0.000    0.000    0.000    0.000    0.000 
#    0.000    0.000    0.000    0.000    0.000    0.000 
#
# Total GULP energy -297467.275993 kJ/mol
# GULP energy per Si atom -12394.469833 kJ/mol
# Density = 2.327481 g / cm^3
# Si number density = 23.327904 Si / 1000 Ang^3
#
#
#
# Elastic Constant Matrix: (Units=GPa)
#
#
# Indices 1 2 3 4 5 6 
#
# 1 140.1762 32.5434 53.8778 0.0000 0.0000 0.0000
# 2 32.5434 84.6680 15.1160 0.0000 0.0000 0.0000
# 3 53.8778 15.1160 148.4448 0.0000 0.0000 0.0000
# 4 0.0000 0.0000 0.0000 25.0738 0.0000 0.0000
# 5 0.0000 0.0000 0.0000 0.0000 46.6729 0.0000
# 6 0.0000 0.0000 0.0000 0.0000 0.0000 36.2467
#
#
#
# Elastic Compliance Matrix: (Units=1/GPa)
#
#
# Indices 1 2 3 4 5 6 
#
# 1 0.008943 -0.002911 -0.002950 0.000000 0.000000 0.000000
# 2 -0.002911 0.012977 -0.000265 0.000000 0.000000 0.000000
# 3 -0.002950 -0.000265 0.007834 0.000000 0.000000 0.000000
# 4 0.000000 0.000000 0.000000 0.039882 0.000000 0.000000
# 5 0.000000 0.000000 0.000000 0.000000 0.021426 0.000000
# 6 0.000000 0.000000 0.000000 0.000000 0.000000 0.027589
#
#
# Mechanical properties :
#
#
# Convention : Reuss Voigt Hill
#
# Bulk Modulus (GPa) = 57.13123 64.04041 60.58582
# Shear Modulus (GPa) = 36.56670 39.71546 38.14108
#
# Velocity S-wave (km/s) = 3.96347 4.13060 4.04790
# Velocity P-wave (km/s) = 6.74457 7.08950 6.91918
#
# Compressibility (1/GPa) = 0.01750356
#
# Stress axis : x y z
#
# Youngs Moduli (GPa) = 111.81464 77.05948 127.64825
#
# Poissons Ratio (x) = 0.22431 0.37651
# Poissons Ratio (y) = 0.32548 0.03382
# Poissons Ratio (z) = 0.32980 0.02041
#
# Static dielectric constant tensor:
#      x y z
#    x 4.506340 0.000000 0.000000 
#    y 0.000000 3.872810 0.000000 
#    z 0.000000 0.000000 4.483370 
# 
# 
# High freq. dielectric constant tensor:
#      x y z
#    x 1.945270 0.000000 0.000000 
#    y 0.000000 1.907030 0.000000 
#    z 0.000000 0.000000 1.931290 
# 
# From -- ./inp_files/10581.got.cif
#   From: 2010.03.12/outbox.cif.g09.slc.cpg/sg17_6_cif.got.tgz:10581.got - 2010.04.10 18:46:23.
