data_PCOD8155415
_publ_section_title
;
Structure prediction by ZEFSAII (Michael W. Deem and Ramdas Pophale) SiO2 
 PCOD8155415
Probable space group: P 2 2 21
;
_chemical_formula_sum "Si O2"
_cell_formula_units_Z 24
_cell_length_a 5.091650
_cell_length_b 27.398041
_cell_length_c 8.608788
_cell_angle_alpha 90.000000
_cell_angle_beta 90.000000
_cell_angle_gamma 90.000000
_cell_volume 1200.936562
_symmetry_space_group_name_H-M "P 2 2 21"
_symmetry_group_IT_number 17
_symmetry_cell_setting 'orthorhombic'
loop_
_space_group_symop_operation_xyz
x,y,z
-x,-y,1/2+z
x,-y,-z
-x,y,1/2-z
loop_
_atom_site_type_symbol
_atom_site_label
_atom_site_fract_x
_atom_site_fract_y
_atom_site_fract_z
Si Si1 0.491552 0.110605 0.065200
Si Si2 0.992984 0.053189 0.065676
Si Si3 0.972453 0.276593 0.066792
Si Si4 0.481368 0.780444 0.934416
Si Si5 0.740537 0.466688 0.851958
Si Si6 0.745848 0.357345 0.851968
O O1 0.500000 0.112353 0.250000
O O2 0.265138 0.074931 0.002254
O O3 0.433016 0.165027 0.001087
O O4 0.765873 0.089257 0.003914
O O5 0.000000 0.050195 0.250000
O O6 0.941392 0.000000 0.000000
O O7 0.769327 0.235269 0.010431
O O8 0.000000 0.284728 0.250000
O O9 0.256316 0.257523 0.005042
O O10 0.844247 0.325614 0.997895
O O11 0.500000 0.780333 0.750000
O O12 0.500000 0.487217 0.750000
O O13 0.670886 0.411681 0.909930
O O14 0.000000 0.468392 0.750000
O O15 0.783515 0.500000 0.000000
O O16 0.500000 0.335817 0.750000
O O17 0.000000 0.361311 0.750000
#
# Coordination Sequence:
#
# PCOD8155415 Si02
#       6
#     4   4   4   4   4   4
#     4   9  17  30  49  72  96 126 163 203 252 305
#     4  10  19  31  49  71  95 126 162 200 248 303
#     4  10  19  32  53  80 104 132 175 223 264 305
#     4   9  17  30  50  76 103 128 166 220 263 301
#     4  10  21  38  59  84 113 149 191 234 281 330
#     4  10  21  37  55  77 111 149 179 214 270 334
#
# _framework density 19.984403
#
# number of rings (size 3 to 8) (size 9 to 14) (size 15 to 20)
#    0.000    2.333    0.000    3.000    0.000    4.667 
#    0.000    2.500    0.000   10.000    0.000    0.000 
#    0.000    0.000    0.000    0.000    0.000    0.000 
#
# Total GULP energy -297397.459734 kJ/mol
# GULP energy per Si atom -12391.560822 kJ/mol
# Density = 1.993892 g / cm^3
# Si number density = 19.984403 Si / 1000 Ang^3
#
#
#
# Elastic Constant Matrix: (Units=GPa)
#
#
# Indices 1 2 3 4 5 6 
#
# 1 145.8403 45.2468 32.1984 0.0000 0.0000 0.0000
# 2 45.2468 119.6601 44.6990 0.0000 0.0000 0.0000
# 3 32.1984 44.6990 43.2780 0.0000 0.0000 0.0000
# 4 0.0000 0.0000 0.0000 25.1069 0.0000 0.0000
# 5 0.0000 0.0000 0.0000 0.0000 20.7189 0.0000
# 6 0.0000 0.0000 0.0000 0.0000 0.0000 43.0096
#
#
#
# Elastic Compliance Matrix: (Units=1/GPa)
#
#
# Indices 1 2 3 4 5 6 
#
# 1 0.008338 -0.001360 -0.004798 0.000000 0.000000 0.000000
# 2 -0.001360 0.013829 -0.013270 0.000000 0.000000 0.000000
# 3 -0.004798 -0.013270 0.040383 0.000000 0.000000 0.000000
# 4 0.000000 0.000000 0.000000 0.039830 0.000000 0.000000
# 5 0.000000 0.000000 0.000000 0.000000 0.048265 0.000000
# 6 0.000000 0.000000 0.000000 0.000000 0.000000 0.023251
#
#
# Mechanical properties :
#
#
# Convention : Reuss Voigt Hill
#
# Bulk Modulus (GPa) = 42.21064 61.45185 51.83125
# Shear Modulus (GPa) = 22.66025 30.20936 26.43481
#
# Velocity S-wave (km/s) = 3.37099 3.89221 3.64094
# Velocity P-wave (km/s) = 6.02653 7.14253 6.60813
#
# Compressibility (1/GPa) = 0.02369071
#
# Stress axis : x y z
#
# Youngs Moduli (GPa) = 119.92861 72.31375 24.76314
#
# Poissons Ratio (x) = 0.09838 0.11882
# Poissons Ratio (y) = 0.16316 0.32862
# Poissons Ratio (z) = 0.57547 0.95964
#
# Static dielectric constant tensor:
#      x y z
#    x 4.012340 0.000000 0.000000 
#    y 0.000000 3.906420 0.000000 
#    z 0.000000 0.000000 2.985190 
# 
# 
# High freq. dielectric constant tensor:
#      x y z
#    x 1.804610 0.000000 0.000000 
#    y 0.000000 1.784850 0.000000 
#    z 0.000000 0.000000 1.731430 
# 
# From -- ./inp_files/3569.got.cif
#   From: 2010.03.12/outbox.cif.g09.slc.cpg/sg17_2_cif.got.tgz:3569.got - 2010.04.10 18:46:23.
