data_PCOD8155455
_publ_section_title
;
Structure prediction by ZEFSAII (Michael W. Deem and Ramdas Pophale) SiO2 
 PCOD8155455
Probable space group: P 2 2 21
;
_chemical_formula_sum "Si O2"
_cell_formula_units_Z 26
_cell_length_a 8.379591
_cell_length_b 7.931628
_cell_length_c 18.789017
_cell_angle_alpha 90.000000
_cell_angle_beta 90.000000
_cell_angle_gamma 90.000000
_cell_volume 1248.789442
_symmetry_space_group_name_H-M "P 2 2 21"
_symmetry_group_IT_number 17
_symmetry_cell_setting 'orthorhombic'
loop_
_space_group_symop_operation_xyz
x,y,z
-x,-y,1/2+z
x,-y,-z
-x,y,1/2-z
loop_
_atom_site_type_symbol
_atom_site_label
_atom_site_fract_x
_atom_site_fract_y
_atom_site_fract_z
Si Si1 0.121901 0.093652 0.618829
Si Si2 0.122367 0.197781 0.986327
Si Si3 0.617574 0.294650 0.807446
Si Si4 0.166412 0.573065 0.738249
Si Si5 0.537859 0.673914 0.459764
Si Si6 0.646354 0.000000 0.000000
Si Si7 0.032381 0.763594 0.858722
O O1 0.222956 0.186140 0.679788
O O2 0.023216 0.225123 0.569330
O O3 0.243794 0.988566 0.569568
O O4 0.993190 0.964569 0.651550
O O5 0.273863 0.293738 0.954390
O O6 0.075739 0.285871 0.060718
O O7 0.156603 0.000000 0.000000
O O8 0.500000 0.205006 0.750000
O O9 0.674088 0.465684 0.768104
O O10 0.529091 0.337137 0.880185
O O11 0.176298 0.703167 0.805873
O O12 0.000000 0.464676 0.750000
O O13 0.135649 0.677164 0.664922
O O14 0.498766 0.500000 0.500000
O O15 0.460046 0.831256 0.501081
#
# Coordination Sequence:
#
# PCOD8155455 Si02
#       7
#     4   4   4   4   4   2   4
#     4  10  20  40  72  92 125 172 220 287 337 392
#     4  10  19  40  68  98 128 161 226 291 326 397
#     4  11  26  44  57  95 143 174 213 276 340 408
#     4   8  21  40  62  86 123 173 215 268 306 413
#     4  11  26  39  68  98 133 183 219 276 350 402
#     4  10  20  42  62 100 138 158 216 286 338 404
#     4   8  18  39  68  93 113 165 225 266 335 370
#
# _framework density 20.820162
#
# number of rings (size 3 to 8) (size 9 to 14) (size 15 to 20)
#    0.923    1.231    3.077    0.000    4.308    2.462 
#   13.846    1.538    0.000    0.000    0.000    0.000 
#    0.000    0.000    0.000    0.000    0.000    0.000 
#
# Total GULP energy -322118.036710 kJ/mol
# GULP energy per Si atom -12389.155258 kJ/mol
# Density = 2.077277 g / cm^3
# Si number density = 20.820162 Si / 1000 Ang^3
#
#
#
# Elastic Constant Matrix: (Units=GPa)
#
#
# Indices 1 2 3 4 5 6 
#
# 1 106.4463 45.6602 60.7241 0.0000 0.0000 0.0000
# 2 45.6602 88.6232 50.1641 0.0000 0.0000 0.0000
# 3 60.7241 50.1641 109.6485 0.0000 0.0000 0.0000
# 4 0.0000 0.0000 0.0000 31.4665 0.0000 0.0000
# 5 0.0000 0.0000 0.0000 0.0000 40.0386 0.0000
# 6 0.0000 0.0000 0.0000 0.0000 0.0000 27.4969
#
#
#
# Elastic Compliance Matrix: (Units=1/GPa)
#
#
# Indices 1 2 3 4 5 6 
#
# 1 0.014717 -0.004007 -0.006317 0.000000 0.000000 0.000000
# 2 -0.004007 0.016318 -0.005246 0.000000 0.000000 0.000000
# 3 -0.006317 -0.005246 0.015019 0.000000 0.000000 0.000000
# 4 0.000000 0.000000 0.000000 0.031780 0.000000 0.000000
# 5 0.000000 0.000000 0.000000 0.000000 0.024976 0.000000
# 6 0.000000 0.000000 0.000000 0.000000 0.000000 0.036368
#
#
# Mechanical properties :
#
#
# Convention : Reuss Voigt Hill
#
# Bulk Modulus (GPa) = 67.05666 68.64609 67.85138
# Shear Modulus (GPa) = 28.52443 29.67837 29.10140
#
# Velocity S-wave (km/s) = 3.70542 3.77963 3.74271
# Velocity P-wave (km/s) = 7.11227 7.21734 7.16499
#
# Compressibility (1/GPa) = 0.01491276
#
# Stress axis : x y z
#
# Youngs Moduli (GPa) = 67.94949 61.28328 66.58287
#
# Poissons Ratio (x) = 0.24553 0.42062
# Poissons Ratio (y) = 0.27224 0.34933
# Poissons Ratio (z) = 0.42926 0.32152
#
# Static dielectric constant tensor:
#      x y z
#    x 3.693250 0.000000 0.000000 
#    y 0.000000 3.548670 0.000000 
#    z 0.000000 0.000000 3.782150 
# 
# 
# High freq. dielectric constant tensor:
#      x y z
#    x 1.807540 0.000000 0.000000 
#    y 0.000000 1.792160 0.000000 
#    z 0.000000 0.000000 1.817810 
# 
# From -- ./inp_files/9467.got.cif
#   From: 2010.03.12/outbox.cif.g09.slc.cpg/sg17_5_cif.got.tgz:9467.got - 2010.04.10 18:46:23.
