data_PCOD8155817
_publ_section_title
;
Structure prediction by ZEFSAII (Michael W. Deem and Ramdas Pophale) SiO2 
 PCOD8155817
Probable space group: P 21 21 2
;
_chemical_formula_sum "Si O2"
_cell_formula_units_Z 20
_cell_length_a 11.649040
_cell_length_b 5.451983
_cell_length_c 10.929073
_cell_angle_alpha 90.000000
_cell_angle_beta 90.000000
_cell_angle_gamma 90.000000
_cell_volume 694.109449
_symmetry_space_group_name_H-M "P 21 21 2"
_symmetry_group_IT_number 18
_symmetry_cell_setting 'orthorhombic'
loop_
_space_group_symop_operation_xyz
x,y,z
-x,-y,z
1/2+x,1/2-y,-z
1/2-x,1/2+y,-z
loop_
_atom_site_type_symbol
_atom_site_label
_atom_site_fract_x
_atom_site_fract_y
_atom_site_fract_z
Si Si1 0.180822 0.354930 0.999948
Si Si2 0.867588 0.032039 0.364619
Si Si3 0.121682 0.268686 0.737209
Si Si4 0.126118 0.473529 0.261926
Si Si5 0.132998 0.774531 0.637021
O O1 0.101715 0.336911 0.878863
O O2 0.258276 0.594174 0.982721
O O3 0.107063 0.391628 0.122151
O O4 0.817749 0.248440 0.272593
O O5 0.852066 0.133157 0.500144
O O6 0.814778 0.750385 0.343704
O O7 0.000000 0.000000 0.327911
O O8 0.184207 0.495038 0.661570
O O9 0.000460 0.245633 0.670410
O O10 0.182510 0.994648 0.727306
O O11 0.000000 0.500000 0.322252
#
# Coordination Sequence:
#
# PCOD8155817 Si02
#       5
#     4   4   4   4   4
#     4  12  26  46  64  88 136 180 214 263 322 385
#     4  10  18  35  61  99 128 153 192 273 326 371
#     4  10  21  35  62  91 125 161 213 253 322 375
#     4  10  23  38  65  97 124 165 217 262 319 376
#     4  10  19  35  64  99 123 149 208 273 318 365
#
# _framework density 28.813897999999998
#
# number of rings (size 3 to 8) (size 9 to 14) (size 15 to 20)
#    0.000    1.600    2.000    3.600    8.400    0.000 
#    7.200    0.000    0.000   24.000    0.000    0.000 
#    0.000    0.000    0.000    0.000    0.000    0.000 
#
# Total GULP energy -248091.928019 kJ/mol
# GULP energy per Si atom -12404.596401 kJ/mol
# Density = 2.874832 g / cm^3
# Si number density = 28.813898 Si / 1000 Ang^3
#
#
#
# Elastic Constant Matrix: (Units=GPa)
#
#
# Indices 1 2 3 4 5 6 
#
# 1 127.6646 108.6033 33.4975 0.0000 0.0000 0.0000
# 2 108.6033 302.6103 103.9867 0.0000 0.0000 0.0000
# 3 33.4975 103.9867 231.5270 0.0000 0.0000 0.0000
# 4 0.0000 0.0000 0.0000 63.9343 0.0000 0.0000
# 5 0.0000 0.0000 0.0000 0.0000 16.8258 0.0000
# 6 0.0000 0.0000 0.0000 0.0000 0.0000 58.8850
#
#
#
# Elastic Compliance Matrix: (Units=1/GPa)
#
#
# Indices 1 2 3 4 5 6 
#
# 1 0.011285 -0.004126 0.000220 0.000000 0.000000 0.000000
# 2 -0.004126 0.005416 -0.001836 0.000000 0.000000 0.000000
# 3 0.000220 -0.001836 0.005112 0.000000 0.000000 0.000000
# 4 0.000000 0.000000 0.000000 0.015641 0.000000 0.000000
# 5 0.000000 0.000000 0.000000 0.000000 0.059432 0.000000
# 6 0.000000 0.000000 0.000000 0.000000 0.000000 0.016982
#
#
# Mechanical properties :
#
#
# Convention : Reuss Voigt Hill
#
# Bulk Modulus (GPa) = 96.79985 128.21965 112.50975
# Shear Modulus (GPa) = 38.82168 55.64333 47.23251
#
# Velocity S-wave (km/s) = 3.67457 4.39923 4.05313
# Velocity P-wave (km/s) = 7.18826 8.39048 7.81253
#
# Compressibility (1/GPa) = 0.01033059
#
# Stress axis : x y z
#
# Youngs Moduli (GPa) = 88.61357 184.63692 195.62903
#
# Poissons Ratio (x) = 0.76176 -0.04310
# Poissons Ratio (y) = 0.36560 0.35910
# Poissons Ratio (z) = -0.01952 0.33892
#
# Static dielectric constant tensor:
#      x y z
#    x 6.097440 0.000000 0.000000 
#    y 0.000000 8.314550 0.000000 
#    z 0.000000 0.000000 5.028670 
# 
# 
# High freq. dielectric constant tensor:
#      x y z
#    x 2.262800 0.000000 0.000000 
#    y 0.000000 2.252000 0.000000 
#    z 0.000000 0.000000 2.137690 
# 
# From -- ./inp_files/4420.got.cif
#   From: 2010.03.12/outbox.cif.g09.slc.cpg/sg18_3_cif.got.tgz:4420.got - 2010.04.10 18:53:55.
