data_PCOD8155251
_publ_section_title
;
Structure prediction by ZEFSAII (Michael W. Deem and Ramdas Pophale) SiO2 
 PCOD8155251
Probable space group: P 2 2 2
;
_chemical_formula_sum "Si O2"
_cell_formula_units_Z 22
_cell_length_a 9.406573
_cell_length_b 7.463925
_cell_length_c 14.441529
_cell_angle_alpha 90.000000
_cell_angle_beta 90.000000
_cell_angle_gamma 90.000000
_cell_volume 1013.939107
_symmetry_space_group_name_H-M "P 2 2 2"
_symmetry_group_IT_number 16
_symmetry_cell_setting 'orthorhombic'
loop_
_space_group_symop_operation_xyz
x,y,z
-x,-y,z
x,-y,-z
-x,y,-z
loop_
_atom_site_type_symbol
_atom_site_label
_atom_site_fract_x
_atom_site_fract_y
_atom_site_fract_z
Si Si1 0.500000 0.500000 0.723149
Si Si2 0.000000 0.000000 0.000000
Si Si3 0.500000 0.000000 0.000000
Si Si4 0.251423 0.227006 0.958230
Si Si5 0.255388 0.590908 0.850187
Si Si6 0.000000 0.500000 0.728036
Si Si7 0.925819 0.189167 0.408574
Si Si8 0.633273 0.317661 0.444997
O O1 0.394293 0.616697 0.787283
O O2 0.589026 0.636053 0.659915
O O3 0.895007 0.879208 0.936001
O O4 0.604907 0.117611 0.064904
O O5 0.252064 0.262539 0.069033
O O6 0.257247 0.397329 0.895629
O O7 0.115110 0.604479 0.788901
O O8 0.931164 0.658785 0.668878
O O9 0.759244 0.171340 0.436699
O O10 0.000000 0.264338 0.500000
O O11 0.000000 0.000000 0.378921
O O12 0.679734 0.500000 0.500000
O O13 0.500000 0.230390 0.500000
#
# Coordination Sequence:
#
# PCOD8155251 Si02
#       8
#     2   1   1   4   4   2   4   4
#     4  10  19  35  62 100 118 158 222 263 323 386
#     4  10  20  40  60  82 120 164 218 266 320 384
#     4  10  20  40  64  90 116 168 222 274 328 380
#     4  10  22  40  61  88 124 172 220 264 329 385
#     4  11  22  39  63  91 126 170 219 267 321 398
#     4  12  23  41  68  96 134 176 214 275 331 386
#     4  11  24  43  67  98 133 170 217 265 329 403
#     4   9  19  38  68  95 126 171 214 262 336 401
#
# _framework density 21.697555999999999
#
# number of rings (size 3 to 8) (size 9 to 14) (size 15 to 20)
#    0.000    1.818    1.818    3.545    2.545    2.909 
#    9.818    1.818    0.000    0.000    0.000    0.000 
#    0.000    0.000    0.000    0.000    0.000    0.000 
#
# Total GULP energy -272660.125193 kJ/mol
# GULP energy per Si atom -12393.642054 kJ/mol
# Density = 2.164817 g / cm^3
# Si number density = 21.697556 Si / 1000 Ang^3
#
#
#
# Elastic Constant Matrix: (Units=GPa)
#
#
# Indices 1 2 3 4 5 6 
#
# 1 175.5623 42.5646 34.0582 0.0000 0.0000 0.0000
# 2 42.5646 84.0651 20.0642 0.0000 0.0000 0.0000
# 3 34.0582 20.0642 102.0542 0.0000 0.0000 0.0000
# 4 0.0000 0.0000 0.0000 4.3262 0.0000 0.0000
# 5 0.0000 0.0000 0.0000 0.0000 26.9683 0.0000
# 6 0.0000 0.0000 0.0000 0.0000 0.0000 27.0736
#
#
#
# Elastic Compliance Matrix: (Units=1/GPa)
#
#
# Indices 1 2 3 4 5 6 
#
# 1 0.006750 -0.003022 -0.001659 0.000000 0.000000 0.000000
# 2 -0.003022 0.013834 -0.001711 0.000000 0.000000 0.000000
# 3 -0.001659 -0.001711 0.010689 0.000000 0.000000 0.000000
# 4 0.000000 0.000000 0.000000 0.231148 0.000000 0.000000
# 5 0.000000 0.000000 0.000000 0.000000 0.037081 0.000000
# 6 0.000000 0.000000 0.000000 0.000000 0.000000 0.036936
#
#
# Mechanical properties :
#
#
# Convention : Reuss Voigt Hill
#
# Bulk Modulus (GPa) = 54.08549 61.67286 57.87918
# Shear Modulus (GPa) = 14.06923 29.33993 21.70458
#
# Velocity S-wave (km/s) = 2.54918 3.68125 3.16622
# Velocity P-wave (km/s) = 5.80048 6.82308 6.33245
#
# Compressibility (1/GPa) = 0.01848925
#
# Stress axis : x y z
#
# Youngs Moduli (GPa) = 148.13834 72.28493 93.55676
#
# Poissons Ratio (x) = 0.21845 0.15518
# Poissons Ratio (y) = 0.44768 0.16010
# Poissons Ratio (z) = 0.24571 0.12370
#
# Static dielectric constant tensor:
#      x y z
#    x 4.190470 0.000000 0.000000 
#    y 0.000000 3.662350 0.000000 
#    z 0.000000 0.000000 3.917580 
# 
# 
# High freq. dielectric constant tensor:
#      x y z
#    x 1.877360 0.000000 0.000000 
#    y 0.000000 1.829640 0.000000 
#    z 0.000000 0.000000 1.842310 
# 
# From -- ./inp_files/7896.got.cif
#   From: 2010.03.12/outbox.cif.g09.slc.cpg/sg16_4_cif.got.tgz:7896.got - 2010.03.31 00:51:45.
