data_PCOD8155832
_publ_section_title
;
Structure prediction by ZEFSAII (Michael W. Deem and Ramdas Pophale) SiO2 
 PCOD8155832
Probable space group: P 21 21 2
;
_chemical_formula_sum "Si O2"
_cell_formula_units_Z 32
_cell_length_a 12.757748
_cell_length_b 9.086066
_cell_length_c 13.151324
_cell_angle_alpha 90.000000
_cell_angle_beta 90.000000
_cell_angle_gamma 90.000000
_cell_volume 1524.471761
_symmetry_space_group_name_H-M "P 21 21 2"
_symmetry_group_IT_number 18
_symmetry_cell_setting 'orthorhombic'
loop_
_space_group_symop_operation_xyz
x,y,z
-x,-y,z
1/2+x,1/2-y,-z
1/2-x,1/2+y,-z
loop_
_atom_site_type_symbol
_atom_site_label
_atom_site_fract_x
_atom_site_fract_y
_atom_site_fract_z
Si Si1 0.755460 0.111187 0.798102
Si Si2 0.328806 0.352468 0.812866
Si Si3 0.104091 0.575825 0.097288
Si Si4 0.124647 0.165295 0.853839
Si Si5 0.686091 0.766179 0.404316
Si Si6 0.789315 0.872378 0.055333
Si Si7 0.972713 0.664003 0.689965
Si Si8 0.750473 0.597651 0.602886
O O1 0.757346 0.185207 0.688556
O O2 0.756579 0.233074 0.886213
O O3 0.647381 0.018963 0.806846
O O4 0.853747 0.000334 0.813625
O O5 0.416867 0.241978 0.859876
O O6 0.218795 0.276496 0.833292
O O7 0.334776 0.509632 0.866608
O O8 0.335857 0.378572 0.691833
O O9 0.000000 0.500000 0.054195
O O10 0.192104 0.564708 0.009899
O O11 0.026505 0.233347 0.791905
O O12 0.114174 0.164660 0.977181
O O13 0.561670 0.776890 0.385465
O O14 0.703249 0.672630 0.504440
O O15 0.736309 0.925716 0.418706
O O16 0.862178 0.671037 0.631446
O O17 0.000000 0.500000 0.727340
#
# Coordination Sequence:
#
# PCOD8155832 Si02
#       8
#     4   4   4   4   4   4   4   4
#     4  10  21  39  59  92 125 163 207 266 324 383
#     4   9  18  38  63  85 128 163 210 257 326 380
#     4  10  21  38  61  89 120 170 216 252 315 407
#     4   9  18  34  64  89 125 162 200 256 312 393
#     4  11  23  41  67  90 127 166 217 269 337 376
#     4  10  18  39  64  91 129 170 203 262 339 387
#     4   9  21  42  63 100 124 159 222 267 322 393
#     4  10  22  41  65  93 121 172 208 274 324 386
#
# _framework density 20.990877000000001
#
# number of rings (size 3 to 8) (size 9 to 14) (size 15 to 20)
#    0.000    2.500    1.250    3.000    5.250    0.500 
#    9.000    0.625   11.000    0.000    0.000    0.000 
#    0.000    0.000    0.000    0.000    0.000    0.000 
#
# Total GULP energy -396612.891877 kJ/mol
# GULP energy per Si atom -12394.152871 kJ/mol
# Density = 2.094310 g / cm^3
# Si number density = 20.990877 Si / 1000 Ang^3
#
#
#
# Elastic Constant Matrix: (Units=GPa)
#
#
# Indices 1 2 3 4 5 6 
#
# 1 51.9716 35.2058 36.6676 0.0000 0.0000 0.0000
# 2 35.2058 136.0166 73.0600 0.0000 0.0000 0.0000
# 3 36.6676 73.0600 170.4260 0.0000 0.0000 0.0000
# 4 0.0000 0.0000 0.0000 49.0727 0.0000 0.0000
# 5 0.0000 0.0000 0.0000 0.0000 19.3107 0.0000
# 6 0.0000 0.0000 0.0000 0.0000 0.0000 26.7621
#
#
#
# Elastic Compliance Matrix: (Units=1/GPa)
#
#
# Indices 1 2 3 4 5 6 
#
# 1 0.024719 -0.004601 -0.003346 0.000000 0.000000 0.000000
# 2 -0.004601 0.010408 -0.003472 0.000000 0.000000 0.000000
# 3 -0.003346 -0.003472 0.008076 0.000000 0.000000 0.000000
# 4 0.000000 0.000000 0.000000 0.020378 0.000000 0.000000
# 5 0.000000 0.000000 0.000000 0.000000 0.051785 0.000000
# 6 0.000000 0.000000 0.000000 0.000000 0.000000 0.037366
#
#
# Mechanical properties :
#
#
# Convention : Reuss Voigt Hill
#
# Bulk Modulus (GPa) = 49.10373 72.03123 60.56748
# Shear Modulus (GPa) = 27.41882 33.26116 30.33999
#
# Velocity S-wave (km/s) = 3.61810 3.98496 3.80595
# Velocity P-wave (km/s) = 6.39514 7.45407 6.94482
#
# Compressibility (1/GPa) = 0.02036505
#
# Stress axis : x y z
#
# Youngs Moduli (GPa) = 40.45550 96.08243 123.82547
#
# Poissons Ratio (x) = 0.44205 0.41432
# Poissons Ratio (y) = 0.18613 0.42990
# Poissons Ratio (z) = 0.13536 0.33358
#
# Static dielectric constant tensor:
#      x y z
#    x 3.592610 0.000000 0.000000 
#    y 0.000000 4.232560 0.000000 
#    z 0.000000 0.000000 3.933990 
# 
# 
# High freq. dielectric constant tensor:
#      x y z
#    x 1.784880 0.000000 0.000000 
#    y 0.000000 1.846280 0.000000 
#    z 0.000000 0.000000 1.817640 
# 
# From -- ./inp_files/6118.got.cif
#   From: 2010.03.12/outbox.cif.g09.slc.cpg/sg18_4_cif.got.tgz:6118.got - 2010.04.10 18:53:55.
