data_PCOD8155999
_publ_section_title
;
Structure prediction by ZEFSAII (Michael W. Deem and Ramdas Pophale) SiO2 
 PCOD8155999
Probable space group: P 21 21 2
;
_chemical_formula_sum "Si O2"
_cell_formula_units_Z 18
_cell_length_a 9.210623
_cell_length_b 7.554994
_cell_length_c 11.153941
_cell_angle_alpha 90.000000
_cell_angle_beta 90.000000
_cell_angle_gamma 90.000000
_cell_volume 776.160386
_symmetry_space_group_name_H-M "P 21 21 2"
_symmetry_group_IT_number 18
_symmetry_cell_setting 'orthorhombic'
loop_
_space_group_symop_operation_xyz
x,y,z
-x,-y,z
1/2+x,1/2-y,-z
1/2-x,1/2+y,-z
loop_
_atom_site_type_symbol
_atom_site_label
_atom_site_fract_x
_atom_site_fract_y
_atom_site_fract_z
Si Si1 0.509674 0.790082 0.922591
Si Si2 0.006552 0.790110 0.632910
Si Si3 0.712494 0.141276 0.740765
Si Si4 0.326973 0.683085 0.141692
Si Si5 0.500000 0.000000 0.562692
O O1 0.409866 0.740282 0.806814
O O2 0.674611 0.724838 0.897487
O O3 0.500000 0.000000 0.942221
O O4 0.448089 0.694973 0.039259
O O5 0.890660 0.733281 0.734992
O O6 0.169040 0.735775 0.676167
O O7 0.982177 0.678675 0.513364
O O8 0.000000 0.000000 0.604214
O O9 0.800100 0.025507 0.838719
O O10 0.641050 0.999500 0.648284
#
# Coordination Sequence:
#
# PCOD8155999 Si02
#       5
#     4   4   4   4   2
#     4  10  20  38  69  91 139 178 226 283 359 407
#     4  10  25  42  70  99 140 181 239 278 347 409
#     4  10  22  43  66  99 135 183 230 288 342 412
#     4  10  20  40  63 101 133 176 225 286 344 415
#     4  12  24  44  74  96 144 186 230 296 332 412
#
# _framework density 23.191084
#
# number of rings (size 3 to 8) (size 9 to 14) (size 15 to 20)
#    0.000    1.778    3.333    1.333    7.778    1.778 
#    0.000    0.000    0.000    0.000    0.000    0.000 
#    0.000    0.000    0.000    0.000    0.000    0.000 
#
# Total GULP energy -223110.586372 kJ/mol
# GULP energy per Si atom -12395.032576 kJ/mol
# Density = 2.313830 g / cm^3
# Si number density = 23.191084 Si / 1000 Ang^3
#
#
#
# Elastic Constant Matrix: (Units=GPa)
#
#
# Indices 1 2 3 4 5 6 
#
# 1 127.5518 24.9892 40.3919 0.0000 0.0000 0.0000
# 2 24.9892 58.2504 40.8687 0.0000 0.0000 0.0000
# 3 40.3919 40.8687 120.6292 0.0000 0.0000 0.0000
# 4 0.0000 0.0000 0.0000 23.3373 0.0000 0.0000
# 5 0.0000 0.0000 0.0000 0.0000 42.3563 0.0000
# 6 0.0000 0.0000 0.0000 0.0000 0.0000 23.3535
#
#
#
# Elastic Compliance Matrix: (Units=1/GPa)
#
#
# Indices 1 2 3 4 5 6 
#
# 1 0.008997 -0.002290 -0.002237 0.000000 0.000000 0.000000
# 2 -0.002290 0.023104 -0.007060 0.000000 0.000000 0.000000
# 3 -0.002237 -0.007060 0.011431 0.000000 0.000000 0.000000
# 4 0.000000 0.000000 0.000000 0.042850 0.000000 0.000000
# 5 0.000000 0.000000 0.000000 0.000000 0.023609 0.000000
# 6 0.000000 0.000000 0.000000 0.000000 0.000000 0.042820
#
#
# Mechanical properties :
#
#
# Convention : Reuss Voigt Hill
#
# Bulk Modulus (GPa) = 49.12478 57.65900 53.39189
# Shear Modulus (GPa) = 27.35667 31.15487 29.25577
#
# Velocity S-wave (km/s) = 3.43829 3.66922 3.55563
# Velocity P-wave (km/s) = 6.08202 6.54732 6.31896
#
# Compressibility (1/GPa) = 0.02035633
#
# Stress axis : x y z
#
# Youngs Moduli (GPa) = 111.14885 43.28348 87.48278
#
# Poissons Ratio (x) = 0.09914 0.19566
# Poissons Ratio (y) = 0.25458 0.61767
# Poissons Ratio (z) = 0.24859 0.30560
#
# Static dielectric constant tensor:
#      x y z
#    x 4.778220 0.000000 0.000000 
#    y 0.000000 3.494510 0.000000 
#    z 0.000000 0.000000 4.230520 
# 
# 
# High freq. dielectric constant tensor:
#      x y z
#    x 1.946160 0.000000 0.000000 
#    y 0.000000 1.860790 0.000000 
#    z 0.000000 0.000000 1.923830 
# 
# From -- ./inp_files/5370.got.cif
#   From: 2010.03.12/outbox.cif.g09.slc.cpg/sg18_3_cif.got.tgz:5370.got - 2010.04.10 18:53:55.
