data_PCOD8155800
_publ_section_title
;
Structure prediction by ZEFSAII (Michael W. Deem and Ramdas Pophale) SiO2 
 PCOD8155800
Probable space group: P 21 21 2
;
_chemical_formula_sum "Si O2"
_cell_formula_units_Z 24
_cell_length_a 11.901995
_cell_length_b 5.362268
_cell_length_c 13.763781
_cell_angle_alpha 90.000000
_cell_angle_beta 90.000000
_cell_angle_gamma 90.000000
_cell_volume 878.427722
_symmetry_space_group_name_H-M "P 21 21 2"
_symmetry_group_IT_number 18
_symmetry_cell_setting 'orthorhombic'
loop_
_space_group_symop_operation_xyz
x,y,z
-x,-y,z
1/2+x,1/2-y,-z
1/2-x,1/2+y,-z
loop_
_atom_site_type_symbol
_atom_site_label
_atom_site_fract_x
_atom_site_fract_y
_atom_site_fract_z
Si Si1 0.123326 0.470719 0.188614
Si Si2 0.316628 0.885288 0.605969
Si Si3 0.132028 0.776225 0.888126
Si Si4 0.130703 0.965410 0.104370
Si Si5 0.675597 0.115640 0.395929
Si Si6 0.883374 0.728851 0.808117
O O1 0.105262 0.374680 0.299172
O O2 0.178897 0.749220 0.178142
O O3 0.000000 0.500000 0.141178
O O4 0.183921 0.248058 0.123725
O O5 0.384169 0.864248 0.502666
O O6 0.230020 0.656640 0.614193
O O7 0.262671 0.158435 0.608637
O O8 0.182557 0.496251 0.865877
O O9 0.000097 0.754771 0.864417
O O10 0.179071 0.997559 0.815151
O O11 0.151129 0.867392 0.996704
O O12 0.000000 0.000000 0.129172
O O13 0.592517 0.154468 0.304242
#
# Coordination Sequence:
#
# PCOD8155800 Si02
#       6
#     4   4   4   4   4   4
#     4  10  21  34  58  86 109 145 188 238 277 323
#     4  10  21  40  59  82 111 151 194 227 280 351
#     4  10  19  32  55  86 114 141 182 238 278 329
#     4  10  18  32  55  83 108 149 181 219 286 337
#     4  10  21  38  63  79 111 158 187 225 287 343
#     4  10  19  32  55  86 108 146 186 231 274 336
#
# _framework density 27.321542999999998
#
# number of rings (size 3 to 8) (size 9 to 14) (size 15 to 20)
#    0.000    2.000    1.667    3.000    4.667    0.000 
#    3.000    0.000    7.333   20.000    0.000    0.000 
#    0.000    0.000    0.000    0.000    0.000    0.000 
#
# Total GULP energy -297474.828644 kJ/mol
# GULP energy per Si atom -12394.784527 kJ/mol
# Density = 2.725936 g / cm^3
# Si number density = 27.321543 Si / 1000 Ang^3
#
#
#
# Elastic Constant Matrix: (Units=GPa)
#
#
# Indices 1 2 3 4 5 6 
#
# 1 74.2412 73.7676 23.9458 0.0000 0.0000 0.0000
# 2 73.7676 257.4308 89.1304 0.0000 0.0000 0.0000
# 3 23.9458 89.1304 253.8734 0.0000 0.0000 0.0000
# 4 0.0000 0.0000 0.0000 70.1432 0.0000 0.0000
# 5 0.0000 0.0000 0.0000 0.0000 15.4150 0.0000
# 6 0.0000 0.0000 0.0000 0.0000 0.0000 32.0560
#
#
#
# Elastic Compliance Matrix: (Units=1/GPa)
#
#
# Indices 1 2 3 4 5 6 
#
# 1 0.018835 -0.005444 0.000135 0.000000 0.000000 0.000000
# 2 -0.005444 0.005996 -0.001591 0.000000 0.000000 0.000000
# 3 0.000135 -0.001591 0.004485 0.000000 0.000000 0.000000
# 4 0.000000 0.000000 0.000000 0.014257 0.000000 0.000000
# 5 0.000000 0.000000 0.000000 0.000000 0.064872 0.000000
# 6 0.000000 0.000000 0.000000 0.000000 0.000000 0.031195
#
#
# Mechanical properties :
#
#
# Convention : Reuss Voigt Hill
#
# Bulk Modulus (GPa) = 64.45589 106.58144 85.51866
# Shear Modulus (GPa) = 31.52337 50.10297 40.81317
#
# Velocity S-wave (km/s) = 3.40044 4.28697 3.86918
# Velocity P-wave (km/s) = 6.24981 7.97489 7.16446
#
# Compressibility (1/GPa) = 0.01551449
#
# Stress axis : x y z
#
# Youngs Moduli (GPa) = 53.09150 166.79090 222.96590
#
# Poissons Ratio (x) = 0.90801 -0.03003
# Poissons Ratio (y) = 0.28903 0.35484
# Poissons Ratio (z) = -0.00715 0.26544
#
# Static dielectric constant tensor:
#      x y z
#    x 5.072720 0.000000 0.000000 
#    y 0.000000 7.292540 0.000000 
#    z 0.000000 0.000000 6.192820 
# 
# 
# High freq. dielectric constant tensor:
#      x y z
#    x 2.129350 0.000000 0.000000 
#    y 0.000000 2.166470 0.000000 
#    z 0.000000 0.000000 2.093410 
# 
# From -- ./inp_files/6183.got.cif
#   From: 2010.03.12/outbox.cif.g09.slc.cpg/sg18_4_cif.got.tgz:6183.got - 2010.04.10 18:53:55.
