data_PCOD8155873
_publ_section_title
;
Structure prediction by ZEFSAII (Michael W. Deem and Ramdas Pophale) SiO2 
 PCOD8155873
Probable space group: P 21 21 2
;
_chemical_formula_sum "Si O2"
_cell_formula_units_Z 32
_cell_length_a 28.587759
_cell_length_b 8.700457
_cell_length_c 6.853217
_cell_angle_alpha 90.000000
_cell_angle_beta 90.000000
_cell_angle_gamma 90.000000
_cell_volume 1704.577144
_symmetry_space_group_name_H-M "P 21 21 2"
_symmetry_group_IT_number 18
_symmetry_cell_setting 'orthorhombic'
loop_
_space_group_symop_operation_xyz
x,y,z
-x,-y,z
1/2+x,1/2-y,-z
1/2-x,1/2+y,-z
loop_
_atom_site_type_symbol
_atom_site_label
_atom_site_fract_x
_atom_site_fract_y
_atom_site_fract_z
Si Si1 0.045029 0.597311 0.937087
Si Si2 0.416331 0.893429 0.385452
Si Si3 0.429560 0.177003 0.642364
Si Si4 0.327509 0.245407 0.530844
Si Si5 0.745700 0.765548 0.852664
Si Si6 0.311314 0.904182 0.424907
Si Si7 0.998655 0.179878 0.630002
Si Si8 0.762014 0.109742 0.748500
O O1 0.080531 0.487087 0.818576
O O2 0.000000 0.500000 0.003566
O O3 0.029961 0.739923 0.803398
O O4 0.071435 0.664927 0.124249
O O5 0.363804 0.836233 0.426740
O O6 0.448629 0.743160 0.381090
O O7 0.434481 0.005144 0.557236
O O8 0.382587 0.259003 0.564942
O O9 0.472715 0.282769 0.574019
O O10 0.302857 0.260013 0.740162
O O11 0.308787 0.376594 0.384307
O O12 0.313537 0.087621 0.423850
O O13 0.785641 0.652950 0.769630
O O14 0.762502 0.939820 0.833627
O O15 0.737434 0.732189 0.078375
O O16 0.283333 0.848461 0.616861
O O17 0.000000 0.000000 0.670186
#
# Coordination Sequence:
#
# PCOD8155873 Si02
#       8
#     4   4   4   4   4   4   4   4
#     4   9  18  34  56  79 103 136 182 221 255 310
#     4   9  19  35  56  78 103 137 179 220 256 308
#     4  10  19  35  58  78 101 139 181 219 259 309
#     4   9  20  35  54  78 103 135 177 220 259 308
#     4  10  20  34  54  77 107 140 173 216 264 310
#     4   9  19  35  54  76 104 138 178 218 261 313
#     4  10  21  35  52  79 113 141 168 215 272 316
#     4  10  20  35  54  79 108 140 176 217 264 316
#
# _framework density 18.772984000000001
#
# number of rings (size 3 to 8) (size 9 to 14) (size 15 to 20)
#    0.000    2.500    0.000    2.625    0.000    8.500 
#    0.000    0.000    0.000    0.000    0.000    0.000 
#    0.000    0.000    0.000    0.000    0.000    0.000 
#
# Total GULP energy -396849.220616 kJ/mol
# GULP energy per Si atom -12401.538144 kJ/mol
# Density = 1.873026 g / cm^3
# Si number density = 18.772984 Si / 1000 Ang^3
#
#
#
# Elastic Constant Matrix: (Units=GPa)
#
#
# Indices 1 2 3 4 5 6 
#
# 1 98.8949 31.4615 37.0302 0.0000 0.0000 0.0000
# 2 31.4615 66.9671 25.4687 0.0000 0.0000 0.0000
# 3 37.0302 25.4687 109.8898 0.0000 0.0000 0.0000
# 4 0.0000 0.0000 0.0000 24.1587 0.0000 0.0000
# 5 0.0000 0.0000 0.0000 0.0000 20.4052 0.0000
# 6 0.0000 0.0000 0.0000 0.0000 0.0000 26.3929
#
#
#
# Elastic Compliance Matrix: (Units=1/GPa)
#
#
# Indices 1 2 3 4 5 6 
#
# 1 0.012846 -0.004813 -0.003213 0.000000 0.000000 0.000000
# 2 -0.004813 0.018180 -0.002591 0.000000 0.000000 0.000000
# 3 -0.003213 -0.002591 0.010783 0.000000 0.000000 0.000000
# 4 0.000000 0.000000 0.000000 0.041393 0.000000 0.000000
# 5 0.000000 0.000000 0.000000 0.000000 0.049007 0.000000
# 6 0.000000 0.000000 0.000000 0.000000 0.000000 0.037889
#
#
# Mechanical properties :
#
#
# Convention : Reuss Voigt Hill
#
# Bulk Modulus (GPa) = 48.60676 51.51920 50.06298
# Shear Modulus (GPa) = 25.22811 26.31080 25.76945
#
# Velocity S-wave (km/s) = 3.66984 3.74776 3.70900
# Velocity P-wave (km/s) = 6.62608 6.79929 6.71325
#
# Compressibility (1/GPa) = 0.02057327
#
# Stress axis : x y z
#
# Youngs Moduli (GPa) = 77.84446 55.00698 92.73464
#
# Poissons Ratio (x) = 0.26475 0.29799
# Poissons Ratio (y) = 0.37467 0.24032
# Poissons Ratio (z) = 0.25014 0.14255
#
# Static dielectric constant tensor:
#      x y z
#    x 3.487720 0.000000 0.000000 
#    y 0.000000 3.250260 0.000000 
#    z 0.000000 0.000000 3.388840 
# 
# 
# High freq. dielectric constant tensor:
#      x y z
#    x 1.729720 0.000000 0.000000 
#    y 0.000000 1.712520 0.000000 
#    z 0.000000 0.000000 1.729900 
# 
# From -- ./inp_files/2295.got.cif
#   From: 2010.03.12/outbox.cif.g09.slc.cpg/sg18_2_cif.got.tgz:2295.got - 2010.04.10 18:53:55.
