data_PCOD8155271
_publ_section_title
;
Structure prediction by ZEFSAII (Michael W. Deem and Ramdas Pophale) SiO2 
 PCOD8155271
Probable space group: P 2 2 2
;
_chemical_formula_sum "Si O2"
_cell_formula_units_Z 32
_cell_length_a 8.681023
_cell_length_b 15.804204
_cell_length_c 12.107067
_cell_angle_alpha 90.000000
_cell_angle_beta 90.000000
_cell_angle_gamma 90.000000
_cell_volume 1661.049136
_symmetry_space_group_name_H-M "P 2 2 2"
_symmetry_group_IT_number 16
_symmetry_cell_setting 'orthorhombic'
loop_
_space_group_symop_operation_xyz
x,y,z
-x,-y,z
x,-y,-z
-x,y,-z
loop_
_atom_site_type_symbol
_atom_site_label
_atom_site_fract_x
_atom_site_fract_y
_atom_site_fract_z
Si Si1 0.165025 0.582470 0.453087
Si Si2 0.109923 0.271100 0.102756
Si Si3 0.316556 0.165264 0.260502
Si Si4 0.660167 0.834445 0.690449
Si Si5 0.658663 0.736141 0.476380
Si Si6 0.173155 0.666745 0.229190
Si Si7 0.320425 0.402434 0.984453
Si Si8 0.817642 0.999859 0.372738
O O1 0.261500 0.500000 0.500000
O O2 0.205379 0.673153 0.501225
O O3 0.171597 0.593425 0.321520
O O4 0.000000 0.565467 0.500000
O O5 0.217646 0.195544 0.152971
O O6 0.000963 0.311607 0.195400
O O7 0.223889 0.346087 0.069138
O O8 0.000000 0.239371 0.000000
O O9 0.500366 0.151483 0.241182
O O10 0.309386 0.237942 0.351810
O O11 0.242536 0.080852 0.307592
O O12 0.641635 0.816501 0.559291
O O13 0.750618 0.755727 0.740176
O O14 0.758205 0.920028 0.697263
O O15 0.500000 0.684559 0.500000
O O16 0.277793 0.624617 0.137574
O O17 0.275897 0.500000 0.000000
O O18 0.500000 0.385529 0.000000
O O19 0.758706 0.000000 0.500000
O O20 0.000000 0.000000 0.370699
#
# Coordination Sequence:
#
# PCOD8155271 Si02
#       8
#     4   4   4   4   4   4   4   4
#     4  10  21  34  50  77 113 151 190 228 279 361
#     4  10  22  38  60  87 114 152 202 252 305 363
#     4  11  20  35  59  83 117 160 192 242 301 343
#     4  10  20  36  56  84 120 154 196 234 289 367
#     4   9  19  33  51  77 110 149 190 229 278 345
#     4  10  21  38  58  81 115 154 192 247 305 352
#     4  10  22  40  62  88 113 146 203 262 304 353
#     4  11  22  34  55  90 125 158 197 243 291 360
#
# _framework density 19.264935000000001
#
# number of rings (size 3 to 8) (size 9 to 14) (size 15 to 20)
#    0.000    1.875    1.250    2.625    0.000    7.000 
#    0.000    2.500    0.000    8.625    0.000   11.375 
#    0.000    0.000    0.000    0.000    0.000    0.000 
#
# Total GULP energy -396467.403482 kJ/mol
# GULP energy per Si atom -12389.606359 kJ/mol
# Density = 1.922109 g / cm^3
# Si number density = 19.264935 Si / 1000 Ang^3
#
#
#
# Elastic Constant Matrix: (Units=GPa)
#
#
# Indices 1 2 3 4 5 6 
#
# 1 114.1968 64.3311 50.6926 0.0000 0.0000 0.0000
# 2 64.3311 123.6453 62.4171 0.0000 0.0000 0.0000
# 3 50.6926 62.4171 101.7467 0.0000 0.0000 0.0000
# 4 0.0000 0.0000 0.0000 56.7974 0.0000 0.0000
# 5 0.0000 0.0000 0.0000 0.0000 29.0243 0.0000
# 6 0.0000 0.0000 0.0000 0.0000 0.0000 57.4631
#
#
#
# Elastic Compliance Matrix: (Units=1/GPa)
#
#
# Indices 1 2 3 4 5 6 
#
# 1 0.013158 -0.005123 -0.003413 0.000000 0.000000 0.000000
# 2 -0.005123 0.013710 -0.005858 0.000000 0.000000 0.000000
# 3 -0.003413 -0.005858 0.015122 0.000000 0.000000 0.000000
# 4 0.000000 0.000000 0.000000 0.017606 0.000000 0.000000
# 5 0.000000 0.000000 0.000000 0.000000 0.034454 0.000000
# 6 0.000000 0.000000 0.000000 0.000000 0.000000 0.017402
#
#
# Mechanical properties :
#
#
# Convention : Reuss Voigt Hill
#
# Bulk Modulus (GPa) = 75.74364 77.16338 76.45351
# Shear Modulus (GPa) = 34.56803 39.46683 37.01743
#
# Velocity S-wave (km/s) = 4.24057 4.53110 4.38824
# Velocity P-wave (km/s) = 7.96108 8.21676 8.08993
#
# Compressibility (1/GPa) = 0.01320243
#
# Stress axis : x y z
#
# Youngs Moduli (GPa) = 76.00097 72.93728 66.12683
#
# Poissons Ratio (x) = 0.37366 0.22567
# Poissons Ratio (y) = 0.38935 0.38739
# Poissons Ratio (z) = 0.25937 0.42729
#
# Static dielectric constant tensor:
#      x y z
#    x 3.201130 0.000000 0.000000 
#    y 0.000000 3.616660 0.000000 
#    z 0.000000 0.000000 2.686030 
# 
# 
# High freq. dielectric constant tensor:
#      x y z
#    x 1.763330 0.000000 0.000000 
#    y 0.000000 1.751510 0.000000 
#    z 0.000000 0.000000 1.736940 
# 
# From -- ./inp_files/6620.got.cif
#   From: 2010.03.12/outbox.cif.g09.slc.cpg/sg16_4_cif.got.tgz:6620.got - 2010.03.31 00:51:45.
