data_PCOD8155388
_publ_section_title
;
Structure prediction by ZEFSAII (Michael W. Deem and Ramdas Pophale) SiO2 
 PCOD8155388
Probable space group: P 2 2 21
;
_chemical_formula_sum "Si O2"
_cell_formula_units_Z 24
_cell_length_a 10.434247
_cell_length_b 5.034699
_cell_length_c 24.387844
_cell_angle_alpha 90.000000
_cell_angle_beta 90.000000
_cell_angle_gamma 90.000000
_cell_volume 1281.173753
_symmetry_space_group_name_H-M "P 2 2 21"
_symmetry_group_IT_number 17
_symmetry_cell_setting 'orthorhombic'
loop_
_space_group_symop_operation_xyz
x,y,z
-x,-y,1/2+z
x,-y,-z
-x,y,1/2-z
loop_
_atom_site_type_symbol
_atom_site_label
_atom_site_fract_x
_atom_site_fract_y
_atom_site_fract_z
Si Si1 0.699743 0.556590 0.850120
Si Si2 0.732589 0.954104 0.681946
Si Si3 0.186524 0.944117 0.299170
Si Si4 0.972320 0.041048 0.616177
Si Si5 0.437922 0.453691 0.809690
Si Si6 0.910892 0.540546 0.936378
O O1 0.761592 0.354827 0.805937
O O2 0.548340 0.498529 0.855516
O O3 0.770983 0.517420 0.908191
O O4 0.714609 0.855841 0.828518
O O5 0.821997 0.993294 0.735109
O O6 0.822323 0.997763 0.628840
O O7 0.614544 0.157605 0.682701
O O8 0.677347 0.657852 0.680444
O O9 0.047603 0.979144 0.326220
O O10 0.991455 0.325599 0.588319
O O11 0.024545 0.824333 0.573621
O O12 0.500000 0.495345 0.750000
O O13 0.887314 0.500000 0.000000
#
# Coordination Sequence:
#
# PCOD8155388 Si02
#       6
#     4   4   4   4   4   4
#     4  10  20  33  53  82 105 142 190 220 257 318
#     4  12  21  33  53  79 119 152 177 209 270 325
#     4  10  18  33  51  77 115 145 175 219 256 324
#     4  10  22  35  55  85 107 137 186 225 280 327
#     4  12  21  33  52  78 120 157 183 205 253 332
#     4  10  21  40  62  77 100 135 183 246 288 314
#
# _framework density 18.732821999999999
#
# number of rings (size 3 to 8) (size 9 to 14) (size 15 to 20)
#    0.000    1.333    3.333    3.500    0.000    0.000 
#    0.000    6.667    0.000    6.000    0.000    0.000 
#    0.000    0.000    0.000    0.000    0.000    0.000 
#
# Total GULP energy -297680.611720 kJ/mol
# GULP energy per Si atom -12403.358822 kJ/mol
# Density = 1.869019 g / cm^3
# Si number density = 18.732822 Si / 1000 Ang^3
#
#
#
# Elastic Constant Matrix: (Units=GPa)
#
#
# Indices 1 2 3 4 5 6 
#
# 1 77.6895 7.0494 30.9908 0.0000 0.0000 0.0000
# 2 7.0494 67.4218 0.9573 0.0000 0.0000 0.0000
# 3 30.9908 0.9573 79.8341 0.0000 0.0000 0.0000
# 4 0.0000 0.0000 0.0000 17.3715 0.0000 0.0000
# 5 0.0000 0.0000 0.0000 0.0000 15.4455 0.0000
# 6 0.0000 0.0000 0.0000 0.0000 0.0000 28.9039
#
#
#
# Elastic Compliance Matrix: (Units=1/GPa)
#
#
# Indices 1 2 3 4 5 6 
#
# 1 0.015385 -0.001524 -0.005954 0.000000 0.000000 0.000000
# 2 -0.001524 0.014986 0.000412 0.000000 0.000000 0.000000
# 3 -0.005954 0.000412 0.014832 0.000000 0.000000 0.000000
# 4 0.000000 0.000000 0.000000 0.057565 0.000000 0.000000
# 5 0.000000 0.000000 0.000000 0.000000 0.064744 0.000000
# 6 0.000000 0.000000 0.000000 0.000000 0.000000 0.034597
#
#
# Mechanical properties :
#
#
# Convention : Reuss Voigt Hill
#
# Bulk Modulus (GPa) = 32.18481 33.66004 32.92242
# Shear Modulus (GPa) = 22.06540 24.74070 23.40305
#
# Velocity S-wave (km/s) = 3.43578 3.63811 3.53839
# Velocity P-wave (km/s) = 5.74088 5.97120 5.85717
#
# Compressibility (1/GPa) = 0.03107056
#
# Stress axis : x y z
#
# Youngs Moduli (GPa) = 64.99768 66.73113 67.42018
#
# Poissons Ratio (x) = 0.10170 0.40143
# Poissons Ratio (y) = 0.09906 -0.02777
# Poissons Ratio (z) = 0.38700 -0.02749
#
# Static dielectric constant tensor:
#      x y z
#    x 3.390520 0.000000 0.000000 
#    y 0.000000 3.604280 0.000000 
#    z 0.000000 0.000000 3.129030 
# 
# 
# High freq. dielectric constant tensor:
#      x y z
#    x 1.723260 0.000000 0.000000 
#    y 0.000000 1.749310 0.000000 
#    z 0.000000 0.000000 1.687770 
# 
# From -- ./inp_files/10396.got.cif
#   From: 2010.03.12/outbox.cif.g09.slc.cpg/sg17_6_cif.got.tgz:10396.got - 2010.04.10 18:46:23.
