data_PCOD8155889
_publ_section_title
;
Structure prediction by ZEFSAII (Michael W. Deem and Ramdas Pophale) SiO2 
 PCOD8155889
Probable space group: P 21 21 2
;
_chemical_formula_sum "Si O2"
_cell_formula_units_Z 30
_cell_length_a 15.242830
_cell_length_b 11.707500
_cell_length_c 8.082280
_cell_angle_alpha 90.000000
_cell_angle_beta 90.000000
_cell_angle_gamma 90.000000
_cell_volume 1442.326771
_symmetry_space_group_name_H-M "P 21 21 2"
_symmetry_group_IT_number 18
_symmetry_cell_setting 'orthorhombic'
loop_
_space_group_symop_operation_xyz
x,y,z
-x,-y,z
1/2+x,1/2-y,-z
1/2-x,1/2+y,-z
loop_
_atom_site_type_symbol
_atom_site_label
_atom_site_fract_x
_atom_site_fract_y
_atom_site_fract_z
Si Si1 0.883324 0.678747 0.474767
Si Si2 0.347351 0.801316 0.909066
Si Si3 0.000000 0.500000 0.647782
Si Si4 0.571127 0.423928 0.560211
Si Si5 0.486127 0.624907 0.926843
Si Si6 0.776601 0.083932 0.324099
Si Si7 0.163911 0.756459 0.055041
Si Si8 0.355383 0.022602 0.095509
O O1 0.872558 0.679831 0.279427
O O2 0.900231 0.809160 0.536874
O O3 0.795032 0.628178 0.549079
O O4 0.964609 0.600827 0.530383
O O5 0.396627 0.689131 0.983619
O O6 0.242310 0.793430 0.930520
O O7 0.388145 0.907721 0.007332
O O8 0.075275 0.555676 0.762299
O O9 0.500000 0.500000 0.457600
O O10 0.520240 0.386728 0.728140
O O11 0.654255 0.505294 0.584066
O O12 0.500000 0.500000 0.006905
O O13 0.569593 0.694322 0.994405
O O14 0.816574 0.198277 0.240048
O O15 0.738003 0.001573 0.181761
O O16 0.156136 0.619663 0.043607
#
# Coordination Sequence:
#
# PCOD8155889 Si02
#       8
#     4   4   2   4   4   4   4   4
#     4  10  23  41  65  95 133 169 216 265 339 403
#     4  10  23  38  61  98 131 163 224 271 325 403
#     4  10  22  42  62  88 126 176 210 272 326 378
#     4  10  19  40  63  89 124 167 215 263 320 392
#     4  10  19  36  64  90 121 170 215 261 323 385
#     4  10  21  41  64  92 128 173 208 270 328 398
#     4  11  21  37  68  92 122 175 209 270 331 382
#     4  10  21  38  62  89 130 161 219 266 324 381
#
# _framework density 20.799724999999999
#
# number of rings (size 3 to 8) (size 9 to 14) (size 15 to 20)
#    0.000    1.867    2.667    2.400    1.867    3.733 
#    7.200    0.000    2.933    0.000    0.000    0.000 
#    0.000    0.000    0.000    0.000    0.000    0.000 
#
# Total GULP energy -371785.855019 kJ/mol
# GULP energy per Si atom -12392.861834 kJ/mol
# Density = 2.075238 g / cm^3
# Si number density = 20.799725 Si / 1000 Ang^3
#
#
#
# Elastic Constant Matrix: (Units=GPa)
#
#
# Indices 1 2 3 4 5 6 
#
# 1 128.6506 73.4833 26.1569 0.0000 0.0000 0.0000
# 2 73.4833 176.6597 40.5237 0.0000 0.0000 0.0000
# 3 26.1569 40.5237 42.4261 0.0000 0.0000 0.0000
# 4 0.0000 0.0000 0.0000 29.4345 0.0000 0.0000
# 5 0.0000 0.0000 0.0000 0.0000 26.6853 0.0000
# 6 0.0000 0.0000 0.0000 0.0000 0.0000 39.7902
#
#
#
# Elastic Compliance Matrix: (Units=1/GPa)
#
#
# Indices 1 2 3 4 5 6 
#
# 1 0.010474 -0.003682 -0.002940 0.000000 0.000000 0.000000
# 2 -0.003682 0.008543 -0.005890 0.000000 0.000000 0.000000
# 3 -0.002940 -0.005890 0.031009 0.000000 0.000000 0.000000
# 4 0.000000 0.000000 0.000000 0.033974 0.000000 0.000000
# 5 0.000000 0.000000 0.000000 0.000000 0.037474 0.000000
# 6 0.000000 0.000000 0.000000 0.000000 0.000000 0.025132
#
#
# Mechanical properties :
#
#
# Convention : Reuss Voigt Hill
#
# Bulk Modulus (GPa) = 39.99815 69.78489 54.89152
# Shear Modulus (GPa) = 27.78313 33.02016 30.40165
#
# Velocity S-wave (km/s) = 3.65875 3.98870 3.82728
# Velocity P-wave (km/s) = 6.09266 7.40518 6.78075
#
# Compressibility (1/GPa) = 0.02500115
#
# Stress axis : x y z
#
# Youngs Moduli (GPa) = 95.47350 117.04933 32.24852
#
# Poissons Ratio (x) = 0.43101 0.09482
# Poissons Ratio (y) = 0.35156 0.18995
# Poissons Ratio (z) = 0.28073 0.68943
#
# Static dielectric constant tensor:
#      x y z
#    x 4.001730 0.000000 0.000000 
#    y 0.000000 4.191760 0.000000 
#    z 0.000000 0.000000 3.374860 
# 
# 
# High freq. dielectric constant tensor:
#      x y z
#    x 1.831360 0.000000 0.000000 
#    y 0.000000 1.828880 0.000000 
#    z 0.000000 0.000000 1.772290 
# 
# From -- ./inp_files/4288.got.cif
#   From: 2010.03.12/outbox.cif.g09.slc.cpg/sg18_3_cif.got.tgz:4288.got - 2010.04.10 18:53:55.
