data_PCOD8155580
_publ_section_title
;
Structure prediction by ZEFSAII (Michael W. Deem and Ramdas Pophale) SiO2 
 PCOD8155580
Probable space group: P 2 2 21
;
_chemical_formula_sum "Si O2"
_cell_formula_units_Z 16
_cell_length_a 12.742280
_cell_length_b 9.262566
_cell_length_c 7.277609
_cell_angle_alpha 90.000000
_cell_angle_beta 90.000000
_cell_angle_gamma 90.000000
_cell_volume 858.948604
_symmetry_space_group_name_H-M "P 2 2 21"
_symmetry_group_IT_number 17
_symmetry_cell_setting 'orthorhombic'
loop_
_space_group_symop_operation_xyz
x,y,z
-x,-y,1/2+z
x,-y,-z
-x,y,1/2-z
loop_
_atom_site_type_symbol
_atom_site_label
_atom_site_fract_x
_atom_site_fract_y
_atom_site_fract_z
Si Si1 0.103311 0.630133 0.360847
Si Si2 0.320463 0.631301 0.214257
Si Si3 0.739422 0.829942 0.984907
Si Si4 0.385908 0.319705 0.194451
O O1 0.080079 0.500000 0.500000
O O2 0.195599 0.591467 0.214050
O O3 0.142734 0.769235 0.478939
O O4 0.000000 0.672837 0.250000
O O5 0.340904 0.755429 0.367067
O O6 0.378905 0.483694 0.269990
O O7 0.363090 0.688616 0.021582
O O8 0.701313 0.783562 0.783992
O O9 0.738442 0.000000 0.000000
O O10 0.500000 0.259476 0.250000
#
# Coordination Sequence:
#
# PCOD8155580 Si02
#       4
#     4   4   4   4
#     4  10  21  38  64  90 122 157 212 257 306 357
#     4   9  22  38  63  91 119 155 213 254 299 354
#     4  10  22  43  58  89 137 157 199 252 308 386
#     4  11  22  38  65  92 119 166 209 258 304 353
#
# _framework density 18.627423
#
# number of rings (size 3 to 8) (size 9 to 14) (size 15 to 20)
#    1.500    0.500    2.500    0.750   10.500    1.000 
#    4.500    3.750    0.000    0.000    0.000    0.000 
#    0.000    0.000    0.000    0.000    0.000    0.000 
#
# Total GULP energy -198253.475766 kJ/mol
# GULP energy per Si atom -12390.842235 kJ/mol
# Density = 1.858503 g / cm^3
# Si number density = 18.627423 Si / 1000 Ang^3
#
#
#
# Elastic Constant Matrix: (Units=GPa)
#
#
# Indices 1 2 3 4 5 6 
#
# 1 93.1387 0.9340 26.5402 0.0000 0.0000 0.0000
# 2 0.9340 126.0333 33.1669 0.0000 0.0000 0.0000
# 3 26.5402 33.1669 63.6634 0.0000 0.0000 0.0000
# 4 0.0000 0.0000 0.0000 18.9811 0.0000 0.0000
# 5 0.0000 0.0000 0.0000 0.0000 35.7414 0.0000
# 6 0.0000 0.0000 0.0000 0.0000 0.0000 6.8685
#
#
#
# Elastic Compliance Matrix: (Units=1/GPa)
#
#
# Indices 1 2 3 4 5 6 
#
# 1 0.012415 0.001472 -0.005943 0.000000 0.000000 0.000000
# 2 0.001472 0.009370 -0.005495 0.000000 0.000000 0.000000
# 3 -0.005943 -0.005495 0.021048 0.000000 0.000000 0.000000
# 4 0.000000 0.000000 0.000000 0.052684 0.000000 0.000000
# 5 0.000000 0.000000 0.000000 0.000000 0.027979 0.000000
# 6 0.000000 0.000000 0.000000 0.000000 0.000000 0.145592
#
#
# Mechanical properties :
#
#
# Convention : Reuss Voigt Hill
#
# Bulk Modulus (GPa) = 43.66556 44.90196 44.28376
# Shear Modulus (GPa) = 16.85479 27.13116 21.99297
#
# Velocity S-wave (km/s) = 3.01131 3.82057 3.43983
# Velocity P-wave (km/s) = 5.96516 6.60454 6.29298
#
# Compressibility (1/GPa) = 0.02290135
#
# Stress axis : x y z
#
# Youngs Moduli (GPa) = 80.54610 106.72886 47.51128
#
# Poissons Ratio (x) = -0.15709 0.28234
# Poissons Ratio (y) = -0.11855 0.26107
# Poissons Ratio (z) = 0.47865 0.58646
#
# Static dielectric constant tensor:
#      x y z
#    x 3.286570 0.000000 0.000000 
#    y 0.000000 3.124370 0.000000 
#    z 0.000000 0.000000 3.527510 
# 
# 
# High freq. dielectric constant tensor:
#      x y z
#    x 1.713000 0.000000 0.000000 
#    y 0.000000 1.698320 0.000000 
#    z 0.000000 0.000000 1.725220 
# 
# From -- ./inp_files/4544.got.cif
#   From: 2010.03.12/outbox.cif.g09.slc.cpg/sg17_3_cif.got.tgz:4544.got - 2010.04.10 18:46:23.
