data_PCOD8155416
_publ_section_title
;
Structure prediction by ZEFSAII (Michael W. Deem and Ramdas Pophale) SiO2 
 PCOD8155416
Probable space group: P 2 2 21
;
_chemical_formula_sum "Si O2"
_cell_formula_units_Z 24
_cell_length_a 14.752506
_cell_length_b 4.960620
_cell_length_c 16.682139
_cell_angle_alpha 90.000000
_cell_angle_beta 90.000000
_cell_angle_gamma 90.000000
_cell_volume 1220.825228
_symmetry_space_group_name_H-M "P 2 2 21"
_symmetry_group_IT_number 17
_symmetry_cell_setting 'orthorhombic'
loop_
_space_group_symop_operation_xyz
x,y,z
-x,-y,1/2+z
x,-y,-z
-x,y,1/2-z
loop_
_atom_site_type_symbol
_atom_site_label
_atom_site_fract_x
_atom_site_fract_y
_atom_site_fract_z
Si Si1 0.105412 0.103125 0.764772
Si Si2 0.683498 0.627333 0.637875
Si Si3 0.508036 0.244873 0.446242
Si Si4 0.787194 0.868328 0.416099
Si Si5 0.791329 0.592478 0.788235
Si Si6 0.692155 0.758441 0.945614
O O1 0.126361 0.180496 0.857981
O O2 0.158298 0.305333 0.704637
O O3 0.000000 0.131883 0.750000
O O4 0.136352 0.798877 0.748875
O O5 0.576016 0.659955 0.623889
O O6 0.730537 0.412432 0.576357
O O7 0.704633 0.545722 0.729610
O O8 0.720899 0.924839 0.626356
O O9 0.490812 0.500000 0.500000
O O10 0.408673 0.161278 0.412212
O O11 0.549387 0.000000 0.500000
O O12 0.819649 0.000000 0.500000
O O13 0.759547 0.702881 0.873041
O O14 0.687266 0.500000 0.000000
O O15 0.731311 0.000000 0.000000
#
# Coordination Sequence:
#
# PCOD8155416 Si02
#       6
#     4   4   4   4   4   4
#     4  10  21  38  58  80 107 139 177 224 277 331
#     4  10  19  31  52  79 107 141 176 215 264 318
#     4  10  19  31  50  77 109 144 179 215 257 306
#     4  10  19  32  52  78 108 138 173 218 269 323
#     4  10  21  37  57  79 105 141 179 221 276 324
#     4  10  21  37  55  77 108 145 184 223 261 310
#
# _framework density 19.658833999999999
#
# number of rings (size 3 to 8) (size 9 to 14) (size 15 to 20)
#    0.000    2.000    0.000    4.500    0.000    0.667 
#    0.000    2.500    0.000   14.000    0.000    0.000 
#    0.000    0.000    0.000    0.000    0.000    0.000 
#
# Total GULP energy -297482.171793 kJ/mol
# GULP energy per Si atom -12395.090491 kJ/mol
# Density = 1.961409 g / cm^3
# Si number density = 19.658834 Si / 1000 Ang^3
#
#
#
# Elastic Constant Matrix: (Units=GPa)
#
#
# Indices 1 2 3 4 5 6 
#
# 1 81.2566 8.1570 44.9699 0.0000 0.0000 0.0000
# 2 8.1570 93.4497 15.9791 0.0000 0.0000 0.0000
# 3 44.9699 15.9791 95.7587 0.0000 0.0000 0.0000
# 4 0.0000 0.0000 0.0000 33.4354 0.0000 0.0000
# 5 0.0000 0.0000 0.0000 0.0000 28.1617 0.0000
# 6 0.0000 0.0000 0.0000 0.0000 0.0000 25.4285
#
#
#
# Elastic Compliance Matrix: (Units=1/GPa)
#
#
# Indices 1 2 3 4 5 6 
#
# 1 0.016630 -0.000120 -0.007790 0.000000 0.000000 0.000000
# 2 -0.000120 0.011016 -0.001782 0.000000 0.000000 0.000000
# 3 -0.007790 -0.001782 0.014398 0.000000 0.000000 0.000000
# 4 0.000000 0.000000 0.000000 0.029908 0.000000 0.000000
# 5 0.000000 0.000000 0.000000 0.000000 0.035509 0.000000
# 6 0.000000 0.000000 0.000000 0.000000 0.000000 0.039326
#
#
# Mechanical properties :
#
#
# Convention : Reuss Voigt Hill
#
# Bulk Modulus (GPa) = 44.12748 45.40857 44.76803
# Shear Modulus (GPa) = 28.78121 30.82904 29.80512
#
# Velocity S-wave (km/s) = 3.83042 3.96435 3.89796
# Velocity P-wave (km/s) = 6.48523 6.64102 6.56359
#
# Compressibility (1/GPa) = 0.02266162
#
# Stress axis : x y z
#
# Youngs Moduli (GPa) = 60.13325 90.77623 69.45199
#
# Poissons Ratio (x) = 0.01086 0.54101
# Poissons Ratio (y) = 0.00719 0.12377
# Poissons Ratio (z) = 0.46842 0.16177
#
# Static dielectric constant tensor:
#      x y z
#    x 3.498760 0.000000 0.000000 
#    y 0.000000 3.800260 0.000000 
#    z 0.000000 0.000000 3.425610 
# 
# 
# High freq. dielectric constant tensor:
#      x y z
#    x 1.743560 0.000000 0.000000 
#    y 0.000000 1.791200 0.000000 
#    z 0.000000 0.000000 1.743190 
# 
# From -- ./inp_files/8608.got.cif
#   From: 2010.03.12/outbox.cif.g09.slc.cpg/sg17_5_cif.got.tgz:8608.got - 2010.04.10 18:46:23.
