data_PCOD8155421
_publ_section_title
;
Structure prediction by ZEFSAII (Michael W. Deem and Ramdas Pophale) SiO2 
 PCOD8155421
Probable space group: P 2 2 21
;
_chemical_formula_sum "Si O2"
_cell_formula_units_Z 20
_cell_length_a 10.191525
_cell_length_b 10.390478
_cell_length_c 8.384554
_cell_angle_alpha 90.000000
_cell_angle_beta 90.000000
_cell_angle_gamma 90.000000
_cell_volume 887.880806
_symmetry_space_group_name_H-M "P 2 2 21"
_symmetry_group_IT_number 17
_symmetry_cell_setting 'orthorhombic'
loop_
_space_group_symop_operation_xyz
x,y,z
-x,-y,1/2+z
x,-y,-z
-x,y,1/2-z
loop_
_atom_site_type_symbol
_atom_site_label
_atom_site_fract_x
_atom_site_fract_y
_atom_site_fract_z
Si Si1 0.640463 0.760402 0.803979
Si Si2 0.362180 0.525285 0.311939
Si Si3 0.499173 0.861653 0.435133
Si Si4 0.210368 0.855187 0.957648
Si Si5 0.881307 0.614357 0.371875
O O1 0.500000 0.824560 0.750000
O O2 0.652384 0.616777 0.734786
O O3 0.768517 0.838413 0.735788
O O4 0.619242 0.767343 0.997626
O O5 0.352606 0.500000 0.500000
O O6 0.500000 0.586374 0.250000
O O7 0.247671 0.611150 0.238155
O O8 0.500000 0.858189 0.250000
O O9 0.644297 0.818692 0.484813
O O10 0.459446 0.000000 0.500000
O O11 0.111222 0.751615 0.034484
O O12 0.164478 0.000000 0.000000
O O13 0.888704 0.500000 0.500000
O O14 0.000000 0.603223 0.250000
#
# Coordination Sequence:
#
# PCOD8155421 Si02
#       5
#     4   4   4   4   4
#     4   9  19  35  57  94 138 175 218 276 333 393
#     4  11  24  39  67 105 139 177 230 281 335 400
#     4  10  19  32  57  96 141 184 224 276 345 408
#     4  10  21  41  67  94 131 180 230 280 335 402
#     4  12  26  48  72  98 135 182 227 281 346 415
#
# _framework density 22.525545000000001
#
# number of rings (size 3 to 8) (size 9 to 14) (size 15 to 20)
#    0.000    1.600    2.000    4.200    8.400    0.000 
#    0.000    1.000    0.000    0.000    0.000    0.000 
#    0.000    0.000    0.000    0.000    0.000    0.000 
#
# Total GULP energy -247782.773920 kJ/mol
# GULP energy per Si atom -12389.138696 kJ/mol
# Density = 2.247428 g / cm^3
# Si number density = 22.525545 Si / 1000 Ang^3
#
#
#
# Elastic Constant Matrix: (Units=GPa)
#
#
# Indices 1 2 3 4 5 6 
#
# 1 88.3802 31.1712 45.2537 0.0000 0.0000 0.0000
# 2 31.1712 109.4710 25.3276 0.0000 0.0000 0.0000
# 3 45.2537 25.3276 146.8039 0.0000 0.0000 0.0000
# 4 0.0000 0.0000 0.0000 26.0156 0.0000 0.0000
# 5 0.0000 0.0000 0.0000 0.0000 35.1213 0.0000
# 6 0.0000 0.0000 0.0000 0.0000 0.0000 11.4927
#
#
#
# Elastic Compliance Matrix: (Units=1/GPa)
#
#
# Indices 1 2 3 4 5 6 
#
# 1 0.014443 -0.003211 -0.003898 0.000000 0.000000 0.000000
# 2 -0.003211 0.010228 -0.000775 0.000000 0.000000 0.000000
# 3 -0.003898 -0.000775 0.008147 0.000000 0.000000 0.000000
# 4 0.000000 0.000000 0.000000 0.038438 0.000000 0.000000
# 5 0.000000 0.000000 0.000000 0.000000 0.028473 0.000000
# 6 0.000000 0.000000 0.000000 0.000000 0.000000 0.087012
#
#
# Mechanical properties :
#
#
# Convention : Reuss Voigt Hill
#
# Bulk Modulus (GPa) = 58.64807 60.90669 59.77738
# Shear Modulus (GPa) = 24.01610 30.71941 27.36776
#
# Velocity S-wave (km/s) = 3.26877 3.69692 3.48942
# Velocity P-wave (km/s) = 6.35132 6.73206 6.54446
#
# Compressibility (1/GPa) = 0.01705086
#
# Stress axis : x y z
#
# Youngs Moduli (GPa) = 69.23657 97.76741 122.74142
#
# Poissons Ratio (x) = 0.31390 0.47849
# Poissons Ratio (y) = 0.22230 0.09512
# Poissons Ratio (z) = 0.26991 0.07576
#
# Static dielectric constant tensor:
#      x y z
#    x 3.579840 0.000000 0.000000 
#    y 0.000000 3.986270 0.000000 
#    z 0.000000 0.000000 5.517490 
# 
# 
# High freq. dielectric constant tensor:
#      x y z
#    x 1.830090 0.000000 0.000000 
#    y 0.000000 1.902260 0.000000 
#    z 0.000000 0.000000 1.909170 
# 
# From -- ./inp_files/4013.got.cif
#   From: 2010.03.12/outbox.cif.g09.slc.cpg/sg17_3_cif.got.tgz:4013.got - 2010.04.10 18:46:23.
