data_PCOD8155387
_publ_section_title
;
Structure prediction by ZEFSAII (Michael W. Deem and Ramdas Pophale) SiO2 
 PCOD8155387
Probable space group: P 2 2 21
;
_chemical_formula_sum "Si O2"
_cell_formula_units_Z 24
_cell_length_a 8.450510
_cell_length_b 9.717828
_cell_length_c 14.767637
_cell_angle_alpha 90.000000
_cell_angle_beta 90.000000
_cell_angle_gamma 90.000000
_cell_volume 1212.727251
_symmetry_space_group_name_H-M "P 2 2 21"
_symmetry_group_IT_number 17
_symmetry_cell_setting 'orthorhombic'
loop_
_space_group_symop_operation_xyz
x,y,z
-x,-y,1/2+z
x,-y,-z
-x,y,1/2-z
loop_
_atom_site_type_symbol
_atom_site_label
_atom_site_fract_x
_atom_site_fract_y
_atom_site_fract_z
Si Si1 0.841997 0.130805 0.941652
Si Si2 0.684418 0.030417 0.760891
Si Si3 0.115121 0.760878 0.166445
Si Si4 0.836671 0.466742 0.404413
Si Si5 0.805094 0.621134 0.939628
Si Si6 0.811441 0.275483 0.250951
O O1 0.728378 0.095403 0.857815
O O2 0.015221 0.190036 0.919302
O O3 0.759355 0.242619 0.005135
O O4 0.879206 0.000000 0.000000
O O5 0.500000 0.007034 0.750000
O O6 0.737385 0.136953 0.682524
O O7 0.768580 0.884298 0.747254
O O8 0.167408 0.604098 0.155922
O O9 0.000000 0.774932 0.250000
O O10 0.747257 0.500000 0.500000
O O11 0.748758 0.351388 0.342560
O O12 0.009705 0.411894 0.430399
O O13 0.738798 0.645594 0.837448
O O14 0.724174 0.500000 0.000000
O O15 0.000000 0.289068 0.250000
#
# Coordination Sequence:
#
# PCOD8155387 Si02
#       6
#     4   4   4   4   4   4
#     4  11  20  36  64  94 118 152 209 258 304 364
#     4  11  25  41  56  84 128 174 202 242 306 373
#     4  10  20  35  61  90 118 148 199 251 304 355
#     4  10  19  33  57  96 121 145 189 260 315 358
#     4  10  18  32  61  96 119 144 196 261 313 352
#     4  10  20  36  62  88 119 156 205 256 303 361
#
# _framework density 19.790105000000001
#
# number of rings (size 3 to 8) (size 9 to 14) (size 15 to 20)
#    0.000    1.667    5.000    3.000    4.667    0.000 
#    0.000    3.333    0.000    0.000    0.000    0.000 
#    0.000    0.000    0.000    0.000    0.000    0.000 
#
# Total GULP energy -297400.633791 kJ/mol
# GULP energy per Si atom -12391.693075 kJ/mol
# Density = 1.974506 g / cm^3
# Si number density = 19.790105 Si / 1000 Ang^3
#
#
#
# Elastic Constant Matrix: (Units=GPa)
#
#
# Indices 1 2 3 4 5 6 
#
# 1 23.4978 3.2137 12.5434 0.0000 0.0000 0.0000
# 2 3.2137 137.0908 47.7802 0.0000 0.0000 0.0000
# 3 12.5434 47.7802 108.0819 0.0000 0.0000 0.0000
# 4 0.0000 0.0000 0.0000 53.4334 0.0000 0.0000
# 5 0.0000 0.0000 0.0000 0.0000 2.8025 0.0000
# 6 0.0000 0.0000 0.0000 0.0000 0.0000 3.4116
#
#
#
# Elastic Compliance Matrix: (Units=1/GPa)
#
#
# Indices 1 2 3 4 5 6 
#
# 1 0.045464 0.000914 -0.005680 0.000000 0.000000 0.000000
# 2 0.000914 0.008641 -0.003926 0.000000 0.000000 0.000000
# 3 -0.005680 -0.003926 0.011647 0.000000 0.000000 0.000000
# 4 0.000000 0.000000 0.000000 0.018715 0.000000 0.000000
# 5 0.000000 0.000000 0.000000 0.000000 0.356820 0.000000
# 6 0.000000 0.000000 0.000000 0.000000 0.000000 0.293120
#
#
# Mechanical properties :
#
#
# Convention : Reuss Voigt Hill
#
# Bulk Modulus (GPa) = 20.67496 43.97168 32.32332
# Shear Modulus (GPa) = 6.51114 25.60505 16.05809
#
# Velocity S-wave (km/s) = 1.81583 3.60089 2.85163
# Velocity P-wave (km/s) = 3.85566 6.28934 5.21641
#
# Compressibility (1/GPa) = 0.04836769
#
# Stress axis : x y z
#
# Youngs Moduli (GPa) = 21.99526 115.72188 85.85793
#
# Poissons Ratio (x) = -0.10577 0.48771
# Poissons Ratio (y) = -0.02010 0.33710
# Poissons Ratio (z) = 0.12494 0.45435
#
# Static dielectric constant tensor:
#      x y z
#    x 3.010200 0.000000 0.000000 
#    y 0.000000 3.927140 0.000000 
#    z 0.000000 0.000000 4.222360 
# 
# 
# High freq. dielectric constant tensor:
#      x y z
#    x 1.696340 0.000000 0.000000 
#    y 0.000000 1.795650 0.000000 
#    z 0.000000 0.000000 1.792620 
# 
# From -- ./inp_files/8092.got.cif
#   From: 2010.03.12/outbox.cif.g09.slc.cpg/sg17_5_cif.got.tgz:8092.got - 2010.04.10 18:46:23.
