data_PCOD8155638
_publ_section_title
;
Structure prediction by ZEFSAII (Michael W. Deem and Ramdas Pophale) SiO2 
 PCOD8155638
Probable space group: P 2 2 21
;
_chemical_formula_sum "Si O2"
_cell_formula_units_Z 18
_cell_length_a 6.488551
_cell_length_b 17.334642
_cell_length_c 7.443663
_cell_angle_alpha 90.000000
_cell_angle_beta 90.000000
_cell_angle_gamma 90.000000
_cell_volume 837.238715
_symmetry_space_group_name_H-M "P 2 2 21"
_symmetry_group_IT_number 17
_symmetry_cell_setting 'orthorhombic'
loop_
_space_group_symop_operation_xyz
x,y,z
-x,-y,1/2+z
x,-y,-z
-x,y,1/2-z
loop_
_atom_site_type_symbol
_atom_site_label
_atom_site_fract_x
_atom_site_fract_y
_atom_site_fract_z
Si Si1 0.637462 0.302026 0.416806
Si Si2 0.500000 0.597526 0.250000
Si Si3 0.781644 0.500000 0.000000
Si Si4 0.335313 0.000000 0.500000
Si Si5 0.000000 0.382067 0.250000
Si Si6 0.623007 0.862980 0.430680
Si Si7 0.000000 0.934362 0.250000
O O1 0.500000 0.330456 0.250000
O O2 0.592056 0.347796 0.598195
O O3 0.863731 0.322411 0.358550
O O4 0.618693 0.210856 0.442774
O O5 0.659645 0.539485 0.161214
O O6 0.911737 0.433885 0.092256
O O7 0.490736 0.071219 0.466729
O O8 0.180609 0.012454 0.666500
O O9 0.500000 0.843083 0.250000
O O10 0.866156 0.883578 0.392171
#
# Coordination Sequence:
#
# PCOD8155638 Si02
#       7
#     4   2   2   2   2   4   2
#     4  12  26  47  69 106 147 189 231 294 362 425
#     4  12  24  48  76 100 148 184 232 292 364 426
#     4  12  24  46  76 106 138 186 236 298 348 434
#     4  10  22  42  68 102 136 188 242 294 348 422
#     4  12  26  44  72 112 136 184 246 284 360 433
#     4  10  23  43  69  96 143 191 238 295 352 421
#     4  10  22  40  68 100 132 186 246 292 352 411
#
# _framework density 21.499244999999998
#
# number of rings (size 3 to 8) (size 9 to 14) (size 15 to 20)
#    0.000    0.889    3.333    3.333    0.000    9.778 
#    0.000    1.111    0.000    0.000    0.000    0.000 
#    0.000    0.000    0.000    0.000    0.000    0.000 
#
# Total GULP energy -223071.917444 kJ/mol
# GULP energy per Si atom -12392.884302 kJ/mol
# Density = 2.145031 g / cm^3
# Si number density = 21.499245 Si / 1000 Ang^3
#
#
#
# Elastic Constant Matrix: (Units=GPa)
#
#
# Indices 1 2 3 4 5 6 
#
# 1 143.5435 68.2763 53.9437 0.0000 0.0000 0.0000
# 2 68.2763 148.9591 56.6697 0.0000 0.0000 0.0000
# 3 53.9437 56.6697 123.7245 0.0000 0.0000 0.0000
# 4 0.0000 0.0000 0.0000 39.8956 0.0000 0.0000
# 5 0.0000 0.0000 0.0000 0.0000 46.6979 0.0000
# 6 0.0000 0.0000 0.0000 0.0000 0.0000 38.8038
#
#
#
# Elastic Compliance Matrix: (Units=1/GPa)
#
#
# Indices 1 2 3 4 5 6 
#
# 1 0.009561 -0.003387 -0.002617 0.000000 0.000000 0.000000
# 2 -0.003387 0.009329 -0.002797 0.000000 0.000000 0.000000
# 3 -0.002617 -0.002797 0.010505 0.000000 0.000000 0.000000
# 4 0.000000 0.000000 0.000000 0.025065 0.000000 0.000000
# 5 0.000000 0.000000 0.000000 0.000000 0.021414 0.000000
# 6 0.000000 0.000000 0.000000 0.000000 0.000000 0.025771
#
#
# Mechanical properties :
#
#
# Convention : Reuss Voigt Hill
#
# Bulk Modulus (GPa) = 84.79038 86.00070 85.39554
# Shear Modulus (GPa) = 40.59171 40.90196 40.74683
#
# Velocity S-wave (km/s) = 4.34989 4.36648 4.35819
# Velocity P-wave (km/s) = 8.04693 8.09383 8.07041
#
# Compressibility (1/GPa) = 0.01179379
#
# Stress axis : x y z
#
# Youngs Moduli (GPa) = 104.59190 107.18746 95.19627
#
# Poissons Ratio (x) = 0.36300 0.24917
# Poissons Ratio (y) = 0.35421 0.26623
# Poissons Ratio (z) = 0.27376 0.29977
#
# Static dielectric constant tensor:
#      x y z
#    x 4.083870 0.000000 0.000000 
#    y 0.000000 3.981990 0.000000 
#    z 0.000000 0.000000 3.978820 
# 
# 
# High freq. dielectric constant tensor:
#      x y z
#    x 1.853480 0.000000 0.000000 
#    y 0.000000 1.852780 0.000000 
#    z 0.000000 0.000000 1.855280 
# 
# From -- ./inp_files/3460.got.cif
#   From: 2010.03.12/outbox.cif.g09.slc.cpg/sg17_2_cif.got.tgz:3460.got - 2010.04.10 18:46:23.
