data_PCOD8155558
_publ_section_title
;
Structure prediction by ZEFSAII (Michael W. Deem and Ramdas Pophale) SiO2 
 PCOD8155558
Probable space group: P 2 2 21
;
_chemical_formula_sum "Si O2"
_cell_formula_units_Z 16
_cell_length_a 7.669253
_cell_length_b 10.674689
_cell_length_c 8.513465
_cell_angle_alpha 90.000000
_cell_angle_beta 90.000000
_cell_angle_gamma 90.000000
_cell_volume 696.970908
_symmetry_space_group_name_H-M "P 2 2 21"
_symmetry_group_IT_number 17
_symmetry_cell_setting 'orthorhombic'
loop_
_space_group_symop_operation_xyz
x,y,z
-x,-y,1/2+z
x,-y,-z
-x,y,1/2-z
loop_
_atom_site_type_symbol
_atom_site_label
_atom_site_fract_x
_atom_site_fract_y
_atom_site_fract_z
Si Si1 0.312604 0.500000 0.000000
Si Si2 0.695261 0.926306 0.774203
Si Si3 0.894225 0.738350 0.591048
Si Si4 0.208297 0.822264 0.404470
Si Si5 0.500000 0.657469 0.250000
O O1 0.192090 0.396999 0.082085
O O2 0.445419 0.567501 0.112598
O O3 0.500000 0.975561 0.750000
O O4 0.755369 0.852047 0.616281
O O5 0.816513 0.046219 0.812581
O O6 0.697567 0.836608 0.926949
O O7 0.000000 0.740932 0.750000
O O8 0.014861 0.764251 0.437054
O O9 0.328617 0.735652 0.296091
#
# Coordination Sequence:
#
# PCOD8155558 Si02
#       5
#     2   4   4   4   2
#     4  12  30  46  74 102 146 200 242 302 344 452
#     4  10  20  45  73 105 143 187 237 300 367 434
#     4  10  25  46  71 105 145 192 242 304 360 428
#     4  10  23  45  71 107 142 186 237 304 370 430
#     4  12  28  48  72 106 140 196 248 296 364 440
#
# _framework density 22.956482999999999
#
# number of rings (size 3 to 8) (size 9 to 14) (size 15 to 20)
#    0.000    1.500    1.250    1.500   12.250    0.000 
#   27.000    0.000    0.000    0.000    0.000    0.000 
#    0.000    0.000    0.000    0.000    0.000    0.000 
#
# Total GULP energy -198381.112945 kJ/mol
# GULP energy per Si atom -12398.819559 kJ/mol
# Density = 2.290423 g / cm^3
# Si number density = 22.956483 Si / 1000 Ang^3
#
#
#
# Elastic Constant Matrix: (Units=GPa)
#
#
# Indices 1 2 3 4 5 6 
#
# 1 96.8629 44.2266 15.7057 0.0000 0.0000 0.0000
# 2 44.2266 137.3971 36.0981 0.0000 0.0000 0.0000
# 3 15.7057 36.0981 49.6622 0.0000 0.0000 0.0000
# 4 0.0000 0.0000 0.0000 56.3649 0.0000 0.0000
# 5 0.0000 0.0000 0.0000 0.0000 26.3919 0.0000
# 6 0.0000 0.0000 0.0000 0.0000 0.0000 53.8924
#
#
#
# Elastic Compliance Matrix: (Units=1/GPa)
#
#
# Indices 1 2 3 4 5 6 
#
# 1 0.012164 -0.003590 -0.001237 0.000000 0.000000 0.000000
# 2 -0.003590 0.010056 -0.006174 0.000000 0.000000 0.000000
# 3 -0.001237 -0.006174 0.025015 0.000000 0.000000 0.000000
# 4 0.000000 0.000000 0.000000 0.017742 0.000000 0.000000
# 5 0.000000 0.000000 0.000000 0.000000 0.037890 0.000000
# 6 0.000000 0.000000 0.000000 0.000000 0.000000 0.018555
#
#
# Mechanical properties :
#
#
# Convention : Reuss Voigt Hill
#
# Bulk Modulus (GPa) = 39.63238 52.88702 46.25970
# Shear Modulus (GPa) = 32.93041 39.85597 36.39319
#
# Velocity S-wave (km/s) = 3.79155 4.17124 3.98592
# Velocity P-wave (km/s) = 6.03899 6.80345 6.43259
#
# Compressibility (1/GPa) = 0.02523190
#
# Stress axis : x y z
#
# Youngs Moduli (GPa) = 82.21125 99.44374 39.97618
#
# Poissons Ratio (x) = 0.35704 0.04945
# Poissons Ratio (y) = 0.29517 0.24681
# Poissons Ratio (z) = 0.10170 0.61396
#
# Static dielectric constant tensor:
#      x y z
#    x 4.103570 0.000000 0.000000 
#    y 0.000000 4.258750 0.000000 
#    z 0.000000 0.000000 4.260720 
# 
# 
# High freq. dielectric constant tensor:
#      x y z
#    x 1.912860 0.000000 0.000000 
#    y 0.000000 1.907690 0.000000 
#    z 0.000000 0.000000 1.911350 
# 
# From -- ./inp_files/3775.got.cif
#   From: 2010.03.12/outbox.cif.g09.slc.cpg/sg17_2_cif.got.tgz:3775.got - 2010.04.10 18:46:23.
