data_PCOD8155875
_publ_section_title
;
Structure prediction by ZEFSAII (Michael W. Deem and Ramdas Pophale) SiO2 
 PCOD8155875
Probable space group: P 21 21 2
;
_chemical_formula_sum "Si O2"
_cell_formula_units_Z 32
_cell_length_a 13.334102
_cell_length_b 10.166132
_cell_length_c 11.511664
_cell_angle_alpha 90.000000
_cell_angle_beta 90.000000
_cell_angle_gamma 90.000000
_cell_volume 1560.477900
_symmetry_space_group_name_H-M "P 21 21 2"
_symmetry_group_IT_number 18
_symmetry_cell_setting 'orthorhombic'
loop_
_space_group_symop_operation_xyz
x,y,z
-x,-y,z
1/2+x,1/2-y,-z
1/2-x,1/2+y,-z
loop_
_atom_site_type_symbol
_atom_site_label
_atom_site_fract_x
_atom_site_fract_y
_atom_site_fract_z
Si Si1 0.588755 0.731255 0.929408
Si Si2 0.836153 0.350720 0.839523
Si Si3 0.388612 0.014129 0.785243
Si Si4 0.864458 0.744239 0.077326
Si Si5 0.799827 0.462157 0.454515
Si Si6 0.216837 0.357323 0.850993
Si Si7 0.458007 0.137175 0.380041
Si Si8 0.673628 0.221523 0.404456
O O1 0.625787 0.846758 0.845452
O O2 0.473829 0.687613 0.907627
O O3 0.667822 0.616119 0.895484
O O4 0.600022 0.776853 0.062403
O O5 0.717827 0.317662 0.844165
O O6 0.845313 0.507871 0.849622
O O7 0.883437 0.302885 0.717205
O O8 0.312588 0.996592 0.678970
O O9 0.500000 0.000000 0.734239
O O10 0.368264 0.906522 0.883304
O O11 0.834064 0.744271 0.941862
O O12 0.898763 0.386728 0.500331
O O13 0.709025 0.357479 0.464112
O O14 0.780887 0.594044 0.528800
O O15 0.214278 0.288119 0.726196
O O16 0.552610 0.230251 0.407684
O O17 0.500000 0.000000 0.329584
#
# Coordination Sequence:
#
# PCOD8155875 Si02
#       8
#     4   4   4   4   4   4   4   4
#     4  10  21  36  57  89 122 156 193 248 309 357
#     4  11  21  37  62  90 118 156 209 246 295 370
#     4  10  19  35  59  85 114 152 195 240 293 362
#     4  10  23  35  60  91 123 156 196 248 305 369
#     4  11  23  39  61  89 121 158 206 253 309 357
#     4  11  20  38  61  89 120 157 203 254 303 361
#     4  10  21  39  63  89 112 160 211 252 294 366
#     4  11  23  40  65  87 123 160 206 262 302 366
#
# _framework density 20.506537000000002
#
# number of rings (size 3 to 8) (size 9 to 14) (size 15 to 20)
#    0.000    1.500    5.000    1.875    1.750    0.500 
#    0.000    0.625    2.750    0.000    0.000    0.000 
#    0.000    0.000    0.000    0.000    0.000    0.000 
#
# Total GULP energy -396740.310895 kJ/mol
# GULP energy per Si atom -12398.134715 kJ/mol
# Density = 2.045986 g / cm^3
# Si number density = 20.506537 Si / 1000 Ang^3
#
#
#
# Elastic Constant Matrix: (Units=GPa)
#
#
# Indices 1 2 3 4 5 6 
#
# 1 110.2513 14.4452 23.7027 0.0000 0.0000 0.0000
# 2 14.4452 42.8444 12.7447 0.0000 0.0000 0.0000
# 3 23.7027 12.7447 99.7963 0.0000 0.0000 0.0000
# 4 0.0000 0.0000 0.0000 20.8004 0.0000 0.0000
# 5 0.0000 0.0000 0.0000 0.0000 32.0286 0.0000
# 6 0.0000 0.0000 0.0000 0.0000 0.0000 30.8522
#
#
#
# Elastic Compliance Matrix: (Units=1/GPa)
#
#
# Indices 1 2 3 4 5 6 
#
# 1 0.009856 -0.002730 -0.001992 0.000000 0.000000 0.000000
# 2 -0.002730 0.025018 -0.002547 0.000000 0.000000 0.000000
# 3 -0.001992 -0.002547 0.010819 0.000000 0.000000 0.000000
# 4 0.000000 0.000000 0.000000 0.048076 0.000000 0.000000
# 5 0.000000 0.000000 0.000000 0.000000 0.031222 0.000000
# 6 0.000000 0.000000 0.000000 0.000000 0.000000 0.032413
#
#
# Mechanical properties :
#
#
# Convention : Reuss Voigt Hill
#
# Bulk Modulus (GPa) = 32.09764 39.40859 35.75312
# Shear Modulus (GPa) = 27.42318 30.20287 28.81302
#
# Velocity S-wave (km/s) = 3.66086 3.84192 3.75249
# Velocity P-wave (km/s) = 5.79272 6.24018 6.02061
#
# Compressibility (1/GPa) = 0.03115494
#
# Stress axis : x y z
#
# Youngs Moduli (GPa) = 101.45851 39.97065 92.43162
#
# Poissons Ratio (x) = 0.10914 0.18415
# Poissons Ratio (y) = 0.27703 0.23538
# Poissons Ratio (z) = 0.20213 0.10179
#
# Static dielectric constant tensor:
#      x y z
#    x 3.925980 0.000000 0.000000 
#    y 0.000000 3.451500 0.000000 
#    z 0.000000 0.000000 3.662900 
# 
# 
# High freq. dielectric constant tensor:
#      x y z
#    x 1.805870 0.000000 0.000000 
#    y 0.000000 1.767770 0.000000 
#    z 0.000000 0.000000 1.808570 
# 
# From -- ./inp_files/5943.got.cif
#   From: 2010.03.12/outbox.cif.g09.slc.cpg/sg18_3_cif.got.tgz:5943.got - 2010.04.10 18:53:55.
