data_PCOD8155139
_publ_section_title
;
Structure prediction by ZEFSAII (Michael W. Deem and Ramdas Pophale) SiO2 
 PCOD8155139
Probable space group: C 2/C
;
_chemical_formula_sum "Si O2"
_cell_formula_units_Z 20
_cell_length_a 4.647523
_cell_length_b 13.726874
_cell_length_c 11.411901
_cell_angle_alpha 90.000000
_cell_angle_beta 80.726136
_cell_angle_gamma 90.000000
_cell_volume 718.517329
_symmetry_space_group_name_H-M "C 2/C"
_symmetry_group_IT_number 15
_symmetry_cell_setting 'monoclinic'
loop_
_space_group_symop_operation_xyz
x,y,z
-x,y,1/2-z
-x,-y,-z
x,-y,1/2+z
1/2+x,1/2+y,z
1/2-x,1/2+y,1/2-z
1/2-x,1/2-y,-z
1/2+x,1/2-y,1/2+z
loop_
_atom_site_type_symbol
_atom_site_label
_atom_site_fract_x
_atom_site_fract_y
_atom_site_fract_z
Si Si1 0.000000 0.566645 0.750000
Si Si2 0.582621 0.595817 0.364701
Si Si3 0.452265 0.844710 0.489651
O O1 0.271352 0.503497 0.687932
O O2 0.907453 0.633253 0.645673
O O3 0.500000 0.654817 0.250000
O O4 0.276896 0.570110 0.452364
O O5 0.789405 0.664366 0.431351
O O6 0.250000 0.750000 0.500000
#
# Coordination Sequence:
#
# PCOD8155139 Si02
#       3
#     4   8   8
#     4  12  28  46  86 104 160 204 256 312 376 458
#     4  12  26  50  77 112 154 201 258 308 381 461
#     4  12  29  49  77 116 156 198 257 316 386 449
#
# _framework density 27.835097999999999
#
# number of rings (size 3 to 8) (size 9 to 14) (size 15 to 20)
#    0.000    0.000    4.000    3.600    8.400    0.000 
#    7.200    0.000    0.000    0.000    0.000    0.000 
#    0.000    0.000    0.000    0.000    0.000    0.000 
#
# Total GULP energy -123973.126528 kJ/mol
# GULP energy per Si atom -12397.312653 kJ/mol
# Density = 2.777174 g / cm^3
# Si number density = 27.835098 Si / 1000 Ang^3
#
#
#
# Elastic Constant Matrix: (Units=GPa)
#
#
# Indices 1 2 3 4 5 6 
#
# 1 173.5328 6.5343 93.9806 0.0000 41.6307 0.0000
# 2 6.5343 55.8966 60.8273 0.0000 28.9192 0.0000
# 3 93.9806 60.8273 269.7066 0.0000 44.7414 0.0000
# 4 0.0000 0.0000 0.0000 24.5200 0.0000 1.1539
# 5 41.6307 28.9192 44.7414 0.0000 73.8649 0.0000
# 6 0.0000 0.0000 0.0000 1.1539 0.0000 19.3636
#
#
#
# Elastic Compliance Matrix: (Units=1/GPa)
#
#
# Indices 1 2 3 4 5 6 
#
# 1 0.008518 0.005096 -0.003324 0.000000 -0.004783 0.000000
# 2 0.005096 0.030191 -0.006834 0.000000 -0.010553 0.000000
# 3 -0.003324 -0.006834 0.006284 0.000000 0.000743 0.000000
# 4 0.000000 0.000000 0.000000 0.040898 0.000000 -0.002437
# 5 -0.004783 -0.010553 0.000743 0.000000 0.019915 0.000000
# 6 0.000000 0.000000 0.000000 -0.002437 0.000000 0.051789
#
#
# Mechanical properties :
#
#
# Convention : Reuss Voigt Hill
#
# Bulk Modulus (GPa) = 28.67878 91.31337 59.99607
# Shear Modulus (GPa) = 27.87950 46.06928 36.97439
#
# Velocity S-wave (km/s) = 3.16823 4.07268 3.64859
# Velocity P-wave (km/s) = 4.86920 7.41566 6.27300
#
# Compressibility (1/GPa) = 0.03486898
#
# Stress axis : x y z
#
# Youngs Moduli (GPa) = 117.39355 33.12222 159.12996
#
# Poissons Ratio (x) = -0.16879 0.52898
# Poissons Ratio (y) = -0.59824 1.08753
# Poissons Ratio (z) = 0.39024 0.22636
#
# Static dielectric constant tensor:
#      x y z
#    x 5.629320 0.000000 -0.234210 
#    y 0.000000 4.664500 0.000000 
#    z -0.234210 0.000000 6.551470 
# 
# 
# High freq. dielectric constant tensor:
#      x y z
#    x 2.143920 0.000000 0.005260 
#    y 0.000000 2.093180 0.000000 
#    z 0.005260 0.000000 2.159030 
# 
# From -- ./inp_files/19063.got.cif
#   From: 2010.06.25/outbox.cif.g09.slc.cpg/sg15_10_cif.got.tgz:19063.got - 2010.06.28 07:06:18.
