data_PCOD8155827
_publ_section_title
;
Structure prediction by ZEFSAII (Michael W. Deem and Ramdas Pophale) SiO2 
 PCOD8155827
Probable space group: P 21 21 2
;
_chemical_formula_sum "Si O2"
_cell_formula_units_Z 26
_cell_length_a 8.636691
_cell_length_b 11.921954
_cell_length_c 12.880269
_cell_angle_alpha 90.000000
_cell_angle_beta 90.000000
_cell_angle_gamma 90.000000
_cell_volume 1326.232777
_symmetry_space_group_name_H-M "P 21 21 2"
_symmetry_group_IT_number 18
_symmetry_cell_setting 'orthorhombic'
loop_
_space_group_symop_operation_xyz
x,y,z
-x,-y,z
1/2+x,1/2-y,-z
1/2-x,1/2+y,-z
loop_
_atom_site_type_symbol
_atom_site_label
_atom_site_fract_x
_atom_site_fract_y
_atom_site_fract_z
Si Si1 0.440077 0.613845 0.964804
Si Si2 0.500000 0.000000 0.554744
Si Si3 0.810113 0.865359 0.252714
Si Si4 0.519226 0.123500 0.189897
Si Si5 0.219846 0.420570 0.620045
Si Si6 0.213528 0.738391 0.097860
Si Si7 0.573338 0.780946 0.679353
O O1 0.500000 0.500000 0.017018
O O2 0.407771 0.589312 0.844228
O O3 0.576648 0.706310 0.969620
O O4 0.282021 0.640489 0.026290
O O5 0.643540 0.050722 0.490158
O O6 0.427145 0.100093 0.622417
O O7 0.647414 0.818325 0.207382
O O8 0.897143 0.760859 0.305565
O O9 0.800043 0.968433 0.333016
O O10 0.582259 0.118004 0.306377
O O11 0.636928 0.182741 0.112551
O O12 0.500000 0.000000 0.141924
O O13 0.339700 0.316258 0.612536
O O14 0.154503 0.696921 0.209535
#
# Coordination Sequence:
#
# PCOD8155827 Si02
#       7
#     4   2   4   4   4   4   4
#     4  11  21  37  63  89 122 161 211 244 299 367
#     4  12  24  40  64  90 124 166 204 252 326 364
#     4  10  18  38  65  94 119 158 204 265 300 355
#     4   9  16  33  62  87 119 149 201 258 298 344
#     4  10  20  38  64  90 115 159 210 253 302 365
#     4  10  22  40  57  94 124 165 199 254 303 363
#     4  10  24  40  61  87 134 153 208 260 308 368
#
# _framework density 19.604402
#
# number of rings (size 3 to 8) (size 9 to 14) (size 15 to 20)
#    0.000    1.846    2.308    5.077    2.154    0.000 
#    8.308    0.000    0.000    0.000    0.000    0.000 
#    0.000    0.000    0.000    0.000    0.000    0.000 
#
# Total GULP energy -322253.600861 kJ/mol
# GULP energy per Si atom -12394.369264 kJ/mol
# Density = 1.955978 g / cm^3
# Si number density = 19.604402 Si / 1000 Ang^3
#
#
#
# Elastic Constant Matrix: (Units=GPa)
#
#
# Indices 1 2 3 4 5 6 
#
# 1 107.9923 32.7078 29.6195 0.0000 0.0000 0.0000
# 2 32.7078 80.0803 46.8839 0.0000 0.0000 0.0000
# 3 29.6195 46.8839 77.0293 0.0000 0.0000 0.0000
# 4 0.0000 0.0000 0.0000 23.8636 0.0000 0.0000
# 5 0.0000 0.0000 0.0000 0.0000 31.5282 0.0000
# 6 0.0000 0.0000 0.0000 0.0000 0.0000 33.6927
#
#
#
# Elastic Compliance Matrix: (Units=1/GPa)
#
#
# Indices 1 2 3 4 5 6 
#
# 1 0.010820 -0.003082 -0.002285 0.000000 0.000000 0.000000
# 2 -0.003082 0.020278 -0.011158 0.000000 0.000000 0.000000
# 3 -0.002285 -0.011158 0.020652 0.000000 0.000000 0.000000
# 4 0.000000 0.000000 0.000000 0.041905 0.000000 0.000000
# 5 0.000000 0.000000 0.000000 0.000000 0.031718 0.000000
# 6 0.000000 0.000000 0.000000 0.000000 0.000000 0.029680
#
#
# Mechanical properties :
#
#
# Convention : Reuss Voigt Hill
#
# Bulk Modulus (GPa) = 53.47006 53.72491 53.59748
# Shear Modulus (GPa) = 25.72885 28.20962 26.96924
#
# Velocity S-wave (km/s) = 3.62664 3.79746 3.71303
# Velocity P-wave (km/s) = 6.69854 6.83312 6.76616
#
# Compressibility (1/GPa) = 0.01870205
#
# Stress axis : x y z
#
# Youngs Moduli (GPa) = 92.42209 49.31369 48.42215
#
# Poissons Ratio (x) = 0.15196 0.11064
# Poissons Ratio (y) = 0.28480 0.54027
# Poissons Ratio (z) = 0.21118 0.55022
#
# Static dielectric constant tensor:
#      x y z
#    x 3.852920 0.000000 0.000000 
#    y 0.000000 3.492210 0.000000 
#    z 0.000000 0.000000 3.358740 
# 
# 
# High freq. dielectric constant tensor:
#      x y z
#    x 1.783780 0.000000 0.000000 
#    y 0.000000 1.743800 0.000000 
#    z 0.000000 0.000000 1.746850 
# 
# From -- ./inp_files/6717.got.cif
#   From: 2010.03.12/outbox.cif.g09.slc.cpg/sg18_4_cif.got.tgz:6717.got - 2010.04.10 18:53:55.
