data_PCOD8155759
_publ_section_title
;
Structure prediction by ZEFSAII (Michael W. Deem and Ramdas Pophale) SiO2 
 PCOD8155759
Probable space group: P 2 2 21
;
_chemical_formula_sum "Si O2"
_cell_formula_units_Z 22
_cell_length_a 6.606165
_cell_length_b 10.974040
_cell_length_c 12.911395
_cell_angle_alpha 90.000000
_cell_angle_beta 90.000000
_cell_angle_gamma 90.000000
_cell_volume 936.028610
_symmetry_space_group_name_H-M "P 2 2 21"
_symmetry_group_IT_number 17
_symmetry_cell_setting 'orthorhombic'
loop_
_space_group_symop_operation_xyz
x,y,z
-x,-y,1/2+z
x,-y,-z
-x,y,1/2-z
loop_
_atom_site_type_symbol
_atom_site_label
_atom_site_fract_x
_atom_site_fract_y
_atom_site_fract_z
Si Si1 0.477856 0.841961 0.457235
Si Si2 0.883029 0.397062 0.352917
Si Si3 0.500000 0.022649 0.750000
Si Si4 0.825837 0.500000 0.000000
Si Si5 0.480549 0.588774 0.133005
Si Si6 0.891217 0.000000 0.000000
Si Si7 0.781917 0.119487 0.363522
O O1 0.540060 0.894251 0.347769
O O2 0.537885 0.699407 0.449413
O O3 0.602784 0.897444 0.552154
O O4 0.243055 0.880456 0.472184
O O5 0.696823 0.489309 0.376047
O O6 0.814380 0.259629 0.336873
O O7 0.000000 0.442290 0.250000
O O8 0.027485 0.395012 0.454407
O O9 0.299285 0.936224 0.754098
O O10 0.694352 0.468081 0.899524
O O11 0.500000 0.637277 0.250000
O O12 0.025254 0.043539 0.097342
#
# Coordination Sequence:
#
# PCOD8155759 Si02
#       7
#     4   4   2   2   4   2   4
#     4  12  25  49  72 106 152 197 245 310 387 445
#     4  12  28  48  79 117 149 206 265 311 392 470
#     4  12  24  46  72 106 148 198 246 304 386 446
#     4  12  24  50  74 110 152 198 246 318 390 448
#     4  12  26  48  77 107 154 200 249 318 384 462
#     4  12  24  48  74 112 148 194 254 310 380 448
#     4  12  27  48  72 111 151 190 257 323 369 455
#
# _framework density 23.503554999999999
#
# number of rings (size 3 to 8) (size 9 to 14) (size 15 to 20)
#    0.000    0.000    6.364    3.818    3.818    1.455 
#    0.000    1.818    0.000    0.000    0.000    0.000 
#    0.000    0.000    0.000    0.000    0.000    0.000 
#
# Total GULP energy -272559.589677 kJ/mol
# GULP energy per Si atom -12389.072258 kJ/mol
# Density = 2.345006 g / cm^3
# Si number density = 23.503555 Si / 1000 Ang^3
#
#
#
# Elastic Constant Matrix: (Units=GPa)
#
#
# Indices 1 2 3 4 5 6 
#
# 1 136.1899 50.9213 32.8069 0.0000 0.0000 0.0000
# 2 50.9213 121.9176 6.9002 0.0000 0.0000 0.0000
# 3 32.8069 6.9002 65.1286 0.0000 0.0000 0.0000
# 4 0.0000 0.0000 0.0000 40.9770 0.0000 0.0000
# 5 0.0000 0.0000 0.0000 0.0000 51.7201 0.0000
# 6 0.0000 0.0000 0.0000 0.0000 0.0000 24.3526
#
#
#
# Elastic Compliance Matrix: (Units=1/GPa)
#
#
# Indices 1 2 3 4 5 6 
#
# 1 0.009892 -0.003873 -0.004573 0.000000 0.000000 0.000000
# 2 -0.003873 0.009768 0.000916 0.000000 0.000000 0.000000
# 3 -0.004573 0.000916 0.017561 0.000000 0.000000 0.000000
# 4 0.000000 0.000000 0.000000 0.024404 0.000000 0.000000
# 5 0.000000 0.000000 0.000000 0.000000 0.019335 0.000000
# 6 0.000000 0.000000 0.000000 0.000000 0.000000 0.041063
#
#
# Mechanical properties :
#
#
# Convention : Reuss Voigt Hill
#
# Bulk Modulus (GPa) = 45.12292 56.05476 50.58884
# Shear Modulus (GPa) = 34.60939 38.91711 36.76325
#
# Velocity S-wave (km/s) = 3.84150 4.07356 3.95923
# Velocity P-wave (km/s) = 6.23828 6.78428 6.51700
#
# Compressibility (1/GPa) = 0.02216169
#
# Stress axis : x y z
#
# Youngs Moduli (GPa) = 101.08891 102.37496 56.94576
#
# Poissons Ratio (x) = 0.39649 0.26039
# Poissons Ratio (y) = 0.39151 -0.05216
# Poissons Ratio (z) = 0.46225 -0.09377
#
# Static dielectric constant tensor:
#      x y z
#    x 4.392870 0.000000 0.000000 
#    y 0.000000 4.299730 0.000000 
#    z 0.000000 0.000000 4.666930 
# 
# 
# High freq. dielectric constant tensor:
#      x y z
#    x 1.937330 0.000000 0.000000 
#    y 0.000000 1.935090 0.000000 
#    z 0.000000 0.000000 1.942710 
# 
# From -- ./inp_files/7697.got.cif
#   From: 2010.03.12/outbox.cif.g09.slc.cpg/sg17_4_cif.got.tgz:7697.got - 2010.04.10 18:46:23.
