data_PCOD8155233
_publ_section_title
;
Structure prediction by ZEFSAII (Michael W. Deem and Ramdas Pophale) SiO2 
 PCOD8155233
Probable space group: P 2 2 2
;
_chemical_formula_sum "Si O2"
_cell_formula_units_Z 17
_cell_length_a 11.969920
_cell_length_b 8.574416
_cell_length_c 8.811841
_cell_angle_alpha 90.000000
_cell_angle_beta 90.000000
_cell_angle_gamma 90.000000
_cell_volume 904.403949
_symmetry_space_group_name_H-M "P 2 2 2"
_symmetry_group_IT_number 16
_symmetry_cell_setting 'orthorhombic'
loop_
_space_group_symop_operation_xyz
x,y,z
-x,-y,z
x,-y,-z
-x,y,-z
loop_
_atom_site_type_symbol
_atom_site_label
_atom_site_fract_x
_atom_site_fract_y
_atom_site_fract_z
Si Si1 0.312223 0.665893 0.671748
Si Si2 0.500000 0.500000 0.500000
Si Si3 0.629403 0.968954 0.173107
Si Si4 0.115207 0.447486 0.671945
Si Si5 0.209390 0.141674 0.597448
O O1 0.427997 0.594545 0.620306
O O2 0.338020 0.789113 0.803175
O O3 0.224315 0.537671 0.738344
O O4 0.269570 0.746398 0.519777
O O5 0.500000 0.000000 0.209658
O O6 0.701705 0.077542 0.282939
O O7 0.660012 0.000000 0.000000
O O8 0.104731 0.500000 0.500000
O O9 0.123158 0.257248 0.684823
O O10 0.000000 0.500000 0.756593
O O11 0.152242 0.000000 0.500000
#
# Coordination Sequence:
#
# PCOD8155233 Si02
#       5
#     4   1   4   4   4
#     4  10  19  31  55  80 107 141 173 225 272 329
#     4  12  16  28  56  86 112 132 182 220 280 336
#     4  10  21  35  51  74 112 146 180 223 273 328
#     4   9  17  33  53  80 111 135 176 229 274 317
#     4   9  17  33  54  80 104 139 179 220 272 324
#
# _framework density 18.796911000000001
#
# number of rings (size 3 to 8) (size 9 to 14) (size 15 to 20)
#    0.000    2.353    3.529    1.412    0.000    3.294 
#    0.000   21.176    0.000    4.235    0.000    0.000 
#    0.000    0.000    0.000    0.000    0.000    0.000 
#
# Total GULP energy -210602.407591 kJ/mol
# GULP energy per Si atom -12388.376917 kJ/mol
# Density = 1.875413 g / cm^3
# Si number density = 18.796911 Si / 1000 Ang^3
#
#
#
# Elastic Constant Matrix: (Units=GPa)
#
#
# Indices 1 2 3 4 5 6 
#
# 1 117.8244 75.6204 21.5830 0.0000 0.0000 0.0000
# 2 75.6204 158.6331 35.2989 0.0000 0.0000 0.0000
# 3 21.5830 35.2989 58.5931 0.0000 0.0000 0.0000
# 4 0.0000 0.0000 0.0000 21.6814 0.0000 0.0000
# 5 0.0000 0.0000 0.0000 0.0000 9.4133 0.0000
# 6 0.0000 0.0000 0.0000 0.0000 0.0000 16.6134
#
#
#
# Elastic Compliance Matrix: (Units=1/GPa)
#
#
# Indices 1 2 3 4 5 6 
#
# 1 0.012296 -0.005605 -0.001153 0.000000 0.000000 0.000000
# 2 -0.005605 0.009835 -0.003860 0.000000 0.000000 0.000000
# 3 -0.001153 -0.003860 0.019817 0.000000 0.000000 0.000000
# 4 0.000000 0.000000 0.000000 0.046122 0.000000 0.000000
# 5 0.000000 0.000000 0.000000 0.000000 0.106232 0.000000
# 6 0.000000 0.000000 0.000000 0.000000 0.000000 0.060192
#
#
# Mechanical properties :
#
#
# Convention : Reuss Voigt Hill
#
# Bulk Modulus (GPa) = 48.28130 66.67280 57.47705
# Shear Modulus (GPa) = 17.69076 23.04485 20.36780
#
# Velocity S-wave (km/s) = 3.07115 3.50521 3.29534
# Velocity P-wave (km/s) = 6.19011 7.20619 6.71739
#
# Compressibility (1/GPa) = 0.02071195
#
# Stress axis : x y z
#
# Youngs Moduli (GPa) = 81.33035 101.68134 50.46182
#
# Poissons Ratio (x) = 0.56991 0.05816
# Poissons Ratio (y) = 0.45584 0.19479
# Poissons Ratio (z) = 0.09374 0.39251
#
# Static dielectric constant tensor:
#      x y z
#    x 4.214440 0.000000 0.000000 
#    y 0.000000 4.142810 0.000000 
#    z 0.000000 0.000000 3.006470 
# 
# 
# High freq. dielectric constant tensor:
#      x y z
#    x 1.728180 0.000000 0.000000 
#    y 0.000000 1.750180 0.000000 
#    z 0.000000 0.000000 1.680720 
# 
# From -- ./inp_files/3592.got.cif
#   From: 2010.03.12/outbox.cif.g09.slc.cpg/sg16_2_cif.got.tgz:3592.got - 2010.03.31 00:51:45.
