data_PCOD8155212
_publ_section_title
;
Structure prediction by ZEFSAII (Michael W. Deem and Ramdas Pophale) SiO2 
 PCOD8155212
Probable space group: P 2 2 2
;
_chemical_formula_sum "Si O2"
_cell_formula_units_Z 24
_cell_length_a 11.684991
_cell_length_b 21.583782
_cell_length_c 5.096776
_cell_angle_alpha 90.000000
_cell_angle_beta 90.000000
_cell_angle_gamma 90.000000
_cell_volume 1285.439009
_symmetry_space_group_name_H-M "P 2 2 2"
_symmetry_group_IT_number 16
_symmetry_cell_setting 'orthorhombic'
loop_
_space_group_symop_operation_xyz
x,y,z
-x,-y,z
x,-y,-z
-x,y,-z
loop_
_atom_site_type_symbol
_atom_site_label
_atom_site_fract_x
_atom_site_fract_y
_atom_site_fract_z
Si Si1 0.732937 0.567662 0.014337
Si Si2 0.767998 0.726947 0.485391
Si Si3 0.631167 0.304076 0.016278
Si Si4 0.869980 0.599590 0.528744
Si Si5 0.076140 0.166038 0.254068
Si Si6 0.128372 0.972095 0.754274
O O1 0.643711 0.621880 0.932688
O O2 0.788041 0.575286 0.299692
O O3 0.672200 0.500000 0.000000
O O4 0.834196 0.569430 0.802662
O O5 0.676434 0.706671 0.273464
O O6 0.863004 0.674417 0.537462
O O7 0.830809 0.785492 0.357666
O O8 0.699352 0.736344 0.761978
O O9 0.500000 0.283996 0.000000
O O10 0.000000 0.578863 0.500000
O O11 0.137352 0.101255 0.197298
O O12 0.000000 0.150093 0.500000
O O13 0.000000 0.188657 0.000000
O O14 0.192155 0.000000 0.500000
O O15 0.000000 0.000000 0.752606
O O16 0.196594 0.000000 0.000000
#
# Coordination Sequence:
#
# PCOD8155212 Si02
#       6
#     4   4   4   4   4   4
#     4  10  21  34  52  78  98 124 174 216 255 328
#     4  10  22  35  51  80 101 132 188 212 254 325
#     4  10  21  40  58  71  99 132 165 234 291 312
#     4  10  20  34  49  69 108 141 164 204 248 301
#     4  12  20  30  51  76 113 154 174 208 247 301
#     4  10  16  29  43  68 107 151 181 200 234 291
#
# _framework density 18.670666000000001
#
# number of rings (size 3 to 8) (size 9 to 14) (size 15 to 20)
#    0.000    1.667    3.333    3.000    0.000    5.000 
#    0.000    0.000    0.000    6.000    0.000    0.000 
#    0.000   10.000    0.000    0.000    0.000    0.000 
#
# Total GULP energy -297329.208058 kJ/mol
# GULP energy per Si atom -12388.717002 kJ/mol
# Density = 1.862817 g / cm^3
# Si number density = 18.670666 Si / 1000 Ang^3
#
#
#
# Elastic Constant Matrix: (Units=GPa)
#
#
# Indices 1 2 3 4 5 6 
#
# 1 42.9809 15.9265 0.7720 0.0000 0.0000 0.0000
# 2 15.9265 110.6767 11.5381 0.0000 0.0000 0.0000
# 3 0.7720 11.5381 95.7026 0.0000 0.0000 0.0000
# 4 0.0000 0.0000 0.0000 21.9147 0.0000 0.0000
# 5 0.0000 0.0000 0.0000 0.0000 20.0395 0.0000
# 6 0.0000 0.0000 0.0000 0.0000 0.0000 18.8367
#
#
#
# Elastic Compliance Matrix: (Units=1/GPa)
#
#
# Indices 1 2 3 4 5 6 
#
# 1 0.024582 -0.003561 0.000231 0.000000 0.000000 0.000000
# 2 -0.003561 0.009666 -0.001137 0.000000 0.000000 0.000000
# 3 0.000231 -0.001137 0.010584 0.000000 0.000000 0.000000
# 4 0.000000 0.000000 0.000000 0.045632 0.000000 0.000000
# 5 0.000000 0.000000 0.000000 0.000000 0.049901 0.000000
# 6 0.000000 0.000000 0.000000 0.000000 0.000000 0.053088
#
#
# Mechanical properties :
#
#
# Convention : Reuss Voigt Hill
#
# Bulk Modulus (GPa) = 27.85658 33.98151 30.91905
# Shear Modulus (GPa) = 23.32600 26.89974 25.11287
#
# Velocity S-wave (km/s) = 3.53843 3.79984 3.67146
# Velocity P-wave (km/s) = 5.62551 6.12305 5.87954
#
# Compressibility (1/GPa) = 0.03589816
#
# Stress axis : x y z
#
# Youngs Moduli (GPa) = 40.68073 103.45199 94.48032
#
# Poissons Ratio (x) = 0.36844 -0.02183
# Poissons Ratio (y) = 0.14488 0.10739
# Poissons Ratio (z) = -0.00940 0.11759
#
# Static dielectric constant tensor:
#      x y z
#    x 2.864500 0.000000 0.000000 
#    y 0.000000 3.584580 0.000000 
#    z 0.000000 0.000000 -0.085770 
# 
# 
# High freq. dielectric constant tensor:
#      x y z
#    x 1.664730 0.000000 0.000000 
#    y 0.000000 1.721420 0.000000 
#    z 0.000000 0.000000 1.759480 
# 
# From -- ./inp_files/1545.got.cif
#   From: 2010.03.12/outbox.cif.g09.slc.cpg/sg16_1_cif.got.tgz:1545.got - 2010.03.31 00:51:45.
