data_PCOD8155002
_publ_section_title
;
Structure prediction by ZEFSAII (Michael W. Deem and Ramdas Pophale) SiO2 
 PCOD8155002
Probable space group: C 2/C
;
_chemical_formula_sum "Si O2"
_cell_formula_units_Z 48
_cell_length_a 12.010316
_cell_length_b 14.757089
_cell_length_c 14.103616
_cell_angle_alpha 90.000000
_cell_angle_beta 63.462411
_cell_angle_gamma 90.000000
_cell_volume 2236.323444
_symmetry_space_group_name_H-M "C 2/C"
_symmetry_group_IT_number 15
_symmetry_cell_setting 'monoclinic'
loop_
_space_group_symop_operation_xyz
x,y,z
-x,y,1/2-z
-x,-y,-z
x,-y,1/2+z
1/2+x,1/2+y,z
1/2-x,1/2+y,1/2-z
1/2-x,1/2-y,-z
1/2+x,1/2-y,1/2+z
loop_
_atom_site_type_symbol
_atom_site_label
_atom_site_fract_x
_atom_site_fract_y
_atom_site_fract_z
Si Si1 0.000000 0.583593 0.750000
Si Si2 0.768258 0.678683 0.909293
Si Si3 0.746650 0.675861 0.227309
Si Si4 0.535284 0.946161 0.893093
Si Si5 0.211087 0.341241 0.567799
Si Si6 0.000000 0.089190 0.250000
Si Si7 0.387342 0.492022 0.972786
O O1 0.089671 0.647152 0.654378
O O2 0.069119 0.517717 0.797756
O O3 0.728001 0.724623 0.825402
O O4 0.750000 0.750000 0.000000
O O5 0.689261 0.591052 0.958028
O O6 0.836739 0.606978 0.136590
O O7 0.780768 0.677687 0.323945
O O8 0.602238 0.651136 0.264073
O O9 0.427572 0.874669 0.905255
O O10 0.500000 0.000000 0.000000
O O11 0.250000 0.250000 0.500000
O O12 0.306760 0.417987 0.500790
O O13 0.932689 0.024202 0.349532
O O14 0.500000 0.500000 0.000000
#
# Coordination Sequence:
#
# PCOD8155002 Si02
#       7
#     4   8   8   8   8   4   8
#     4  12  25  48  73 108 152 190 253 310 367 448
#     4  12  26  44  75 110 144 198 248 302 371 443
#     4  12  25  46  74 111 148 191 252 306 368 455
#     4  12  25  49  77 105 147 198 249 310 380 443
#     4  12  28  51  74 111 150 193 250 319 382 442
#     4  12  25  46  77 106 150 202 245 302 375 442
#     4  12  26  48  72 109 152 193 248 306 373 447
#
# _framework density 21.463799000000002
#
# number of rings (size 3 to 8) (size 9 to 14) (size 15 to 20)
#    0.000    0.000    6.667    2.500    4.667    1.333 
#    0.000    0.000    0.000    0.000    0.000    0.000 
#    0.000    0.000    0.000    0.000    0.000    0.000 
#
# Total GULP energy -297681.222535 kJ/mol
# GULP energy per Si atom -12403.384272 kJ/mol
# Density = 2.141495 g / cm^3
# Si number density = 21.463799 Si / 1000 Ang^3
#
#
#
# Elastic Constant Matrix: (Units=GPa)
#
#
# Indices 1 2 3 4 5 6 
#
# 1 120.1389 53.8405 38.2519 0.0000 -11.4778 0.0000
# 2 53.8405 167.4448 72.9693 0.0000 -10.5487 0.0000
# 3 38.2519 72.9693 135.1185 0.0000 -4.5509 0.0000
# 4 0.0000 0.0000 0.0000 43.1411 0.0000 3.5658
# 5 -11.4778 -10.5487 -4.5509 0.0000 43.5325 0.0000
# 6 0.0000 0.0000 0.0000 3.5658 0.0000 17.7060
#
#
#
# Elastic Compliance Matrix: (Units=1/GPa)
#
#
# Indices 1 2 3 4 5 6 
#
# 1 0.010082 -0.002493 -0.001444 0.000000 0.001903 0.000000
# 2 -0.002493 0.008520 -0.003861 0.000000 0.001004 0.000000
# 3 -0.001444 -0.003861 0.009886 0.000000 -0.000283 0.000000
# 4 0.000000 0.000000 0.000000 0.023572 0.000000 -0.004747
# 5 0.001903 0.001004 -0.000283 0.000000 0.023687 0.000000
# 6 0.000000 0.000000 0.000000 -0.004747 0.000000 0.057434
#
#
# Mechanical properties :
#
#
# Convention : Reuss Voigt Hill
#
# Bulk Modulus (GPa) = 77.57268 83.64727 80.60998
# Shear Modulus (GPa) = 32.66397 38.05197 35.35797
#
# Velocity S-wave (km/s) = 3.90528 4.21508 4.06314
# Velocity P-wave (km/s) = 7.52028 7.92118 7.72333
#
# Compressibility (1/GPa) = 0.01289114
#
# Stress axis : x y z
#
# Youngs Moduli (GPa) = 99.18233 117.37661 101.15818
#
# Poissons Ratio (x) = 0.29259 0.14608
# Poissons Ratio (y) = 0.24723 0.39061
# Poissons Ratio (z) = 0.14322 0.45324
#
# Static dielectric constant tensor:
#      x y z
#    x 4.054920 0.000000 0.023480 
#    y 0.000000 4.301280 0.000000 
#    z 0.023480 0.000000 4.253270 
# 
# 
# High freq. dielectric constant tensor:
#      x y z
#    x 1.847100 0.000000 -0.002860 
#    y 0.000000 1.854260 0.000000 
#    z -0.002860 0.000000 1.866100 
# 
# From -- ./inp_files/144098.got.cif
#   From: 2010.06.25/outbox.cif.g09.slc.cpg/sg15_73_cif.got.tgz:144098.got - 2010.06.28 07:06:18.
