data_PCOD8155489
_publ_section_title
;
Structure prediction by ZEFSAII (Michael W. Deem and Ramdas Pophale) SiO2 
 PCOD8155489
Probable space group: P 2 2 21
;
_chemical_formula_sum "Si O2"
_cell_formula_units_Z 20
_cell_length_a 12.131661
_cell_length_b 10.243426
_cell_length_c 7.615014
_cell_angle_alpha 90.000000
_cell_angle_beta 90.000000
_cell_angle_gamma 90.000000
_cell_volume 946.316051
_symmetry_space_group_name_H-M "P 2 2 21"
_symmetry_group_IT_number 17
_symmetry_cell_setting 'orthorhombic'
loop_
_space_group_symop_operation_xyz
x,y,z
-x,-y,1/2+z
x,-y,-z
-x,y,1/2-z
loop_
_atom_site_type_symbol
_atom_site_label
_atom_site_fract_x
_atom_site_fract_y
_atom_site_fract_z
Si Si1 0.375228 0.773331 0.291015
Si Si2 0.782918 0.143240 0.494790
Si Si3 0.912998 0.615843 0.608735
Si Si4 0.296802 0.510918 0.697620
Si Si5 0.380709 0.216321 0.305790
O O1 0.500000 0.811259 0.250000
O O2 0.356731 0.621390 0.244366
O O3 0.350592 0.814341 0.491779
O O4 0.295478 0.853695 0.164598
O O5 0.875605 0.256731 0.502623
O O6 0.713469 0.154941 0.315185
O O7 0.839650 0.000000 0.500000
O O8 0.973403 0.500000 0.500000
O O9 0.807917 0.540532 0.684364
O O10 0.000000 0.668730 0.750000
O O11 0.253182 0.500000 0.500000
O O12 0.384775 0.627234 0.719263
O O13 0.500000 0.160054 0.250000
#
# Coordination Sequence:
#
# PCOD8155489 Si02
#       5
#     4   4   4   4   4
#     4  11  20  36  62  95 132 181 213 257 321 384
#     4  11  25  43  63  92 134 173 214 267 319 384
#     4  11  22  42  72  95 123 158 217 276 335 383
#     4   9  19  34  59  93 129 157 210 273 325 373
#     4  10  20  35  57  93 128 173 220 262 306 384
#
# _framework density 21.134588000000001
#
# number of rings (size 3 to 8) (size 9 to 14) (size 15 to 20)
#    0.000    1.600    4.000    1.200    0.000    1.600 
#    0.000    1.000    0.000    0.000    0.000    0.000 
#    0.000    0.000    0.000    0.000    0.000    0.000 
#
# Total GULP energy -247960.588613 kJ/mol
# GULP energy per Si atom -12398.029431 kJ/mol
# Density = 2.108648 g / cm^3
# Si number density = 21.134588 Si / 1000 Ang^3
#
#
#
# Elastic Constant Matrix: (Units=GPa)
#
#
# Indices 1 2 3 4 5 6 
#
# 1 60.8171 18.7329 24.3124 0.0000 0.0000 0.0000
# 2 18.7329 134.8639 32.8615 0.0000 0.0000 0.0000
# 3 24.3124 32.8615 112.9750 0.0000 0.0000 0.0000
# 4 0.0000 0.0000 0.0000 11.5191 0.0000 0.0000
# 5 0.0000 0.0000 0.0000 0.0000 31.3956 0.0000
# 6 0.0000 0.0000 0.0000 0.0000 0.0000 4.8099
#
#
#
# Elastic Compliance Matrix: (Units=1/GPa)
#
#
# Indices 1 2 3 4 5 6 
#
# 1 0.018349 -0.001708 -0.003452 0.000000 0.000000 0.000000
# 2 -0.001708 0.008139 -0.002000 0.000000 0.000000 0.000000
# 3 -0.003452 -0.002000 0.010176 0.000000 0.000000 0.000000
# 4 0.000000 0.000000 0.000000 0.086812 0.000000 0.000000
# 5 0.000000 0.000000 0.000000 0.000000 0.031852 0.000000
# 6 0.000000 0.000000 0.000000 0.000000 0.000000 0.207904
#
#
# Mechanical properties :
#
#
# Convention : Reuss Voigt Hill
#
# Bulk Modulus (GPa) = 44.75266 51.16328 47.95797
# Shear Modulus (GPa) = 12.98702 25.06152 19.02427
#
# Velocity S-wave (km/s) = 2.48158 3.44729 3.00350
# Velocity P-wave (km/s) = 5.42513 6.33292 5.89652
#
# Compressibility (1/GPa) = 0.02234504
#
# Stress axis : x y z
#
# Youngs Moduli (GPa) = 54.49980 122.85894 98.26884
#
# Poissons Ratio (x) = 0.20979 0.33922
# Poissons Ratio (y) = 0.09306 0.19655
# Poissons Ratio (z) = 0.18813 0.24573
#
# Static dielectric constant tensor:
#      x y z
#    x 3.459130 0.000000 0.000000 
#    y 0.000000 3.821920 0.000000 
#    z 0.000000 0.000000 4.013610 
# 
# 
# High freq. dielectric constant tensor:
#      x y z
#    x 1.798100 0.000000 0.000000 
#    y 0.000000 1.825650 0.000000 
#    z 0.000000 0.000000 1.838640 
# 
# From -- ./inp_files/4638.got.cif
#   From: 2010.03.12/outbox.cif.g09.slc.cpg/sg17_3_cif.got.tgz:4638.got - 2010.04.10 18:46:23.
