data_PCOD8155858
_publ_section_title
;
Structure prediction by ZEFSAII (Michael W. Deem and Ramdas Pophale) SiO2 
 PCOD8155858
Probable space group: P 21 21 2
;
_chemical_formula_sum "Si O2"
_cell_formula_units_Z 32
_cell_length_a 8.554909
_cell_length_b 19.728032
_cell_length_c 7.576370
_cell_angle_alpha 90.000000
_cell_angle_beta 90.000000
_cell_angle_gamma 90.000000
_cell_volume 1278.675470
_symmetry_space_group_name_H-M "P 21 21 2"
_symmetry_group_IT_number 18
_symmetry_cell_setting 'orthorhombic'
loop_
_space_group_symop_operation_xyz
x,y,z
-x,-y,z
1/2+x,1/2-y,-z
1/2-x,1/2+y,-z
loop_
_atom_site_type_symbol
_atom_site_label
_atom_site_fract_x
_atom_site_fract_y
_atom_site_fract_z
Si Si1 0.582017 0.430091 0.088079
Si Si2 0.442658 0.795202 0.519887
Si Si3 0.433665 0.072314 0.968415
Si Si4 0.067612 0.070983 0.330295
Si Si5 0.141882 0.805404 0.329568
Si Si6 0.417068 0.069964 0.385433
Si Si7 0.856932 0.696142 0.012253
Si Si8 0.556945 0.706716 0.198734
O O1 0.500000 0.500000 0.148566
O O2 0.766843 0.424005 0.130178
O O3 0.571003 0.422092 0.879339
O O4 0.491753 0.371909 0.194517
O O5 0.255862 0.792082 0.498747
O O6 0.522946 0.760097 0.694498
O O7 0.498734 0.871821 0.496134
O O8 0.508882 0.744371 0.372868
O O9 0.430352 0.082151 0.177955
O O10 0.549941 0.131762 0.908339
O O11 0.500000 0.000000 0.913398
O O12 0.233926 0.073607 0.428902
O O13 0.957170 0.130747 0.396555
O O14 0.000000 0.000000 0.391868
O O15 0.244971 0.822133 0.156504
O O16 0.500000 0.000000 0.441506
O O17 0.970615 0.757923 0.967926
O O18 0.743426 0.716033 0.173198
#
# Coordination Sequence:
#
# PCOD8155858 Si02
#       8
#     4   4   4   4   4   4   4   4
#     4  10  20  35  59  92 125 161 200 254 311 367
#     4  11  24  39  60  88 123 164 201 258 315 368
#     4  10  19  33  59  92 123 153 202 259 305 354
#     4  10  20  33  60  90 116 153 202 251 301 354
#     4  11  22  40  57  87 124 161 210 253 311 371
#     4  10  19  35  58  87 119 152 200 255 300 355
#     4  11  22  37  59  91 123 161 202 258 312 367
#     4  11  22  36  58  87 123 155 203 248 311 368
#
# _framework density 25.025897000000001
#
# number of rings (size 3 to 8) (size 9 to 14) (size 15 to 20)
#    0.000    1.500    3.750    3.000    5.250    1.000 
#    0.000    0.625    0.000    1.500    0.000    6.125 
#    0.000    0.000    0.000    0.000    0.000    0.000 
#
# Total GULP energy -396753.396976 kJ/mol
# GULP energy per Si atom -12398.543656 kJ/mol
# Density = 2.496894 g / cm^3
# Si number density = 25.025897 Si / 1000 Ang^3
#
#
#
# Elastic Constant Matrix: (Units=GPa)
#
#
# Indices 1 2 3 4 5 6 
#
# 1 168.8591 59.5532 -20.5514 0.0000 0.0000 0.0000
# 2 59.5532 182.2693 -5.3528 0.0000 0.0000 0.0000
# 3 -20.5514 -5.3528 31.7502 0.0000 0.0000 0.0000
# 4 0.0000 0.0000 0.0000 17.5370 0.0000 0.0000
# 5 0.0000 0.0000 0.0000 0.0000 13.0278 0.0000
# 6 0.0000 0.0000 0.0000 0.0000 0.0000 62.9447
#
#
#
# Elastic Compliance Matrix: (Units=1/GPa)
#
#
# Indices 1 2 3 4 5 6 
#
# 1 0.007235 -0.002238 0.004306 0.000000 0.000000 0.000000
# 2 -0.002238 0.006206 -0.000402 0.000000 0.000000 0.000000
# 3 0.004306 -0.000402 0.034215 0.000000 0.000000 0.000000
# 4 0.000000 0.000000 0.000000 0.057022 0.000000 0.000000
# 5 0.000000 0.000000 0.000000 0.000000 0.076759 0.000000
# 6 0.000000 0.000000 0.000000 0.000000 0.000000 0.015887
#
#
# Mechanical properties :
#
#
# Convention : Reuss Voigt Hill
#
# Bulk Modulus (GPa) = 19.61203 50.01962 34.81583
# Shear Modulus (GPa) = 23.69804 41.98387 32.84095
#
# Velocity S-wave (km/s) = 3.08058 4.10032 3.62647
# Velocity P-wave (km/s) = 4.52846 6.51516 5.61045
#
# Compressibility (1/GPa) = 0.05098911
#
# Stress axis : x y z
#
# Youngs Moduli (GPa) = 138.21096 161.14329 29.22668
#
# Poissons Ratio (x) = 0.36057 -0.12585
# Poissons Ratio (y) = 0.30925 0.01175
# Poissons Ratio (z) = -0.59515 0.06480
#
# Static dielectric constant tensor:
#      x y z
#    x 5.162880 0.000000 0.000000 
#    y 0.000000 4.612760 0.000000 
#    z 0.000000 0.000000 4.296330 
# 
# 
# High freq. dielectric constant tensor:
#      x y z
#    x 2.023550 0.000000 0.000000 
#    y 0.000000 2.001520 0.000000 
#    z 0.000000 0.000000 1.987890 
# 
# From -- ./inp_files/5745.got.cif
#   From: 2010.03.12/outbox.cif.g09.slc.cpg/sg18_3_cif.got.tgz:5745.got - 2010.04.10 18:53:55.
