data_PCOD8155779
_publ_section_title
;
Structure prediction by ZEFSAII (Michael W. Deem and Ramdas Pophale) SiO2 
 PCOD8155779
Probable space group: P 21 21 2
;
_chemical_formula_sum "Si O2"
_cell_formula_units_Z 24
_cell_length_a 14.762778
_cell_length_b 9.221474
_cell_length_c 9.197336
_cell_angle_alpha 90.000000
_cell_angle_beta 90.000000
_cell_angle_gamma 90.000000
_cell_volume 1252.075414
_symmetry_space_group_name_H-M "P 21 21 2"
_symmetry_group_IT_number 18
_symmetry_cell_setting 'orthorhombic'
loop_
_space_group_symop_operation_xyz
x,y,z
-x,-y,z
1/2+x,1/2-y,-z
1/2-x,1/2+y,-z
loop_
_atom_site_type_symbol
_atom_site_label
_atom_site_fract_x
_atom_site_fract_y
_atom_site_fract_z
Si Si1 0.161057 0.748813 0.951893
Si Si2 0.325194 0.353170 0.371225
Si Si3 0.289739 0.938923 0.128715
Si Si4 0.691269 0.966817 0.454324
Si Si5 0.500000 0.000000 0.385604
Si Si6 0.028152 0.273363 0.850863
Si Si7 0.500000 0.500000 0.312023
O O1 0.182764 0.828380 0.800345
O O2 0.206617 0.590357 0.957334
O O3 0.051575 0.736611 0.972676
O O4 0.203185 0.845964 0.079629
O O5 0.304268 0.207096 0.459985
O O6 0.252136 0.473182 0.416629
O O7 0.424793 0.418314 0.409901
O O8 0.382311 0.851905 0.091028
O O9 0.278190 0.967595 0.299588
O O10 0.588331 0.019897 0.484973
O O11 0.480758 0.137923 0.281629
O O12 0.052921 0.114206 0.791637
#
# Coordination Sequence:
#
# PCOD8155779 Si02
#       7
#     4   4   4   4   2   4   2
#     4  10  20  37  57  86 112 143 191 228 275 334
#     4  10  22  36  58  86 114 144 191 233 275 337
#     4  10  21  35  60  83 112 146 186 233 277 327
#     4  10  21  36  59  85 112 147 189 232 281 329
#     4  10  16  38  58  78 108 152 186 230 268 332
#     4  10  18  36  58  80 110 149 190 228 267 334
#     4  10  20  34  58  86 108 146 200 226 266 336
#
# _framework density 19.168174
#
# number of rings (size 3 to 8) (size 9 to 14) (size 15 to 20)
#    0.000    2.000    6.667    0.000    9.333    0.000 
#    0.000    0.000   14.667    0.000    0.000    0.000 
#    0.000    0.000    0.000    0.000    0.000    0.000 
#
# Total GULP energy -297538.631808 kJ/mol
# GULP energy per Si atom -12397.442992 kJ/mol
# Density = 1.912455 g / cm^3
# Si number density = 19.168174 Si / 1000 Ang^3
#
#
#
# Elastic Constant Matrix: (Units=GPa)
#
#
# Indices 1 2 3 4 5 6 
#
# 1 122.4348 47.4466 30.8931 0.0000 0.0000 0.0000
# 2 47.4466 125.3650 28.3135 0.0000 0.0000 0.0000
# 3 30.8931 28.3135 31.1688 0.0000 0.0000 0.0000
# 4 0.0000 0.0000 0.0000 30.8896 0.0000 0.0000
# 5 0.0000 0.0000 0.0000 0.0000 29.1014 0.0000
# 6 0.0000 0.0000 0.0000 0.0000 0.0000 39.3705
#
#
#
# Elastic Compliance Matrix: (Units=1/GPa)
#
#
# Indices 1 2 3 4 5 6 
#
# 1 0.011358 -0.002209 -0.009250 0.000000 0.000000 0.000000
# 2 -0.002209 0.010465 -0.007317 0.000000 0.000000 0.000000
# 3 -0.009250 -0.007317 0.047898 0.000000 0.000000 0.000000
# 4 0.000000 0.000000 0.000000 0.032373 0.000000 0.000000
# 5 0.000000 0.000000 0.000000 0.000000 0.034363 0.000000
# 6 0.000000 0.000000 0.000000 0.000000 0.000000 0.025400
#
#
# Mechanical properties :
#
#
# Convention : Reuss Voigt Hill
#
# Bulk Modulus (GPa) = 31.08633 54.69720 42.89176
# Shear Modulus (GPa) = 23.79440 31.36001 27.57720
#
# Velocity S-wave (km/s) = 3.52710 4.04919 3.79713
# Velocity P-wave (km/s) = 5.73063 7.10343 6.45364
#
# Compressibility (1/GPa) = 0.03216848
#
# Stress axis : x y z
#
# Youngs Moduli (GPa) = 88.04441 95.55306 20.87750
#
# Poissons Ratio (x) = 0.21112 0.19313
# Poissons Ratio (y) = 0.19453 0.15276
# Poissons Ratio (z) = 0.81445 0.69914
#
# Static dielectric constant tensor:
#      x y z
#    x 3.518110 0.000000 0.000000 
#    y 0.000000 3.851280 0.000000 
#    z 0.000000 0.000000 2.926960 
# 
# 
# High freq. dielectric constant tensor:
#      x y z
#    x 1.749930 0.000000 0.000000 
#    y 0.000000 1.773950 0.000000 
#    z 0.000000 0.000000 1.682090 
# 
# From -- ./inp_files/3206.got.cif
#   From: 2010.03.12/outbox.cif.g09.slc.cpg/sg18_2_cif.got.tgz:3206.got - 2010.04.10 18:53:55.
