data_PCOD8155207
_publ_section_title
;
Structure prediction by ZEFSAII (Michael W. Deem and Ramdas Pophale) SiO2 
 PCOD8155207
Probable space group: P 2 2 2
;
_chemical_formula_sum "Si O2"
_cell_formula_units_Z 30
_cell_length_a 8.532315
_cell_length_b 11.125912
_cell_length_c 15.133932
_cell_angle_alpha 90.000000
_cell_angle_beta 90.000000
_cell_angle_gamma 90.000000
_cell_volume 1436.660924
_symmetry_space_group_name_H-M "P 2 2 2"
_symmetry_group_IT_number 16
_symmetry_cell_setting 'orthorhombic'
loop_
_space_group_symop_operation_xyz
x,y,z
-x,-y,z
x,-y,-z
-x,y,-z
loop_
_atom_site_type_symbol
_atom_site_label
_atom_site_fract_x
_atom_site_fract_y
_atom_site_fract_z
Si Si1 0.166922 0.220047 0.888945
Si Si2 0.430605 0.804566 0.412215
Si Si3 0.190559 0.247396 0.085300
Si Si4 0.680541 0.978462 0.166578
Si Si5 0.773105 0.000000 0.500000
Si Si6 0.299007 0.373126 0.245233
Si Si7 0.242749 0.862285 0.661430
Si Si8 0.664683 0.358606 0.265129
O O1 0.225642 0.302177 0.809333
O O2 0.981290 0.202686 0.886461
O O3 0.244519 0.089801 0.884034
O O4 0.209044 0.282681 0.982673
O O5 0.500000 0.738563 0.500000
O O6 0.573038 0.860292 0.358344
O O7 0.321613 0.712951 0.357380
O O8 0.327123 0.917942 0.436240
O O9 0.309694 0.138529 0.104821
O O10 0.234124 0.362767 0.145223
O O11 0.778945 0.953559 0.256845
O O12 0.500000 0.000000 0.188851
O O13 0.857994 0.911487 0.425971
O O14 0.206821 0.276228 0.308205
O O15 0.484244 0.349754 0.236974
O O16 0.272436 0.506653 0.282394
#
# Coordination Sequence:
#
# PCOD8155207 Si02
#       8
#     4   4   4   4   2   4   4   4
#     4  11  22  36  55  79 109 147 193 237 285 346
#     4   9  16  28  49  81 116 144 174 224 282 338
#     4  10  23  38  52  77 112 149 189 238 289 342
#     4  11  20  33  55  81 113 148 186 235 292 348
#     4  10  15  24  46  78 111 140 169 208 271 342
#     4   9  20  37  52  75 110 144 184 237 285 333
#     4   9  16  28  47  74 109 139 169 215 274 331
#     4  10  20  35  56  80 108 143 191 237 282 336
#
# _framework density 20.881755999999999
#
# number of rings (size 3 to 8) (size 9 to 14) (size 15 to 20)
#    0.000    2.133    0.000    6.600    0.000    4.800 
#    0.000   14.000    0.000    0.000    0.000   68.133 
#    0.000   53.333    0.000    0.000    0.000    0.000 
#
# Total GULP energy -371643.686901 kJ/mol
# GULP energy per Si atom -12388.122897 kJ/mol
# Density = 2.083423 g / cm^3
# Si number density = 20.881756 Si / 1000 Ang^3
#
#
#
# Elastic Constant Matrix: (Units=GPa)
#
#
# Indices 1 2 3 4 5 6 
#
# 1 25.1294 16.1576 18.1368 0.0000 0.0000 0.0000
# 2 16.1576 116.4101 62.7029 0.0000 0.0000 0.0000
# 3 18.1368 62.7029 147.3101 0.0000 0.0000 0.0000
# 4 0.0000 0.0000 0.0000 24.9455 0.0000 0.0000
# 5 0.0000 0.0000 0.0000 0.0000 12.0212 0.0000
# 6 0.0000 0.0000 0.0000 0.0000 0.0000 17.0582
#
#
#
# Elastic Compliance Matrix: (Units=1/GPa)
#
#
# Indices 1 2 3 4 5 6 
#
# 1 0.045243 -0.004255 -0.003759 0.000000 0.000000 0.000000
# 2 -0.004255 0.011546 -0.004391 0.000000 0.000000 0.000000
# 3 -0.003759 -0.004391 0.009120 0.000000 0.000000 0.000000
# 4 0.000000 0.000000 0.000000 0.040087 0.000000 0.000000
# 5 0.000000 0.000000 0.000000 0.000000 0.083186 0.000000
# 6 0.000000 0.000000 0.000000 0.000000 0.000000 0.058623
#
#
# Mechanical properties :
#
#
# Convention : Reuss Voigt Hill
#
# Bulk Modulus (GPa) = 24.33118 53.64937 38.99027
# Shear Modulus (GPa) = 17.46329 23.59513 20.52921
#
# Velocity S-wave (km/s) = 2.89501 3.36510 3.13887
# Velocity P-wave (km/s) = 4.78037 6.39111 5.64351
#
# Compressibility (1/GPa) = 0.04109953
#
# Stress axis : x y z
#
# Youngs Moduli (GPa) = 22.10288 86.61111 109.64746
#
# Poissons Ratio (x) = 0.36851 0.41219
# Poissons Ratio (y) = 0.09404 0.48143
# Poissons Ratio (z) = 0.08309 0.38028
#
# Static dielectric constant tensor:
#      x y z
#    x 3.446140 0.000000 0.000000 
#    y 0.000000 3.878650 0.000000 
#    z 0.000000 0.000000 4.222380 
# 
# 
# High freq. dielectric constant tensor:
#      x y z
#    x 1.781470 0.000000 0.000000 
#    y 0.000000 1.810000 0.000000 
#    z 0.000000 0.000000 1.831410 
# 
# From -- ./inp_files/7959.got.cif
#   From: 2010.03.12/outbox.cif.g09.slc.cpg/sg16_4_cif.got.tgz:7959.got - 2010.03.31 00:51:45.
