data_PCOD8155743
_publ_section_title
;
Structure prediction by ZEFSAII (Michael W. Deem and Ramdas Pophale) SiO2 
 PCOD8155743
Probable space group: P 2 2 21
;
_chemical_formula_sum "Si O2"
_cell_formula_units_Z 16
_cell_length_a 4.980056
_cell_length_b 24.606057
_cell_length_c 5.281414
_cell_angle_alpha 90.000000
_cell_angle_beta 90.000000
_cell_angle_gamma 90.000000
_cell_volume 647.182052
_symmetry_space_group_name_H-M "P 2 2 21"
_symmetry_group_IT_number 17
_symmetry_cell_setting 'orthorhombic'
loop_
_space_group_symop_operation_xyz
x,y,z
-x,-y,1/2+z
x,-y,-z
-x,y,1/2-z
loop_
_atom_site_type_symbol
_atom_site_label
_atom_site_fract_x
_atom_site_fract_y
_atom_site_fract_z
Si Si1 0.500000 0.533706 0.250000
Si Si2 0.673694 0.310035 0.996128
Si Si3 0.000000 0.032746 0.750000
Si Si4 0.748233 0.193865 0.092271
Si Si5 0.000000 0.393233 0.750000
Si Si6 0.500000 0.103047 0.750000
O O1 0.417015 0.500000 0.500000
O O2 0.752376 0.569718 0.337649
O O3 0.500000 0.322725 0.750000
O O4 0.913044 0.354474 0.988281
O O5 0.500000 0.316892 0.250000
O O6 0.815717 0.250214 0.950212
O O7 0.256697 0.066498 0.855928
O O8 0.096448 0.000000 0.500000
O O9 0.500000 0.215032 0.250000
O O10 0.000000 0.172315 0.250000
O O11 0.651125 0.141427 0.944869
#
# Coordination Sequence:
#
# PCOD8155743 Si02
#       6
#     2   4   2   4   2   2
#     4  12  30  53  78 112 150 201 272 338 390 460
#     4  11  27  48  76 120 164 206 257 314 389 485
#     4  12  30  51  78 112 150 201 274 338 388 458
#     4  11  26  45  74 115 162 204 254 312 387 483
#     4  12  28  51  84 110 158 209 260 324 408 460
#     4  12  26  49  82 106 156 209 256 324 404 460
#
# _framework density 24.722563000000001
#
# number of rings (size 3 to 8) (size 9 to 14) (size 15 to 20)
#    0.000    0.500    2.500    3.000   14.000    3.000 
#    0.000    0.000    0.000    0.000    0.000    0.000 
#    0.000    0.000    0.000    0.000    0.000    0.000 
#
# Total GULP energy -198245.148532 kJ/mol
# GULP energy per Si atom -12390.321783 kJ/mol
# Density = 2.466629 g / cm^3
# Si number density = 24.722563 Si / 1000 Ang^3
#
#
#
# Elastic Constant Matrix: (Units=GPa)
#
#
# Indices 1 2 3 4 5 6 
#
# 1 185.9028 75.0182 56.2954 0.0000 0.0000 0.0000
# 2 75.0182 160.9149 57.5698 0.0000 0.0000 0.0000
# 3 56.2954 57.5698 147.9616 0.0000 0.0000 0.0000
# 4 0.0000 0.0000 0.0000 33.8243 0.0000 0.0000
# 5 0.0000 0.0000 0.0000 0.0000 43.2198 0.0000
# 6 0.0000 0.0000 0.0000 0.0000 0.0000 69.0914
#
#
#
# Elastic Compliance Matrix: (Units=1/GPa)
#
#
# Indices 1 2 3 4 5 6 
#
# 1 0.006939 -0.002661 -0.001605 0.000000 0.000000 0.000000
# 2 -0.002661 0.008240 -0.002194 0.000000 0.000000 0.000000
# 3 -0.001605 -0.002194 0.008223 0.000000 0.000000 0.000000
# 4 0.000000 0.000000 0.000000 0.029565 0.000000 0.000000
# 5 0.000000 0.000000 0.000000 0.000000 0.023138 0.000000
# 6 0.000000 0.000000 0.000000 0.000000 0.000000 0.014474
#
#
# Mechanical properties :
#
#
# Convention : Reuss Voigt Hill
#
# Bulk Modulus (GPa) = 95.39388 96.94956 96.17172
# Shear Modulus (GPa) = 46.73367 49.62018 48.17692
#
# Velocity S-wave (km/s) = 4.35250 4.48491 4.41920
# Velocity P-wave (km/s) = 7.99553 8.13138 8.06374
#
# Compressibility (1/GPa) = 0.01048285
#
# Stress axis : x y z
#
# Youngs Moduli (GPa) = 144.11693 121.36387 121.61619
#
# Poissons Ratio (x) = 0.32292 0.19517
# Poissons Ratio (y) = 0.38345 0.26678
# Poissons Ratio (z) = 0.23128 0.26623
#
# Static dielectric constant tensor:
#      x y z
#    x 4.549400 0.000000 0.000000 
#    y 0.000000 4.922520 0.000000 
#    z 0.000000 0.000000 4.169950 
# 
# 
# High freq. dielectric constant tensor:
#      x y z
#    x 2.003660 0.000000 0.000000 
#    y 0.000000 2.010000 0.000000 
#    z 0.000000 0.000000 1.961410 
# 
# From -- ./inp_files/302.got.cif
#   From: 2010.03.12/outbox.cif.g09.slc.cpg/sg17_1_cif.got.tgz:302.got - 2010.04.10 18:46:23.
