data_PCOD8155569
_publ_section_title
;
Structure prediction by ZEFSAII (Michael W. Deem and Ramdas Pophale) SiO2 
 PCOD8155569
Probable space group: P 2 2 21
;
_chemical_formula_sum "Si O2"
_cell_formula_units_Z 16
_cell_length_a 12.917145
_cell_length_b 12.914160
_cell_length_c 5.004643
_cell_angle_alpha 90.000000
_cell_angle_beta 90.000000
_cell_angle_gamma 90.000000
_cell_volume 834.844904
_symmetry_space_group_name_H-M "P 2 2 21"
_symmetry_group_IT_number 17
_symmetry_cell_setting 'orthorhombic'
loop_
_space_group_symop_operation_xyz
x,y,z
-x,-y,1/2+z
x,-y,-z
-x,y,1/2-z
loop_
_atom_site_type_symbol
_atom_site_label
_atom_site_fract_x
_atom_site_fract_y
_atom_site_fract_z
Si Si1 0.382647 0.428590 0.249826
Si Si2 0.880937 0.070483 0.246037
Si Si3 0.888221 0.396847 0.638365
Si Si4 0.195019 0.290722 0.331214
O O1 0.357006 0.500000 0.500000
O O2 0.500000 0.385973 0.250000
O O3 0.307820 0.329162 0.237206
O O4 0.361504 0.500000 0.000000
O O5 0.805524 0.166883 0.182283
O O6 0.000000 0.108647 0.250000
O O7 0.851124 0.000000 0.500000
O O8 0.859576 0.000000 0.000000
O O9 0.836913 0.500000 0.500000
O O10 0.892573 0.318272 0.390649
O O11 0.000000 0.427076 0.750000
O O12 0.825857 0.343890 0.881395
#
# Coordination Sequence:
#
# PCOD8155569 Si02
#       4
#     4   4   4   4
#     4  10  21  37  57  82 111 143 182 226 272 329
#     4  10  21  37  55  77 106 142 187 234 277 326
#     4  12  23  34  50  80 117 148 178 217 271 341
#     4  12  22  36  58  79 108 149 189 227 278 330
#
# _framework density 19.165236
#
# number of rings (size 3 to 8) (size 9 to 14) (size 15 to 20)
#    0.000    1.000    0.000    9.750    0.000    2.000 
#    0.000    0.000    0.000    1.500    0.000    0.000 
#    0.000    0.000    0.000    0.000    0.000    0.000 
#
# Total GULP energy -198255.713213 kJ/mol
# GULP energy per Si atom -12390.982076 kJ/mol
# Density = 1.912161 g / cm^3
# Si number density = 19.165236 Si / 1000 Ang^3
#
#
#
# Elastic Constant Matrix: (Units=GPa)
#
#
# Indices 1 2 3 4 5 6 
#
# 1 87.1434 76.9603 34.0800 0.0000 0.0000 0.0000
# 2 76.9603 155.0814 68.9950 0.0000 0.0000 0.0000
# 3 34.0800 68.9950 166.3268 0.0000 0.0000 0.0000
# 4 0.0000 0.0000 0.0000 71.3540 0.0000 0.0000
# 5 0.0000 0.0000 0.0000 0.0000 21.6755 0.0000
# 6 0.0000 0.0000 0.0000 0.0000 0.0000 30.8183
#
#
#
# Elastic Compliance Matrix: (Units=1/GPa)
#
#
# Indices 1 2 3 4 5 6 
#
# 1 0.020429 -0.010148 0.000024 0.000000 0.000000 0.000000
# 2 -0.010148 0.012949 -0.003292 0.000000 0.000000 0.000000
# 3 0.000024 -0.003292 0.007373 0.000000 0.000000 0.000000
# 4 0.000000 0.000000 0.000000 0.014015 0.000000 0.000000
# 5 0.000000 0.000000 0.000000 0.000000 0.046135 0.000000
# 6 0.000000 0.000000 0.000000 0.000000 0.000000 0.032448
#
#
# Mechanical properties :
#
#
# Convention : Reuss Voigt Hill
#
# Bulk Modulus (GPa) = 71.85231 85.40245 78.62738
# Shear Modulus (GPa) = 30.33597 40.00398 35.16998
#
# Velocity S-wave (km/s) = 3.98284 4.57368 4.28845
# Velocity P-wave (km/s) = 7.66310 8.51758 8.10161
#
# Compressibility (1/GPa) = 0.01391744
#
# Stress axis : x y z
#
# Youngs Moduli (GPa) = 48.95111 77.22528 135.63070
#
# Poissons Ratio (x) = 0.78372 -0.00325
# Poissons Ratio (y) = 0.49678 0.44651
# Poissons Ratio (z) = -0.00117 0.25423
#
# Static dielectric constant tensor:
#      x y z
#    x 3.202240 0.000000 0.000000 
#    y 0.000000 3.342880 0.000000 
#    z 0.000000 0.000000 3.886910 
# 
# 
# High freq. dielectric constant tensor:
#      x y z
#    x 1.719170 0.000000 0.000000 
#    y 0.000000 1.732610 0.000000 
#    z 0.000000 0.000000 1.778330 
# 
# From -- ./inp_files/1949.got.cif
#   From: 2010.03.12/outbox.cif.g09.slc.cpg/sg17_1_cif.got.tgz:1949.got - 2010.04.10 18:46:23.
