data_PCOD8155113
_publ_section_title
;
Structure prediction by ZEFSAII (Michael W. Deem and Ramdas Pophale) SiO2 
 PCOD8155113
Probable space group: C 2/C
;
_chemical_formula_sum "Si O2"
_cell_formula_units_Z 36
_cell_length_a 15.540336
_cell_length_b 11.325007
_cell_length_c 14.998021
_cell_angle_alpha 90.000000
_cell_angle_beta 142.386038
_cell_angle_gamma 90.000000
_cell_volume 1611.029166
_symmetry_space_group_name_H-M "C 2/C"
_symmetry_group_IT_number 15
_symmetry_cell_setting 'monoclinic'
loop_
_space_group_symop_operation_xyz
x,y,z
-x,y,1/2-z
-x,-y,-z
x,-y,1/2+z
1/2+x,1/2+y,z
1/2-x,1/2+y,1/2-z
1/2-x,1/2-y,-z
1/2+x,1/2-y,1/2+z
loop_
_atom_site_type_symbol
_atom_site_label
_atom_site_fract_x
_atom_site_fract_y
_atom_site_fract_z
Si Si1 0.399048 0.019794 0.498555
Si Si2 0.600766 0.219281 0.413787
Si Si3 0.018050 0.859696 0.026422
Si Si4 0.796812 0.224758 0.205268
Si Si5 0.500000 0.839792 0.250000
O O1 0.265150 0.093934 0.356164
O O2 0.474917 0.082261 0.642897
O O3 0.500000 0.000000 0.500000
O O4 0.355774 0.890163 0.490154
O O5 0.500000 0.183051 0.250000
O O6 0.750000 0.250000 0.500000
O O7 0.527855 0.323897 0.411158
O O8 0.179242 0.819912 0.139974
O O9 0.920814 0.784535 0.879547
O O10 0.000000 0.000000 0.000000
O O11 0.864107 0.260850 0.164868
#
# Coordination Sequence:
#
# PCOD8155113 Si02
#       5
#     8   8   8   8   4
#     4  12  26  49  80 105 156 202 250 315 385 457
#     4  12  28  48  75 112 149 198 258 315 385 453
#     4  12  30  48  79 112 160 204 257 321 392 461
#     4  12  27  49  77 114 155 201 262 311 391 459
#     4  12  26  48  76 118 150 200 258 312 388 464
#
# _framework density 22.345963000000001
#
# number of rings (size 3 to 8) (size 9 to 14) (size 15 to 20)
#    0.000    0.000    5.556    2.000   12.444    0.000 
#    0.000    0.000    0.000    0.000    0.000    0.000 
#    0.000    0.000    0.000    0.000    0.000    0.000 
#
# Total GULP energy -223202.811803 kJ/mol
# GULP energy per Si atom -12400.156211 kJ/mol
# Density = 2.229510 g / cm^3
# Si number density = 22.345963 Si / 1000 Ang^3
#
#
#
# Elastic Constant Matrix: (Units=GPa)
#
#
# Indices 1 2 3 4 5 6 
#
# 1 226.0548 77.2008 45.9588 0.0000 17.7411 0.0000
# 2 77.2008 138.8295 6.3174 0.0000 8.4102 0.0000
# 3 45.9588 6.3174 87.8933 0.0000 6.2639 0.0000
# 4 0.0000 0.0000 0.0000 38.2716 0.0000 -10.2093
# 5 17.7411 8.4102 6.2639 0.0000 45.5955 0.0000
# 6 0.0000 0.0000 0.0000 -10.2093 0.0000 39.7344
#
#
#
# Elastic Compliance Matrix: (Units=1/GPa)
#
#
# Indices 1 2 3 4 5 6 
#
# 1 0.006241 -0.003251 -0.002928 0.000000 -0.001427 0.000000
# 2 -0.003251 0.008994 0.001092 0.000000 -0.000544 0.000000
# 3 -0.002928 0.001092 0.012889 0.000000 -0.000833 0.000000
# 4 0.000000 0.000000 0.000000 0.028052 0.000000 0.007208
# 5 -0.001427 -0.000544 -0.000833 0.000000 0.022702 0.000000
# 6 0.000000 0.000000 0.000000 0.007208 0.000000 0.027019
#
#
# Mechanical properties :
#
#
# Convention : Reuss Voigt Hill
#
# Bulk Modulus (GPa) = 55.70733 79.08128 67.39431
# Shear Modulus (GPa) = 40.96518 46.27366 43.61942
#
# Velocity S-wave (km/s) = 4.28626 4.55552 4.42294
# Velocity P-wave (km/s) = 7.03418 7.94586 7.50388
#
# Compressibility (1/GPa) = 0.01795096
#
# Stress axis : x y z
#
# Youngs Moduli (GPa) = 160.22455 111.18322 77.58309
#
# Poissons Ratio (x) = 0.36146 0.22718
# Poissons Ratio (y) = 0.52089 -0.08474
# Poissons Ratio (z) = 0.46917 -0.12144
#
# Static dielectric constant tensor:
#      x y z
#    x 4.769390 0.000000 -0.595720 
#    y 0.000000 4.194350 0.000000 
#    z -0.595720 0.000000 4.666040 
# 
# 
# High freq. dielectric constant tensor:
#      x y z
#    x 1.901260 0.000000 -0.003830 
#    y 0.000000 1.892850 0.000000 
#    z -0.003830 0.000000 1.889020 
# 
# From -- ./inp_files/152805.got.cif
#   From: 2010.06.25/outbox.cif.g09.slc.cpg/sg15_77_cif.got.tgz:152805.got - 2010.06.28 07:06:18.
