data_PCOD8155429
_publ_section_title
;
Structure prediction by ZEFSAII (Michael W. Deem and Ramdas Pophale) SiO2 
 PCOD8155429
Probable space group: P 2 2 21
;
_chemical_formula_sum "Si O2"
_cell_formula_units_Z 24
_cell_length_a 9.400125
_cell_length_b 8.923059
_cell_length_c 15.162456
_cell_angle_alpha 90.000000
_cell_angle_beta 90.000000
_cell_angle_gamma 90.000000
_cell_volume 1271.794513
_symmetry_space_group_name_H-M "P 2 2 21"
_symmetry_group_IT_number 17
_symmetry_cell_setting 'orthorhombic'
loop_
_space_group_symop_operation_xyz
x,y,z
-x,-y,1/2+z
x,-y,-z
-x,y,1/2-z
loop_
_atom_site_type_symbol
_atom_site_label
_atom_site_fract_x
_atom_site_fract_y
_atom_site_fract_z
Si Si1 0.838034 0.064232 0.739484
Si Si2 0.362080 0.943007 0.403796
Si Si3 0.421695 0.626978 0.341185
Si Si4 0.334404 0.431712 0.089992
Si Si5 0.161919 0.410530 0.764886
Si Si6 0.344844 0.080397 0.092209
O O1 0.762880 0.035647 0.833349
O O2 0.826503 0.236232 0.707728
O O3 0.000000 0.013891 0.750000
O O4 0.770957 0.962793 0.664269
O O5 0.411371 0.768830 0.406894
O O6 0.309667 0.000000 0.500000
O O7 0.498736 0.037565 0.373252
O O8 0.500000 0.677335 0.250000
O O9 0.508831 0.494621 0.387123
O O10 0.262015 0.566671 0.321282
O O11 0.218225 0.479343 0.160814
O O12 0.340974 0.256084 0.079294
O O13 0.277913 0.500000 0.000000
O O14 0.000000 0.458420 0.750000
O O15 0.310143 0.000000 0.000000
#
# Coordination Sequence:
#
# PCOD8155429 Si02
#       6
#     4   4   4   4   4   4
#     4  10  21  37  57  81 114 151 182 223 277 331
#     4  10  19  34  56  82 110 143 184 228 275 328
#     4   9  18  35  57  80 108 143 181 225 276 329
#     4  11  21  35  56  81 108 140 184 232 274 323
#     4   9  19  37  58  79 109 147 183 218 272 331
#     4  11  22  36  57  83 111 144 186 230 275 326
#
# _framework density 18.870972999999999
#
# number of rings (size 3 to 8) (size 9 to 14) (size 15 to 20)
#    0.000    2.000    0.000    6.500    0.000    5.333 
#    0.000    2.500    0.000    0.000    0.000    0.000 
#    0.000    0.000    0.000    0.000    0.000    0.000 
#
# Total GULP energy -297594.820845 kJ/mol
# GULP energy per Si atom -12399.784202 kJ/mol
# Density = 1.882802 g / cm^3
# Si number density = 18.870973 Si / 1000 Ang^3
#
#
#
# Elastic Constant Matrix: (Units=GPa)
#
#
# Indices 1 2 3 4 5 6 
#
# 1 148.3905 58.5521 53.1637 0.0000 0.0000 0.0000
# 2 58.5521 145.8837 70.4749 0.0000 0.0000 0.0000
# 3 53.1637 70.4749 105.3584 0.0000 0.0000 0.0000
# 4 0.0000 0.0000 0.0000 35.6778 0.0000 0.0000
# 5 0.0000 0.0000 0.0000 0.0000 15.6474 0.0000
# 6 0.0000 0.0000 0.0000 0.0000 0.0000 63.7977
#
#
#
# Elastic Compliance Matrix: (Units=1/GPa)
#
#
# Indices 1 2 3 4 5 6 
#
# 1 0.008605 -0.002004 -0.003002 0.000000 0.000000 0.000000
# 2 -0.002004 0.010594 -0.006075 0.000000 0.000000 0.000000
# 3 -0.003002 -0.006075 0.015070 0.000000 0.000000 0.000000
# 4 0.000000 0.000000 0.000000 0.028029 0.000000 0.000000
# 5 0.000000 0.000000 0.000000 0.000000 0.063908 0.000000
# 6 0.000000 0.000000 0.000000 0.000000 0.000000 0.015675
#
#
# Mechanical properties :
#
#
# Convention : Reuss Voigt Hill
#
# Bulk Modulus (GPa) = 82.59448 84.89047 83.74248
# Shear Modulus (GPa) = 29.74814 37.52071 33.63442
#
# Velocity S-wave (km/s) = 3.97469 4.46385 4.22635
# Velocity P-wave (km/s) = 8.05775 8.46465 8.26370
#
# Compressibility (1/GPa) = 0.01210735
#
# Stress axis : x y z
#
# Youngs Moduli (GPa) = 116.21121 94.39451 66.35707
#
# Poissons Ratio (x) = 0.18912 0.19920
# Poissons Ratio (y) = 0.23283 0.40314
# Poissons Ratio (z) = 0.34886 0.57348
#
# Static dielectric constant tensor:
#      x y z
#    x 3.565230 0.000000 0.000000 
#    y 0.000000 3.397550 0.000000 
#    z 0.000000 0.000000 3.353410 
# 
# 
# High freq. dielectric constant tensor:
#      x y z
#    x 1.732860 0.000000 0.000000 
#    y 0.000000 1.731320 0.000000 
#    z 0.000000 0.000000 1.730080 
# 
# From -- ./inp_files/8121.got.cif
#   From: 2010.03.12/outbox.cif.g09.slc.cpg/sg17_5_cif.got.tgz:8121.got - 2010.04.10 18:46:23.
