data_PCOD8155499
_publ_section_title
;
Structure prediction by ZEFSAII (Michael W. Deem and Ramdas Pophale) SiO2 
 PCOD8155499
Probable space group: P 2 2 21
;
_chemical_formula_sum "Si O2"
_cell_formula_units_Z 16
_cell_length_a 18.908120
_cell_length_b 5.005864
_cell_length_c 8.403521
_cell_angle_alpha 90.000000
_cell_angle_beta 90.000000
_cell_angle_gamma 90.000000
_cell_volume 795.405676
_symmetry_space_group_name_H-M "P 2 2 21"
_symmetry_group_IT_number 17
_symmetry_cell_setting 'orthorhombic'
loop_
_space_group_symop_operation_xyz
x,y,z
-x,-y,1/2+z
x,-y,-z
-x,y,1/2-z
loop_
_atom_site_type_symbol
_atom_site_label
_atom_site_fract_x
_atom_site_fract_y
_atom_site_fract_z
Si Si1 0.445858 0.756528 0.609170
Si Si2 0.709514 0.246885 0.106906
Si Si3 0.851848 0.430116 0.185690
Si Si4 0.925276 0.071188 0.683977
O O1 0.446700 0.500000 0.500000
O O2 0.500000 0.714264 0.750000
O O3 0.367226 0.817223 0.684421
O O4 0.470756 0.000000 0.500000
O O5 0.772619 0.322164 0.230242
O O6 0.694601 0.500000 0.000000
O O7 0.736658 0.000000 0.000000
O O8 0.868658 0.691386 0.290501
O O9 0.906858 0.194697 0.218593
O O10 0.855512 0.500000 0.000000
O O11 0.000000 0.177264 0.750000
O O12 0.928881 0.000000 0.500000
#
# Coordination Sequence:
#
# PCOD8155499 Si02
#       4
#     4   4   4   4
#     4  10  20  36  58  85 118 154 194 236 281 336
#     4   9  18  34  58  85 113 150 192 232 280 342
#     4  11  21  39  63  85 110 149 195 236 282 341
#     4  12  25  41  59  85 117 149 186 236 290 343
#
# _framework density 20.115521000000001
#
# number of rings (size 3 to 8) (size 9 to 14) (size 15 to 20)
#    0.000    1.500    0.000    7.500    0.000    0.000 
#    0.000    3.750    0.000    0.000    0.000    0.000 
#    0.000    0.000    0.000    0.000    0.000    0.000 
#
# Total GULP energy -198345.599343 kJ/mol
# GULP energy per Si atom -12396.599959 kJ/mol
# Density = 2.006974 g / cm^3
# Si number density = 20.115521 Si / 1000 Ang^3
#
#
#
# Elastic Constant Matrix: (Units=GPa)
#
#
# Indices 1 2 3 4 5 6 
#
# 1 138.0146 37.2580 70.2920 0.0000 0.0000 0.0000
# 2 37.2580 135.9331 36.1702 0.0000 0.0000 0.0000
# 3 70.2920 36.1702 82.6423 0.0000 0.0000 0.0000
# 4 0.0000 0.0000 0.0000 24.0517 0.0000 0.0000
# 5 0.0000 0.0000 0.0000 0.0000 33.3966 0.0000
# 6 0.0000 0.0000 0.0000 0.0000 0.0000 -31.2571
#
#
#
# Elastic Compliance Matrix: (Units=1/GPa)
#
#
# Indices 1 2 3 4 5 6 
#
# 1 0.012841 -0.000694 -0.010618 0.000000 0.000000 0.000000
# 2 -0.000694 0.008364 -0.003070 0.000000 0.000000 0.000000
# 3 -0.010618 -0.003070 0.022475 0.000000 0.000000 0.000000
# 4 0.000000 0.000000 0.000000 0.041577 0.000000 0.000000
# 5 0.000000 0.000000 0.000000 0.000000 0.029943 0.000000
# 6 0.000000 0.000000 0.000000 0.000000 0.000000 -0.031993
#
#
# Mechanical properties :
#
#
# Convention : Reuss Voigt Hill
#
# Bulk Modulus (GPa) = 67.04581 71.55892 69.30237
# Shear Modulus (GPa) = 42.75548 19.42957 31.09253
#
# Velocity S-wave (km/s) = 4.61531 3.11126 3.93580
# Velocity P-wave (km/s) = 7.86157 6.96834 7.42839
#
# Compressibility (1/GPa) = 0.01491517
#
# Stress axis : x y z
#
# Youngs Moduli (GPa) = 77.87606 119.56350 44.49316
#
# Poissons Ratio (x) = 0.08300 0.47243
# Poissons Ratio (y) = 0.05406 0.13660
# Poissons Ratio (z) = 0.82690 0.36707
#
# Static dielectric constant tensor:
#      x y z
#    x 4.272700 0.000000 0.000000 
#    y 0.000000 3.862720 0.000000 
#    z 0.000000 0.000000 3.339360 
# 
# 
# High freq. dielectric constant tensor:
#      x y z
#    x 1.802830 0.000000 0.000000 
#    y 0.000000 1.813330 0.000000 
#    z 0.000000 0.000000 1.739240 
# 
# From -- ./inp_files/5328.got.cif
#   From: 2010.03.12/outbox.cif.g09.slc.cpg/sg17_3_cif.got.tgz:5328.got - 2010.04.10 18:46:23.
