data_PCOD8155354
_publ_section_title
;
Structure prediction by ZEFSAII (Michael W. Deem and Ramdas Pophale) SiO2 
 PCOD8155354
Probable space group: P 2 2 21
;
_chemical_formula_sum "Si O2"
_cell_formula_units_Z 32
_cell_length_a 10.506367
_cell_length_b 9.171202
_cell_length_c 18.058528
_cell_angle_alpha 90.000000
_cell_angle_beta 90.000000
_cell_angle_gamma 90.000000
_cell_volume 1740.047778
_symmetry_space_group_name_H-M "P 2 2 21"
_symmetry_group_IT_number 17
_symmetry_cell_setting 'orthorhombic'
loop_
_space_group_symop_operation_xyz
x,y,z
-x,-y,1/2+z
x,-y,-z
-x,y,1/2-z
loop_
_atom_site_type_symbol
_atom_site_label
_atom_site_fract_x
_atom_site_fract_y
_atom_site_fract_z
Si Si1 0.376834 0.798775 0.941252
Si Si2 0.260053 0.321042 0.805915
Si Si3 0.470393 0.553373 0.831234
Si Si4 0.418307 0.881986 0.100779
Si Si5 0.349669 0.713112 0.354375
Si Si6 0.026548 0.494146 0.169856
Si Si7 0.114456 0.656530 0.966561
Si Si8 0.133988 0.370442 0.552394
O O1 0.446501 0.674896 0.893663
O O2 0.230610 0.768713 0.966212
O O3 0.386848 0.947421 0.895061
O O4 0.448310 0.820824 0.018731
O O5 0.341708 0.464031 0.822936
O O6 0.295913 0.194154 0.863012
O O7 0.276733 0.265008 0.722566
O O8 0.115776 0.364430 0.821123
O O9 0.500000 0.622838 0.750000
O O10 0.583174 0.445991 0.857791
O O11 0.546269 0.842121 0.145432
O O12 0.252436 0.732720 0.424571
O O13 0.082057 0.364352 0.119813
O O14 0.000000 0.424082 0.250000
O O15 0.900636 0.555725 0.131065
O O16 0.157366 0.500000 0.000000
O O17 0.988799 0.709577 0.013575
O O18 0.182968 0.500000 0.500000
#
# Coordination Sequence:
#
# PCOD8155354 Si02
#       8
#     4   4   4   4   4   4   4   4
#     4  11  21  37  55  79 108 147 189 237 275 328
#     4  10  18  35  55  83 111 141 188 235 278 336
#     4   9  20  32  53  82 108 143 184 230 286 334
#     4  10  23  34  53  80 110 149 193 224 280 340
#     4  10  20  34  54  84 116 145 179 229 287 344
#     4  10  16  29  54  83 108 134 181 236 280 327
#     4   9  19  33  56  84 111 138 186 238 284 322
#     4   9  19  30  49  88 113 142 177 229 290 330
#
# _framework density 18.3903
#
# number of rings (size 3 to 8) (size 9 to 14) (size 15 to 20)
#    0.000    2.500    2.500    2.625    3.500    1.000 
#    0.000    0.000    0.000    6.750    0.000    0.000 
#    0.000    0.000    0.000    0.000    0.000    0.000 
#
# Total GULP energy -396533.088522 kJ/mol
# GULP energy per Si atom -12391.659016 kJ/mol
# Density = 1.834844 g / cm^3
# Si number density = 18.390300 Si / 1000 Ang^3
#
#
#
# Elastic Constant Matrix: (Units=GPa)
#
#
# Indices 1 2 3 4 5 6 
#
# 1 63.9964 24.5748 22.3818 0.0000 0.0000 0.0000
# 2 24.5748 74.1575 31.1965 0.0000 0.0000 0.0000
# 3 22.3818 31.1965 108.4036 0.0000 0.0000 0.0000
# 4 0.0000 0.0000 0.0000 24.7614 0.0000 0.0000
# 5 0.0000 0.0000 0.0000 0.0000 30.9778 0.0000
# 6 0.0000 0.0000 0.0000 0.0000 0.0000 10.9138
#
#
#
# Elastic Compliance Matrix: (Units=1/GPa)
#
#
# Indices 1 2 3 4 5 6 
#
# 1 0.018406 -0.005121 -0.002327 0.000000 0.000000 0.000000
# 2 -0.005121 0.016767 -0.003768 0.000000 0.000000 0.000000
# 3 -0.002327 -0.003768 0.010789 0.000000 0.000000 0.000000
# 4 0.000000 0.000000 0.000000 0.040385 0.000000 0.000000
# 5 0.000000 0.000000 0.000000 0.000000 0.032281 0.000000
# 6 0.000000 0.000000 0.000000 0.000000 0.000000 0.091627
#
#
# Mechanical properties :
#
#
# Convention : Reuss Voigt Hill
#
# Bulk Modulus (GPa) = 42.49568 44.76263 43.62916
# Shear Modulus (GPa) = 20.78740 24.55757 22.67248
#
# Velocity S-wave (km/s) = 3.36571 3.65821 3.51501
# Velocity P-wave (km/s) = 6.18561 6.49897 6.34423
#
# Compressibility (1/GPa) = 0.02353180
#
# Stress axis : x y z
#
# Youngs Moduli (GPa) = 54.33031 59.64150 92.68282
#
# Poissons Ratio (x) = 0.30541 0.21563
# Poissons Ratio (y) = 0.27821 0.34922
# Poissons Ratio (z) = 0.12640 0.22472
#
# Static dielectric constant tensor:
#      x y z
#    x 3.386290 0.000000 0.000000 
#    y 0.000000 2.938530 0.000000 
#    z 0.000000 0.000000 3.660990 
# 
# 
# High freq. dielectric constant tensor:
#      x y z
#    x 1.713840 0.000000 0.000000 
#    y 0.000000 1.656660 0.000000 
#    z 0.000000 0.000000 1.735430 
# 
# From -- ./inp_files/9675.got.cif
#   From: 2010.03.12/outbox.cif.g09.slc.cpg/sg17_5_cif.got.tgz:9675.got - 2010.04.10 18:46:23.
