data_PCOD8155680
_publ_section_title
;
Structure prediction by ZEFSAII (Michael W. Deem and Ramdas Pophale) SiO2 
 PCOD8155680
Probable space group: P 2 2 21
;
_chemical_formula_sum "Si O2"
_cell_formula_units_Z 14
_cell_length_a 10.767185
_cell_length_b 4.908310
_cell_length_c 11.680494
_cell_angle_alpha 90.000000
_cell_angle_beta 90.000000
_cell_angle_gamma 90.000000
_cell_volume 617.298711
_symmetry_space_group_name_H-M "P 2 2 21"
_symmetry_group_IT_number 17
_symmetry_cell_setting 'orthorhombic'
loop_
_space_group_symop_operation_xyz
x,y,z
-x,-y,1/2+z
x,-y,-z
-x,y,1/2-z
loop_
_atom_site_type_symbol
_atom_site_label
_atom_site_fract_x
_atom_site_fract_y
_atom_site_fract_z
Si Si1 0.261981 0.136488 0.376307
Si Si2 0.677944 0.258966 0.575780
Si Si3 0.500000 0.998009 0.750000
Si Si4 0.856452 0.634025 0.231509
O O1 0.395939 0.178478 0.315699
O O2 0.197783 0.432903 0.367618
O O3 0.279337 0.000000 0.500000
O O4 0.170014 0.942079 0.305879
O O5 0.621848 0.500000 0.500000
O O6 0.792304 0.395642 0.644530
O O7 0.721285 0.000000 0.500000
O O8 0.565572 0.189396 0.658620
O O9 0.000000 0.576334 0.250000
#
# Coordination Sequence:
#
# PCOD8155680 Si02
#       4
#     4   4   2   4
#     4  11  24  42  67  95 127 169 210 261 323 378
#     4  11  24  41  65  95 128 170 211 260 323 380
#     4  10  24  42  64  94 130 160 210 266 314 382
#     4  11  25  44  64  94 131 166 215 266 311 379
#
# _framework density 22.679459000000001
#
# number of rings (size 3 to 8) (size 9 to 14) (size 15 to 20)
#    0.000    1.143    0.000    6.000    0.000   18.286 
#    0.000    0.000    0.000    0.000    0.000    0.000 
#    0.000    0.000    0.000    0.000    0.000    0.000 
#
# Total GULP energy -173568.549119 kJ/mol
# GULP energy per Si atom -12397.753508 kJ/mol
# Density = 2.262784 g / cm^3
# Si number density = 22.679459 Si / 1000 Ang^3
#
#
#
# Elastic Constant Matrix: (Units=GPa)
#
#
# Indices 1 2 3 4 5 6 
#
# 1 160.4862 25.9715 37.8180 0.0000 0.0000 0.0000
# 2 25.9715 91.7046 14.3640 0.0000 0.0000 0.0000
# 3 37.8180 14.3640 106.1819 0.0000 0.0000 0.0000
# 4 0.0000 0.0000 0.0000 37.7206 0.0000 0.0000
# 5 0.0000 0.0000 0.0000 0.0000 12.8829 0.0000
# 6 0.0000 0.0000 0.0000 0.0000 0.0000 18.9150
#
#
#
# Elastic Compliance Matrix: (Units=1/GPa)
#
#
# Indices 1 2 3 4 5 6 
#
# 1 0.007034 -0.001634 -0.002284 0.000000 0.000000 0.000000
# 2 -0.001634 0.011520 -0.000976 0.000000 0.000000 0.000000
# 3 -0.002284 -0.000976 0.010363 0.000000 0.000000 0.000000
# 4 0.000000 0.000000 0.000000 0.026511 0.000000 0.000000
# 5 0.000000 0.000000 0.000000 0.000000 0.077622 0.000000
# 6 0.000000 0.000000 0.000000 0.000000 0.000000 0.052868
#
#
# Mechanical properties :
#
#
# Convention : Reuss Voigt Hill
#
# Bulk Modulus (GPa) = 52.27921 57.18663 54.73292
# Shear Modulus (GPa) = 24.74222 32.58500 28.66361
#
# Velocity S-wave (km/s) = 3.30654 3.79458 3.55893
# Velocity P-wave (km/s) = 6.13832 6.66846 6.40887
#
# Compressibility (1/GPa) = 0.01912806
#
# Stress axis : x y z
#
# Youngs Moduli (GPa) = 142.17121 86.80290 96.49357
#
# Poissons Ratio (x) = 0.14186 0.22040
# Poissons Ratio (y) = 0.23234 0.09421
# Poissons Ratio (z) = 0.32473 0.08475
#
# Static dielectric constant tensor:
#      x y z
#    x 4.002890 0.000000 0.000000 
#    y 0.000000 4.070870 0.000000 
#    z 0.000000 0.000000 4.622920 
# 
# 
# High freq. dielectric constant tensor:
#      x y z
#    x 1.886990 0.000000 0.000000 
#    y 0.000000 1.899850 0.000000 
#    z 0.000000 0.000000 1.907800 
# 
# From -- ./inp_files/6764.got.cif
#   From: 2010.03.12/outbox.cif.g09.slc.cpg/sg17_4_cif.got.tgz:6764.got - 2010.04.10 18:46:23.
