data_PCOD8155095
_publ_section_title
;
Structure prediction by ZEFSAII (Michael W. Deem and Ramdas Pophale) SiO2 
 PCOD8155095
Probable space group: C 2/C
;
_chemical_formula_sum "Si O2"
_cell_formula_units_Z 40
_cell_length_a 11.669025
_cell_length_b 8.411889
_cell_length_c 17.267882
_cell_angle_alpha 90.000000
_cell_angle_beta 92.510206
_cell_angle_gamma 90.000000
_cell_volume 1693.363687
_symmetry_space_group_name_H-M "C 2/C"
_symmetry_group_IT_number 15
_symmetry_cell_setting 'monoclinic'
loop_
_space_group_symop_operation_xyz
x,y,z
-x,y,1/2-z
-x,-y,-z
x,-y,1/2+z
1/2+x,1/2+y,z
1/2-x,1/2+y,1/2-z
1/2-x,1/2-y,-z
1/2+x,1/2-y,1/2+z
loop_
_atom_site_type_symbol
_atom_site_label
_atom_site_fract_x
_atom_site_fract_y
_atom_site_fract_z
Si Si1 0.613086 0.315626 0.793208
Si Si2 0.184456 0.465578 0.196562
Si Si3 0.520416 0.475023 0.589956
Si Si4 0.492494 0.820523 0.657572
Si Si5 0.745445 0.200548 0.410855
O O1 0.500000 0.390807 0.750000
O O2 0.727601 0.403888 0.767018
O O3 0.628246 0.131173 0.767750
O O4 0.580136 0.352702 0.882178
O O5 0.089664 0.550154 0.138936
O O6 0.257355 0.357988 0.141178
O O7 0.500000 0.500000 0.500000
O O8 0.520773 0.646368 0.628643
O O9 0.645592 0.403030 0.609932
O O10 0.500000 0.816580 0.750000
O O11 0.373892 0.885360 0.616192
O O12 0.750000 0.250000 0.500000
#
# Coordination Sequence:
#
# PCOD8155095 Si02
#       5
#     8   8   8   8   8
#     4  12  26  47  76 113 154 200 258 319 394 457
#     4  12  28  45  76 114 151 204 260 319 389 468
#     4  12  26  52  78 108 155 205 258 323 388 463
#     4  12  28  46  77 115 152 202 257 319 385 456
#     4  12  26  51  77 110 162 202 257 319 389 463
#
# _framework density 23.621623
#
# number of rings (size 3 to 8) (size 9 to 14) (size 15 to 20)
#    0.000    0.000    6.000    2.400    2.800    2.400 
#    0.000    2.000    0.000    0.000    0.000    0.000 
#    0.000    0.000    0.000    0.000    0.000    0.000 
#
# Total GULP energy -247903.556409 kJ/mol
# GULP energy per Si atom -12395.177820 kJ/mol
# Density = 2.356786 g / cm^3
# Si number density = 23.621623 Si / 1000 Ang^3
#
#
#
# Elastic Constant Matrix: (Units=GPa)
#
#
# Indices 1 2 3 4 5 6 
#
# 1 189.6650 66.2339 36.2013 0.0000 25.9679 0.0000
# 2 66.2339 103.2721 24.7718 0.0000 7.7333 0.0000
# 3 36.2013 24.7718 116.2574 0.0000 8.8286 0.0000
# 4 0.0000 0.0000 0.0000 26.5861 0.0000 4.8602
# 5 25.9679 7.7333 8.8286 0.0000 44.9533 0.0000
# 6 0.0000 0.0000 0.0000 4.8602 0.0000 43.7058
#
#
#
# Elastic Compliance Matrix: (Units=1/GPa)
#
#
# Indices 1 2 3 4 5 6 
#
# 1 0.007430 -0.004238 -0.001157 0.000000 -0.003336 0.000000
# 2 -0.004238 0.012703 -0.001428 0.000000 0.000543 0.000000
# 3 -0.001157 -0.001428 0.009336 0.000000 -0.000919 0.000000
# 4 0.000000 0.000000 0.000000 0.038394 0.000000 -0.004270
# 5 -0.003336 0.000543 -0.000919 0.000000 0.024259 0.000000
# 6 0.000000 0.000000 0.000000 -0.004270 0.000000 0.023355
#
#
# Mechanical properties :
#
#
# Convention : Reuss Voigt Hill
#
# Bulk Modulus (GPa) = 63.20265 73.73426 68.46846
# Shear Modulus (GPa) = 37.20273 41.84820 39.52547
#
# Velocity S-wave (km/s) = 3.97286 4.21361 4.09501
# Velocity P-wave (km/s) = 6.91803 7.41318 7.16988
#
# Compressibility (1/GPa) = 0.01582212
#
# Stress axis : x y z
#
# Youngs Moduli (GPa) = 134.58987 78.72120 107.11064
#
# Poissons Ratio (x) = 0.33361 0.12396
# Poissons Ratio (y) = 0.57037 0.15299
# Poissons Ratio (z) = 0.15576 0.11244
#
# Static dielectric constant tensor:
#      x y z
#    x 4.728970 0.000000 0.089100 
#    y 0.000000 3.772790 0.000000 
#    z 0.089100 0.000000 4.328780 
# 
# 
# High freq. dielectric constant tensor:
#      x y z
#    x 1.961950 0.000000 -0.000330 
#    y 0.000000 1.936300 0.000000 
#    z -0.000330 0.000000 1.928860 
# 
# From -- ./inp_files/195241.got.cif
#   From: 2010.06.25/outbox.cif.g09.slc.cpg/sg15_98_cif.got.tgz:195241.got - 2010.06.28 07:06:18.
