data_PCOD8155289
_publ_section_title
;
Structure prediction by ZEFSAII (Michael W. Deem and Ramdas Pophale) SiO2 
 PCOD8155289
Probable space group: P 2 2 2
;
_chemical_formula_sum "Si O2"
_cell_formula_units_Z 32
_cell_length_a 13.062350
_cell_length_b 7.504918
_cell_length_c 18.391931
_cell_angle_alpha 90.000000
_cell_angle_beta 90.000000
_cell_angle_gamma 90.000000
_cell_volume 1802.995309
_symmetry_space_group_name_H-M "P 2 2 2"
_symmetry_group_IT_number 16
_symmetry_cell_setting 'orthorhombic'
loop_
_space_group_symop_operation_xyz
x,y,z
-x,-y,z
x,-y,-z
-x,y,-z
loop_
_atom_site_type_symbol
_atom_site_label
_atom_site_fract_x
_atom_site_fract_y
_atom_site_fract_z
Si Si1 0.382560 0.297328 0.858154
Si Si2 0.258588 0.295080 0.715428
Si Si3 0.614053 0.288818 0.580667
Si Si4 0.754174 0.000000 0.918968
Si Si5 0.385947 0.711183 0.419333
Si Si6 0.617440 0.297329 0.858154
Si Si7 0.258588 0.704919 0.715428
Si Si8 0.120632 0.000000 0.223036
O O1 0.347525 0.274395 0.775023
O O2 0.500000 0.237559 0.862937
O O3 0.367941 0.499999 0.884484
O O4 0.315651 0.174605 0.910471
O O5 0.305459 0.218597 0.640214
O O6 0.221956 0.500000 0.708699
O O7 0.161320 0.176603 0.736834
O O8 0.650798 0.229856 0.500000
O O9 0.500000 0.212107 0.595476
O O10 0.608898 0.500000 0.586530
O O11 0.694541 0.218597 0.640214
O O12 0.684350 0.174607 0.910470
O O13 0.846462 1.000000 0.861424
O O14 0.801267 0.000000 0.000000
O O15 0.652475 0.274396 0.775023
O O16 0.161320 0.823397 0.736834
O O17 0.000000 0.000000 0.227804
#
# Coordination Sequence:
#
# PCOD8155289 Si02
#       8
#     4   4   4   4   4   4   4   4
#     4   9  17  29  47  72 101 132 160 183 216 271
#     4   9  17  31  51  72  97 128 160 197 236 274
#     4   8  13  23  44  75 107 136 162 187 222 272
#     4  10  21  35  50  70  95 120 150 192 239 286
#     4   8  13  23  44  75 107 136 162 187 222 272
#     4   9  17  29  47  72 101 132 160 183 216 271
#     4   9  17  31  51  72  97 128 160 197 236 274
#     4  10  22  38  54  71  87 112 159 209 249 288
#
# _framework density 17.748242999999999
#
# number of rings (size 3 to 8) (size 9 to 14) (size 15 to 20)
#    0.000    3.000    0.000    1.875    0.000    5.250 
#    0.000    3.750    0.000    3.000    0.000   10.500 
#    0.000    0.000    0.000    0.000    0.000    0.000 
#
# Total GULP energy -396705.726869 kJ/mol
# GULP energy per Si atom -12397.053965 kJ/mol
# Density = 1.770785 g / cm^3
# Si number density = 17.748243 Si / 1000 Ang^3
#
#
#
# Elastic Constant Matrix: (Units=GPa)
#
#
# Indices 1 2 3 4 5 6 
#
# 1 119.5701 41.8743 60.7942 0.0000 0.0000 0.0000
# 2 41.8743 76.7816 38.4637 0.0000 0.0000 0.0000
# 3 60.7942 38.4637 134.9039 0.0000 0.0000 0.0000
# 4 0.0000 0.0000 0.0000 12.9101 0.0000 0.0000
# 5 0.0000 0.0000 0.0000 0.0000 14.8200 0.0000
# 6 0.0000 0.0000 0.0000 0.0000 0.0000 16.9456
#
#
#
# Elastic Compliance Matrix: (Units=1/GPa)
#
#
# Indices 1 2 3 4 5 6 
#
# 1 0.012045 -0.004491 -0.004147 0.000000 0.000000 0.000000
# 2 -0.004491 0.016869 -0.002786 0.000000 0.000000 0.000000
# 3 -0.004147 -0.002786 0.010076 0.000000 0.000000 0.000000
# 4 0.000000 0.000000 0.000000 0.077458 0.000000 0.000000
# 5 0.000000 0.000000 0.000000 0.000000 0.067477 0.000000
# 6 0.000000 0.000000 0.000000 0.000000 0.000000 0.059012
#
#
# Mechanical properties :
#
#
# Convention : Reuss Voigt Hill
#
# Bulk Modulus (GPa) = 61.95419 68.16888 65.06154
# Shear Modulus (GPa) = 18.43889 21.61004 20.02446
#
# Velocity S-wave (km/s) = 3.22671 3.49318 3.36259
# Velocity P-wave (km/s) = 6.99037 7.40013 7.19817
#
# Compressibility (1/GPa) = 0.01614096
#
# Stress axis : x y z
#
# Youngs Moduli (GPa) = 83.02268 59.28097 99.24598
#
# Poissons Ratio (x) = 0.26625 0.41162
# Poissons Ratio (y) = 0.37288 0.27646
# Poissons Ratio (z) = 0.34433 0.16514
#
# Static dielectric constant tensor:
#      x y z
#    x 2.903360 0.000000 0.000000 
#    y 0.000000 3.465120 0.000000 
#    z 0.000000 0.000000 3.401210 
# 
# 
# High freq. dielectric constant tensor:
#      x y z
#    x 1.644500 0.000000 0.000000 
#    y 0.000000 1.690230 0.000000 
#    z 0.000000 0.000000 1.687860 
# 
# From -- ./inp_files/4907.got.cif
#   From: 2010.03.12/outbox.cif.g09.slc.cpg/sg16_3_cif.got.tgz:4907.got - 2010.03.31 00:51:45.
