data_PCOD8155363
_publ_section_title
;
Structure prediction by ZEFSAII (Michael W. Deem and Ramdas Pophale) SiO2 
 PCOD8155363
Probable space group: P 2 2 21
;
_chemical_formula_sum "Si O2"
_cell_formula_units_Z 24
_cell_length_a 9.235405
_cell_length_b 10.269558
_cell_length_c 14.683691
_cell_angle_alpha 90.000000
_cell_angle_beta 90.000000
_cell_angle_gamma 90.000000
_cell_volume 1392.653048
_symmetry_space_group_name_H-M "P 2 2 21"
_symmetry_group_IT_number 17
_symmetry_cell_setting 'orthorhombic'
loop_
_space_group_symop_operation_xyz
x,y,z
-x,-y,1/2+z
x,-y,-z
-x,y,1/2-z
loop_
_atom_site_type_symbol
_atom_site_label
_atom_site_fract_x
_atom_site_fract_y
_atom_site_fract_z
Si Si1 0.173582 0.367898 0.948287
Si Si2 0.336143 0.021667 0.234916
Si Si3 0.337660 0.715331 0.228258
Si Si4 0.080796 0.724529 0.344136
Si Si5 0.833215 0.116896 0.432786
Si Si6 0.135504 0.990277 0.598856
O O1 0.280856 0.357028 0.861740
O O2 0.005477 0.369069 0.913811
O O3 0.208593 0.500000 0.000000
O O4 0.201968 0.252426 0.018950
O O5 0.500000 0.066207 0.250000
O O6 0.268621 0.108008 0.155282
O O7 0.325141 0.869557 0.210467
O O8 0.251688 0.054715 0.327742
O O9 0.500000 0.670420 0.250000
O O10 0.244633 0.679528 0.319899
O O11 0.068057 0.868820 0.383121
O O12 0.000000 0.728226 0.250000
O O13 0.793529 0.000000 0.500000
O O14 0.001498 0.110569 0.402421
O O15 0.212688 0.000000 0.500000
#
# Coordination Sequence:
#
# PCOD8155363 Si02
#       6
#     4   4   4   4   4   4
#     4  11  21  35  55  83 107 142 186 227 268 318
#     4  10  20  33  52  84 114 141 177 225 274 325
#     4   9  18  35  57  79 106 147 186 213 266 336
#     4   9  16  32  55  76 105 137 180 221 260 322
#     4  11  18  34  56  79 107 137 179 227 274 313
#     4  10  17  30  55  80 103 139 177 225 270 319
#
# _framework density 17.233295999999999
#
# number of rings (size 3 to 8) (size 9 to 14) (size 15 to 20)
#    0.000    2.000    5.000    2.500    0.000    0.667 
#    3.000    6.667    0.000    0.000    0.000    0.000 
#    0.000    0.000    0.000    0.000    0.000    0.000 
#
# Total GULP energy -297513.436947 kJ/mol
# GULP energy per Si atom -12396.393206 kJ/mol
# Density = 1.719407 g / cm^3
# Si number density = 17.233296 Si / 1000 Ang^3
#
#
#
# Elastic Constant Matrix: (Units=GPa)
#
#
# Indices 1 2 3 4 5 6 
#
# 1 118.9405 22.1422 43.1400 0.0000 0.0000 0.0000
# 2 22.1422 70.2416 22.1609 0.0000 0.0000 0.0000
# 3 43.1400 22.1609 59.3205 0.0000 0.0000 0.0000
# 4 0.0000 0.0000 0.0000 26.6192 0.0000 0.0000
# 5 0.0000 0.0000 0.0000 0.0000 23.7964 0.0000
# 6 0.0000 0.0000 0.0000 0.0000 0.0000 11.6601
#
#
#
# Elastic Compliance Matrix: (Units=1/GPa)
#
#
# Indices 1 2 3 4 5 6 
#
# 1 0.011497 -0.001118 -0.007943 0.000000 0.000000 0.000000
# 2 -0.001118 0.016247 -0.005257 0.000000 0.000000 0.000000
# 3 -0.007943 -0.005257 0.024598 0.000000 0.000000 0.000000
# 4 0.000000 0.000000 0.000000 0.037567 0.000000 0.000000
# 5 0.000000 0.000000 0.000000 0.000000 0.042023 0.000000
# 6 0.000000 0.000000 0.000000 0.000000 0.000000 0.085762
#
#
# Mechanical properties :
#
#
# Convention : Reuss Voigt Hill
#
# Bulk Modulus (GPa) = 42.18269 47.04320 44.61294
# Shear Modulus (GPa) = 19.66708 23.15246 21.40977
#
# Velocity S-wave (km/s) = 3.38187 3.66932 3.52852
# Velocity P-wave (km/s) = 6.30713 6.73119 6.52261
#
# Compressibility (1/GPa) = 0.02370641
#
# Stress axis : x y z
#
# Youngs Moduli (GPa) = 86.98160 61.54803 40.65394
#
# Poissons Ratio (x) = 0.06882 0.32292
# Poissons Ratio (y) = 0.09725 0.21370
# Poissons Ratio (z) = 0.69090 0.32353
#
# Static dielectric constant tensor:
#      x y z
#    x 3.679350 0.000000 0.000000 
#    y 0.000000 2.800280 0.000000 
#    z 0.000000 0.000000 3.496340 
# 
# 
# High freq. dielectric constant tensor:
#      x y z
#    x 1.663970 0.000000 0.000000 
#    y 0.000000 1.617520 0.000000 
#    z 0.000000 0.000000 1.680620 
# 
# From -- ./inp_files/8094.got.cif
#   From: 2010.03.12/outbox.cif.g09.slc.cpg/sg17_5_cif.got.tgz:8094.got - 2010.04.10 18:46:23.
