data_PCOD8155169
_publ_section_title
;
Structure prediction by ZEFSAII (Michael W. Deem and Ramdas Pophale) SiO2 
 PCOD8155169
Probable space group: C 2/C
;
_chemical_formula_sum "Si O2"
_cell_formula_units_Z 44
_cell_length_a 21.076096
_cell_length_b 5.419334
_cell_length_c 15.189522
_cell_angle_alpha 90.000000
_cell_angle_beta 73.778426
_cell_angle_gamma 90.000000
_cell_volume 1665.853186
_symmetry_space_group_name_H-M "C 2/C"
_symmetry_group_IT_number 15
_symmetry_cell_setting 'monoclinic'
loop_
_space_group_symop_operation_xyz
x,y,z
-x,y,1/2-z
-x,-y,-z
x,-y,1/2+z
1/2+x,1/2+y,z
1/2-x,1/2+y,1/2-z
1/2-x,1/2-y,-z
1/2+x,1/2-y,1/2+z
loop_
_atom_site_type_symbol
_atom_site_label
_atom_site_fract_x
_atom_site_fract_y
_atom_site_fract_z
Si Si1 0.577994 0.034979 0.488108
Si Si2 0.283606 0.442596 0.706416
Si Si3 0.604870 0.126371 0.791822
Si Si4 0.500000 0.400508 0.750000
Si Si5 0.312404 0.410102 0.003015
Si Si6 0.384616 0.737567 0.862235
O O1 0.614829 0.279196 0.512124
O O2 0.500000 0.000000 0.500000
O O3 0.615620 0.007930 0.379991
O O4 0.592578 0.823637 0.550818
O O5 0.263726 0.710674 0.750908
O O6 0.352908 0.379716 0.727467
O O7 0.292664 0.442606 0.598150
O O8 0.528573 0.210811 0.812198
O O9 0.630376 0.954641 0.701597
O O10 0.443034 0.566043 0.808173
O O11 0.319227 0.584986 0.913747
O O12 0.250000 0.250000 0.000000
#
# Coordination Sequence:
#
# PCOD8155169 Si02
#       6
#     8   8   8   4   8   8
#     4  12  27  51  84 123 172 229 296 364 449 540
#     4  12  31  56  88 124 175 237 298 361 446 540
#     4  12  28  52  82 124 170 228 287 365 441 526
#     4  12  28  48  86 128 170 226 290 364 438 538
#     4  12  31  54  85 128 176 231 298 376 455 541
#     4  12  28  51  84 125 175 224 292 366 444 531
#
# _framework density 26.412890000000001
#
# number of rings (size 3 to 8) (size 9 to 14) (size 15 to 20)
#    0.000    0.000    1.818    6.000   12.727    3.636 
#    0.000    0.909    0.000    0.000    0.000    0.000 
#    0.000    0.000    0.000    0.000    0.000    0.000 
#
# Total GULP energy -272571.513601 kJ/mol
# GULP energy per Si atom -12389.614255 kJ/mol
# Density = 2.635277 g / cm^3
# Si number density = 26.412890 Si / 1000 Ang^3
#
#
#
# Elastic Constant Matrix: (Units=GPa)
#
#
# Indices 1 2 3 4 5 6 
#
# 1 125.7794 47.6685 46.0430 0.0000 9.3632 0.0000
# 2 47.6685 111.9440 58.5536 0.0000 3.5211 0.0000
# 3 46.0430 58.5536 179.9763 0.0000 3.6465 0.0000
# 4 0.0000 0.0000 0.0000 54.0465 0.0000 7.1625
# 5 9.3632 3.5211 3.6465 0.0000 35.5516 0.0000
# 6 0.0000 0.0000 0.0000 7.1625 0.0000 197.5731
#
#
#
# Elastic Compliance Matrix: (Units=1/GPa)
#
#
# Indices 1 2 3 4 5 6 
#
# 1 0.009914 -0.003435 -0.001376 0.000000 -0.002130 0.000000
# 2 -0.003435 0.011973 -0.003017 0.000000 0.000028 0.000000
# 3 -0.001376 -0.003017 0.006891 0.000000 -0.000046 0.000000
# 4 0.000000 0.000000 0.000000 0.018592 0.000000 -0.000674
# 5 -0.002130 0.000028 -0.000046 0.000000 0.028691 0.000000
# 6 0.000000 0.000000 0.000000 -0.000674 0.000000 0.005086
#
#
# Mechanical properties :
#
#
# Convention : Reuss Voigt Hill
#
# Bulk Modulus (GPa) = 76.20600 80.24775 78.22688
# Shear Modulus (GPa) = 49.41835 75.12987 62.27411
#
# Velocity S-wave (km/s) = 4.33019 5.33911 4.86090
# Velocity P-wave (km/s) = 7.34270 8.27383 7.82213
#
# Compressibility (1/GPa) = 0.01312233
#
# Stress axis : x y z
#
# Youngs Moduli (GPa) = 100.86275 83.52063 145.12313
#
# Poissons Ratio (x) = 0.28692 0.19963
# Poissons Ratio (y) = 0.34649 0.43784
# Poissons Ratio (z) = 0.13875 0.25199
#
# Static dielectric constant tensor:
#      x y z
#    x 5.135480 0.000000 0.039490 
#    y 0.000000 4.894850 0.000000 
#    z 0.039490 0.000000 5.559650 
# 
# 
# High freq. dielectric constant tensor:
#      x y z
#    x 2.079010 0.000000 0.006310 
#    y 0.000000 2.064580 0.000000 
#    z 0.006310 0.000000 2.086000 
# 
# From -- ./inp_files/170799.got.cif
#   From: 2010.06.25/outbox.cif.g09.slc.cpg/sg15_86_cif.got.tgz:170799.got - 2010.06.28 07:06:18.
