data_PCOD8155672
_publ_section_title
;
Structure prediction by ZEFSAII (Michael W. Deem and Ramdas Pophale) SiO2 
 PCOD8155672
Probable space group: P 2 2 21
;
_chemical_formula_sum "Si O2"
_cell_formula_units_Z 20
_cell_length_a 11.037078
_cell_length_b 5.186577
_cell_length_c 14.554977
_cell_angle_alpha 90.000000
_cell_angle_beta 90.000000
_cell_angle_gamma 90.000000
_cell_volume 833.194635
_symmetry_space_group_name_H-M "P 2 2 21"
_symmetry_group_IT_number 17
_symmetry_cell_setting 'orthorhombic'
loop_
_space_group_symop_operation_xyz
x,y,z
-x,-y,1/2+z
x,-y,-z
-x,y,1/2-z
loop_
_atom_site_type_symbol
_atom_site_label
_atom_site_fract_x
_atom_site_fract_y
_atom_site_fract_z
Si Si1 0.037119 0.604646 0.850595
Si Si2 0.823859 0.098006 0.602304
Si Si3 0.453240 0.672758 0.646557
Si Si4 0.787566 0.257545 0.059418
Si Si5 0.441910 0.830891 0.149284
O O1 0.126674 0.849950 0.842097
O O2 0.000000 0.510223 0.750000
O O3 0.922642 0.712072 0.905095
O O4 0.088071 0.347962 0.900758
O O5 0.798360 0.000000 0.500000
O O6 0.702931 0.200018 0.652431
O O7 0.500000 0.626317 0.750000
O O8 0.309845 0.737922 0.642833
O O9 0.492874 0.406324 0.596684
O O10 0.525748 0.903994 0.596192
O O11 0.748293 0.500000 0.000000
O O12 0.778578 0.000000 0.000000
O O13 0.500000 0.873122 0.250000
#
# Coordination Sequence:
#
# PCOD8155672 Si02
#       5
#     4   4   4   4   4
#     4  12  28  46  77 106 145 194 249 295 373 444
#     4  12  26  47  73 108 149 192 240 310 367 431
#     4  10  23  43  70 100 144 187 240 288 354 426
#     4  12  26  46  75 106 145 186 239 307 365 422
#     4  10  23  40  72 100 147 185 241 288 354 428
#
# _framework density 24.003993999999999
#
# number of rings (size 3 to 8) (size 9 to 14) (size 15 to 20)
#    0.000    0.800    0.000    6.600   11.200    2.400 
#    0.000    0.000    0.000    0.000    0.000    0.000 
#    0.000    0.000    0.000    0.000    0.000    0.000 
#
# Total GULP energy -247918.595616 kJ/mol
# GULP energy per Si atom -12395.929781 kJ/mol
# Density = 2.394936 g / cm^3
# Si number density = 24.003994 Si / 1000 Ang^3
#
#
#
# Elastic Constant Matrix: (Units=GPa)
#
#
# Indices 1 2 3 4 5 6 
#
# 1 162.7444 58.6250 41.8399 0.0000 0.0000 0.0000
# 2 58.6250 226.0756 21.1845 0.0000 0.0000 0.0000
# 3 41.8399 21.1845 71.8491 0.0000 0.0000 0.0000
# 4 0.0000 0.0000 0.0000 35.4150 0.0000 0.0000
# 5 0.0000 0.0000 0.0000 0.0000 36.3755 0.0000
# 6 0.0000 0.0000 0.0000 0.0000 0.0000 32.0708
#
#
#
# Elastic Compliance Matrix: (Units=1/GPa)
#
#
# Indices 1 2 3 4 5 6 
#
# 1 0.007774 -0.001637 -0.004044 0.000000 0.000000 0.000000
# 2 -0.001637 0.004894 -0.000490 0.000000 0.000000 0.000000
# 3 -0.004044 -0.000490 0.016418 0.000000 0.000000 0.000000
# 4 0.000000 0.000000 0.000000 0.028237 0.000000 0.000000
# 5 0.000000 0.000000 0.000000 0.000000 0.027491 0.000000
# 6 0.000000 0.000000 0.000000 0.000000 0.000000 0.031181
#
#
# Mechanical properties :
#
#
# Convention : Reuss Voigt Hill
#
# Bulk Modulus (GPa) = 59.72530 78.21864 68.97197
# Shear Modulus (GPa) = 37.33652 43.37357 40.35504
#
# Velocity S-wave (km/s) = 3.94817 4.25541 4.10467
# Velocity P-wave (km/s) = 6.76162 7.53665 7.15963
#
# Compressibility (1/GPa) = 0.01674332
#
# Stress axis : x y z
#
# Youngs Moduli (GPa) = 128.63294 204.34568 60.91020
#
# Poissons Ratio (x) = 0.33450 0.24635
# Poissons Ratio (y) = 0.21057 0.02982
# Poissons Ratio (z) = 0.52025 0.10005
#
# Static dielectric constant tensor:
#      x y z
#    x 4.354830 0.000000 0.000000 
#    y 0.000000 5.668660 0.000000 
#    z 0.000000 0.000000 4.054580 
# 
# 
# High freq. dielectric constant tensor:
#      x y z
#    x 1.960020 0.000000 0.000000 
#    y 0.000000 1.991350 0.000000 
#    z 0.000000 0.000000 1.931060 
# 
# From -- ./inp_files/8392.got.cif
#   From: 2010.03.12/outbox.cif.g09.slc.cpg/sg17_5_cif.got.tgz:8392.got - 2010.04.10 18:46:23.
