data_PCOD8155214
_publ_section_title
;
Structure prediction by ZEFSAII (Michael W. Deem and Ramdas Pophale) SiO2 
 PCOD8155214
Probable space group: P 2 2 2
;
_chemical_formula_sum "Si O2"
_cell_formula_units_Z 21
_cell_length_a 16.360968
_cell_length_b 5.317930
_cell_length_c 12.832235
_cell_angle_alpha 90.000000
_cell_angle_beta 90.000000
_cell_angle_gamma 90.000000
_cell_volume 1116.487631
_symmetry_space_group_name_H-M "P 2 2 2"
_symmetry_group_IT_number 16
_symmetry_cell_setting 'orthorhombic'
loop_
_space_group_symop_operation_xyz
x,y,z
-x,-y,z
x,-y,-z
-x,y,-z
loop_
_atom_site_type_symbol
_atom_site_label
_atom_site_fract_x
_atom_site_fract_y
_atom_site_fract_z
Si Si1 0.500000 0.500000 0.000000
Si Si2 0.220615 0.249815 0.566972
Si Si3 0.359725 0.261353 0.121970
Si Si4 0.203534 0.249719 0.968051
Si Si5 0.693212 0.240775 0.220972
Si Si6 0.034624 0.749144 0.383297
O O1 0.445701 0.304913 0.066032
O O2 0.236924 0.500000 0.500000
O O3 0.287384 0.227509 0.657329
O O4 0.131756 0.259739 0.618654
O O5 0.229255 0.000000 0.500000
O O6 0.350871 0.494715 0.201165
O O7 0.361267 0.000198 0.186831
O O8 0.288542 0.254630 0.034718
O O9 0.222439 0.240221 0.845536
O O10 0.152911 0.500000 0.000000
O O11 0.152984 0.000000 0.000000
O O12 0.000000 0.500000 0.325267
O O13 0.000000 0.749829 0.500000
O O14 0.000000 0.000000 0.326143
#
# Coordination Sequence:
#
# PCOD8155214 Si02
#       6
#     1   4   4   4   4   4
#     4  12  20  34  64  86 110 142 158 214 336 322
#     4  12  21  32  52  76 103 158 183 214 273 315
#     4  10  20  33  52  80 109 130 163 221 271 346
#     4   8  14  29  45  64  99 127 146 206 257 305
#     4  10  20  34  45  74 115 136 174 214 258 327
#     4  10  16  30  48  70 105 129 174 237 276 298
#
# _framework density 18.808986000000001
#
# number of rings (size 3 to 8) (size 9 to 14) (size 15 to 20)
#    0.000    1.905    6.667    1.143    0.000    1.524 
#    0.000    0.000    0.000    0.000    0.000   10.000 
#    0.000   41.143    0.000    0.000    0.000    0.000 
#
# Total GULP energy -260191.845877 kJ/mol
# GULP energy per Si atom -12390.087899 kJ/mol
# Density = 1.876618 g / cm^3
# Si number density = 18.808986 Si / 1000 Ang^3
#
#
#
# Elastic Constant Matrix: (Units=GPa)
#
#
# Indices 1 2 3 4 5 6 
#
# 1 46.7386 23.1198 32.2387 0.0000 0.0000 0.0000
# 2 23.1198 214.5034 52.3311 0.0000 0.0000 0.0000
# 3 32.2387 52.3311 81.7982 0.0000 0.0000 0.0000
# 4 0.0000 0.0000 0.0000 -2.0437 0.0000 0.0000
# 5 0.0000 0.0000 0.0000 0.0000 5.5308 0.0000
# 6 0.0000 0.0000 0.0000 0.0000 0.0000 -33.6715
#
#
#
# Elastic Compliance Matrix: (Units=1/GPa)
#
#
# Indices 1 2 3 4 5 6 
#
# 1 0.029413 -0.000405 -0.011333 0.000000 0.000000 0.000000
# 2 -0.000405 0.005530 -0.003378 0.000000 0.000000 0.000000
# 3 -0.011333 -0.003378 0.018853 0.000000 0.000000 0.000000
# 4 0.000000 0.000000 0.000000 -0.489302 0.000000 0.000000
# 5 0.000000 0.000000 0.000000 0.000000 0.180805 0.000000
# 6 0.000000 0.000000 0.000000 0.000000 0.000000 -0.029699
#
#
# Mechanical properties :
#
#
# Convention : Reuss Voigt Hill
#
# Bulk Modulus (GPa) = 42.43932 62.04661 52.24297
# Shear Modulus (GPa) = -20.29943 9.65316 -5.32314
#
# Velocity S-wave (km/s) = -3.28874 2.26789 -1.68412
# Velocity P-wave (km/s) = 2.86202 6.31800 4.90451
#
# Compressibility (1/GPa) = 0.02356305
#
# Stress axis : x y z
#
# Youngs Moduli (GPa) = 33.99817 180.84116 53.04206
#
# Poissons Ratio (x) = 0.07331 0.60114
# Poissons Ratio (y) = 0.01378 0.17917
# Poissons Ratio (z) = 0.38531 0.61087
#
# Static dielectric constant tensor:
#      x y z
#    x 2.975030 0.000000 0.000000 
#    y 0.000000 5.997630 0.000000 
#    z 0.000000 0.000000 3.061370 
# 
# 
# High freq. dielectric constant tensor:
#      x y z
#    x 1.667240 0.000000 0.000000 
#    y 0.000000 1.776900 0.000000 
#    z 0.000000 0.000000 1.692990 
# 
# From -- ./inp_files/7059.got.cif
#   From: 2010.03.12/outbox.cif.g09.slc.cpg/sg16_4_cif.got.tgz:7059.got - 2010.03.31 00:51:45.
