data_PCOD8155784
_publ_section_title
;
Structure prediction by ZEFSAII (Michael W. Deem and Ramdas Pophale) SiO2 
 PCOD8155784
Probable space group: P 21 21 2
;
_chemical_formula_sum "Si O2"
_cell_formula_units_Z 28
_cell_length_a 12.961898
_cell_length_b 4.950614
_cell_length_c 25.478079
_cell_angle_alpha 90.000000
_cell_angle_beta 90.000000
_cell_angle_gamma 90.000000
_cell_volume 1634.911863
_symmetry_space_group_name_H-M "P 21 21 2"
_symmetry_group_IT_number 18
_symmetry_cell_setting 'orthorhombic'
loop_
_space_group_symop_operation_xyz
x,y,z
-x,-y,z
1/2+x,1/2-y,-z
1/2-x,1/2+y,-z
loop_
_atom_site_type_symbol
_atom_site_label
_atom_site_fract_x
_atom_site_fract_y
_atom_site_fract_z
Si Si1 0.430859 0.749243 0.656871
Si Si2 0.884520 0.499283 0.507446
Si Si3 0.115437 0.533247 0.002683
Si Si4 0.876848 0.006655 0.177357
Si Si5 0.122008 0.487257 0.240204
Si Si6 0.188500 0.029355 0.061756
Si Si7 0.823873 0.991064 0.443466
O O1 0.500000 0.500000 0.680952
O O2 0.353783 0.881392 0.700598
O O3 0.362023 0.602305 0.613247
O O4 0.500000 0.000000 0.634379
O O5 0.872892 0.800499 0.486770
O O6 0.800915 0.460077 0.554089
O O7 0.000000 0.500000 0.530800
O O8 0.864274 0.290001 0.459159
O O9 0.121651 0.831671 0.025875
O O10 0.000000 0.500000 0.981542
O O11 0.145359 0.327872 0.049771
O O12 0.191067 0.497665 0.953073
O O13 0.837179 0.222485 0.221130
O O14 0.823157 0.057015 0.121902
O O15 0.834748 0.722501 0.197945
O O16 0.000000 0.000000 0.169888
O O17 0.000000 0.500000 0.238808
#
# Coordination Sequence:
#
# PCOD8155784 Si02
#       7
#     4   4   4   4   4   4   4
#     4  11  19  30  46  66  94 123 151 186 228 275
#     4  10  19  32  46  67  96 122 154 192 222 267
#     4  10  19  32  46  67  96 122 153 191 222 267
#     4  10  17  28  43  62  89 117 146 181 221 268
#     4   9  18  28  41  62  88 116 145 181 224 267
#     4  10  20  30  47  69  91 125 157 181 228 275
#     4  10  20  30  47  69  91 125 157 182 229 275
#
# _framework density 17.126307000000001
#
# number of rings (size 3 to 8) (size 9 to 14) (size 15 to 20)
#    0.000    2.000    0.000    6.857    0.000    1.143 
#    0.000    0.000    0.000    0.000    0.000    1.000 
#    0.000    6.857    0.000    0.000    0.000    1.143 
#
# Total GULP energy -346946.909762 kJ/mol
# GULP energy per Si atom -12390.961063 kJ/mol
# Density = 1.708733 g / cm^3
# Si number density = 17.126307 Si / 1000 Ang^3
#
#
#
# Elastic Constant Matrix: (Units=GPa)
#
#
# Indices 1 2 3 4 5 6 
#
# 1 94.8245 11.5713 25.3484 0.0000 0.0000 0.0000
# 2 11.5713 65.9345 7.7803 0.0000 0.0000 0.0000
# 3 25.3484 7.7803 87.5179 0.0000 0.0000 0.0000
# 4 0.0000 0.0000 0.0000 25.2744 0.0000 0.0000
# 5 0.0000 0.0000 0.0000 0.0000 21.0997 0.0000
# 6 0.0000 0.0000 0.0000 0.0000 0.0000 17.4333
#
#
#
# Elastic Compliance Matrix: (Units=1/GPa)
#
#
# Indices 1 2 3 4 5 6 
#
# 1 0.011607 -0.001658 -0.003215 0.000000 0.000000 0.000000
# 2 -0.001658 0.015564 -0.000903 0.000000 0.000000 0.000000
# 3 -0.003215 -0.000903 0.012438 0.000000 0.000000 0.000000
# 4 0.000000 0.000000 0.000000 0.039566 0.000000 0.000000
# 5 0.000000 0.000000 0.000000 0.000000 0.047394 0.000000
# 6 0.000000 0.000000 0.000000 0.000000 0.000000 0.057361
#
#
# Mechanical properties :
#
#
# Convention : Reuss Voigt Hill
#
# Bulk Modulus (GPa) = 35.64108 37.51966 36.58037
# Shear Modulus (GPa) = 24.40998 26.33329 25.37164
#
# Velocity S-wave (km/s) = 3.77940 3.92547 3.85313
# Velocity P-wave (km/s) = 6.31673 6.51927 6.41880
#
# Compressibility (1/GPa) = 0.02805751
#
# Stress axis : x y z
#
# Youngs Moduli (GPa) = 86.15189 64.25041 80.40135
#
# Poissons Ratio (x) = 0.10651 0.25845
# Poissons Ratio (y) = 0.14282 0.07264
# Poissons Ratio (z) = 0.27694 0.05805
#
# Static dielectric constant tensor:
#      x y z
#    x 3.096710 0.000000 0.000000 
#    y 0.000000 3.679280 0.000000 
#    z 0.000000 0.000000 3.205250 
# 
# 
# High freq. dielectric constant tensor:
#      x y z
#    x 1.614750 0.000000 0.000000 
#    y 0.000000 1.693090 0.000000 
#    z 0.000000 0.000000 1.640010 
# 
# From -- ./inp_files/7642.got.cif
#   From: 2010.03.12/outbox.cif.g09.slc.cpg/sg18_4_cif.got.tgz:7642.got - 2010.04.10 18:53:55.
