data_PCOD8155414
_publ_section_title
;
Structure prediction by ZEFSAII (Michael W. Deem and Ramdas Pophale) SiO2 
 PCOD8155414
Probable space group: P 2 2 21
;
_chemical_formula_sum "Si O2"
_cell_formula_units_Z 32
_cell_length_a 5.173628
_cell_length_b 10.129018
_cell_length_c 32.996618
_cell_angle_alpha 90.000000
_cell_angle_beta 90.000000
_cell_angle_gamma 90.000000
_cell_volume 1729.147218
_symmetry_space_group_name_H-M "P 2 2 21"
_symmetry_group_IT_number 17
_symmetry_cell_setting 'orthorhombic'
loop_
_space_group_symop_operation_xyz
x,y,z
-x,-y,1/2+z
x,-y,-z
-x,y,1/2-z
loop_
_atom_site_type_symbol
_atom_site_label
_atom_site_fract_x
_atom_site_fract_y
_atom_site_fract_z
Si Si1 0.066666 0.006035 0.206935
Si Si2 0.029519 0.549407 0.122973
Si Si3 0.971953 0.404473 0.462324
Si Si4 0.469599 0.264672 0.440429
Si Si5 0.555538 0.852631 0.815502
Si Si6 0.549855 0.003780 0.101257
Si Si7 0.467575 0.410132 0.355091
Si Si8 0.937605 0.859480 0.375904
O O1 0.334681 0.086192 0.213487
O O2 0.000000 0.936020 0.250000
O O3 0.844777 0.112649 0.197544
O O4 0.082578 0.896559 0.171772
O O5 0.026617 0.492271 0.077882
O O6 0.782352 0.502777 0.148572
O O7 0.280769 0.501624 0.147352
O O8 0.022245 0.705453 0.120350
O O9 0.946659 0.500000 0.500000
O O10 0.229477 0.316891 0.466832
O O11 0.732674 0.303609 0.462894
O O12 0.455228 0.105338 0.436566
O O13 0.454878 0.330358 0.396644
O O14 0.491398 0.911720 0.859145
O O15 0.530380 0.693804 0.817905
O O16 0.318981 0.897219 0.098793
O O17 0.824417 0.932248 0.102635
#
# Coordination Sequence:
#
# PCOD8155414 Si02
#       8
#     4   4   4   4   4   4   4   4
#     4  10  19  31  49  71  95 122 152 190 233 279
#     4  10  19  31  49  72  98 127 160 196 238 288
#     4  10  19  31  49  71  96 126 161 204 248 293
#     4   9  17  30  49  71  93 121 158 199 244 282
#     4   9  17  30  49  72  93 117 153 197 236 269
#     4   9  17  30  49  71  94 121 160 202 234 270
#     4   9  17  30  49  72  93 117 153 198 238 273
#     4  10  19  31  49  72  96 125 159 194 232 282
#
# _framework density 18.506232000000001
#
# number of rings (size 3 to 8) (size 9 to 14) (size 15 to 20)
#    0.000    2.500    0.000    3.000    0.000    6.000 
#    0.000    0.000    0.000    9.000    0.000    0.000 
#    0.000    0.000    0.000    0.000    0.000    0.000 
#
# Total GULP energy -396755.295270 kJ/mol
# GULP energy per Si atom -12398.602977 kJ/mol
# Density = 1.846411 g / cm^3
# Si number density = 18.506232 Si / 1000 Ang^3
#
#
#
# Elastic Constant Matrix: (Units=GPa)
#
#
# Indices 1 2 3 4 5 6 
#
# 1 126.4298 31.3080 10.0373 0.0000 0.0000 0.0000
# 2 31.3080 90.4567 4.8518 0.0000 0.0000 0.0000
# 3 10.0373 4.8518 24.6656 0.0000 0.0000 0.0000
# 4 0.0000 0.0000 0.0000 11.8014 0.0000 0.0000
# 5 0.0000 0.0000 0.0000 0.0000 15.4104 0.0000
# 6 0.0000 0.0000 0.0000 0.0000 0.0000 22.1159
#
#
#
# Elastic Compliance Matrix: (Units=1/GPa)
#
#
# Indices 1 2 3 4 5 6 
#
# 1 0.008871 -0.002907 -0.003038 0.000000 0.000000 0.000000
# 2 -0.002907 0.012126 -0.001202 0.000000 0.000000 0.000000
# 3 -0.003038 -0.001202 0.042015 0.000000 0.000000 0.000000
# 4 0.000000 0.000000 0.000000 0.084736 0.000000 0.000000
# 5 0.000000 0.000000 0.000000 0.000000 0.064891 0.000000
# 6 0.000000 0.000000 0.000000 0.000000 0.000000 0.045216
#
#
# Mechanical properties :
#
#
# Convention : Reuss Voigt Hill
#
# Bulk Modulus (GPa) = 20.52678 37.10514 28.81596
# Shear Modulus (GPa) = 17.33775 22.88920 20.11347
#
# Velocity S-wave (km/s) = 3.06414 3.52069 3.30032
# Velocity P-wave (km/s) = 4.86153 6.05149 5.48885
#
# Compressibility (1/GPa) = 0.04871684
#
# Stress axis : x y z
#
# Youngs Moduli (GPa) = 112.73135 82.46921 23.80101
#
# Poissons Ratio (x) = 0.23976 0.07231
# Poissons Ratio (y) = 0.32774 0.02861
# Poissons Ratio (z) = 0.34247 0.09914
#
# Static dielectric constant tensor:
#      x y z
#    x 3.736110 0.000000 0.000000 
#    y 0.000000 3.309750 0.000000 
#    z 0.000000 0.000000 3.113740 
# 
# 
# High freq. dielectric constant tensor:
#      x y z
#    x 1.742130 0.000000 0.000000 
#    y 0.000000 1.707950 0.000000 
#    z 0.000000 0.000000 1.676830 
# 
# From -- ./inp_files/11189.got.cif
#   From: 2010.03.12/outbox.cif.g09.slc.cpg/sg17_6_cif.got.tgz:11189.got - 2010.04.10 18:46:23.
