data_PCOD8155092
_publ_section_title
;
Structure prediction by ZEFSAII (Michael W. Deem and Ramdas Pophale) SiO2 
 PCOD8155092
Probable space group: C 2/C
;
_chemical_formula_sum "Si O2"
_cell_formula_units_Z 28
_cell_length_a 15.271775
_cell_length_b 10.535323
_cell_length_c 10.302093
_cell_angle_alpha 90.000000
_cell_angle_beta 131.940054
_cell_angle_gamma 90.000000
_cell_volume 1232.948664
_symmetry_space_group_name_H-M "C 2/C"
_symmetry_group_IT_number 15
_symmetry_cell_setting 'monoclinic'
loop_
_space_group_symop_operation_xyz
x,y,z
-x,y,1/2-z
-x,-y,-z
x,-y,1/2+z
1/2+x,1/2+y,z
1/2-x,1/2+y,1/2-z
1/2-x,1/2-y,-z
1/2+x,1/2-y,1/2+z
loop_
_atom_site_type_symbol
_atom_site_label
_atom_site_fract_x
_atom_site_fract_y
_atom_site_fract_z
Si Si1 0.500000 0.003537 0.750000
Si Si2 0.068097 0.977162 0.437498
Si Si3 0.212414 0.350644 0.352490
Si Si4 0.655611 0.786086 0.014418
O O1 0.419027 0.095892 0.756317
O O2 0.587278 0.918320 0.923967
O O3 0.061902 0.826048 0.417873
O O4 0.000000 0.041898 0.250000
O O5 0.199897 0.030071 0.565429
O O6 0.000000 0.000000 0.500000
O O7 0.250000 0.250000 0.500000
O O8 0.218226 0.285943 0.217155
O O9 0.750000 0.750000 0.000000
#
# Coordination Sequence:
#
# PCOD8155092 Si02
#       4
#     4   8   8   8
#     4  12  28  50  76 112 154 200 252 310 376 456
#     4  12  26  47  75 108 148 194 248 306 373 445
#     4  12  30  47  77 112 152 197 251 311 377 445
#     4  12  26  50  76 109 149 197 249 306 380 448
#
# _framework density 22.709786000000001
#
# number of rings (size 3 to 8) (size 9 to 14) (size 15 to 20)
#    0.000    0.000    4.286    4.286   10.000    0.000 
#    0.000    0.000    0.000    0.000    0.000    0.000 
#    0.000    0.000    0.000    0.000    0.000    0.000 
#
# Total GULP energy -173612.928576 kJ/mol
# GULP energy per Si atom -12400.923470 kJ/mol
# Density = 2.265810 g / cm^3
# Si number density = 22.709786 Si / 1000 Ang^3
#
#
#
# Elastic Constant Matrix: (Units=GPa)
#
#
# Indices 1 2 3 4 5 6 
#
# 1 180.6920 60.0878 71.1043 0.0000 -14.3872 0.0000
# 2 60.0878 107.7836 35.6775 0.0000 -8.7037 0.0000
# 3 71.1043 35.6775 172.3912 0.0000 -30.4271 0.0000
# 4 0.0000 0.0000 0.0000 43.7819 0.0000 10.8235
# 5 -14.3872 -8.7037 -30.4271 0.0000 45.4824 0.0000
# 6 0.0000 0.0000 0.0000 10.8235 0.0000 39.3054
#
#
#
# Elastic Compliance Matrix: (Units=1/GPa)
#
#
# Indices 1 2 3 4 5 6 
#
# 1 0.007643 -0.003450 -0.002413 0.000000 0.000143 0.000000
# 2 -0.003450 0.011532 -0.000869 0.000000 0.000534 0.000000
# 3 -0.002413 -0.000869 0.007724 0.000000 0.004238 0.000000
# 4 0.000000 0.000000 0.000000 0.024509 0.000000 -0.006749
# 5 0.000143 0.000534 0.004238 0.000000 0.024969 0.000000
# 6 0.000000 0.000000 0.000000 -0.006749 0.000000 0.027300
#
#
# Mechanical properties :
#
#
# Convention : Reuss Voigt Hill
#
# Bulk Modulus (GPa) = 74.44115 88.28956 81.36536
# Shear Modulus (GPa) = 41.11176 45.31375 43.21276
#
# Velocity S-wave (km/s) = 4.25939 4.47177 4.36687
# Velocity P-wave (km/s) = 7.55251 8.10086 7.83149
#
# Compressibility (1/GPa) = 0.01343343
#
# Stress axis : x y z
#
# Youngs Moduli (GPa) = 130.84595 86.71343 129.46945
#
# Poissons Ratio (x) = 0.29919 0.31240
# Poissons Ratio (y) = 0.45147 0.11255
# Poissons Ratio (z) = 0.31572 0.07538
#
# Static dielectric constant tensor:
#      x y z
#    x 4.583120 0.000000 -0.364890 
#    y 0.000000 3.859720 0.000000 
#    z -0.364890 0.000000 4.307910 
# 
# 
# High freq. dielectric constant tensor:
#      x y z
#    x 1.911610 0.000000 -0.004980 
#    y 0.000000 1.905240 0.000000 
#    z -0.004980 0.000000 1.905970 
# 
# From -- ./inp_files/36449.got.cif
#   From: 2010.06.25/outbox.cif.g09.slc.cpg/sg15_19_cif.got.tgz:36449.got - 2010.06.28 07:06:18.
