data_PCOD8155974
_publ_section_title
;
Structure prediction by ZEFSAII (Michael W. Deem and Ramdas Pophale) SiO2 
 PCOD8155974
Probable space group: P 21 21 2
;
_chemical_formula_sum "Si O2"
_cell_formula_units_Z 32
_cell_length_a 28.116375
_cell_length_b 9.879980
_cell_length_c 5.275723
_cell_angle_alpha 90.000000
_cell_angle_beta 90.000000
_cell_angle_gamma 90.000000
_cell_volume 1465.538991
_symmetry_space_group_name_H-M "P 21 21 2"
_symmetry_group_IT_number 18
_symmetry_cell_setting 'orthorhombic'
loop_
_space_group_symop_operation_xyz
x,y,z
-x,-y,z
1/2+x,1/2-y,-z
1/2-x,1/2+y,-z
loop_
_atom_site_type_symbol
_atom_site_label
_atom_site_fract_x
_atom_site_fract_y
_atom_site_fract_z
Si Si1 0.825294 0.192819 0.509044
Si Si2 0.816570 0.485312 0.474080
Si Si3 0.090572 0.478942 0.747345
Si Si4 0.458501 0.891990 0.761593
Si Si5 0.225912 0.009590 0.224076
Si Si6 0.230884 0.308196 0.164824
Si Si7 0.023059 0.858266 0.213969
Si Si8 0.922887 0.212496 0.720133
O O1 0.833990 0.338020 0.361368
O O2 0.775177 0.201395 0.648174
O O3 0.867221 0.171009 0.713293
O O4 0.822761 0.062234 0.322349
O O5 0.852480 0.522132 0.703244
O O6 0.762237 0.457086 0.551087
O O7 0.814800 0.611800 0.280976
O O8 0.080689 0.409879 0.017228
O O9 0.069205 0.628976 0.764147
O O10 0.065628 0.401845 0.513636
O O11 0.500000 0.000000 0.794947
O O12 0.479588 0.744576 0.800592
O O13 0.214626 0.154008 0.087371
O O14 0.253516 0.894703 0.072407
O O15 0.057624 0.822698 0.443618
O O16 0.051939 0.865632 0.949614
O O17 0.000000 0.000000 0.272824
#
# Coordination Sequence:
#
# PCOD8155974 Si02
#       8
#     4   4   4   4   4   4   4   4
#     4   9  21  38  61  87 115 164 204 250 298 365
#     4   9  21  38  58  88 120 156 203 251 307 354
#     4  11  22  39  69  98 119 159 214 267 300 375
#     4  12  22  42  68  92 124 159 210 255 320 364
#     4  10  20  37  60  85 124 162 200 249 303 371
#     4  10  20  37  60  88 125 159 201 248 311 362
#     4  12  26  44  64  92 129 168 201 259 322 378
#     4  11  22  42  68  93 124 162 217 255 306 378
#
# _framework density 21.834972
#
# number of rings (size 3 to 8) (size 9 to 14) (size 15 to 20)
#    0.000    1.500    2.500    2.250    3.500    1.000 
#    4.500    0.000    0.000    0.000    0.000    0.000 
#    0.000    0.000    0.000    0.000    0.000    0.000 
#
# Total GULP energy -396549.545125 kJ/mol
# GULP energy per Si atom -12392.173285 kJ/mol
# Density = 2.178527 g / cm^3
# Si number density = 21.834972 Si / 1000 Ang^3
#
#
#
# Elastic Constant Matrix: (Units=GPa)
#
#
# Indices 1 2 3 4 5 6 
#
# 1 47.2917 8.6866 -3.3634 0.0000 0.0000 0.0000
# 2 8.6866 126.5869 3.4822 0.0000 0.0000 0.0000
# 3 -3.3634 3.4822 68.7319 0.0000 0.0000 0.0000
# 4 0.0000 0.0000 0.0000 31.5274 0.0000 0.0000
# 5 0.0000 0.0000 0.0000 0.0000 24.2894 0.0000
# 6 0.0000 0.0000 0.0000 0.0000 0.0000 25.1789
#
#
#
# Elastic Compliance Matrix: (Units=1/GPa)
#
#
# Indices 1 2 3 4 5 6 
#
# 1 0.021502 -0.001507 0.001129 0.000000 0.000000 0.000000
# 2 -0.001507 0.008016 -0.000480 0.000000 0.000000 0.000000
# 3 0.001129 -0.000480 0.014629 0.000000 0.000000 0.000000
# 4 0.000000 0.000000 0.000000 0.031718 0.000000 0.000000
# 5 0.000000 0.000000 0.000000 0.000000 0.041170 0.000000
# 6 0.000000 0.000000 0.000000 0.000000 0.000000 0.039716
#
#
# Mechanical properties :
#
#
# Convention : Reuss Voigt Hill
#
# Bulk Modulus (GPa) = 23.56728 28.91348 26.24038
# Shear Modulus (GPa) = 28.96676 31.78614 30.37645
#
# Velocity S-wave (km/s) = 3.64623 3.81956 3.73390
# Velocity P-wave (km/s) = 5.34261 5.72037 5.53471
#
# Compressibility (1/GPa) = 0.04243170
#
# Stress axis : x y z
#
# Youngs Moduli (GPa) = 46.50650 124.74590 68.35824
#
# Poissons Ratio (x) = 0.18794 -0.07714
# Poissons Ratio (y) = 0.07007 0.03280
# Poissons Ratio (z) = -0.05248 0.05986
#
# Static dielectric constant tensor:
#      x y z
#    x 3.848380 0.000000 0.000000 
#    y 0.000000 4.459160 0.000000 
#    z 0.000000 0.000000 3.794620 
# 
# 
# High freq. dielectric constant tensor:
#      x y z
#    x 1.851800 0.000000 0.000000 
#    y 0.000000 1.862160 0.000000 
#    z 0.000000 0.000000 1.846150 
# 
# From -- ./inp_files/795.got.cif
#   From: 2010.03.12/outbox.cif.g09.slc.cpg/sg18_1_cif.got.tgz:795.got - 2010.04.10 18:53:55.
