data_PCOD8155357
_publ_section_title
;
Structure prediction by ZEFSAII (Michael W. Deem and Ramdas Pophale) SiO2 
 PCOD8155357
Probable space group: P 2 2 21
;
_chemical_formula_sum "Si O2"
_cell_formula_units_Z 16
_cell_length_a 5.265878
_cell_length_b 10.150033
_cell_length_c 14.968820
_cell_angle_alpha 90.000000
_cell_angle_beta 90.000000
_cell_angle_gamma 90.000000
_cell_volume 800.065997
_symmetry_space_group_name_H-M "P 2 2 21"
_symmetry_group_IT_number 17
_symmetry_cell_setting 'orthorhombic'
loop_
_space_group_symop_operation_xyz
x,y,z
-x,-y,1/2+z
x,-y,-z
-x,y,1/2-z
loop_
_atom_site_type_symbol
_atom_site_label
_atom_site_fract_x
_atom_site_fract_y
_atom_site_fract_z
Si Si1 0.972035 0.859675 0.544049
Si Si2 0.527594 0.208041 0.149105
Si Si3 0.047638 0.390078 0.924029
Si Si4 0.452622 0.492717 0.605992
O O1 0.699031 0.853936 0.591368
O O2 0.989915 0.753043 0.465568
O O3 0.198509 0.836482 0.613826
O O4 0.009920 0.000000 0.500000
O O5 0.500000 0.156938 0.250000
O O6 0.505417 0.365422 0.148627
O O7 0.309923 0.398842 0.867308
O O8 0.809470 0.425516 0.859649
O O9 0.090009 0.500000 0.000000
O O10 0.409489 0.500000 0.500000
#
# Coordination Sequence:
#
# PCOD8155357 Si02
#       4
#     4   4   4   4
#     4  12  23  38  60  93 112 166 209 240 290 374
#     4  12  23  38  60  92 123 154 197 262 306 348
#     4  10  16  32  59  83 114 136 199 239 269 337
#     4  10  16  32  59  84 114 144 192 237 283 346
#
# _framework density 19.998349000000001
#
# number of rings (size 3 to 8) (size 9 to 14) (size 15 to 20)
#    0.000    1.000   10.000    1.500    0.000    0.000 
#    0.000    0.000    0.000    9.000    0.000    0.000 
#    0.000    0.000    0.000    0.000    0.000    0.000 
#
# Total GULP energy -198338.923491 kJ/mol
# GULP energy per Si atom -12396.182718 kJ/mol
# Density = 1.995283 g / cm^3
# Si number density = 19.998349 Si / 1000 Ang^3
#
#
#
# Elastic Constant Matrix: (Units=GPa)
#
#
# Indices 1 2 3 4 5 6 
#
# 1 154.0971 6.1574 3.5662 0.0000 0.0000 0.0000
# 2 6.1574 111.5681 14.3003 0.0000 0.0000 0.0000
# 3 3.5662 14.3003 33.4908 0.0000 0.0000 0.0000
# 4 0.0000 0.0000 0.0000 10.4115 0.0000 0.0000
# 5 0.0000 0.0000 0.0000 0.0000 557.3661 0.0000
# 6 0.0000 0.0000 0.0000 0.0000 0.0000 26.8355
#
#
#
# Elastic Compliance Matrix: (Units=1/GPa)
#
#
# Indices 1 2 3 4 5 6 
#
# 1 0.006514 -0.000286 -0.000571 0.000000 0.000000 0.000000
# 2 -0.000286 0.009495 -0.004024 0.000000 0.000000 0.000000
# 3 -0.000571 -0.004024 0.031638 0.000000 0.000000 0.000000
# 4 0.000000 0.000000 0.000000 0.096048 0.000000 0.000000
# 5 0.000000 0.000000 0.000000 0.000000 0.001794 0.000000
# 6 0.000000 0.000000 0.000000 0.000000 0.000000 0.037264
#
#
# Mechanical properties :
#
#
# Convention : Reuss Voigt Hill
#
# Bulk Modulus (GPa) = 26.39640 38.57819 32.48730
# Shear Modulus (GPa) = 24.37318 137.26474 80.81896
#
# Velocity S-wave (km/s) = 3.49486 8.29380 6.36400
# Velocity P-wave (km/s) = 5.43262 10.53796 8.38338
#
# Compressibility (1/GPa) = 0.03788395
#
# Stress axis : x y z
#
# Youngs Moduli (GPa) = 153.51373 105.32222 31.60770
#
# Poissons Ratio (x) = 0.03015 0.01806
# Poissons Ratio (y) = 0.04395 0.12718
# Poissons Ratio (z) = 0.08772 0.42378
#
# Static dielectric constant tensor:
#      x y z
#    x 5.009760 0.000000 0.000000 
#    y 0.000000 -0.033610 0.000000 
#    z 0.000000 0.000000 3.170530 
# 
# 
# High freq. dielectric constant tensor:
#      x y z
#    x 1.825110 0.000000 0.000000 
#    y 0.000000 1.757290 0.000000 
#    z 0.000000 0.000000 1.733340 
# 
# From -- ./inp_files/8821.got.cif
#   From: 2010.03.12/outbox.cif.g09.slc.cpg/sg17_5_cif.got.tgz:8821.got - 2010.04.10 18:46:23.
