data_PCOD8155577
_publ_section_title
;
Structure prediction by ZEFSAII (Michael W. Deem and Ramdas Pophale) SiO2 
 PCOD8155577
Probable space group: P 2 2 21
;
_chemical_formula_sum "Si O2"
_cell_formula_units_Z 24
_cell_length_a 5.210344
_cell_length_b 27.437127
_cell_length_c 7.628397
_cell_angle_alpha 90.000000
_cell_angle_beta 90.000000
_cell_angle_gamma 90.000000
_cell_volume 1090.531759
_symmetry_space_group_name_H-M "P 2 2 21"
_symmetry_group_IT_number 17
_symmetry_cell_setting 'orthorhombic'
loop_
_space_group_symop_operation_xyz
x,y,z
-x,-y,1/2+z
x,-y,-z
-x,y,1/2-z
loop_
_atom_site_type_symbol
_atom_site_label
_atom_site_fract_x
_atom_site_fract_y
_atom_site_fract_z
Si Si1 0.075676 0.445268 0.449710
Si Si2 0.764910 0.753811 0.948132
Si Si3 0.268381 0.288479 0.055222
Si Si4 0.252999 0.849758 0.366568
Si Si5 0.413187 0.608287 0.056566
Si Si6 0.746647 0.958002 0.137599
O O1 0.146171 0.500000 0.500000
O O2 0.335967 0.414416 0.467651
O O3 0.000000 0.440756 0.250000
O O4 0.831336 0.428263 0.567683
O O5 0.750334 0.736043 0.747524
O O6 0.509382 0.735016 0.046316
O O7 0.006102 0.727038 0.042265
O O8 0.777425 0.812293 0.970615
O O9 0.309020 0.346460 0.059118
O O10 0.500000 0.836437 0.250000
O O11 0.287722 0.904113 0.447388
O O12 0.000000 0.846077 0.250000
O O13 0.500000 0.624591 0.250000
O O14 0.500000 0.971954 0.250000
O O15 0.000000 0.956867 0.250000
O O16 0.785576 0.000000 0.000000
#
# Coordination Sequence:
#
# PCOD8155577 Si02
#       6
#     4   4   4   4   4   4
#     4  12  27  47  75 102 137 176 223 274 332 400
#     4  10  21  39  60  88 128 166 228 259 329 391
#     4  10  23  39  63  90 132 165 216 272 318 393
#     4  10  21  38  62  89 130 177 219 279 344 390
#     4  12  26  45  71 102 138 175 220 274 339 395
#     4  10  21  40  62  95 133 174 227 285 343 410
#
# _framework density 22.007612000000002
#
# number of rings (size 3 to 8) (size 9 to 14) (size 15 to 20)
#    0.000    1.333    0.000    5.000    7.000    2.000 
#    6.000    0.000    0.000    0.000    0.000    0.000 
#    0.000    0.000    0.000    0.000    0.000    0.000 
#
# Total GULP energy -297442.101957 kJ/mol
# GULP energy per Si atom -12393.420915 kJ/mol
# Density = 2.195752 g / cm^3
# Si number density = 22.007612 Si / 1000 Ang^3
#
#
#
# Elastic Constant Matrix: (Units=GPa)
#
#
# Indices 1 2 3 4 5 6 
#
# 1 199.9072 53.3657 19.3050 0.0000 0.0000 0.0000
# 2 53.3657 177.4606 61.5643 0.0000 0.0000 0.0000
# 3 19.3050 61.5643 65.8697 0.0000 0.0000 0.0000
# 4 0.0000 0.0000 0.0000 33.5871 0.0000 0.0000
# 5 0.0000 0.0000 0.0000 0.0000 218.7755 0.0000
# 6 0.0000 0.0000 0.0000 0.0000 0.0000 46.3789
#
#
#
# Elastic Compliance Matrix: (Units=1/GPa)
#
#
# Indices 1 2 3 4 5 6 
#
# 1 0.005439 -0.001602 -0.000097 0.000000 0.000000 0.000000
# 2 -0.001602 0.008811 -0.007765 0.000000 0.000000 0.000000
# 3 -0.000097 -0.007765 0.022468 0.000000 0.000000 0.000000
# 4 0.000000 0.000000 0.000000 0.029773 0.000000 0.000000
# 5 0.000000 0.000000 0.000000 0.000000 0.004571 0.000000
# 6 0.000000 0.000000 0.000000 0.000000 0.000000 0.021562
#
#
# Mechanical properties :
#
#
# Convention : Reuss Voigt Hill
#
# Bulk Modulus (GPa) = 56.21347 79.07863 67.64605
# Shear Modulus (GPa) = 42.55977 80.34844 61.45411
#
# Velocity S-wave (km/s) = 4.40235 6.04885 5.29005
# Velocity P-wave (km/s) = 7.17210 9.20843 8.25331
#
# Compressibility (1/GPa) = 0.01778933
#
# Stress axis : x y z
#
# Youngs Moduli (GPa) = 183.84502 113.49714 44.50846
#
# Poissons Ratio (x) = 0.18184 0.00430
# Poissons Ratio (y) = 0.29455 0.34562
# Poissons Ratio (z) = 0.01778 0.88134
#
# Static dielectric constant tensor:
#      x y z
#    x 10.608690 0.000000 0.000000 
#    y 0.000000 3.022520 0.000000 
#    z 0.000000 0.000000 3.520720 
# 
# 
# High freq. dielectric constant tensor:
#      x y z
#    x 1.908520 0.000000 0.000000 
#    y 0.000000 1.874870 0.000000 
#    z 0.000000 0.000000 1.831570 
# 
# From -- ./inp_files/3571.got.cif
#   From: 2010.03.12/outbox.cif.g09.slc.cpg/sg17_2_cif.got.tgz:3571.got - 2010.04.10 18:46:23.
