data_PCOD8155319
_publ_section_title
;
Structure prediction by ZEFSAII (Michael W. Deem and Ramdas Pophale) SiO2 
 PCOD8155319
Probable space group: P 2 2 2
;
_chemical_formula_sum "Si O2"
_cell_formula_units_Z 15
_cell_length_a 15.228759
_cell_length_b 7.236940
_cell_length_c 7.236937
_cell_angle_alpha 90.000000
_cell_angle_beta 90.000000
_cell_angle_gamma 90.000000
_cell_volume 797.580042
_symmetry_space_group_name_H-M "P 2 2 2"
_symmetry_group_IT_number 16
_symmetry_cell_setting 'orthorhombic'
loop_
_space_group_symop_operation_xyz
x,y,z
-x,-y,z
x,-y,-z
-x,y,-z
loop_
_atom_site_type_symbol
_atom_site_label
_atom_site_fract_x
_atom_site_fract_y
_atom_site_fract_z
Si Si1 0.000000 0.000000 0.000000
Si Si2 0.500000 0.500000 0.500000
Si Si3 0.121532 0.753358 0.753358
Si Si4 0.332216 0.646988 0.353012
Si Si5 0.757652 0.000000 0.500000
Si Si6 0.757653 0.500000 0.000000
Si Si7 0.000000 0.500000 0.500000
O O1 0.056435 0.871818 0.871818
O O2 0.438160 0.629168 0.370832
O O3 0.181462 0.892831 0.641083
O O4 0.181462 0.641083 0.892831
O O5 0.064271 0.622878 0.622878
O O6 0.288182 0.500000 0.500000
O O7 0.304391 0.855453 0.395192
O O8 0.304391 0.604808 0.144547
#
# Coordination Sequence:
#
# PCOD8155319 Si02
#       7
#     1   1   4   4   2   2   1
#     4  12  24  36  52  92 120 158 228 268 312 372
#     4   8  20  46  64  96 140 166 192 268 336 382
#     4  12  23  39  60  91 125 173 215 271 316 382
#     4  10  22  43  64 100 126 168 204 264 321 384
#     4  12  22  42  68  92 128 172 218 260 322 384
#     4  12  22  42  68  92 128 172 218 260 322 384
#     4  12  24  42  60  88 136 174 208 268 344 350
#
# _framework density 18.806889999999999
#
# number of rings (size 3 to 8) (size 9 to 14) (size 15 to 20)
#    0.800    0.000    2.667    6.400    0.000    1.067 
#    0.000    0.000    0.000    3.200    0.000    0.000 
#    0.000    0.000    0.000    0.000    0.000    0.000 
#
# Total GULP energy -185978.935953 kJ/mol
# GULP energy per Si atom -12398.595730 kJ/mol
# Density = 1.876408 g / cm^3
# Si number density = 18.806890 Si / 1000 Ang^3
#
#
#
# Elastic Constant Matrix: (Units=GPa)
#
#
# Indices 1 2 3 4 5 6 
#
# 1 166.5630 91.9624 91.9623 0.0000 0.0000 0.0000
# 2 91.9624 157.2348 87.7881 0.0000 0.0000 0.0000
# 3 91.9623 87.7881 157.2344 0.0000 0.0000 0.0000
# 4 0.0000 0.0000 0.0000 54.3343 0.0000 0.0000
# 5 0.0000 0.0000 0.0000 0.0000 47.3550 0.0000
# 6 0.0000 0.0000 0.0000 0.0000 0.0000 47.3552
#
#
#
# Elastic Compliance Matrix: (Units=1/GPa)
#
#
# Indices 1 2 3 4 5 6 
#
# 1 0.010253 -0.003848 -0.003848 0.000000 0.000000 0.000000
# 2 -0.003848 0.010685 -0.003715 0.000000 0.000000 0.000000
# 3 -0.003848 -0.003715 0.010685 0.000000 0.000000 0.000000
# 4 0.000000 0.000000 0.000000 0.018405 0.000000 0.000000
# 5 0.000000 0.000000 0.000000 0.000000 0.021117 0.000000
# 6 0.000000 0.000000 0.000000 0.000000 0.000000 0.021117
#
#
# Mechanical properties :
#
#
# Convention : Reuss Voigt Hill
#
# Bulk Modulus (GPa) = 113.63599 113.82864 113.73231
# Shear Modulus (GPa) = 42.36680 43.76353 43.06517
#
# Velocity S-wave (km/s) = 4.75144 4.82913 4.79044
# Velocity P-wave (km/s) = 9.52131 9.57864 9.55002
#
# Compressibility (1/GPa) = 0.00880003
#
# Stress axis : x y z
#
# Youngs Moduli (GPa) = 97.53207 93.59168 93.59145
#
# Poissons Ratio (x) = 0.36016 0.36016
# Poissons Ratio (y) = 0.37532 0.34768
# Poissons Ratio (z) = 0.37532 0.34768
#
# Static dielectric constant tensor:
#      x y z
#    x 3.516130 0.000000 0.000000 
#    y 0.000000 3.597570 0.000000 
#    z 0.000000 0.000000 3.597570 
# 
# 
# High freq. dielectric constant tensor:
#      x y z
#    x 1.736460 0.000000 0.000000 
#    y 0.000000 1.741910 0.000000 
#    z 0.000000 0.000000 1.741910 
# 
# From -- ./inp_files/5313.got.cif
#   From: 2010.03.12/outbox.cif.g09.slc.cpg/sg16_3_cif.got.tgz:5313.got - 2010.03.31 00:51:45.
