data_PCOD8155498
_publ_section_title
;
Structure prediction by ZEFSAII (Michael W. Deem and Ramdas Pophale) SiO2 
 PCOD8155498
Probable space group: P 2 2 21
;
_chemical_formula_sum "Si O2"
_cell_formula_units_Z 20
_cell_length_a 8.293943
_cell_length_b 13.292321
_cell_length_c 9.214037
_cell_angle_alpha 90.000000
_cell_angle_beta 90.000000
_cell_angle_gamma 90.000000
_cell_volume 1015.808445
_symmetry_space_group_name_H-M "P 2 2 21"
_symmetry_group_IT_number 17
_symmetry_cell_setting 'orthorhombic'
loop_
_space_group_symop_operation_xyz
x,y,z
-x,-y,1/2+z
x,-y,-z
-x,y,1/2-z
loop_
_atom_site_type_symbol
_atom_site_label
_atom_site_fract_x
_atom_site_fract_y
_atom_site_fract_z
Si Si1 0.387930 0.500000 0.500000
Si Si2 0.678593 0.134161 0.549442
Si Si3 0.185031 0.962657 0.775320
Si Si4 0.678593 0.634160 0.450553
Si Si5 0.185031 0.462655 0.224682
Si Si6 0.612070 0.000000 0.000000
O O1 0.498912 0.588730 0.433957
O O2 0.277404 0.452650 0.375952
O O3 0.797894 0.074825 0.658105
O O4 0.677776 0.250001 0.593574
O O5 0.498911 0.088733 0.566027
O O6 0.739277 0.119250 0.384608
O O7 0.277403 0.952656 0.624051
O O8 0.000000 0.936548 0.750000
O O9 0.739271 0.619248 0.615388
O O10 0.797900 0.574826 0.341891
O O11 0.000000 0.436541 0.250000
#
# Coordination Sequence:
#
# PCOD8155498 Si02
#       6
#     2   4   4   4   4   2
#     4  10  20  36  58  80 108 146 182 222 268 318
#     4  10  21  37  57  81 109 144 184 222 266 322
#     4  10  21  38  57  80 112 144 178 224 273 320
#     4  10  21  37  57  81 109 144 184 222 266 322
#     4  10  21  38  57  80 112 144 178 224 273 320
#     4  10  20  36  58  80 108 146 182 222 268 318
#
# _framework density 19.688749999999999
#
# number of rings (size 3 to 8) (size 9 to 14) (size 15 to 20)
#    0.000    2.400    0.000    7.200    0.000    8.000 
#    0.000    4.000    0.000    0.000    0.000    0.000 
#    0.000    0.000    0.000    0.000    0.000    0.000 
#
# Total GULP energy -248041.408318 kJ/mol
# GULP energy per Si atom -12402.070416 kJ/mol
# Density = 1.964394 g / cm^3
# Si number density = 19.688750 Si / 1000 Ang^3
#
#
#
# Elastic Constant Matrix: (Units=GPa)
#
#
# Indices 1 2 3 4 5 6 
#
# 1 111.2681 -15.3282 5.5290 0.0000 0.0000 0.0000
# 2 -15.3282 90.5492 -35.0658 0.0000 0.0000 0.0000
# 3 5.5290 -35.0658 52.3784 0.0000 0.0000 0.0000
# 4 0.0000 0.0000 0.0000 16.6694 0.0000 0.0000
# 5 0.0000 0.0000 0.0000 0.0000 35.1539 0.0000
# 6 0.0000 0.0000 0.0000 0.0000 0.0000 8.3046
#
#
#
# Elastic Compliance Matrix: (Units=1/GPa)
#
#
# Indices 1 2 3 4 5 6 
#
# 1 0.009202 0.001595 0.000097 0.000000 0.000000 0.000000
# 2 0.001595 0.015185 0.009998 0.000000 0.000000 0.000000
# 3 0.000097 0.009998 0.025775 0.000000 0.000000 0.000000
# 4 0.000000 0.000000 0.000000 0.059990 0.000000 0.000000
# 5 0.000000 0.000000 0.000000 0.000000 0.028446 0.000000
# 6 0.000000 0.000000 0.000000 0.000000 0.000000 0.120415
#
#
# Mechanical properties :
#
#
# Convention : Reuss Voigt Hill
#
# Bulk Modulus (GPa) = 13.59774 18.27397 15.93585
# Shear Modulus (GPa) = 19.21975 31.96297 25.59136
#
# Velocity S-wave (km/s) = 3.12778 4.03353 3.60918
# Velocity P-wave (km/s) = 4.46826 5.56723 5.04774
#
# Compressibility (1/GPa) = 0.07354164
#
# Stress axis : x y z
#
# Youngs Moduli (GPa) = 108.66903 65.85240 38.79742
#
# Poissons Ratio (x) = -0.10504 -0.00374
# Poissons Ratio (y) = -0.17334 -0.38789
# Poissons Ratio (z) = -0.01049 -0.65838
#
# Static dielectric constant tensor:
#      x y z
#    x 3.573820 0.000000 0.000000 
#    y 0.000000 3.281600 0.000000 
#    z 0.000000 0.000000 3.643080 
# 
# 
# High freq. dielectric constant tensor:
#      x y z
#    x 1.770970 0.000000 0.000000 
#    y 0.000000 1.737000 0.000000 
#    z 0.000000 0.000000 1.779890 
# 
# From -- ./inp_files/4209.got.cif
#   From: 2010.03.12/outbox.cif.g09.slc.cpg/sg17_3_cif.got.tgz:4209.got - 2010.04.10 18:46:23.
