data_PCOD8155200
_publ_section_title
;
Structure prediction by ZEFSAII (Michael W. Deem and Ramdas Pophale) SiO2 
 PCOD8155200
Probable space group: C 2/C
;
_chemical_formula_sum "Si O2"
_cell_formula_units_Z 48
_cell_length_a 6.237798
_cell_length_b 32.056420
_cell_length_c 10.366715
_cell_angle_alpha 90.000000
_cell_angle_beta 59.212509
_cell_angle_gamma 90.000000
_cell_volume 1780.807112
_symmetry_space_group_name_H-M "C 2/C"
_symmetry_group_IT_number 15
_symmetry_cell_setting 'monoclinic'
loop_
_space_group_symop_operation_xyz
x,y,z
-x,y,1/2-z
-x,-y,-z
x,-y,1/2+z
1/2+x,1/2+y,z
1/2-x,1/2+y,1/2-z
1/2-x,1/2-y,-z
1/2+x,1/2-y,1/2+z
loop_
_atom_site_type_symbol
_atom_site_label
_atom_site_fract_x
_atom_site_fract_y
_atom_site_fract_z
Si Si1 0.896323 0.642186 0.426095
Si Si2 0.376039 0.381164 0.924840
Si Si3 0.142797 0.447615 0.573809
Si Si4 0.335256 0.472383 0.924100
Si Si5 0.625286 0.782988 0.397698
Si Si6 0.095955 0.201461 0.950767
O O1 0.090950 0.629717 0.480532
O O2 0.000000 0.651663 0.250000
O O3 0.736048 0.599016 0.473826
O O4 0.764996 0.684908 0.525410
O O5 0.500000 0.374726 0.750000
O O6 0.434100 0.428811 0.957793
O O7 0.495187 0.346943 0.989777
O O8 0.343534 0.485689 0.512338
O O9 0.000000 0.448991 0.750000
O O10 0.949396 0.459279 0.520096
O O11 0.500000 0.483939 0.750000
O O12 0.811476 0.788645 0.221506
O O13 0.337668 0.794842 0.466712
O O14 0.619359 0.734797 0.443631
#
# Coordination Sequence:
#
# PCOD8155200 Si02
#       6
#     8   8   8   8   8   8
#     4   9  18  34  55  73 105 148 180 213 269 329
#     4   9  18  32  55  80 106 136 178 228 271 316
#     4   9  18  34  54  76 108 147 181 221 273 325
#     4   9  18  34  52  80 108 140 184 226 270 323
#     4   9  18  31  51  76 103 137 175 216 270 318
#     4   9  18  30  51  79 103 132 173 225 269 313
#
# _framework density 26.954072
#
# number of rings (size 3 to 8) (size 9 to 14) (size 15 to 20)
#    0.000    3.000    0.000    0.000    7.000    0.667 
#   12.000    0.833    0.000    0.000    0.000    0.000 
#    0.000    0.000    0.000    0.000    0.000    0.000 
#
# Total GULP energy -297371.172497 kJ/mol
# GULP energy per Si atom -12390.465521 kJ/mol
# Density = 2.689272 g / cm^3
# Si number density = 26.954072 Si / 1000 Ang^3
#
#
#
# Elastic Constant Matrix: (Units=GPa)
#
#
# Indices 1 2 3 4 5 6 
#
# 1 89.3634 88.0926 20.4109 0.0000 12.2835 0.0000
# 2 88.0926 350.2362 152.3632 0.0000 5.6456 0.0000
# 3 20.4109 152.3632 118.2677 0.0000 -7.9206 0.0000
# 4 0.0000 0.0000 0.0000 61.5602 0.0000 -1.5778
# 5 12.2835 5.6456 -7.9206 0.0000 27.4742 0.0000
# 6 0.0000 0.0000 0.0000 -1.5778 0.0000 51.6355
#
#
#
# Elastic Compliance Matrix: (Units=1/GPa)
#
#
# Indices 1 2 3 4 5 6 
#
# 1 0.016968 -0.006308 0.004871 0.000000 -0.004886 0.000000
# 2 -0.006308 0.009260 -0.010991 0.000000 -0.002251 0.000000
# 3 0.004871 -0.010991 0.022209 0.000000 0.006483 0.000000
# 4 0.000000 0.000000 0.000000 0.016257 0.000000 0.000497
# 5 -0.004886 -0.002251 0.006483 0.000000 0.040914 0.000000
# 6 0.000000 0.000000 0.000000 0.000497 0.000000 0.019382
#
#
# Mechanical properties :
#
#
# Convention : Reuss Voigt Hill
#
# Bulk Modulus (GPa) = 42.40922 119.95561 81.18242
# Shear Modulus (GPa) = 31.70486 47.93404 39.81945
#
# Velocity S-wave (km/s) = 3.43338 4.22164 3.84775
# Velocity P-wave (km/s) = 5.61119 8.26821 7.06572
#
# Compressibility (1/GPa) = 0.02357978
#
# Stress axis : x y z
#
# Youngs Moduli (GPa) = 58.93578 107.99557 45.02725
#
# Poissons Ratio (x) = 0.68125 -0.21934
# Poissons Ratio (y) = 0.37177 0.49490
# Poissons Ratio (z) = -0.28709 1.18700
#
# Static dielectric constant tensor:
#      x y z
#    x 0.153270 0.000000 0.409860 
#    y 0.000000 6.014760 0.000000 
#    z 0.409860 0.000000 4.185970 
# 
# 
# High freq. dielectric constant tensor:
#      x y z
#    x 2.186190 0.000000 0.015890 
#    y 0.000000 2.137520 0.000000 
#    z 0.015890 0.000000 2.020960 
# 
# From -- ./inp_files/80522.got.cif
#   From: 2010.06.25/outbox.cif.g09.slc.cpg/sg15_41_cif.got.tgz:80522.got - 2010.06.28 07:06:18.
