data_PCOD8155902
_publ_section_title
;
Structure prediction by ZEFSAII (Michael W. Deem and Ramdas Pophale) SiO2 
 PCOD8155902
Probable space group: P 21 21 2
;
_chemical_formula_sum "Si O2"
_cell_formula_units_Z 24
_cell_length_a 12.068804
_cell_length_b 4.986196
_cell_length_c 18.529359
_cell_angle_alpha 90.000000
_cell_angle_beta 90.000000
_cell_angle_gamma 90.000000
_cell_volume 1115.049060
_symmetry_space_group_name_H-M "P 21 21 2"
_symmetry_group_IT_number 18
_symmetry_cell_setting 'orthorhombic'
loop_
_space_group_symop_operation_xyz
x,y,z
-x,-y,z
1/2+x,1/2-y,-z
1/2-x,1/2+y,-z
loop_
_atom_site_type_symbol
_atom_site_label
_atom_site_fract_x
_atom_site_fract_y
_atom_site_fract_z
Si Si1 0.000000 0.000000 0.158939
Si Si2 0.386890 0.912794 0.510718
Si Si3 0.372655 0.523609 0.257440
Si Si4 0.204762 0.521683 0.969475
Si Si5 0.500000 0.000000 0.942082
Si Si6 0.750982 0.974842 0.196301
Si Si7 0.661887 0.587869 0.421820
O O1 0.027418 0.745886 0.109889
O O2 0.114018 0.032141 0.206083
O O3 0.395912 0.615102 0.478151
O O4 0.294307 0.947638 0.571838
O O5 0.500000 0.000000 0.550105
O O6 0.367972 0.109087 0.442496
O O7 0.500000 0.500000 0.228353
O O8 0.314313 0.810767 0.245323
O O9 0.378239 0.468924 0.342133
O O10 0.293688 0.315342 0.217394
O O11 0.215772 0.467251 0.885356
O O12 0.205049 0.836449 0.989346
O O13 0.093999 0.400989 0.003505
#
# Coordination Sequence:
#
# PCOD8155902 Si02
#       7
#     2   4   4   4   2   4   4
#     4  12  24  46  66  92 126 174 212 262 332 388
#     4  10  19  37  66  95 125 157 208 264 305 362
#     4  12  26  44  65  94 133 172 214 260 318 388
#     4  12  23  42  64  94 119 156 214 264 325 372
#     4  12  22  40  70  92 126 158 206 278 328 382
#     4  12  26  45  64  96 127 172 215 262 322 387
#     4  10  22  39  63  95 124 168 209 248 318 368
#
# _framework density 21.523717999999999
#
# number of rings (size 3 to 8) (size 9 to 14) (size 15 to 20)
#    0.000    0.667    3.333    5.000    2.333    0.000 
#    3.000    0.000    0.000    0.000    0.000    0.000 
#    0.000    0.000    0.000    0.000    0.000    0.000 
#
# Total GULP energy -297499.546706 kJ/mol
# GULP energy per Si atom -12395.814446 kJ/mol
# Density = 2.147473 g / cm^3
# Si number density = 21.523718 Si / 1000 Ang^3
#
#
#
# Elastic Constant Matrix: (Units=GPa)
#
#
# Indices 1 2 3 4 5 6 
#
# 1 152.0463 12.9764 15.5259 0.0000 0.0000 0.0000
# 2 12.9764 85.5473 4.2463 0.0000 0.0000 0.0000
# 3 15.5259 4.2463 50.8149 0.0000 0.0000 0.0000
# 4 0.0000 0.0000 0.0000 28.8109 0.0000 0.0000
# 5 0.0000 0.0000 0.0000 0.0000 30.2913 0.0000
# 6 0.0000 0.0000 0.0000 0.0000 0.0000 32.9691
#
#
#
# Elastic Compliance Matrix: (Units=1/GPa)
#
#
# Indices 1 2 3 4 5 6 
#
# 1 0.006863 -0.000941 -0.002018 0.000000 0.000000 0.000000
# 2 -0.000941 0.011867 -0.000704 0.000000 0.000000 0.000000
# 3 -0.002018 -0.000704 0.020355 0.000000 0.000000 0.000000
# 4 0.000000 0.000000 0.000000 0.034709 0.000000 0.000000
# 5 0.000000 0.000000 0.000000 0.000000 0.033013 0.000000
# 6 0.000000 0.000000 0.000000 0.000000 0.000000 0.030331
#
#
# Mechanical properties :
#
#
# Convention : Reuss Voigt Hill
#
# Bulk Modulus (GPa) = 31.48779 39.32285 35.40532
# Shear Modulus (GPa) = 32.24733 35.45825 33.85279
#
# Velocity S-wave (km/s) = 3.87489 4.06323 3.97017
# Velocity P-wave (km/s) = 5.88904 6.34998 6.12385
#
# Compressibility (1/GPa) = 0.03175834
#
# Stress axis : x y z
#
# Youngs Moduli (GPa) = 145.70149 84.26646 49.12843
#
# Poissons Ratio (x) = 0.07929 0.09916
# Poissons Ratio (y) = 0.13709 0.03460
# Poissons Ratio (z) = 0.29408 0.05934
#
# Static dielectric constant tensor:
#      x y z
#    x 4.313450 0.000000 0.000000 
#    y 0.000000 3.935580 0.000000 
#    z 0.000000 0.000000 3.555690 
# 
# 
# High freq. dielectric constant tensor:
#      x y z
#    x 1.865660 0.000000 0.000000 
#    y 0.000000 1.865010 0.000000 
#    z 0.000000 0.000000 1.814790 
# 
# From -- ./inp_files/7370.got.cif
#   From: 2010.03.12/outbox.cif.g09.slc.cpg/sg18_4_cif.got.tgz:7370.got - 2010.04.10 18:53:55.
