data_PCOD8155121
_publ_section_title
;
Structure prediction by ZEFSAII (Michael W. Deem and Ramdas Pophale) SiO2 
 PCOD8155121
Probable space group: C 2/C
;
_chemical_formula_sum "Si O2"
_cell_formula_units_Z 32
_cell_length_a 14.958312
_cell_length_b 11.259821
_cell_length_c 8.111393
_cell_angle_alpha 90.000000
_cell_angle_beta 74.653903
_cell_angle_gamma 90.000000
_cell_volume 1317.473427
_symmetry_space_group_name_H-M "C 2/C"
_symmetry_group_IT_number 15
_symmetry_cell_setting 'monoclinic'
loop_
_space_group_symop_operation_xyz
x,y,z
-x,y,1/2-z
-x,-y,-z
x,-y,1/2+z
1/2+x,1/2+y,z
1/2-x,1/2+y,1/2-z
1/2-x,1/2-y,-z
1/2+x,1/2-y,1/2+z
loop_
_atom_site_type_symbol
_atom_site_label
_atom_site_fract_x
_atom_site_fract_y
_atom_site_fract_z
Si Si1 0.344899 0.680589 0.099274
Si Si2 0.997587 0.365494 0.445819
Si Si3 0.607247 0.533808 0.727184
Si Si4 0.683836 0.735858 0.877407
O O1 0.417363 0.786676 0.025466
O O2 0.375637 0.606096 0.249299
O O3 0.242676 0.732414 0.183503
O O4 0.337601 0.587131 0.954224
O O5 0.000000 0.354574 0.250000
O O6 0.000000 0.500000 0.500000
O O7 0.901060 0.324422 0.568061
O O8 0.500000 0.558517 0.750000
O O9 0.642126 0.603611 0.874842
O O10 0.750000 0.750000 0.000000
#
# Coordination Sequence:
#
# PCOD8155121 Si02
#       4
#     8   8   8   8
#     4  12  27  49  79 115 154 203 264 319 385 462
#     4  12  29  50  76 110 161 200 252 320 395 463
#     4  12  26  48  80 111 156 201 258 323 386 453
#     4  12  27  49  78 113 154 205 257 316 389 460
#
# _framework density 24.288914999999999
#
# number of rings (size 3 to 8) (size 9 to 14) (size 15 to 20)
#    0.000    0.000    5.000    3.750    7.000    2.000 
#    0.000    0.000    0.000    0.000    0.000    0.000 
#    0.000    0.000    0.000    0.000    0.000    0.000 
#
# Total GULP energy -198432.461960 kJ/mol
# GULP energy per Si atom -12402.028872 kJ/mol
# Density = 2.423363 g / cm^3
# Si number density = 24.288915 Si / 1000 Ang^3
#
#
#
# Elastic Constant Matrix: (Units=GPa)
#
#
# Indices 1 2 3 4 5 6 
#
# 1 137.4200 64.4904 20.9082 0.0000 -37.7436 0.0000
# 2 64.4904 173.7056 23.3947 0.0000 -17.6898 0.0000
# 3 20.9082 23.3947 51.2388 0.0000 -25.9539 0.0000
# 4 0.0000 0.0000 0.0000 41.4550 0.0000 8.6932
# 5 -37.7436 -17.6898 -25.9539 0.0000 48.9963 0.0000
# 6 0.0000 0.0000 0.0000 8.6932 0.0000 33.1981
#
#
#
# Elastic Compliance Matrix: (Units=1/GPa)
#
#
# Indices 1 2 3 4 5 6 
#
# 1 0.010802 -0.003367 0.000996 0.000000 0.007633 0.000000
# 2 -0.003367 0.007220 -0.002619 0.000000 -0.001374 0.000000
# 3 0.000996 -0.002619 0.027628 0.000000 0.014457 0.000000
# 4 0.000000 0.000000 0.000000 0.025524 0.000000 -0.006684
# 5 0.007633 -0.001374 0.014457 0.000000 0.033452 0.000000
# 6 0.000000 0.000000 0.000000 -0.006684 0.000000 0.031872
#
#
# Mechanical properties :
#
#
# Convention : Reuss Voigt Hill
#
# Bulk Modulus (GPa) = 28.03414 64.43899 46.23656
# Shear Modulus (GPa) = 31.57199 41.63463 36.60331
#
# Velocity S-wave (km/s) = 3.60926 4.14471 3.88622
# Velocity P-wave (km/s) = 5.37922 7.03510 6.26213
#
# Compressibility (1/GPa) = 0.03567080
#
# Stress axis : x y z
#
# Youngs Moduli (GPa) = 92.57414 138.51003 36.19451
#
# Poissons Ratio (x) = 0.46639 -0.03605
# Poissons Ratio (y) = 0.31172 0.09478
# Poissons Ratio (z) = -0.09220 0.36269
#
# Static dielectric constant tensor:
#      x y z
#    x 4.476010 0.000000 -0.089800 
#    y 0.000000 4.481540 0.000000 
#    z -0.089800 0.000000 4.731180 
# 
# 
# High freq. dielectric constant tensor:
#      x y z
#    x 1.966420 0.000000 -0.002480 
#    y 0.000000 1.978670 0.000000 
#    z -0.002480 0.000000 1.984890 
# 
# From -- ./inp_files/36704.got.cif
#   From: 2010.06.25/outbox.cif.g09.slc.cpg/sg15_19_cif.got.tgz:36704.got - 2010.06.28 07:06:18.
