data_PCOD8155834
_publ_section_title
;
Structure prediction by ZEFSAII (Michael W. Deem and Ramdas Pophale) SiO2 
 PCOD8155834
Probable space group: P 21 21 2
;
_chemical_formula_sum "Si O2"
_cell_formula_units_Z 18
_cell_length_a 6.114869
_cell_length_b 7.227134
_cell_length_c 16.824635
_cell_angle_alpha 90.000000
_cell_angle_beta 90.000000
_cell_angle_gamma 90.000000
_cell_volume 743.530719
_symmetry_space_group_name_H-M "P 21 21 2"
_symmetry_group_IT_number 18
_symmetry_cell_setting 'orthorhombic'
loop_
_space_group_symop_operation_xyz
x,y,z
-x,-y,z
1/2+x,1/2-y,-z
1/2-x,1/2+y,-z
loop_
_atom_site_type_symbol
_atom_site_label
_atom_site_fract_x
_atom_site_fract_y
_atom_site_fract_z
Si Si1 0.168732 0.347947 0.893682
Si Si2 0.370972 0.312435 0.735002
Si Si3 0.000000 0.500000 0.656413
Si Si4 0.500000 0.500000 0.479452
Si Si5 0.000000 0.000000 0.983175
Si Si6 0.843588 0.722405 0.401545
O O1 0.343548 0.266249 0.828738
O O2 0.290438 0.456771 0.963535
O O3 0.000000 0.500000 0.856420
O O4 0.039616 0.174220 0.927075
O O5 0.500000 0.500000 0.725839
O O6 0.121892 0.339668 0.706411
O O7 0.515547 0.175380 0.679063
O O8 0.173075 0.609102 0.604277
O O9 0.719049 0.531083 0.424834
O O10 0.497464 0.692054 0.529493
#
# Coordination Sequence:
#
# PCOD8155834 Si02
#       6
#     4   4   2   2   2   4
#     4  12  24  44  78 109 155 195 242 310 364 442
#     4  10  21  41  74 101 142 194 240 290 375 445
#     4  10  18  42  68  98 136 186 238 286 370 436
#     4  12  24  43  75  98 144 180 244 318 360 434
#     4  12  26  43  77 118 144 194 250 296 372 438
#     4  11  24  43  70 106 135 192 243 299 376 441
#
# _framework density 24.208819999999999
#
# number of rings (size 3 to 8) (size 9 to 14) (size 15 to 20)
#    0.000    0.889    7.778    1.333    0.000    0.000 
#    0.000    1.111   19.556    0.000    0.000    0.000 
#    0.000    0.000    0.000    0.000    0.000    0.000 
#
# Total GULP energy -223047.569253 kJ/mol
# GULP energy per Si atom -12391.531625 kJ/mol
# Density = 2.415372 g / cm^3
# Si number density = 24.208820 Si / 1000 Ang^3
#
#
#
# Elastic Constant Matrix: (Units=GPa)
#
#
# Indices 1 2 3 4 5 6 
#
# 1 95.8532 31.9209 51.2894 0.0000 0.0000 0.0000
# 2 31.9209 92.1413 41.7680 0.0000 0.0000 0.0000
# 3 51.2894 41.7680 136.2470 0.0000 0.0000 0.0000
# 4 0.0000 0.0000 0.0000 9.8652 0.0000 0.0000
# 5 0.0000 0.0000 0.0000 0.0000 28.0484 0.0000
# 6 0.0000 0.0000 0.0000 0.0000 0.0000 49.0172
#
#
#
# Elastic Compliance Matrix: (Units=1/GPa)
#
#
# Indices 1 2 3 4 5 6 
#
# 1 0.013654 -0.002788 -0.004285 0.000000 0.000000 0.000000
# 2 -0.002788 0.013174 -0.002989 0.000000 0.000000 0.000000
# 3 -0.004285 -0.002989 0.009869 0.000000 0.000000 0.000000
# 4 0.000000 0.000000 0.000000 0.101367 0.000000 0.000000
# 5 0.000000 0.000000 0.000000 0.000000 0.035653 0.000000
# 6 0.000000 0.000000 0.000000 0.000000 0.000000 0.020401
#
#
# Mechanical properties :
#
#
# Convention : Reuss Voigt Hill
#
# Bulk Modulus (GPa) = 60.34097 63.79978 62.07038
# Shear Modulus (GPa) = 22.75149 30.67035 26.71092
#
# Velocity S-wave (km/s) = 3.06894 3.56323 3.32528
# Velocity P-wave (km/s) = 6.12676 6.58331 6.35913
#
# Compressibility (1/GPa) = 0.01657249
#
# Stress axis : x y z
#
# Youngs Moduli (GPa) = 73.23868 75.90936 101.32556
#
# Poissons Ratio (x) = 0.21161 0.43422
# Poissons Ratio (y) = 0.20416 0.30288
# Poissons Ratio (z) = 0.31386 0.22690
#
# Static dielectric constant tensor:
#      x y z
#    x 5.240020 0.000000 0.000000 
#    y 0.000000 4.178760 0.000000 
#    z 0.000000 0.000000 4.788020 
# 
# 
# High freq. dielectric constant tensor:
#      x y z
#    x 1.976470 0.000000 0.000000 
#    y 0.000000 1.936310 0.000000 
#    z 0.000000 0.000000 1.961480 
# 
# From -- ./inp_files/7111.got.cif
#   From: 2010.03.12/outbox.cif.g09.slc.cpg/sg18_4_cif.got.tgz:7111.got - 2010.04.10 18:53:55.
