data_PCOD8155675
_publ_section_title
;
Structure prediction by ZEFSAII (Michael W. Deem and Ramdas Pophale) SiO2 
 PCOD8155675
Probable space group: P 2 2 21
;
_chemical_formula_sum "Si O2"
_cell_formula_units_Z 14
_cell_length_a 9.978027
_cell_length_b 9.402315
_cell_length_c 7.432233
_cell_angle_alpha 90.000000
_cell_angle_beta 90.000000
_cell_angle_gamma 90.000000
_cell_volume 697.266481
_symmetry_space_group_name_H-M "P 2 2 21"
_symmetry_group_IT_number 17
_symmetry_cell_setting 'orthorhombic'
loop_
_space_group_symop_operation_xyz
x,y,z
-x,-y,1/2+z
x,-y,-z
-x,y,1/2-z
loop_
_atom_site_type_symbol
_atom_site_label
_atom_site_fract_x
_atom_site_fract_y
_atom_site_fract_z
Si Si1 0.217640 0.163575 0.510053
Si Si2 0.279827 0.642017 0.191940
Si Si3 0.000000 0.274700 0.750000
Si Si4 0.648014 0.676680 0.703699
O O1 0.316460 0.245919 0.650294
O O2 0.064706 0.178988 0.587278
O O3 0.239768 0.236099 0.315475
O O4 0.258548 0.000000 0.500000
O O5 0.340661 0.490860 0.246148
O O6 0.117940 0.625853 0.171154
O O7 0.333958 0.705156 0.006774
O O8 0.500000 0.731574 0.750000
#
# Coordination Sequence:
#
# PCOD8155675 Si02
#       4
#     4   4   2   4
#     4  10  23  44  63  97 129 169 207 262 325 380
#     4   9  23  40  65  98 121 165 217 257 321 369
#     4   8  22  40  60 100 120 160 204 268 310 380
#     4  11  24  40  67  96 128 172 209 271 309 369
#
# _framework density 20.078406999999999
#
# number of rings (size 3 to 8) (size 9 to 14) (size 15 to 20)
#    1.714    0.571    0.000    0.857    8.000    9.143 
#    5.143    0.000    0.000    0.000    0.000    0.000 
#    0.000    0.000    0.000    0.000    0.000    0.000 
#
# Total GULP energy -173453.103186 kJ/mol
# GULP energy per Si atom -12389.507370 kJ/mol
# Density = 2.003271 g / cm^3
# Si number density = 20.078407 Si / 1000 Ang^3
#
#
#
# Elastic Constant Matrix: (Units=GPa)
#
#
# Indices 1 2 3 4 5 6 
#
# 1 81.1451 -1.6688 13.7146 0.0000 0.0000 0.0000
# 2 -1.6688 89.1132 44.8185 0.0000 0.0000 0.0000
# 3 13.7146 44.8185 81.7011 0.0000 0.0000 0.0000
# 4 0.0000 0.0000 0.0000 20.1215 0.0000 0.0000
# 5 0.0000 0.0000 0.0000 0.0000 39.0624 0.0000
# 6 0.0000 0.0000 0.0000 0.0000 0.0000 8.6186
#
#
#
# Elastic Compliance Matrix: (Units=1/GPa)
#
#
# Indices 1 2 3 4 5 6 
#
# 1 0.012898 0.001837 -0.003173 0.000000 0.000000 0.000000
# 2 0.001837 0.015759 -0.008953 0.000000 0.000000 0.000000
# 3 -0.003173 -0.008953 0.017684 0.000000 0.000000 0.000000
# 4 0.000000 0.000000 0.000000 0.049698 0.000000 0.000000
# 5 0.000000 0.000000 0.000000 0.000000 0.025600 0.000000
# 6 0.000000 0.000000 0.000000 0.000000 0.000000 0.116028
#
#
# Mechanical properties :
#
#
# Convention : Reuss Voigt Hill
#
# Bulk Modulus (GPa) = 38.81579 40.63200 39.72389
# Shear Modulus (GPa) = 18.73835 26.56684 22.65259
#
# Velocity S-wave (km/s) = 3.05824 3.64147 3.36252
# Velocity P-wave (km/s) = 5.64310 6.16125 5.90785
#
# Compressibility (1/GPa) = 0.02576271
#
# Stress axis : x y z
#
# Youngs Moduli (GPa) = 77.53346 63.45558 56.54876
#
# Poissons Ratio (x) = -0.11659 0.17943
# Poissons Ratio (y) = -0.14245 0.50630
# Poissons Ratio (z) = 0.24601 0.56814
#
# Static dielectric constant tensor:
#      x y z
#    x 3.447380 0.000000 0.000000 
#    y 0.000000 3.286940 0.000000 
#    z 0.000000 0.000000 3.760150 
# 
# 
# High freq. dielectric constant tensor:
#      x y z
#    x 1.772300 0.000000 0.000000 
#    y 0.000000 1.758550 0.000000 
#    z 0.000000 0.000000 1.793530 
# 
# From -- ./inp_files/4490.got.cif
#   From: 2010.03.12/outbox.cif.g09.slc.cpg/sg17_3_cif.got.tgz:4490.got - 2010.04.10 18:46:23.
