data_PCOD8155757
_publ_section_title
;
Structure prediction by ZEFSAII (Michael W. Deem and Ramdas Pophale) SiO2 
 PCOD8155757
Probable space group: P 2 2 21
;
_chemical_formula_sum "Si O2"
_cell_formula_units_Z 20
_cell_length_a 7.648640
_cell_length_b 16.771466
_cell_length_c 6.948126
_cell_angle_alpha 90.000000
_cell_angle_beta 90.000000
_cell_angle_gamma 90.000000
_cell_volume 891.298000
_symmetry_space_group_name_H-M "P 2 2 21"
_symmetry_group_IT_number 17
_symmetry_cell_setting 'orthorhombic'
loop_
_space_group_symop_operation_xyz
x,y,z
-x,-y,1/2+z
x,-y,-z
-x,y,1/2-z
loop_
_atom_site_type_symbol
_atom_site_label
_atom_site_fract_x
_atom_site_fract_y
_atom_site_fract_z
Si Si1 0.589578 0.500000 0.500000
Si Si2 0.227278 0.280437 0.515704
Si Si3 0.500000 0.638772 0.250000
Si Si4 0.823833 0.556239 0.834095
Si Si5 0.348772 0.087081 0.912825
Si Si6 0.000000 0.165397 0.750000
Si Si7 0.500000 0.807884 0.750000
O O1 0.491347 0.580066 0.432663
O O2 0.685930 0.545598 0.668595
O O3 0.330820 0.304919 0.713799
O O4 0.138140 0.355227 0.410824
O O5 0.360197 0.244928 0.361666
O O6 0.073772 0.219906 0.575894
O O7 0.000000 0.519230 0.750000
O O8 0.750933 0.500000 0.000000
O O9 0.500000 0.091924 0.750000
O O10 0.160250 0.111249 0.825415
O O11 0.396398 0.141530 0.092955
O O12 0.330765 0.000000 0.000000
#
# Coordination Sequence:
#
# PCOD8155757 Si02
#       7
#     2   4   2   4   4   2   2
#     4  12  24  44  68  96 134 196 280 322 376 460
#     4  12  27  45  74 109 156 202 254 325 391 455
#     4  12  24  45  71  98 146 198 264 328 392 449
#     4  12  26  44  65  99 143 199 264 327 382 444
#     4  12  27  55  86 121 160 200 251 308 378 474
#     4  12  30  48  80 126 160 196 258 316 388 470
#     4  12  26  51  83 110 158 208 248 310 398 465
#
# _framework density 22.439184999999998
#
# number of rings (size 3 to 8) (size 9 to 14) (size 15 to 20)
#    0.000    0.000    6.000    3.600    7.000    2.400 
#    0.000    0.000    0.000    0.000    0.000    0.000 
#    0.000    0.000    0.000    0.000    0.000    0.000 
#
# Total GULP energy -247845.416081 kJ/mol
# GULP energy per Si atom -12392.270804 kJ/mol
# Density = 2.238811 g / cm^3
# Si number density = 22.439185 Si / 1000 Ang^3
#
#
#
# Elastic Constant Matrix: (Units=GPa)
#
#
# Indices 1 2 3 4 5 6 
#
# 1 143.7977 50.0163 54.9322 0.0000 0.0000 0.0000
# 2 50.0163 120.4158 56.7895 0.0000 0.0000 0.0000
# 3 54.9322 56.7895 127.6430 0.0000 0.0000 0.0000
# 4 0.0000 0.0000 0.0000 63.1026 0.0000 0.0000
# 5 0.0000 0.0000 0.0000 0.0000 36.9237 0.0000
# 6 0.0000 0.0000 0.0000 0.0000 0.0000 32.1402
#
#
#
# Elastic Compliance Matrix: (Units=1/GPa)
#
#
# Indices 1 2 3 4 5 6 
#
# 1 0.008828 -0.002373 -0.002743 0.000000 0.000000 0.000000
# 2 -0.002373 0.011148 -0.003938 0.000000 0.000000 0.000000
# 3 -0.002743 -0.003938 0.010767 0.000000 0.000000 0.000000
# 4 0.000000 0.000000 0.000000 0.015847 0.000000 0.000000
# 5 0.000000 0.000000 0.000000 0.000000 0.027083 0.000000
# 6 0.000000 0.000000 0.000000 0.000000 0.000000 0.031114
#
#
# Mechanical properties :
#
#
# Convention : Reuss Voigt Hill
#
# Bulk Modulus (GPa) = 79.15738 79.48139 79.31938
# Shear Modulus (GPa) = 39.33714 41.77454 40.55584
#
# Velocity S-wave (km/s) = 4.19149 4.31940 4.25593
# Velocity P-wave (km/s) = 7.66667 7.77007 7.71854
#
# Compressibility (1/GPa) = 0.01263306
#
# Stress axis : x y z
#
# Youngs Moduli (GPa) = 113.28214 89.70544 92.87454
#
# Poissons Ratio (x) = 0.21286 0.25478
# Poissons Ratio (y) = 0.26880 0.36578
# Poissons Ratio (z) = 0.31077 0.35330
#
# Static dielectric constant tensor:
#      x y z
#    x 3.857150 0.000000 0.000000 
#    y 0.000000 4.395550 0.000000 
#    z 0.000000 0.000000 4.435860 
# 
# 
# High freq. dielectric constant tensor:
#      x y z
#    x 1.899090 0.000000 0.000000 
#    y 0.000000 1.894160 0.000000 
#    z 0.000000 0.000000 1.904550 
# 
# From -- ./inp_files/937.got.cif
#   From: 2010.03.12/outbox.cif.g09.slc.cpg/sg17_1_cif.got.tgz:937.got - 2010.04.10 18:46:23.
