data_PCOD8155713
_publ_section_title
;
Structure prediction by ZEFSAII (Michael W. Deem and Ramdas Pophale) SiO2 
 PCOD8155713
Probable space group: P 2 2 21
;
_chemical_formula_sum "Si O2"
_cell_formula_units_Z 32
_cell_length_a 11.508715
_cell_length_b 9.844270
_cell_length_c 13.602275
_cell_angle_alpha 90.000000
_cell_angle_beta 90.000000
_cell_angle_gamma 90.000000
_cell_volume 1541.068356
_symmetry_space_group_name_H-M "P 2 2 21"
_symmetry_group_IT_number 17
_symmetry_cell_setting 'orthorhombic'
loop_
_space_group_symop_operation_xyz
x,y,z
-x,-y,1/2+z
x,-y,-z
-x,y,1/2-z
loop_
_atom_site_type_symbol
_atom_site_label
_atom_site_fract_x
_atom_site_fract_y
_atom_site_fract_z
Si Si1 0.260746 0.356702 0.552664
Si Si2 0.216008 0.358665 0.946100
Si Si3 0.948568 0.058241 0.146577
Si Si4 0.982885 0.217623 0.953014
Si Si5 0.637736 0.708240 0.252681
Si Si6 0.414326 0.864100 0.552583
Si Si7 0.318720 0.873339 0.938439
Si Si8 0.301943 0.023011 0.275002
O O1 0.245855 0.500000 0.500000
O O2 0.137473 0.288847 0.571214
O O3 0.314827 0.377098 0.660591
O O4 0.343584 0.264652 0.485185
O O5 0.301271 0.347173 0.851873
O O6 0.081848 0.325668 0.921156
O O7 0.230943 0.500000 0.000000
O O8 0.244687 0.254080 0.031502
O O9 0.810821 0.038258 0.156398
O O10 0.000000 0.105807 0.250000
O O11 0.003241 0.914626 0.114445
O O12 0.980437 0.174240 0.067732
O O13 0.500000 0.685215 0.250000
O O14 0.663849 0.867277 0.240626
O O15 0.549231 0.840035 0.532520
O O16 0.401973 0.893283 0.668562
O O17 0.367706 0.000000 0.500000
O O18 0.287596 0.901146 0.826780
O O19 0.272534 0.000000 0.000000
#
# Coordination Sequence:
#
# PCOD8155713 Si02
#       8
#     4   4   4   4   4   4   4   4
#     4  12  26  45  70 101 141 187 230 280 344 411
#     4  12  28  48  68  98 143 184 227 282 346 413
#     4  11  22  39  71 103 139 173 228 291 340 404
#     4  11  24  45  68 102 134 180 230 280 347 406
#     4  12  25  44  73 104 138 183 232 282 345 416
#     4  11  21  40  66  99 136 178 226 285 338 403
#     4  11  24  39  67 101 135 175 228 286 343 401
#     4  12  21  40  69 108 135 173 231 287 351 406
#
# _framework density 20.764813
#
# number of rings (size 3 to 8) (size 9 to 14) (size 15 to 20)
#    0.000    0.500    5.000    3.750    1.750    3.000 
#    2.250    0.000    0.000    0.000    0.000    0.000 
#    0.000    0.000    0.000    0.000    0.000    0.000 
#
# Total GULP energy -396856.731354 kJ/mol
# GULP energy per Si atom -12401.772855 kJ/mol
# Density = 2.071755 g / cm^3
# Si number density = 20.764813 Si / 1000 Ang^3
#
#
#
# Elastic Constant Matrix: (Units=GPa)
#
#
# Indices 1 2 3 4 5 6 
#
# 1 106.2132 27.5889 29.9062 0.0000 0.0000 0.0000
# 2 27.5889 73.7057 24.7064 0.0000 0.0000 0.0000
# 3 29.9062 24.7064 135.1848 0.0000 0.0000 0.0000
# 4 0.0000 0.0000 0.0000 32.6913 0.0000 0.0000
# 5 0.0000 0.0000 0.0000 0.0000 63.0357 0.0000
# 6 0.0000 0.0000 0.0000 0.0000 0.0000 34.8535
#
#
#
# Elastic Compliance Matrix: (Units=1/GPa)
#
#
# Indices 1 2 3 4 5 6 
#
# 1 0.010808 -0.003456 -0.001759 0.000000 0.000000 0.000000
# 2 -0.003456 0.015558 -0.002079 0.000000 0.000000 0.000000
# 3 -0.001759 -0.002079 0.008166 0.000000 0.000000 0.000000
# 4 0.000000 0.000000 0.000000 0.030589 0.000000 0.000000
# 5 0.000000 0.000000 0.000000 0.000000 0.015864 0.000000
# 6 0.000000 0.000000 0.000000 0.000000 0.000000 0.028692
#
#
# Mechanical properties :
#
#
# Convention : Reuss Voigt Hill
#
# Bulk Modulus (GPa) = 50.13991 53.27852 51.70922
# Shear Modulus (GPa) = 38.19319 41.64290 39.91805
#
# Velocity S-wave (km/s) = 4.29339 4.48309 4.38926
# Velocity P-wave (km/s) = 6.98402 7.24646 7.11645
#
# Compressibility (1/GPa) = 0.01994419
#
# Stress axis : x y z
#
# Youngs Moduli (GPa) = 92.52341 64.27623 122.45232
#
# Poissons Ratio (x) = 0.22213 0.21545
# Poissons Ratio (y) = 0.31974 0.25456
# Poissons Ratio (z) = 0.16279 0.13362
#
# Static dielectric constant tensor:
#      x y z
#    x 3.973600 0.000000 0.000000 
#    y 0.000000 -2.128480 0.000000 
#    z 0.000000 0.000000 3.839960 
# 
# 
# High freq. dielectric constant tensor:
#      x y z
#    x 1.833480 0.000000 0.000000 
#    y 0.000000 1.790590 0.000000 
#    z 0.000000 0.000000 1.828300 
# 
# From -- ./inp_files/8564.got.cif
#   From: 2010.03.12/outbox.cif.g09.slc.cpg/sg17_5_cif.got.tgz:8564.got - 2010.04.10 18:46:23.
