data_PCOD8155446
_publ_section_title
;
Structure prediction by ZEFSAII (Michael W. Deem and Ramdas Pophale) SiO2 
 PCOD8155446
Probable space group: P 2 2 21
;
_chemical_formula_sum "Si O2"
_cell_formula_units_Z 20
_cell_length_a 17.771653
_cell_length_b 11.056119
_cell_length_c 5.023137
_cell_angle_alpha 90.000000
_cell_angle_beta 90.000000
_cell_angle_gamma 90.000000
_cell_volume 986.973637
_symmetry_space_group_name_H-M "P 2 2 21"
_symmetry_group_IT_number 17
_symmetry_cell_setting 'orthorhombic'
loop_
_space_group_symop_operation_xyz
x,y,z
-x,-y,1/2+z
x,-y,-z
-x,y,1/2-z
loop_
_atom_site_type_symbol
_atom_site_label
_atom_site_fract_x
_atom_site_fract_y
_atom_site_fract_z
Si Si1 0.669271 0.789034 0.061311
Si Si2 0.699957 0.362173 0.452270
Si Si3 0.166526 0.130022 0.592166
Si Si4 0.863729 0.275784 0.414048
Si Si5 0.447066 0.000000 0.500000
Si Si6 0.000000 0.570305 0.750000
O O1 0.654625 0.719653 0.337126
O O2 0.743102 0.871641 0.097665
O O3 0.601805 0.878396 0.994117
O O4 0.677628 0.685760 0.837755
O O5 0.675227 0.500000 0.500000
O O6 0.790006 0.352601 0.495148
O O7 0.139702 0.229458 0.385135
O O8 0.136348 0.000000 0.500000
O O9 0.130769 0.163932 0.878263
O O10 0.937859 0.356529 0.418671
O O11 0.500000 0.000527 0.250000
O O12 0.038916 0.500000 0.500000
#
# Coordination Sequence:
#
# PCOD8155446 Si02
#       6
#     4   4   4   4   2   2
#     4  10  21  37  60  90 120 156 195 245 301 343
#     4  10  20  36  61  89 119 152 202 253 294 346
#     4  10  19  37  60  85 118 148 195 253 299 352
#     4  10  22  35  57  88 113 156 201 244 307 360
#     4  12  24  40  64  92 126 156 196 242 292 364
#     4  12  24  40  58  78 120 160 200 256 308 372
#
# _framework density 20.263967999999998
#
# number of rings (size 3 to 8) (size 9 to 14) (size 15 to 20)
#    0.000    1.600    1.000    4.200    0.000    3.200 
#    0.000    2.000    0.000   12.000    0.000    0.000 
#    0.000    0.000    0.000    0.000    0.000    0.000 
#
# Total GULP energy -247992.297103 kJ/mol
# GULP energy per Si atom -12399.614855 kJ/mol
# Density = 2.021785 g / cm^3
# Si number density = 20.263968 Si / 1000 Ang^3
#
#
#
# Elastic Constant Matrix: (Units=GPa)
#
#
# Indices 1 2 3 4 5 6 
#
# 1 78.4549 42.0443 31.9754 0.0000 0.0000 0.0000
# 2 42.0443 98.1291 16.7157 0.0000 0.0000 0.0000
# 3 31.9754 16.7157 109.5621 0.0000 0.0000 0.0000
# 4 0.0000 0.0000 0.0000 27.4680 0.0000 0.0000
# 5 0.0000 0.0000 0.0000 0.0000 29.1179 0.0000
# 6 0.0000 0.0000 0.0000 0.0000 0.0000 23.4517
#
#
#
# Elastic Compliance Matrix: (Units=1/GPa)
#
#
# Indices 1 2 3 4 5 6 
#
# 1 0.018291 -0.007113 -0.004253 0.000000 0.000000 0.000000
# 2 -0.007113 0.013228 0.000058 0.000000 0.000000 0.000000
# 3 -0.004253 0.000058 0.010360 0.000000 0.000000 0.000000
# 4 0.000000 0.000000 0.000000 0.036406 0.000000 0.000000
# 5 0.000000 0.000000 0.000000 0.000000 0.034343 0.000000
# 6 0.000000 0.000000 0.000000 0.000000 0.000000 0.042641
#
#
# Mechanical properties :
#
#
# Convention : Reuss Voigt Hill
#
# Bulk Modulus (GPa) = 51.91282 51.95742 51.93512
# Shear Modulus (GPa) = 27.12873 29.03489 28.08181
#
# Velocity S-wave (km/s) = 3.66289 3.78939 3.72667
# Velocity P-wave (km/s) = 6.60022 6.69641 6.64849
#
# Compressibility (1/GPa) = 0.01926307
#
# Stress axis : x y z
#
# Youngs Moduli (GPa) = 54.67101 75.59559 96.52776
#
# Poissons Ratio (x) = 0.53768 0.41054
# Poissons Ratio (y) = 0.38885 -0.00556
# Poissons Ratio (z) = 0.23252 -0.00435
#
# Static dielectric constant tensor:
#      x y z
#    x 3.427750 0.000000 0.000000 
#    y 0.000000 3.541140 0.000000 
#    z 0.000000 0.000000 3.839640 
# 
# 
# High freq. dielectric constant tensor:
#      x y z
#    x 1.759260 0.000000 0.000000 
#    y 0.000000 1.793070 0.000000 
#    z 0.000000 0.000000 1.814830 
# 
# From -- ./inp_files/2498.got.cif
#   From: 2010.03.12/outbox.cif.g09.slc.cpg/sg17_2_cif.got.tgz:2498.got - 2010.04.10 18:46:23.
