data_PCOD8155627
_publ_section_title
;
Structure prediction by ZEFSAII (Michael W. Deem and Ramdas Pophale) SiO2 
 PCOD8155627
Probable space group: P 2 2 21
;
_chemical_formula_sum "Si O2"
_cell_formula_units_Z 24
_cell_length_a 13.689298
_cell_length_b 9.491132
_cell_length_c 9.042562
_cell_angle_alpha 90.000000
_cell_angle_beta 90.000000
_cell_angle_gamma 90.000000
_cell_volume 1174.872359
_symmetry_space_group_name_H-M "P 2 2 21"
_symmetry_group_IT_number 17
_symmetry_cell_setting 'orthorhombic'
loop_
_space_group_symop_operation_xyz
x,y,z
-x,-y,1/2+z
x,-y,-z
-x,y,1/2-z
loop_
_atom_site_type_symbol
_atom_site_label
_atom_site_fract_x
_atom_site_fract_y
_atom_site_fract_z
Si Si1 0.590503 0.569373 0.656602
Si Si2 0.233116 0.283462 0.026446
Si Si3 0.138341 0.000000 0.000000
Si Si4 0.747389 0.393700 0.789914
Si Si5 0.158330 0.838396 0.463115
Si Si6 0.108454 0.371043 0.285548
Si Si7 0.000000 0.068374 0.750000
O O1 0.558316 0.500000 0.500000
O O2 0.500000 0.632211 0.750000
O O3 0.665414 0.696140 0.617163
O O4 0.638834 0.460320 0.777350
O O5 0.144101 0.329234 0.125247
O O6 0.215039 0.124534 0.975980
O O7 0.227121 0.378191 0.882126
O O8 0.067995 0.025683 0.142147
O O9 0.751762 0.250457 0.888710
O O10 0.827151 0.502510 0.856475
O O11 0.118051 0.766305 0.610745
O O12 0.069349 0.832115 0.347377
O O13 0.190579 0.000000 0.500000
O O14 0.000000 0.422899 0.250000
#
# Coordination Sequence:
#
# PCOD8155627 Si02
#       7
#     4   4   2   4   4   4   2
#     4   9  20  41  69  97 119 157 209 270 334 393
#     4  10  22  39  63  92 127 166 213 262 317 382
#     4  12  22  38  62  88 134 178 222 258 310 378
#     4  10  23  42  61  91 124 161 210 264 322 372
#     4  12  25  38  56  87 125 168 221 254 310 375
#     4  11  24  37  56  88 125 169 216 258 307 371
#     4  12  24  36  56  86 126 184 218 254 296 382
#
# _framework density 20.42775
#
# number of rings (size 3 to 8) (size 9 to 14) (size 15 to 20)
#    0.000    1.333    2.500    4.000    3.500    4.000 
#    0.000    0.000    0.000    4.000   10.833    0.000 
#    0.000    0.000    0.000    0.000    0.000    0.000 
#
# Total GULP energy -297405.247436 kJ/mol
# GULP energy per Si atom -12391.885310 kJ/mol
# Density = 2.038126 g / cm^3
# Si number density = 20.427750 Si / 1000 Ang^3
#
#
#
# Elastic Constant Matrix: (Units=GPa)
#
#
# Indices 1 2 3 4 5 6 
#
# 1 100.9599 31.4916 43.3751 0.0000 0.0000 0.0000
# 2 31.4916 92.6731 26.3094 0.0000 0.0000 0.0000
# 3 43.3751 26.3094 92.2080 0.0000 0.0000 0.0000
# 4 0.0000 0.0000 0.0000 33.7863 0.0000 0.0000
# 5 0.0000 0.0000 0.0000 0.0000 34.9877 0.0000
# 6 0.0000 0.0000 0.0000 0.0000 0.0000 14.3570
#
#
#
# Elastic Compliance Matrix: (Units=1/GPa)
#
#
# Indices 1 2 3 4 5 6 
#
# 1 0.013112 -0.002943 -0.005328 0.000000 0.000000 0.000000
# 2 -0.002943 0.012402 -0.002154 0.000000 0.000000 0.000000
# 3 -0.005328 -0.002154 0.013966 0.000000 0.000000 0.000000
# 4 0.000000 0.000000 0.000000 0.029598 0.000000 0.000000
# 5 0.000000 0.000000 0.000000 0.000000 0.028581 0.000000
# 6 0.000000 0.000000 0.000000 0.000000 0.000000 0.069652
#
#
# Mechanical properties :
#
#
# Convention : Reuss Voigt Hill
#
# Bulk Modulus (GPa) = 53.67861 54.24369 53.96115
# Shear Modulus (GPa) = 25.72372 28.93720 27.33046
#
# Velocity S-wave (km/s) = 3.55245 3.76781 3.66171
# Velocity P-wave (km/s) = 6.56969 6.74834 6.65961
#
# Compressibility (1/GPa) = 0.01862939
#
# Stress axis : x y z
#
# Youngs Moduli (GPa) = 76.26552 80.63028 71.60158
#
# Poissons Ratio (x) = 0.23729 0.38151
# Poissons Ratio (y) = 0.22445 0.15425
# Poissons Ratio (z) = 0.40636 0.17370
#
# Static dielectric constant tensor:
#      x y z
#    x 3.490700 0.000000 0.000000 
#    y 0.000000 3.785360 0.000000 
#    z 0.000000 0.000000 3.935000 
# 
# 
# High freq. dielectric constant tensor:
#      x y z
#    x 1.764440 0.000000 0.000000 
#    y 0.000000 1.787270 0.000000 
#    z 0.000000 0.000000 1.823600 
# 
# From -- ./inp_files/5181.got.cif
#   From: 2010.03.12/outbox.cif.g09.slc.cpg/sg17_3_cif.got.tgz:5181.got - 2010.04.10 18:46:23.
