data_PCOD8155021
_publ_section_title
;
Structure prediction by ZEFSAII (Michael W. Deem and Ramdas Pophale) SiO2 
 PCOD8155021
Probable space group: C 2/C
;
_chemical_formula_sum "Si O2"
_cell_formula_units_Z 40
_cell_length_a 8.177883
_cell_length_b 24.225568
_cell_length_c 9.536631
_cell_angle_alpha 90.000000
_cell_angle_beta 69.174196
_cell_angle_gamma 90.000000
_cell_volume 1765.900072
_symmetry_space_group_name_H-M "C 2/C"
_symmetry_group_IT_number 15
_symmetry_cell_setting 'monoclinic'
loop_
_space_group_symop_operation_xyz
x,y,z
-x,y,1/2-z
-x,-y,-z
x,-y,1/2+z
1/2+x,1/2+y,z
1/2-x,1/2+y,1/2-z
1/2-x,1/2-y,-z
1/2+x,1/2-y,1/2+z
loop_
_atom_site_type_symbol
_atom_site_label
_atom_site_fract_x
_atom_site_fract_y
_atom_site_fract_z
Si Si1 0.845026 0.205758 0.690141
Si Si2 0.378515 0.484789 0.665289
Si Si3 0.667293 0.114754 0.113735
Si Si4 0.926319 0.794643 0.631091
Si Si5 0.670001 0.906651 0.292792
O O1 0.678881 0.240666 0.789691
O O2 0.790215 0.142012 0.696315
O O3 0.000000 0.215692 0.750000
O O4 0.913508 0.224670 0.516308
O O5 0.500000 0.459230 0.750000
O O6 0.500000 0.500000 0.500000
O O7 0.232914 0.441262 0.664452
O O8 0.283293 0.538228 0.755575
O O9 0.500000 0.136346 0.250000
O O10 0.813072 0.162193 0.076209
O O11 0.613392 0.105255 0.969604
O O12 0.000000 0.823258 0.750000
O O13 0.500000 0.914133 0.250000
#
# Coordination Sequence:
#
# PCOD8155021 Si02
#       5
#     8   8   8   8   8
#     4  12  25  48  74 103 146 190 233 296 351 423
#     4  12  25  47  74 100 141 185 236 291 355 419
#     4  12  28  46  72 106 144 186 237 295 350 424
#     4  12  27  46  75 107 144 186 240 290 357 420
#     4  12  28  47  71 105 146 186 235 293 358 416
#
# _framework density 22.651339
#
# number of rings (size 3 to 8) (size 9 to 14) (size 15 to 20)
#    0.000    0.000    4.000    5.400    8.400    1.600 
#    0.000    0.000    0.000    0.000    0.000    0.000 
#    0.000    0.000    0.000    0.000    0.000    0.000 
#
# Total GULP energy -248177.198750 kJ/mol
# GULP energy per Si atom -12408.859937 kJ/mol
# Density = 2.259978 g / cm^3
# Si number density = 22.651339 Si / 1000 Ang^3
#
#
#
# Elastic Constant Matrix: (Units=GPa)
#
#
# Indices 1 2 3 4 5 6 
#
# 1 96.0884 14.9969 53.9971 0.0000 14.4134 0.0000
# 2 14.9969 98.2265 19.4560 0.0000 -6.1022 0.0000
# 3 53.9971 19.4560 152.4390 0.0000 -3.0703 0.0000
# 4 0.0000 0.0000 0.0000 26.6807 0.0000 0.5638
# 5 14.4134 -6.1022 -3.0703 0.0000 53.3696 0.0000
# 6 0.0000 0.0000 0.0000 0.5638 0.0000 27.8370
#
#
#
# Elastic Compliance Matrix: (Units=1/GPa)
#
#
# Indices 1 2 3 4 5 6 
#
# 1 0.013995 -0.001437 -0.004859 0.000000 -0.004224 0.000000
# 2 -0.001437 0.010659 -0.000820 0.000000 0.001560 0.000000
# 3 -0.004859 -0.000820 0.008420 0.000000 0.001703 0.000000
# 4 0.000000 0.000000 0.000000 0.037496 0.000000 -0.000759
# 5 -0.004224 0.001560 0.001703 0.000000 0.020154 0.000000
# 6 0.000000 0.000000 0.000000 -0.000759 0.000000 0.035939
#
#
# Mechanical properties :
#
#
# Convention : Reuss Voigt Hill
#
# Bulk Modulus (GPa) = 53.07044 58.18376 55.62710
# Shear Modulus (GPa) = 33.97264 38.79772 36.38518
#
# Velocity S-wave (km/s) = 3.87694 4.14312 4.01223
# Velocity P-wave (km/s) = 6.59704 6.97350 6.78788
#
# Compressibility (1/GPa) = 0.01884288
#
# Stress axis : x y z
#
# Youngs Moduli (GPa) = 71.45156 93.81536 118.76193
#
# Poissons Ratio (x) = 0.13478 0.57709
# Poissons Ratio (y) = 0.10265 0.09740
# Poissons Ratio (z) = 0.34720 0.07694
#
# Static dielectric constant tensor:
#      x y z
#    x 4.269680 0.000000 0.069770 
#    y 0.000000 4.214800 0.000000 
#    z 0.069770 0.000000 4.274720 
# 
# 
# High freq. dielectric constant tensor:
#      x y z
#    x 1.906780 0.000000 0.003090 
#    y 0.000000 1.895650 0.000000 
#    z 0.003090 0.000000 1.914850 
# 
# From -- ./inp_files/23488.got.cif
#   From: 2010.06.25/outbox.cif.g09.slc.cpg/sg15_12_cif.got.tgz:23488.got - 2010.06.28 07:06:18.
