data_PCOD8155894
_publ_section_title
;
Structure prediction by ZEFSAII (Michael W. Deem and Ramdas Pophale) SiO2 
 PCOD8155894
Probable space group: P 21 21 2
;
_chemical_formula_sum "Si O2"
_cell_formula_units_Z 32
_cell_length_a 9.486130
_cell_length_b 15.857600
_cell_length_c 11.042177
_cell_angle_alpha 90.000000
_cell_angle_beta 90.000000
_cell_angle_gamma 90.000000
_cell_volume 1661.044376
_symmetry_space_group_name_H-M "P 21 21 2"
_symmetry_group_IT_number 18
_symmetry_cell_setting 'orthorhombic'
loop_
_space_group_symop_operation_xyz
x,y,z
-x,-y,z
1/2+x,1/2-y,-z
1/2-x,1/2+y,-z
loop_
_atom_site_type_symbol
_atom_site_label
_atom_site_fract_x
_atom_site_fract_y
_atom_site_fract_z
Si Si1 0.333211 0.993885 0.680826
Si Si2 0.582972 0.579402 0.794570
Si Si3 0.843976 0.677289 0.199174
Si Si4 0.802846 0.690065 0.923279
Si Si5 0.306043 0.651096 0.717163
Si Si6 0.338785 0.143696 0.844393
Si Si7 0.425919 0.089414 0.101483
Si Si8 0.344346 0.507823 0.549201
O O1 0.287669 0.913649 0.760635
O O2 0.270150 0.979962 0.547855
O O3 0.500000 0.000000 0.667923
O O4 0.274816 0.078325 0.745894
O O5 0.500000 0.500000 0.853022
O O6 0.698762 0.614923 0.884822
O O7 0.463129 0.648996 0.773689
O O8 0.658770 0.550818 0.669103
O O9 0.778123 0.748382 0.289757
O O10 0.012917 0.679112 0.202225
O O11 0.785524 0.700260 0.066707
O O12 0.768384 0.778469 0.858666
O O13 0.960869 0.664878 0.886520
O O14 0.193277 0.601531 0.798712
O O15 0.308730 0.604829 0.587095
O O16 0.357740 0.091611 0.968421
O O17 0.500000 0.000000 0.121892
O O18 0.500000 0.500000 0.490507
#
# Coordination Sequence:
#
# PCOD8155894 Si02
#       8
#     4   4   4   4   4   4   4   4
#     4  10  22  41  61  80 116 162 198 241 292 348
#     4   9  19  36  62  82 110 155 191 237 295 342
#     4  10  20  38  59  86 120 156 191 235 298 352
#     4  11  20  35  60  91 120 148 194 240 283 362
#     4  10  19  37  61  81 120 152 187 242 292 349
#     4  10  20  37  59  85 121 155 193 234 295 356
#     4  11  21  35  58  91 123 151 191 240 292 352
#     4   9  21  41  58  82 111 151 200 246 292 341
#
# _framework density 19.264989
#
# number of rings (size 3 to 8) (size 9 to 14) (size 15 to 20)
#    0.000    2.250    2.500    3.375    0.000    1.500 
#    4.500    0.625    0.000    0.000    0.000    0.000 
#    0.000    0.000    0.000    0.000    0.000    0.000 
#
# Total GULP energy -396669.034004 kJ/mol
# GULP energy per Si atom -12395.907313 kJ/mol
# Density = 1.922114 g / cm^3
# Si number density = 19.264989 Si / 1000 Ang^3
#
#
#
# Elastic Constant Matrix: (Units=GPa)
#
#
# Indices 1 2 3 4 5 6 
#
# 1 51.0396 31.3521 43.1972 0.0000 0.0000 0.0000
# 2 31.3521 134.7814 51.8220 0.0000 0.0000 0.0000
# 3 43.1972 51.8220 64.0291 0.0000 0.0000 0.0000
# 4 0.0000 0.0000 0.0000 24.9914 0.0000 0.0000
# 5 0.0000 0.0000 0.0000 0.0000 32.0572 0.0000
# 6 0.0000 0.0000 0.0000 0.0000 0.0000 26.5523
#
#
#
# Elastic Compliance Matrix: (Units=1/GPa)
#
#
# Indices 1 2 3 4 5 6 
#
# 1 0.045964 0.001787 -0.032456 0.000000 0.000000 0.000000
# 2 0.001787 0.010841 -0.009980 0.000000 0.000000 0.000000
# 3 -0.032456 -0.009980 0.045591 0.000000 0.000000 0.000000
# 4 0.000000 0.000000 0.000000 0.040014 0.000000 0.000000
# 5 0.000000 0.000000 0.000000 0.000000 0.031194 0.000000
# 6 0.000000 0.000000 0.000000 0.000000 0.000000 0.037662
#
#
# Mechanical properties :
#
#
# Convention : Reuss Voigt Hill
#
# Bulk Modulus (GPa) = 47.39554 55.84360 51.61957
# Shear Modulus (GPa) = 16.68922 24.95211 20.82067
#
# Velocity S-wave (km/s) = 2.94649 3.60280 3.29104
# Velocity P-wave (km/s) = 6.01922 6.80859 6.42604
#
# Compressibility (1/GPa) = 0.02109903
#
# Stress axis : x y z
#
# Youngs Moduli (GPa) = 21.75633 92.24423 21.93411
#
# Poissons Ratio (x) = -0.16485 0.71189
# Poissons Ratio (y) = -0.03888 0.21889
# Poissons Ratio (z) = 0.70612 0.92056
#
# Static dielectric constant tensor:
#      x y z
#    x 3.444710 0.000000 0.000000 
#    y 0.000000 3.674510 0.000000 
#    z 0.000000 0.000000 3.231260 
# 
# 
# High freq. dielectric constant tensor:
#      x y z
#    x 1.741670 0.000000 0.000000 
#    y 0.000000 1.763440 0.000000 
#    z 0.000000 0.000000 1.722060 
# 
# From -- ./inp_files/5671.got.cif
#   From: 2010.03.12/outbox.cif.g09.slc.cpg/sg18_3_cif.got.tgz:5671.got - 2010.04.10 18:53:55.
