data_PCOD8155826
_publ_section_title
;
Structure prediction by ZEFSAII (Michael W. Deem and Ramdas Pophale) SiO2 
 PCOD8155826
Probable space group: P 21 21 2
;
_chemical_formula_sum "Si O2"
_cell_formula_units_Z 26
_cell_length_a 10.468087
_cell_length_b 14.349326
_cell_length_c 8.720389
_cell_angle_alpha 90.000000
_cell_angle_beta 90.000000
_cell_angle_gamma 90.000000
_cell_volume 1309.889570
_symmetry_space_group_name_H-M "P 21 21 2"
_symmetry_group_IT_number 18
_symmetry_cell_setting 'orthorhombic'
loop_
_space_group_symop_operation_xyz
x,y,z
-x,-y,z
1/2+x,1/2-y,-z
1/2-x,1/2+y,-z
loop_
_atom_site_type_symbol
_atom_site_label
_atom_site_fract_x
_atom_site_fract_y
_atom_site_fract_z
Si Si1 0.214174 0.756545 0.885253
Si Si2 0.000000 0.500000 0.115461
Si Si3 0.389294 0.925706 0.338505
Si Si4 0.926928 0.745531 0.868732
Si Si5 0.872238 0.950148 0.806225
Si Si6 0.810481 0.589076 0.323045
Si Si7 0.772422 0.451621 0.901313
O O1 0.227440 0.824774 0.740032
O O2 0.066786 0.764366 0.944897
O O3 0.317331 0.788214 0.013258
O O4 0.247337 0.651555 0.832575
O O5 0.059484 0.419674 0.224124
O O6 0.098872 0.550904 0.003088
O O7 0.446212 0.834952 0.256582
O O8 0.332729 0.892373 0.499004
O O9 0.500000 0.000000 0.367185
O O10 0.278613 0.973112 0.234860
O O11 0.877872 0.839160 0.785168
O O12 0.843569 0.977165 0.984386
O O13 0.761748 0.990185 0.696615
O O14 0.000000 0.000000 0.753724
#
# Coordination Sequence:
#
# PCOD8155826 Si02
#       7
#     4   2   4   4   4   4   4
#     4  11  21  40  65  98 125 163 217 266 320 379
#     4  10  18  38  62  94 112 170 216 260 302 378
#     4  12  23  41  61  93 131 168 210 261 320 392
#     4  11  23  40  69  96 126 166 217 275 318 381
#     4  10  21  40  63  89 123 165 211 267 320 371
#     4  11  23  37  63  90 132 167 209 255 330 390
#     4  10  20  36  67  88 120 159 214 264 303 368
#
# _framework density 19.849001000000001
#
# number of rings (size 3 to 8) (size 9 to 14) (size 15 to 20)
#    0.000    1.231    4.615    2.769    0.000    1.231 
#    0.000    0.769    0.000    0.000    0.000    0.000 
#    0.000    0.000    0.000    0.000    0.000    0.000 
#
# Total GULP energy -322379.368426 kJ/mol
# GULP energy per Si atom -12399.206478 kJ/mol
# Density = 1.980382 g / cm^3
# Si number density = 19.849001 Si / 1000 Ang^3
#
#
#
# Elastic Constant Matrix: (Units=GPa)
#
#
# Indices 1 2 3 4 5 6 
#
# 1 98.6481 27.9267 43.8492 0.0000 0.0000 0.0000
# 2 27.9267 81.6337 41.8996 0.0000 0.0000 0.0000
# 3 43.8492 41.8996 107.1411 0.0000 0.0000 0.0000
# 4 0.0000 0.0000 0.0000 19.8909 0.0000 0.0000
# 5 0.0000 0.0000 0.0000 0.0000 23.3948 0.0000
# 6 0.0000 0.0000 0.0000 0.0000 0.0000 28.4422
#
#
#
# Elastic Compliance Matrix: (Units=1/GPa)
#
#
# Indices 1 2 3 4 5 6 
#
# 1 0.012671 -0.002093 -0.004367 0.000000 0.000000 0.000000
# 2 -0.002093 0.015672 -0.005272 0.000000 0.000000 0.000000
# 3 -0.004367 -0.005272 0.013183 0.000000 0.000000 0.000000
# 4 0.000000 0.000000 0.000000 0.050274 0.000000 0.000000
# 5 0.000000 0.000000 0.000000 0.000000 0.042744 0.000000
# 6 0.000000 0.000000 0.000000 0.000000 0.000000 0.035159
#
#
# Mechanical properties :
#
#
# Convention : Reuss Voigt Hill
#
# Bulk Modulus (GPa) = 55.36979 57.19710 56.28345
# Shear Modulus (GPa) = 25.10189 25.92873 25.51531
#
# Velocity S-wave (km/s) = 3.56004 3.61820 3.58924
# Velocity P-wave (km/s) = 6.69736 6.80689 6.75235
#
# Compressibility (1/GPa) = 0.01806039
#
# Stress axis : x y z
#
# Youngs Moduli (GPa) = 78.92154 63.80844 75.85761
#
# Poissons Ratio (x) = 0.13356 0.33128
# Poissons Ratio (y) = 0.16519 0.39993
# Poissons Ratio (z) = 0.34466 0.33641
#
# Static dielectric constant tensor:
#      x y z
#    x 3.803080 0.000000 0.000000 
#    y 0.000000 3.726160 0.000000 
#    z 0.000000 0.000000 3.350690 
# 
# 
# High freq. dielectric constant tensor:
#      x y z
#    x 1.774850 0.000000 0.000000 
#    y 0.000000 1.788140 0.000000 
#    z 0.000000 0.000000 1.739650 
# 
# From -- ./inp_files/3843.got.cif
#   From: 2010.03.12/outbox.cif.g09.slc.cpg/sg18_2_cif.got.tgz:3843.got - 2010.04.10 18:53:55.
