data_PCOD8155704
_publ_section_title
;
Structure prediction by ZEFSAII (Michael W. Deem and Ramdas Pophale) SiO2 
 PCOD8155704
Probable space group: P 2 2 21
;
_chemical_formula_sum "Si O2"
_cell_formula_units_Z 20
_cell_length_a 10.116192
_cell_length_b 12.147637
_cell_length_c 10.369311
_cell_angle_alpha 90.000000
_cell_angle_beta 90.000000
_cell_angle_gamma 90.000000
_cell_volume 1274.262109
_symmetry_space_group_name_H-M "P 2 2 21"
_symmetry_group_IT_number 17
_symmetry_cell_setting 'orthorhombic'
loop_
_space_group_symop_operation_xyz
x,y,z
-x,-y,1/2+z
x,-y,-z
-x,y,1/2-z
loop_
_atom_site_type_symbol
_atom_site_label
_atom_site_fract_x
_atom_site_fract_y
_atom_site_fract_z
Si Si1 0.641394 0.274821 0.750000
Si Si2 0.846254 0.087655 0.750000
Si Si3 0.500000 0.157371 0.400273
Si Si4 0.500000 0.625749 0.036800
Si Si5 0.716643 0.000000 0.500000
Si Si6 0.716643 0.000000 0.000000
O O1 0.500000 0.203576 0.750000
O O2 0.771979 0.203855 0.750000
O O3 0.632824 0.351566 0.622134
O O4 0.632824 0.351566 0.877866
O O5 0.000000 0.113970 0.750000
O O6 0.808889 0.019638 0.623121
O O7 0.808889 0.019638 0.876879
O O8 0.500000 0.125215 0.250000
O O9 0.500000 0.289866 0.415680
O O10 0.627961 0.107223 0.471537
O O11 0.372039 0.107223 0.471537
O O12 0.500000 0.500000 0.000000
#
# Coordination Sequence:
#
# PCOD8155704 Si02
#       6
#     4   4   4   4   2   2
#     4   8  18  34  52  76 104 138 174 216 268 316
#     4  12  22  36  54  78 114 150 178 218 262 326
#     4  11  20  29  57  79 109 137 169 224 274 313
#     4   9  18  32  53  79 102 127 177 225 265 308
#     4  11  21  36  50  84 110 138 184 212 268 326
#     4  11  21  36  50  84 110 138 184 212 268 326
#
# _framework density 15.695357
#
# number of rings (size 3 to 8) (size 9 to 14) (size 15 to 20)
#    1.200    0.400    6.000    0.600    5.600    0.000 
#    0.000    0.000    0.000    1.200    0.000    0.000 
#    0.000    0.000    0.000    0.000    0.000    0.000 
#
# Total GULP energy -247777.833645 kJ/mol
# GULP energy per Si atom -12388.891682 kJ/mol
# Density = 1.565963 g / cm^3
# Si number density = 15.695357 Si / 1000 Ang^3
#
#
#
# Elastic Constant Matrix: (Units=GPa)
#
#
# Indices 1 2 3 4 5 6 
#
# 1 111.8076 46.3688 40.6896 0.0000 0.0000 0.0000
# 2 46.3688 115.8141 37.0479 0.0000 0.0000 0.0000
# 3 40.6896 37.0479 110.2981 0.0000 0.0000 0.0000
# 4 0.0000 0.0000 0.0000 21.6630 0.0000 0.0000
# 5 0.0000 0.0000 0.0000 0.0000 12.4881 0.0000
# 6 0.0000 0.0000 0.0000 0.0000 0.0000 10.5788
#
#
#
# Elastic Compliance Matrix: (Units=1/GPa)
#
#
# Indices 1 2 3 4 5 6 
#
# 1 0.011567 -0.003659 -0.003038 0.000000 0.000000 0.000000
# 2 -0.003659 0.010832 -0.002288 0.000000 0.000000 0.000000
# 3 -0.003038 -0.002288 0.010956 0.000000 0.000000 0.000000
# 4 0.000000 0.000000 0.000000 0.046162 0.000000 0.000000
# 5 0.000000 0.000000 0.000000 0.000000 0.080076 0.000000
# 6 0.000000 0.000000 0.000000 0.000000 0.000000 0.094529
#
#
# Mechanical properties :
#
#
# Convention : Reuss Voigt Hill
#
# Bulk Modulus (GPa) = 65.00618 65.12583 65.06601
# Shear Modulus (GPa) = 18.03621 23.20021 20.61821
#
# Velocity S-wave (km/s) = 3.39358 3.84885 3.62836
# Velocity P-wave (km/s) = 7.54073 7.83169 7.68758
#
# Compressibility (1/GPa) = 0.01538315
#
# Stress axis : x y z
#
# Youngs Moduli (GPa) = 86.45166 92.32232 91.27665
#
# Poissons Ratio (x) = 0.33784 0.27730
# Poissons Ratio (y) = 0.31635 0.20887
# Poissons Ratio (z) = 0.26265 0.21126
#
# Static dielectric constant tensor:
#      x y z
#    x 2.682580 0.000000 0.000000 
#    y 0.000000 2.666550 0.000000 
#    z 0.000000 0.000000 3.337910 
# 
# 
# High freq. dielectric constant tensor:
#      x y z
#    x 1.566260 0.000000 0.000000 
#    y 0.000000 1.581120 0.000000 
#    z 0.000000 0.000000 1.626380 
# 
# From -- ./inp_files/6499.got.cif
#   From: 2010.03.12/outbox.cif.g09.slc.cpg/sg17_4_cif.got.tgz:6499.got - 2010.04.10 18:46:23.
