data_PCOD8155477
_publ_section_title
;
Structure prediction by ZEFSAII (Michael W. Deem and Ramdas Pophale) SiO2 
 PCOD8155477
Probable space group: P 2 2 21
;
_chemical_formula_sum "Si O2"
_cell_formula_units_Z 30
_cell_length_a 16.730956
_cell_length_b 8.370941
_cell_length_c 10.162770
_cell_angle_alpha 90.000000
_cell_angle_beta 90.000000
_cell_angle_gamma 90.000000
_cell_volume 1423.335020
_symmetry_space_group_name_H-M "P 2 2 21"
_symmetry_group_IT_number 17
_symmetry_cell_setting 'orthorhombic'
loop_
_space_group_symop_operation_xyz
x,y,z
-x,-y,1/2+z
x,-y,-z
-x,y,1/2-z
loop_
_atom_site_type_symbol
_atom_site_label
_atom_site_fract_x
_atom_site_fract_y
_atom_site_fract_z
Si Si1 0.429357 0.293213 0.145079
Si Si2 0.737241 0.225623 0.734019
Si Si3 0.993407 0.184136 0.513255
Si Si4 0.572553 0.664862 0.341674
Si Si5 0.123314 0.396925 0.627960
Si Si6 0.000000 0.385086 0.250000
Si Si7 0.166282 0.317365 0.997705
Si Si8 0.272061 0.099240 0.135549
O O1 0.500000 0.247887 0.250000
O O2 0.407572 0.477871 0.160094
O O3 0.353002 0.185742 0.182155
O O4 0.447430 0.267205 0.988630
O O5 0.643017 0.250769 0.740743
O O6 0.790912 0.323123 0.837502
O O7 0.756354 0.302987 0.592781
O O8 0.753520 0.034416 0.743631
O O9 0.905126 0.215924 0.572669
O O10 0.061996 0.253077 0.604255
O O11 0.986809 0.274799 0.374830
O O12 0.012057 0.000000 0.500000
O O13 0.500000 0.709851 0.250000
O O14 0.138594 0.500000 0.500000
O O15 0.081078 0.508576 0.738538
O O16 0.198877 0.229641 0.130547
O O17 0.138496 0.500000 0.000000
O O18 0.284513 0.000000 0.000000
#
# Coordination Sequence:
#
# PCOD8155477 Si02
#       8
#     4   4   4   4   4   2   4   4
#     4  10  20  39  63  94 126 160 209 269 310 387
#     4  11  21  37  62  87 125 163 203 269 313 374
#     4  11  23  38  61  92 125 163 211 266 321 384
#     4  10  21  39  65  92 124 168 213 252 321 388
#     4  10  22  42  61  88 124 168 220 264 319 389
#     4  10  22  40  62  88 122 166 208 256 322 382
#     4  11  20  34  60  91 119 159 213 255 306 377
#     4  10  20  34  56  94 125 158 207 255 321 377
#
# _framework density 21.077258
#
# number of rings (size 3 to 8) (size 9 to 14) (size 15 to 20)
#    0.000    1.600    2.667    4.800    0.000    3.200 
#    4.800    1.333    0.000    0.000    0.000    0.000 
#    0.000    0.000    0.000    0.000    0.000    0.000 
#
# Total GULP energy -371697.314547 kJ/mol
# GULP energy per Si atom -12389.910485 kJ/mol
# Density = 2.102929 g / cm^3
# Si number density = 21.077258 Si / 1000 Ang^3
#
#
#
# Elastic Constant Matrix: (Units=GPa)
#
#
# Indices 1 2 3 4 5 6 
#
# 1 136.6449 56.8439 46.9166 0.0000 0.0000 0.0000
# 2 56.8439 130.7997 40.3497 0.0000 0.0000 0.0000
# 3 46.9166 40.3497 67.9168 0.0000 0.0000 0.0000
# 4 0.0000 0.0000 0.0000 17.8711 0.0000 0.0000
# 5 0.0000 0.0000 0.0000 0.0000 34.3479 0.0000
# 6 0.0000 0.0000 0.0000 0.0000 0.0000 35.3899
#
#
#
# Elastic Compliance Matrix: (Units=1/GPa)
#
#
# Indices 1 2 3 4 5 6 
#
# 1 0.010376 -0.002814 -0.005496 0.000000 0.000000 0.000000
# 2 -0.002814 0.010124 -0.004071 0.000000 0.000000 0.000000
# 3 -0.005496 -0.004071 0.020939 0.000000 0.000000 0.000000
# 4 0.000000 0.000000 0.000000 0.055956 0.000000 0.000000
# 5 0.000000 0.000000 0.000000 0.000000 0.029114 0.000000
# 6 0.000000 0.000000 0.000000 0.000000 0.000000 0.028257
#
#
# Mechanical properties :
#
#
# Convention : Reuss Voigt Hill
#
# Bulk Modulus (GPa) = 59.96093 69.28689 64.62391
# Shear Modulus (GPa) = 27.01452 30.27186 28.64319
#
# Velocity S-wave (km/s) = 3.58395 3.79388 3.69041
# Velocity P-wave (km/s) = 6.75546 7.22049 6.99184
#
# Compressibility (1/GPa) = 0.01667753
#
# Stress axis : x y z
#
# Youngs Moduli (GPa) = 96.37860 98.77585 47.75791
#
# Poissons Ratio (x) = 0.27793 0.26247
# Poissons Ratio (y) = 0.27119 0.19442
# Poissons Ratio (z) = 0.52968 0.40211
#
# Static dielectric constant tensor:
#      x y z
#    x 3.841250 0.000000 0.000000 
#    y 0.000000 4.070050 0.000000 
#    z 0.000000 0.000000 3.619900 
# 
# 
# High freq. dielectric constant tensor:
#      x y z
#    x 1.830690 0.000000 0.000000 
#    y 0.000000 1.838660 0.000000 
#    z 0.000000 0.000000 1.796290 
# 
# From -- ./inp_files/7261.got.cif
#   From: 2010.03.12/outbox.cif.g09.slc.cpg/sg17_4_cif.got.tgz:7261.got - 2010.04.10 18:46:23.
