data_PCOD8155747
_publ_section_title
;
Structure prediction by ZEFSAII (Michael W. Deem and Ramdas Pophale) SiO2 
 PCOD8155747
Probable space group: P 2 2 21
;
_chemical_formula_sum "Si O2"
_cell_formula_units_Z 20
_cell_length_a 7.937593
_cell_length_b 6.907849
_cell_length_c 15.892358
_cell_angle_alpha 90.000000
_cell_angle_beta 90.000000
_cell_angle_gamma 90.000000
_cell_volume 871.404909
_symmetry_space_group_name_H-M "P 2 2 21"
_symmetry_group_IT_number 17
_symmetry_cell_setting 'orthorhombic'
loop_
_space_group_symop_operation_xyz
x,y,z
-x,-y,1/2+z
x,-y,-z
-x,y,1/2-z
loop_
_atom_site_type_symbol
_atom_site_label
_atom_site_fract_x
_atom_site_fract_y
_atom_site_fract_z
Si Si1 0.644128 0.270979 0.649513
Si Si2 0.500000 0.943126 0.750000
Si Si3 0.700513 0.357599 0.926181
Si Si4 0.293411 0.610066 0.726876
Si Si5 0.000000 0.123315 0.250000
Si Si6 0.976334 0.882305 0.418717
O O1 0.475127 0.247632 0.593643
O O2 0.623269 0.470260 0.701488
O O3 0.821221 0.265810 0.600044
O O4 0.643673 0.078756 0.708732
O O5 0.413792 0.782107 0.688095
O O6 0.773726 0.475650 0.846983
O O7 0.852795 0.218227 0.951113
O O8 0.654234 0.500000 0.000000
O O9 0.149041 0.729905 0.772438
O O10 0.026917 0.997190 0.334173
O O11 0.913120 0.000000 0.500000
#
# Coordination Sequence:
#
# PCOD8155747 Si02
#       6
#     4   2   4   4   2   4
#     4  12  25  47  76 107 145 189 250 308 365 449
#     4  12  20  44  76 104 140 178 256 298 362 458
#     4  12  26  46  69 106 153 190 241 307 371 440
#     4  12  23  44  75 106 140 189 247 297 368 444
#     4  12  24  44  78 100 144 204 238 304 376 428
#     4  12  28  48  72 111 150 196 253 305 371 448
#
# _framework density 22.951442
#
# number of rings (size 3 to 8) (size 9 to 14) (size 15 to 20)
#    0.000    0.000    6.000    4.800    0.000    4.800 
#    0.000    0.000    0.000    0.000    0.000    0.000 
#    0.000    0.000    0.000    0.000    0.000    0.000 
#
# Total GULP energy -247790.294299 kJ/mol
# GULP energy per Si atom -12389.514715 kJ/mol
# Density = 2.289920 g / cm^3
# Si number density = 22.951442 Si / 1000 Ang^3
#
#
#
# Elastic Constant Matrix: (Units=GPa)
#
#
# Indices 1 2 3 4 5 6 
#
# 1 137.7725 45.8806 18.7336 0.0000 0.0000 0.0000
# 2 45.8806 126.3218 25.2407 0.0000 0.0000 0.0000
# 3 18.7336 25.2407 93.7940 0.0000 0.0000 0.0000
# 4 0.0000 0.0000 0.0000 24.2896 0.0000 0.0000
# 5 0.0000 0.0000 0.0000 0.0000 24.0039 0.0000
# 6 0.0000 0.0000 0.0000 0.0000 0.0000 34.4840
#
#
#
# Elastic Compliance Matrix: (Units=1/GPa)
#
#
# Indices 1 2 3 4 5 6 
#
# 1 0.008328 -0.002845 -0.000898 0.000000 0.000000 0.000000
# 2 -0.002845 0.009338 -0.001945 0.000000 0.000000 0.000000
# 3 -0.000898 -0.001945 0.011364 0.000000 0.000000 0.000000
# 4 0.000000 0.000000 0.000000 0.041170 0.000000 0.000000
# 5 0.000000 0.000000 0.000000 0.000000 0.041660 0.000000
# 6 0.000000 0.000000 0.000000 0.000000 0.000000 0.028999
#
#
# Mechanical properties :
#
#
# Convention : Reuss Voigt Hill
#
# Bulk Modulus (GPa) = 56.64085 59.73313 58.18699
# Shear Modulus (GPa) = 31.62160 34.42440 33.02300
#
# Velocity S-wave (km/s) = 3.71585 3.87703 3.79729
# Velocity P-wave (km/s) = 6.56827 6.79148 6.68081
#
# Compressibility (1/GPa) = 0.01765510
#
# Stress axis : x y z
#
# Youngs Moduli (GPa) = 120.07741 107.08557 87.99502
#
# Poissons Ratio (x) = 0.30470 0.07899
# Poissons Ratio (y) = 0.34167 0.17112
# Poissons Ratio (z) = 0.10779 0.20825
#
# Static dielectric constant tensor:
#      x y z
#    x 4.528170 0.000000 0.000000 
#    y 0.000000 4.238050 0.000000 
#    z 0.000000 0.000000 4.032980 
# 
# 
# High freq. dielectric constant tensor:
#      x y z
#    x 1.930940 0.000000 0.000000 
#    y 0.000000 1.921370 0.000000 
#    z 0.000000 0.000000 1.875160 
# 
# From -- ./inp_files/9267.got.cif
#   From: 2010.03.12/outbox.cif.g09.slc.cpg/sg17_5_cif.got.tgz:9267.got - 2010.04.10 18:46:23.
