data_PCOD8155698
_publ_section_title
;
Structure prediction by ZEFSAII (Michael W. Deem and Ramdas Pophale) SiO2 
 PCOD8155698
Probable space group: P 2 2 21
;
_chemical_formula_sum "Si O2"
_cell_formula_units_Z 10
_cell_length_a 5.003408
_cell_length_b 8.295435
_cell_length_c 8.620768
_cell_angle_alpha 90.000000
_cell_angle_beta 90.000000
_cell_angle_gamma 90.000000
_cell_volume 357.808819
_symmetry_space_group_name_H-M "P 2 2 21"
_symmetry_group_IT_number 17
_symmetry_cell_setting 'orthorhombic'
loop_
_space_group_symop_operation_xyz
x,y,z
-x,-y,1/2+z
x,-y,-z
-x,y,1/2-z
loop_
_atom_site_type_symbol
_atom_site_label
_atom_site_fract_x
_atom_site_fract_y
_atom_site_fract_z
Si Si1 0.402881 0.654559 0.088157
Si Si2 0.755512 0.187733 0.151464
Si Si3 0.000000 0.120527 0.750000
O O1 0.500000 0.584459 0.250000
O O2 0.163767 0.782605 0.116710
O O3 0.286765 0.500000 0.000000
O O4 0.674327 0.735051 0.015166
O O5 0.500000 0.229402 0.250000
O O6 0.000000 0.270609 0.250000
O O7 0.804454 0.993794 0.146569
#
# Coordination Sequence:
#
# PCOD8155698 Si02
#       3
#     4   4   2
#     4  12  29  55  84 132 183 239 293 375 454 539
#     4  10  26  55  90 127 169 229 304 373 442 532
#     4  10  28  52  94 128 178 236 310 364 454 528
#
# _framework density 27.947884999999999
#
# number of rings (size 3 to 8) (size 9 to 14) (size 15 to 20)
#    1.200    0.000    0.000    2.400    5.600   11.200 
#    7.200    0.000    0.000    0.000    0.000    0.000 
#    0.000    0.000    0.000    0.000    0.000    0.000 
#
# Total GULP energy -123900.247116 kJ/mol
# GULP energy per Si atom -12390.024712 kJ/mol
# Density = 2.788427 g / cm^3
# Si number density = 27.947885 Si / 1000 Ang^3
#
#
#
# Elastic Constant Matrix: (Units=GPa)
#
#
# Indices 1 2 3 4 5 6 
#
# 1 203.6021 60.6212 70.8583 0.0000 0.0000 0.0000
# 2 60.6212 155.8625 91.6188 0.0000 0.0000 0.0000
# 3 70.8583 91.6188 187.5944 0.0000 0.0000 0.0000
# 4 0.0000 0.0000 0.0000 46.8558 0.0000 0.0000
# 5 0.0000 0.0000 0.0000 0.0000 62.0987 0.0000
# 6 0.0000 0.0000 0.0000 0.0000 0.0000 31.4742
#
#
#
# Elastic Compliance Matrix: (Units=1/GPa)
#
#
# Indices 1 2 3 4 5 6 
#
# 1 0.005857 -0.001371 -0.001543 0.000000 0.000000 0.000000
# 2 -0.001371 0.009321 -0.004034 0.000000 0.000000 0.000000
# 3 -0.001543 -0.004034 0.007884 0.000000 0.000000 0.000000
# 4 0.000000 0.000000 0.000000 0.021342 0.000000 0.000000
# 5 0.000000 0.000000 0.000000 0.000000 0.016103 0.000000
# 6 0.000000 0.000000 0.000000 0.000000 0.000000 0.031772
#
#
# Mechanical properties :
#
#
# Convention : Reuss Voigt Hill
#
# Bulk Modulus (GPa) = 109.10977 110.36173 109.73575
# Shear Modulus (GPa) = 45.77545 49.68310 47.72927
#
# Velocity S-wave (km/s) = 4.05147 4.22086 4.13703
# Velocity P-wave (km/s) = 7.81096 7.95791 7.88478
#
# Compressibility (1/GPa) = 0.00916508
#
# Stress axis : x y z
#
# Youngs Moduli (GPa) = 170.74677 107.28993 126.84716
#
# Poissons Ratio (x) = 0.14711 0.19566
# Poissons Ratio (y) = 0.23412 0.51172
# Poissons Ratio (z) = 0.26338 0.43282
#
# Static dielectric constant tensor:
#      x y z
#    x 5.094880 0.000000 0.000000 
#    y 0.000000 4.716910 0.000000 
#    z 0.000000 0.000000 7.925600 
# 
# 
# High freq. dielectric constant tensor:
#      x y z
#    x 2.136010 0.000000 0.000000 
#    y 0.000000 2.118490 0.000000 
#    z 0.000000 0.000000 2.154190 
# 
# From -- ./inp_files/3298.got.cif
#   From: 2010.03.12/outbox.cif.g09.slc.cpg/sg17_2_cif.got.tgz:3298.got - 2010.04.10 18:46:23.
