data_PCOD8155990
_publ_section_title
;
Structure prediction by ZEFSAII (Michael W. Deem and Ramdas Pophale) SiO2 
 PCOD8155990
Probable space group: P 21 21 2
;
_chemical_formula_sum "Si O2"
_cell_formula_units_Z 26
_cell_length_a 7.880163
_cell_length_b 16.973570
_cell_length_c 9.627434
_cell_angle_alpha 90.000000
_cell_angle_beta 90.000000
_cell_angle_gamma 90.000000
_cell_volume 1287.712605
_symmetry_space_group_name_H-M "P 21 21 2"
_symmetry_group_IT_number 18
_symmetry_cell_setting 'orthorhombic'
loop_
_space_group_symop_operation_xyz
x,y,z
-x,-y,z
1/2+x,1/2-y,-z
1/2-x,1/2+y,-z
loop_
_atom_site_type_symbol
_atom_site_label
_atom_site_fract_x
_atom_site_fract_y
_atom_site_fract_z
Si Si1 0.818988 0.815608 0.830311
Si Si2 0.989107 0.167053 0.556522
Si Si3 0.000000 0.000000 0.439574
Si Si4 0.336811 0.049045 0.285452
Si Si5 0.983517 0.736400 0.066758
Si Si6 0.401135 0.071827 0.971320
Si Si7 0.776738 0.781234 0.326031
O O1 0.665971 0.752536 0.857378
O O2 0.866261 0.815966 0.670293
O O3 0.976183 0.790086 0.928315
O O4 0.757548 0.903332 0.874456
O O5 0.815395 0.206894 0.605155
O O6 0.051457 0.203871 0.411943
O O7 0.962587 0.073868 0.539514
O O8 0.835765 0.988429 0.343064
O O9 0.331516 0.043298 0.119607
O O10 0.344972 0.141456 0.329731
O O11 0.500000 0.000000 0.343117
O O12 0.829819 0.761822 0.168058
O O13 0.967364 0.645272 0.017708
O O14 0.500000 0.000000 0.898413
#
# Coordination Sequence:
#
# PCOD8155990 Si02
#       7
#     4   4   2   4   4   4   4
#     4  10  20  38  62  94 123 164 210 274 317 400
#     4  11  24  41  64  95 131 169 219 270 333 393
#     4  10  26  44  62 100 136 174 228 276 328 408
#     4  10  21  44  67  95 134 175 223 274 333 400
#     4  10  20  39  65  92 128 162 219 268 321 394
#     4   9  20  38  62  95 124 168 211 268 337 393
#     4  11  22  41  63  97 123 176 221 262 335 405
#
# _framework density 20.190840000000001
#
# number of rings (size 3 to 8) (size 9 to 14) (size 15 to 20)
#    0.923    0.923    1.538    2.769    2.154    1.231 
#   11.077    1.538    0.000    0.000    0.000    0.000 
#    0.000    0.000    0.000    0.000    0.000    0.000 
#
# Total GULP energy -322276.539032 kJ/mol
# GULP energy per Si atom -12395.251501 kJ/mol
# Density = 2.014489 g / cm^3
# Si number density = 20.190840 Si / 1000 Ang^3
#
#
#
# Elastic Constant Matrix: (Units=GPa)
#
#
# Indices 1 2 3 4 5 6 
#
# 1 82.5472 38.9464 17.6072 0.0000 0.0000 0.0000
# 2 38.9464 103.4946 27.0774 0.0000 0.0000 0.0000
# 3 17.6072 27.0774 69.1660 0.0000 0.0000 0.0000
# 4 0.0000 0.0000 0.0000 32.7485 0.0000 0.0000
# 5 0.0000 0.0000 0.0000 0.0000 26.2114 0.0000
# 6 0.0000 0.0000 0.0000 0.0000 0.0000 35.5704
#
#
#
# Elastic Compliance Matrix: (Units=1/GPa)
#
#
# Indices 1 2 3 4 5 6 
#
# 1 0.014924 -0.005150 -0.001783 0.000000 0.000000 0.000000
# 2 -0.005150 0.012542 -0.003599 0.000000 0.000000 0.000000
# 3 -0.001783 -0.003599 0.016321 0.000000 0.000000 0.000000
# 4 0.000000 0.000000 0.000000 0.030536 0.000000 0.000000
# 5 0.000000 0.000000 0.000000 0.000000 0.038151 0.000000
# 6 0.000000 0.000000 0.000000 0.000000 0.000000 0.028113
#
#
# Mechanical properties :
#
#
# Convention : Reuss Voigt Hill
#
# Bulk Modulus (GPa) = 44.00776 46.94109 45.47443
# Shear Modulus (GPa) = 29.54638 30.34451 29.94545
#
# Velocity S-wave (km/s) = 3.82953 3.88091 3.85531
# Velocity P-wave (km/s) = 6.43405 6.58644 6.51069
#
# Compressibility (1/GPa) = 0.02272326
#
# Stress axis : x y z
#
# Youngs Moduli (GPa) = 67.00482 79.73304 61.27131
#
# Poissons Ratio (x) = 0.41060 0.10926
# Poissons Ratio (y) = 0.34505 0.22052
# Poissons Ratio (z) = 0.11948 0.28696
#
# Static dielectric constant tensor:
#      x y z
#    x 3.491360 0.000000 0.000000 
#    y 0.000000 3.735860 0.000000 
#    z 0.000000 0.000000 3.529450 
# 
# 
# High freq. dielectric constant tensor:
#      x y z
#    x 1.778460 0.000000 0.000000 
#    y 0.000000 1.784360 0.000000 
#    z 0.000000 0.000000 1.786750 
# 
# From -- ./inp_files/3390.got.cif
#   From: 2010.03.12/outbox.cif.g09.slc.cpg/sg18_2_cif.got.tgz:3390.got - 2010.04.10 18:53:55.
