data_PCOD8155436
_publ_section_title
;
Structure prediction by ZEFSAII (Michael W. Deem and Ramdas Pophale) SiO2 
 PCOD8155436
Probable space group: P 2 2 21
;
_chemical_formula_sum "Si O2"
_cell_formula_units_Z 22
_cell_length_a 8.794361
_cell_length_b 8.238939
_cell_length_c 15.329019
_cell_angle_alpha 90.000000
_cell_angle_beta 90.000000
_cell_angle_gamma 90.000000
_cell_volume 1110.682525
_symmetry_space_group_name_H-M "P 2 2 21"
_symmetry_group_IT_number 17
_symmetry_cell_setting 'orthorhombic'
loop_
_space_group_symop_operation_xyz
x,y,z
-x,-y,1/2+z
x,-y,-z
-x,y,1/2-z
loop_
_atom_site_type_symbol
_atom_site_label
_atom_site_fract_x
_atom_site_fract_y
_atom_site_fract_z
Si Si1 0.727217 0.782730 0.293566
Si Si2 0.000000 0.575758 0.250000
Si Si3 0.750989 0.356731 0.183722
Si Si4 0.427732 0.656856 0.367668
Si Si5 0.389831 0.171861 0.458021
Si Si6 0.631614 0.874030 0.682475
O O1 0.605611 0.686061 0.351787
O O2 0.674629 0.776945 0.192182
O O3 0.887839 0.690886 0.305667
O O4 0.741444 0.968769 0.325779
O O5 0.093973 0.460146 0.316383
O O6 0.608467 0.471821 0.158743
O O7 0.746293 0.216373 0.109986
O O8 0.726517 0.278774 0.279892
O O9 0.392375 0.690041 0.468348
O O10 0.554699 0.165823 0.410369
O O11 0.349638 0.000000 0.500000
O O12 0.500000 0.923361 0.750000
#
# Coordination Sequence:
#
# PCOD8155436 Si02
#       6
#     4   2   4   4   4   4
#     4  10  19  37  62  89 122 164 207 247 310 377
#     4  10  24  38  62  88 128 172 206 244 314 392
#     4  10  23  38  62  93 126 168 212 254 312 380
#     4  10  19  36  63  92 121 152 215 266 306 351
#     4  11  20  35  63  99 122 152 209 280 314 350
#     4  10  19  35  62  95 119 156 211 267 305 366
#
# _framework density 19.807642000000001
#
# number of rings (size 3 to 8) (size 9 to 14) (size 15 to 20)
#    0.000    1.818    3.636    1.636   15.273    0.727 
#    0.000    0.000   16.000    1.091    9.455    0.000 
#    0.000    0.000    0.000    0.000    0.000    0.000 
#
# Total GULP energy -272720.830858 kJ/mol
# GULP energy per Si atom -12396.401403 kJ/mol
# Density = 1.976256 g / cm^3
# Si number density = 19.807642 Si / 1000 Ang^3
#
#
#
# Elastic Constant Matrix: (Units=GPa)
#
#
# Indices 1 2 3 4 5 6 
#
# 1 102.6611 48.8174 19.9781 0.0000 0.0000 0.0000
# 2 48.8174 125.0885 31.6435 0.0000 0.0000 0.0000
# 3 19.9781 31.6435 84.5125 0.0000 0.0000 0.0000
# 4 0.0000 0.0000 0.0000 29.6445 0.0000 0.0000
# 5 0.0000 0.0000 0.0000 0.0000 11.8524 0.0000
# 6 0.0000 0.0000 0.0000 0.0000 0.0000 41.5183
#
#
#
# Elastic Compliance Matrix: (Units=1/GPa)
#
#
# Indices 1 2 3 4 5 6 
#
# 1 0.012070 -0.004406 -0.001204 0.000000 0.000000 0.000000
# 2 -0.004406 0.010439 -0.002867 0.000000 0.000000 0.000000
# 3 -0.001204 -0.002867 0.013191 0.000000 0.000000 0.000000
# 4 0.000000 0.000000 0.000000 0.033733 0.000000 0.000000
# 5 0.000000 0.000000 0.000000 0.000000 0.084371 0.000000
# 6 0.000000 0.000000 0.000000 0.000000 0.000000 0.024086
#
#
# Mechanical properties :
#
#
# Convention : Reuss Voigt Hill
#
# Bulk Modulus (GPa) = 53.34345 57.01557 55.17951
# Shear Modulus (GPa) = 24.86421 30.72459 27.79440
#
# Velocity S-wave (km/s) = 3.54684 3.94273 3.75002
# Velocity P-wave (km/s) = 6.61533 7.04088 6.83142
#
# Compressibility (1/GPa) = 0.01874645
#
# Stress axis : x y z
#
# Youngs Moduli (GPa) = 82.84879 95.79321 75.81157
#
# Poissons Ratio (x) = 0.42207 0.09124
# Poissons Ratio (y) = 0.36504 0.21736
# Poissons Ratio (z) = 0.09971 0.27465
#
# Static dielectric constant tensor:
#      x y z
#    x 3.313630 0.000000 0.000000 
#    y 0.000000 3.861080 0.000000 
#    z 0.000000 0.000000 3.629110 
# 
# 
# High freq. dielectric constant tensor:
#      x y z
#    x 1.728320 0.000000 0.000000 
#    y 0.000000 1.794840 0.000000 
#    z 0.000000 0.000000 1.754190 
# 
# From -- ./inp_files/8024.got.cif
#   From: 2010.03.12/outbox.cif.g09.slc.cpg/sg17_5_cif.got.tgz:8024.got - 2010.04.10 18:46:23.
