data_PCOD8155874
_publ_section_title
;
Structure prediction by ZEFSAII (Michael W. Deem and Ramdas Pophale) SiO2 
 PCOD8155874
Probable space group: P 21 21 2
;
_chemical_formula_sum "Si O2"
_cell_formula_units_Z 26
_cell_length_a 8.826004
_cell_length_b 16.721902
_cell_length_c 9.324460
_cell_angle_alpha 90.000000
_cell_angle_beta 90.000000
_cell_angle_gamma 90.000000
_cell_volume 1376.174430
_symmetry_space_group_name_H-M "P 21 21 2"
_symmetry_group_IT_number 18
_symmetry_cell_setting 'orthorhombic'
loop_
_space_group_symop_operation_xyz
x,y,z
-x,-y,z
1/2+x,1/2-y,-z
1/2-x,1/2+y,-z
loop_
_atom_site_type_symbol
_atom_site_label
_atom_site_fract_x
_atom_site_fract_y
_atom_site_fract_z
Si Si1 0.414573 0.615778 0.802156
Si Si2 0.221595 0.233266 0.971871
Si Si3 0.332042 0.797962 0.329743
Si Si4 0.264043 0.453576 0.804690
Si Si5 0.991327 0.248001 0.406628
Si Si6 0.000000 0.500000 0.014582
Si Si7 0.981474 0.663928 0.134803
O O1 0.321015 0.538910 0.743407
O O2 0.585457 0.594436 0.854621
O O3 0.416715 0.674084 0.664567
O O4 0.335663 0.655059 0.941769
O O5 0.144640 0.247119 0.816039
O O6 0.401384 0.225996 0.943045
O O7 0.181497 0.313014 0.064924
O O8 0.327106 0.894589 0.303462
O O9 0.468491 0.772563 0.432333
O O10 0.183612 0.773495 0.416426
O O11 0.148665 0.474801 0.929786
O O12 0.020262 0.324318 0.304913
O O13 0.039692 0.574600 0.114307
#
# Coordination Sequence:
#
# PCOD8155874 Si02
#       7
#     4   4   4   4   4   2   4
#     4   9  19  38  59  81 112 152 189 245 291 339
#     4  10  19  35  58  83 109 145 196 236 287 344
#     4  10  20  37  56  85 112 153 194 232 280 352
#     4  10  20  35  59  84 114 146 194 236 295 345
#     4   9  21  37  55  80 117 152 193 230 277 345
#     4  12  20  34  54  90 116 140 186 252 290 344
#     4  10  21  35  56  82 114 147 187 245 290 336
#
# _framework density 18.892954
#
# number of rings (size 3 to 8) (size 9 to 14) (size 15 to 20)
#    0.000    2.154    3.077    0.923    0.000    3.692 
#    0.000    3.846    0.000    1.846    0.000    0.000 
#    0.000    0.000    0.000    0.000    0.000    0.000 
#
# Total GULP energy -322112.645951 kJ/mol
# GULP energy per Si atom -12388.947921 kJ/mol
# Density = 1.884995 g / cm^3
# Si number density = 18.892954 Si / 1000 Ang^3
#
#
#
# Elastic Constant Matrix: (Units=GPa)
#
#
# Indices 1 2 3 4 5 6 
#
# 1 18.7685 14.6123 3.0050 0.0000 0.0000 0.0000
# 2 14.6123 126.4834 38.9692 0.0000 0.0000 0.0000
# 3 3.0050 38.9692 61.4065 0.0000 0.0000 0.0000
# 4 0.0000 0.0000 0.0000 23.1052 0.0000 0.0000
# 5 0.0000 0.0000 0.0000 0.0000 27.8396 0.0000
# 6 0.0000 0.0000 0.0000 0.0000 0.0000 23.0886
#
#
#
# Elastic Compliance Matrix: (Units=1/GPa)
#
#
# Indices 1 2 3 4 5 6 
#
# 1 0.058703 -0.007330 0.001779 0.000000 0.000000 0.000000
# 2 -0.007330 0.010743 -0.006459 0.000000 0.000000 0.000000
# 3 0.001779 -0.006459 0.020297 0.000000 0.000000 0.000000
# 4 0.000000 0.000000 0.000000 0.043280 0.000000 0.000000
# 5 0.000000 0.000000 0.000000 0.000000 0.035920 0.000000
# 6 0.000000 0.000000 0.000000 0.000000 0.000000 0.043311
#
#
# Mechanical properties :
#
#
# Convention : Reuss Voigt Hill
#
# Bulk Modulus (GPa) = 15.21544 35.53681 25.37613
# Shear Modulus (GPa) = 19.36624 24.81149 22.08886
#
# Velocity S-wave (km/s) = 3.20512 3.62783 3.42301
# Velocity P-wave (km/s) = 4.66562 6.03313 5.39289
#
# Compressibility (1/GPa) = 0.06572272
#
# Stress axis : x y z
#
# Youngs Moduli (GPa) = 17.03500 93.08443 49.26902
#
# Poissons Ratio (x) = 0.68229 -0.08764
# Poissons Ratio (y) = 0.12486 0.31822
# Poissons Ratio (z) = -0.03030 0.60122
#
# Static dielectric constant tensor:
#      x y z
#    x 3.487800 0.000000 0.000000 
#    y 0.000000 3.968940 0.000000 
#    z 0.000000 0.000000 3.142620 
# 
# 
# High freq. dielectric constant tensor:
#      x y z
#    x 1.736840 0.000000 0.000000 
#    y 0.000000 1.742950 0.000000 
#    z 0.000000 0.000000 1.703650 
# 
# From -- ./inp_files/3341.got.cif
#   From: 2010.03.12/outbox.cif.g09.slc.cpg/sg18_2_cif.got.tgz:3341.got - 2010.04.10 18:53:55.
