data_PCOD8155986
_publ_section_title
;
Structure prediction by ZEFSAII (Michael W. Deem and Ramdas Pophale) SiO2 
 PCOD8155986
Probable space group: P 21 21 2
;
_chemical_formula_sum "Si O2"
_cell_formula_units_Z 20
_cell_length_a 8.030166
_cell_length_b 11.191757
_cell_length_c 9.187030
_cell_angle_alpha 90.000000
_cell_angle_beta 90.000000
_cell_angle_gamma 90.000000
_cell_volume 825.653697
_symmetry_space_group_name_H-M "P 21 21 2"
_symmetry_group_IT_number 18
_symmetry_cell_setting 'orthorhombic'
loop_
_space_group_symop_operation_xyz
x,y,z
-x,-y,z
1/2+x,1/2-y,-z
1/2-x,1/2+y,-z
loop_
_atom_site_type_symbol
_atom_site_label
_atom_site_fract_x
_atom_site_fract_y
_atom_site_fract_z
Si Si1 0.000000 0.500000 0.559125
Si Si2 0.186024 0.880460 0.325291
Si Si3 0.467150 0.624851 0.961745
Si Si4 0.500000 0.500000 0.434623
Si Si5 0.906617 0.381019 0.992895
Si Si6 0.688661 0.880494 0.679716
O O1 0.156560 0.469229 0.661655
O O2 0.053313 0.605878 0.448930
O O3 0.265932 0.750386 0.330348
O O4 0.084858 0.895828 0.176761
O O5 0.056760 0.893300 0.458365
O O6 0.500000 0.500000 0.054518
O O7 0.273399 0.628198 0.917899
O O8 0.504615 0.752027 0.042619
O O9 0.344456 0.531374 0.333240
O O10 0.000000 0.500000 0.930090
O O11 0.899371 0.399487 0.166019
#
# Coordination Sequence:
#
# PCOD8155986 Si02
#       6
#     2   4   4   2   4   4
#     4  10  20  40  66  98 128 174 216 284 328 412
#     4  10  21  40  63  95 132 172 222 274 338 398
#     4  11  24  46  66  98 137 179 231 279 340 405
#     4  10  20  38  60  96 128 172 210 282 328 410
#     4  11  24  46  69  98 138 180 230 282 340 412
#     4  10  21  38  64  95 129 170 221 274 338 398
#
# _framework density 24.223230000000001
#
# number of rings (size 3 to 8) (size 9 to 14) (size 15 to 20)
#    0.000    1.600    2.000    2.400    1.400    0.000 
#    9.000    0.000    0.000    0.000    0.000    0.000 
#    0.000    0.000    0.000    0.000    0.000    0.000 
#
# Total GULP energy -247771.977146 kJ/mol
# GULP energy per Si atom -12388.598857 kJ/mol
# Density = 2.416810 g / cm^3
# Si number density = 24.223230 Si / 1000 Ang^3
#
#
#
# Elastic Constant Matrix: (Units=GPa)
#
#
# Indices 1 2 3 4 5 6 
#
# 1 154.1043 43.0756 24.2259 0.0000 0.0000 0.0000
# 2 43.0756 165.8914 14.2869 0.0000 0.0000 0.0000
# 3 24.2259 14.2869 57.2296 0.0000 0.0000 0.0000
# 4 0.0000 0.0000 0.0000 -95.8383 0.0000 0.0000
# 5 0.0000 0.0000 0.0000 0.0000 28.7420 0.0000
# 6 0.0000 0.0000 0.0000 0.0000 0.0000 33.1962
#
#
#
# Elastic Compliance Matrix: (Units=1/GPa)
#
#
# Indices 1 2 3 4 5 6 
#
# 1 0.007385 -0.001685 -0.002706 0.000000 0.000000 0.000000
# 2 -0.001685 0.006545 -0.000921 0.000000 0.000000 0.000000
# 3 -0.002706 -0.000921 0.018849 0.000000 0.000000 0.000000
# 4 0.000000 0.000000 0.000000 -0.010434 0.000000 0.000000
# 5 0.000000 0.000000 0.000000 0.000000 0.034792 0.000000
# 6 0.000000 0.000000 0.000000 0.000000 0.000000 0.030124
#
#
# Mechanical properties :
#
#
# Convention : Reuss Voigt Hill
#
# Bulk Modulus (GPa) = 45.13330 60.04469 52.58899
# Shear Modulus (GPa) = 47.49753 12.92910 30.21331
#
# Velocity S-wave (km/s) = 4.43292 2.31280 3.53553
# Velocity P-wave (km/s) = 6.69879 5.65455 6.19870
#
# Compressibility (1/GPa) = 0.02215659
#
# Stress axis : x y z
#
# Youngs Moduli (GPa) = 135.40278 152.79359 53.05405
#
# Poissons Ratio (x) = 0.25741 0.14355
# Poissons Ratio (y) = 0.22811 0.04885
# Poissons Ratio (z) = 0.36637 0.14068
#
# Static dielectric constant tensor:
#      x y z
#    x 4.925200 0.000000 0.000000 
#    y 0.000000 5.028770 0.000000 
#    z 0.000000 0.000000 4.056800 
# 
# 
# High freq. dielectric constant tensor:
#      x y z
#    x 1.971970 0.000000 0.000000 
#    y 0.000000 1.971030 0.000000 
#    z 0.000000 0.000000 1.942440 
# 
# From -- ./inp_files/2984.got.cif
#   From: 2010.03.12/outbox.cif.g09.slc.cpg/sg18_2_cif.got.tgz:2984.got - 2010.04.10 18:53:55.
