data_PCOD8155408
_publ_section_title
;
Structure prediction by ZEFSAII (Michael W. Deem and Ramdas Pophale) SiO2 
 PCOD8155408
Probable space group: P 2 2 21
;
_chemical_formula_sum "Si O2"
_cell_formula_units_Z 32
_cell_length_a 5.344061
_cell_length_b 10.361777
_cell_length_c 28.219399
_cell_angle_alpha 90.000000
_cell_angle_beta 90.000000
_cell_angle_gamma 90.000000
_cell_volume 1562.620107
_symmetry_space_group_name_H-M "P 2 2 21"
_symmetry_group_IT_number 17
_symmetry_cell_setting 'orthorhombic'
loop_
_space_group_symop_operation_xyz
x,y,z
-x,-y,1/2+z
x,-y,-z
-x,y,1/2-z
loop_
_atom_site_type_symbol
_atom_site_label
_atom_site_fract_x
_atom_site_fract_y
_atom_site_fract_z
Si Si1 0.501569 0.489092 0.442533
Si Si2 0.997393 0.979061 0.303033
Si Si3 0.501154 0.327627 0.857706
Si Si4 0.011593 0.144603 0.519495
Si Si5 0.998454 0.608459 0.959139
Si Si6 0.511850 0.076189 0.548698
Si Si7 0.497439 0.980947 0.353413
Si Si8 0.001297 0.671848 0.195943
O O1 0.502812 0.500000 0.500000
O O2 0.500315 0.620997 0.412042
O O3 0.751885 0.410904 0.427708
O O4 0.252288 0.409733 0.427898
O O5 0.744519 0.032744 0.327210
O O6 0.998526 0.825961 0.303435
O O7 0.000000 0.033447 0.250000
O O8 0.247369 0.032789 0.328307
O O9 0.500976 0.173658 0.858759
O O10 0.253088 0.377909 0.830123
O O11 0.750533 0.377767 0.830532
O O12 0.998052 0.246512 0.477745
O O13 0.766869 0.161600 0.552849
O O14 0.265074 0.168086 0.549814
O O15 0.026681 0.000000 0.500000
O O16 0.996796 0.500000 0.000000
O O17 0.500339 0.972737 0.591762
O O18 0.528657 0.000000 0.500000
O O19 0.000000 0.620007 0.250000
#
# Coordination Sequence:
#
# PCOD8155408 Si02
#       8
#     4   4   4   4   4   4   4   4
#     4  10  21  33  44  71 102 140 176 219 250 300
#     4   9  17  30  44  68  96 127 169 217 263 316
#     4  10  19  29  46  69  98 134 179 209 258 323
#     4  10  21  36  52  70  97 141 184 218 263 304
#     4  10  21  32  50  70  97 137 174 222 259 298
#     4  10  21  34  50  71 100 136 184 226 254 307
#     4  10  19  28  48  69  93 138 175 210 256 322
#     4   9  17  30  46  66  94 131 174 219 258 310
#
# _framework density 20.478425999999999
#
# number of rings (size 3 to 8) (size 9 to 14) (size 15 to 20)
#    0.000    2.250    0.000    3.000    7.000    3.000 
#    0.000    0.000    0.000    0.000    0.000    0.000 
#    0.000    0.000    0.000  315.000    0.000    0.000 
#
# Total GULP energy -396460.162304 kJ/mol
# GULP energy per Si atom -12389.380072 kJ/mol
# Density = 2.043182 g / cm^3
# Si number density = 20.478426 Si / 1000 Ang^3
#
#
#
# Elastic Constant Matrix: (Units=GPa)
#
#
# Indices 1 2 3 4 5 6 
#
# 1 205.3815 -1.2992 30.4117 0.0000 0.0000 0.0000
# 2 -1.2992 42.0748 -6.7679 0.0000 0.0000 0.0000
# 3 30.4117 -6.7679 119.7141 0.0000 0.0000 0.0000
# 4 0.0000 0.0000 0.0000 20.3380 0.0000 0.0000
# 5 0.0000 0.0000 0.0000 0.0000 34.4019 0.0000
# 6 0.0000 0.0000 0.0000 0.0000 0.0000 5.4843
#
#
#
# Elastic Compliance Matrix: (Units=1/GPa)
#
#
# Indices 1 2 3 4 5 6 
#
# 1 0.005059 -0.000051 -0.001288 0.000000 0.000000 0.000000
# 2 -0.000051 0.023986 0.001369 0.000000 0.000000 0.000000
# 3 -0.001288 0.001369 0.008758 0.000000 0.000000 0.000000
# 4 0.000000 0.000000 0.000000 0.049169 0.000000 0.000000
# 5 0.000000 0.000000 0.000000 0.000000 0.029068 0.000000
# 6 0.000000 0.000000 0.000000 0.000000 0.000000 0.182338
#
#
# Mechanical properties :
#
#
# Convention : Reuss Voigt Hill
#
# Bulk Modulus (GPa) = 26.41118 45.76217 36.08668
# Shear Modulus (GPa) = 16.08031 35.03323 25.55677
#
# Velocity S-wave (km/s) = 2.80524 4.14059 3.53652
# Velocity P-wave (km/s) = 4.83917 6.72714 5.85969
#
# Compressibility (1/GPa) = 0.03786275
#
# Stress axis : x y z
#
# Youngs Moduli (GPa) = 197.65166 41.69130 114.18305
#
# Poissons Ratio (x) = 0.00213 0.14709
# Poissons Ratio (y) = 0.01008 -0.15631
# Poissons Ratio (z) = 0.25461 -0.05707
#
# Static dielectric constant tensor:
#      x y z
#    x 9.684860 0.000000 0.000000 
#    y 0.000000 2.946600 0.000000 
#    z 0.000000 0.000000 3.773310 
# 
# 
# High freq. dielectric constant tensor:
#      x y z
#    x 1.846950 0.000000 0.000000 
#    y 0.000000 1.720980 0.000000 
#    z 0.000000 0.000000 1.784190 
# 
# From -- ./inp_files/10511.got.cif
#   From: 2010.03.12/outbox.cif.g09.slc.cpg/sg17_6_cif.got.tgz:10511.got - 2010.04.10 18:46:23.
