data_PCOD8155754
_publ_section_title
;
Structure prediction by ZEFSAII (Michael W. Deem and Ramdas Pophale) SiO2 
 PCOD8155754
Probable space group: P 2 2 21
;
_chemical_formula_sum "Si O2"
_cell_formula_units_Z 12
_cell_length_a 10.514131
_cell_length_b 10.617493
_cell_length_c 4.862588
_cell_angle_alpha 90.000000
_cell_angle_beta 90.000000
_cell_angle_gamma 90.000000
_cell_volume 542.828750
_symmetry_space_group_name_H-M "P 2 2 21"
_symmetry_group_IT_number 17
_symmetry_cell_setting 'orthorhombic'
loop_
_space_group_symop_operation_xyz
x,y,z
-x,-y,1/2+z
x,-y,-z
-x,y,1/2-z
loop_
_atom_site_type_symbol
_atom_site_label
_atom_site_fract_x
_atom_site_fract_y
_atom_site_fract_z
Si Si1 0.235660 0.254556 0.902293
Si Si2 0.094002 0.000000 0.000000
Si Si3 0.000000 0.587932 0.250000
Si Si4 0.371522 0.645510 0.589421
O O1 0.353840 0.269367 0.686372
O O2 0.121225 0.325021 0.760338
O O3 0.192983 0.111507 0.941526
O O4 0.261127 0.322065 0.193229
O O5 0.000000 0.966890 0.750000
O O6 0.026255 0.500000 0.500000
O O7 0.369801 0.500000 0.500000
O O8 0.500000 0.681378 0.750000
#
# Coordination Sequence:
#
# PCOD8155754 Si02
#       4
#     4   2   2   4
#     4  12  25  44  69 103 137 183 237 278 348 416
#     4  12  26  48  70  98 144 194 230 284 352 418
#     4  12  24  38  64 102 140 166 218 294 350 406
#     4  12  25  45  71 103 140 183 228 287 350 416
#
# _framework density 22.106421000000001
#
# number of rings (size 3 to 8) (size 9 to 14) (size 15 to 20)
#    0.000    0.000    1.667   11.000    2.333    0.000 
#    0.000    3.333    0.000    2.000    0.000    0.000 
#    0.000    0.000    0.000    0.000    0.000    0.000 
#
# Total GULP energy -148797.412339 kJ/mol
# GULP energy per Si atom -12399.784362 kJ/mol
# Density = 2.205611 g / cm^3
# Si number density = 22.106421 Si / 1000 Ang^3
#
#
#
# Elastic Constant Matrix: (Units=GPa)
#
#
# Indices 1 2 3 4 5 6 
#
# 1 79.3440 62.3707 30.9631 0.0000 0.0000 0.0000
# 2 62.3707 159.6918 64.9357 0.0000 0.0000 0.0000
# 3 30.9631 64.9357 151.9211 0.0000 0.0000 0.0000
# 4 0.0000 0.0000 0.0000 51.3282 0.0000 0.0000
# 5 0.0000 0.0000 0.0000 0.0000 56.5614 0.0000
# 6 0.0000 0.0000 0.0000 0.0000 0.0000 32.5354
#
#
#
# Elastic Compliance Matrix: (Units=1/GPa)
#
#
# Indices 1 2 3 4 5 6 
#
# 1 0.018270 -0.006804 -0.000815 0.000000 0.000000 0.000000
# 2 -0.006804 0.010113 -0.002936 0.000000 0.000000 0.000000
# 3 -0.000815 -0.002936 0.008003 0.000000 0.000000 0.000000
# 4 0.000000 0.000000 0.000000 0.019482 0.000000 0.000000
# 5 0.000000 0.000000 0.000000 0.000000 0.017680 0.000000
# 6 0.000000 0.000000 0.000000 0.000000 0.000000 0.030736
#
#
# Mechanical properties :
#
#
# Convention : Reuss Voigt Hill
#
# Bulk Modulus (GPa) = 65.46230 78.61067 72.03648
# Shear Modulus (GPa) = 38.31760 43.59751 40.95755
#
# Velocity S-wave (km/s) = 4.16784 4.44572 4.30902
# Velocity P-wave (km/s) = 7.26896 7.87337 7.57719
#
# Compressibility (1/GPa) = 0.01527597
#
# Stress axis : x y z
#
# Youngs Moduli (GPa) = 54.73402 98.87801 124.94563
#
# Poissons Ratio (x) = 0.67279 0.10187
# Poissons Ratio (y) = 0.37242 0.36684
# Poissons Ratio (z) = 0.04462 0.29031
#
# Static dielectric constant tensor:
#      x y z
#    x 4.191190 0.000000 0.000000 
#    y 0.000000 4.023200 0.000000 
#    z 0.000000 0.000000 4.501440 
# 
# 
# High freq. dielectric constant tensor:
#      x y z
#    x 1.879600 0.000000 0.000000 
#    y 0.000000 1.856910 0.000000 
#    z 0.000000 0.000000 1.902500 
# 
# From -- ./inp_files/1159.got.cif
#   From: 2010.03.12/outbox.cif.g09.slc.cpg/sg17_1_cif.got.tgz:1159.got - 2010.04.10 18:46:23.
