data_PCOD8155655
_publ_section_title
;
Structure prediction by ZEFSAII (Michael W. Deem and Ramdas Pophale) SiO2 
 PCOD8155655
Probable space group: P 2 2 21
;
_chemical_formula_sum "Si O2"
_cell_formula_units_Z 32
_cell_length_a 8.979960
_cell_length_b 11.887492
_cell_length_c 13.866140
_cell_angle_alpha 90.000000
_cell_angle_beta 90.000000
_cell_angle_gamma 90.000000
_cell_volume 1480.199389
_symmetry_space_group_name_H-M "P 2 2 21"
_symmetry_group_IT_number 17
_symmetry_cell_setting 'orthorhombic'
loop_
_space_group_symop_operation_xyz
x,y,z
-x,-y,1/2+z
x,-y,-z
-x,y,1/2-z
loop_
_atom_site_type_symbol
_atom_site_label
_atom_site_fract_x
_atom_site_fract_y
_atom_site_fract_z
Si Si1 0.027610 0.737571 0.963173
Si Si2 0.224166 0.297133 0.595957
Si Si3 0.831403 0.092326 0.778993
Si Si4 0.668593 0.592361 0.279010
Si Si5 0.220078 0.839874 0.666393
Si Si6 0.275835 0.202832 0.904064
Si Si7 0.720078 0.660088 0.666369
Si Si8 0.527612 0.762423 0.963174
O O1 0.138404 0.656311 0.904782
O O2 0.932158 0.812893 0.889748
O O3 0.127294 0.816999 0.032566
O O4 0.916198 0.665527 0.030469
O O5 0.209668 0.164621 0.625914
O O6 0.223797 0.371909 0.691331
O O7 0.372708 0.316976 0.532592
O O8 0.723806 0.128052 0.691307
O O9 0.000000 0.118539 0.750000
O O10 0.800346 0.961988 0.790591
O O11 0.500000 0.618566 0.250000
O O12 0.709650 0.664658 0.374103
O O13 0.699657 0.462024 0.290613
O O14 0.250003 0.749982 0.750012
O O15 0.361595 0.843657 0.595243
O O16 0.416200 0.165500 0.969555
O O17 0.567842 0.687066 0.610225
#
# Coordination Sequence:
#
# PCOD8155655 Si02
#       8
#     4   4   4   4   4   4   4   4
#     4  10  22  43  68  97 136 168 227 275 325 398
#     4  10  22  44  68 103 129 172 226 283 328 396
#     4  11  22  42  73  95 136 178 223 270 349 396
#     4  11  22  42  73  95 136 178 223 270 349 396
#     4  11  24  46  65  97 138 182 219 270 346 403
#     4  10  22  44  68 103 129 172 226 283 328 396
#     4  11  24  46  65  97 138 182 219 270 346 403
#     4  10  22  43  68  97 136 168 227 275 325 398
#
# _framework density 21.618711000000001
#
# number of rings (size 3 to 8) (size 9 to 14) (size 15 to 20)
#    0.000    1.500    2.500    2.250    0.000    4.000 
#   18.000    2.500    0.000    0.000    0.000    0.000 
#    0.000    0.000    0.000    0.000    0.000    0.000 
#
# Total GULP energy -396808.019494 kJ/mol
# GULP energy per Si atom -12400.250609 kJ/mol
# Density = 2.156951 g / cm^3
# Si number density = 21.618711 Si / 1000 Ang^3
#
#
#
# Elastic Constant Matrix: (Units=GPa)
#
#
# Indices 1 2 3 4 5 6 
#
# 1 141.6368 32.3291 55.2441 0.0000 0.0000 0.0000
# 2 32.3291 112.1897 41.6679 0.0000 0.0000 0.0000
# 3 55.2441 41.6679 121.7923 0.0000 0.0000 0.0000
# 4 0.0000 0.0000 0.0000 22.0596 0.0000 0.0000
# 5 0.0000 0.0000 0.0000 0.0000 40.8680 0.0000
# 6 0.0000 0.0000 0.0000 0.0000 0.0000 19.1972
#
#
#
# Elastic Compliance Matrix: (Units=1/GPa)
#
#
# Indices 1 2 3 4 5 6 
#
# 1 0.008716 -0.001195 -0.003544 0.000000 0.000000 0.000000
# 2 -0.001195 0.010375 -0.003007 0.000000 0.000000 0.000000
# 3 -0.003544 -0.003007 0.010847 0.000000 0.000000 0.000000
# 4 0.000000 0.000000 0.000000 0.045332 0.000000 0.000000
# 5 0.000000 0.000000 0.000000 0.000000 0.024469 0.000000
# 6 0.000000 0.000000 0.000000 0.000000 0.000000 0.052091
#
#
# Mechanical properties :
#
#
# Convention : Reuss Voigt Hill
#
# Bulk Modulus (GPa) = 69.23347 70.45567 69.84457
# Shear Modulus (GPa) = 29.04649 32.85015 30.94832
#
# Velocity S-wave (km/s) = 3.66947 3.90234 3.78769
# Velocity P-wave (km/s) = 7.07443 7.27772 7.17680
#
# Compressibility (1/GPa) = 0.01444388
#
# Stress axis : x y z
#
# Youngs Moduli (GPa) = 114.73716 96.38725 92.18858
#
# Poissons Ratio (x) = 0.11519 0.32676
# Poissons Ratio (y) = 0.13712 0.27725
# Poissons Ratio (z) = 0.40668 0.28987
#
# Static dielectric constant tensor:
#      x y z
#    x 4.258230 0.000000 0.000000 
#    y 0.000000 3.404880 0.000000 
#    z 0.000000 0.000000 4.308940 
# 
# 
# High freq. dielectric constant tensor:
#      x y z
#    x 1.870240 0.000000 0.000000 
#    y 0.000000 1.806100 0.000000 
#    z 0.000000 0.000000 1.876100 
# 
# From -- ./inp_files/8311.got.cif
#   From: 2010.03.12/outbox.cif.g09.slc.cpg/sg17_5_cif.got.tgz:8311.got - 2010.04.10 18:46:23.
