data_PCOD8155744
_publ_section_title
;
Structure prediction by ZEFSAII (Michael W. Deem and Ramdas Pophale) SiO2 
 PCOD8155744
Probable space group: P 2 2 21
;
_chemical_formula_sum "Si O2"
_cell_formula_units_Z 20
_cell_length_a 6.778043
_cell_length_b 9.330117
_cell_length_c 12.959040
_cell_angle_alpha 90.000000
_cell_angle_beta 90.000000
_cell_angle_gamma 90.000000
_cell_volume 819.528837
_symmetry_space_group_name_H-M "P 2 2 21"
_symmetry_group_IT_number 17
_symmetry_cell_setting 'orthorhombic'
loop_
_space_group_symop_operation_xyz
x,y,z
-x,-y,1/2+z
x,-y,-z
-x,y,1/2-z
loop_
_atom_site_type_symbol
_atom_site_label
_atom_site_fract_x
_atom_site_fract_y
_atom_site_fract_z
Si Si1 0.651157 0.284142 0.452176
Si Si2 0.500000 0.138102 0.250000
Si Si3 0.150387 0.945931 0.329472
Si Si4 0.973996 0.413302 0.129404
Si Si5 0.866009 0.000000 0.500000
Si Si6 0.259537 0.681938 0.455040
O O1 0.544343 0.236427 0.347459
O O2 0.488879 0.358834 0.527038
O O3 0.812007 0.405346 0.424570
O O4 0.735665 0.144110 0.512744
O O5 0.307822 0.042465 0.270618
O O6 0.266271 0.829239 0.394892
O O7 0.000000 0.869522 0.250000
O O8 0.005771 0.036345 0.403034
O O9 0.864854 0.565102 0.110074
O O10 0.000000 0.377571 0.250000
O O11 0.840356 0.296700 0.068481
#
# Coordination Sequence:
#
# PCOD8155744 Si02
#       6
#     4   2   4   4   2   4
#     4  12  25  46  75 111 152 198 254 320 389 462
#     4  12  26  42  80 118 152 196 252 316 394 478
#     4  12  25  46  74 115 151 197 249 314 394 463
#     4  11  26  49  77 106 145 209 256 316 381 453
#     4  12  24  46  76 110 158 196 246 320 390 462
#     4  11  26  48  73 107 155 196 262 317 379 461
#
# _framework density 24.404267000000001
#
# number of rings (size 3 to 8) (size 9 to 14) (size 15 to 20)
#    0.000    0.400    4.000    4.200    2.800    3.200 
#    0.000    4.000    0.000    0.000    0.000    0.000 
#    0.000    0.000    0.000    0.000    0.000    0.000 
#
# Total GULP energy -247834.681291 kJ/mol
# GULP energy per Si atom -12391.734065 kJ/mol
# Density = 2.434872 g / cm^3
# Si number density = 24.404267 Si / 1000 Ang^3
#
#
#
# Elastic Constant Matrix: (Units=GPa)
#
#
# Indices 1 2 3 4 5 6 
#
# 1 175.2751 33.3745 36.8043 0.0000 0.0000 0.0000
# 2 33.3745 69.0016 5.4712 0.0000 0.0000 0.0000
# 3 36.8043 5.4712 90.4925 0.0000 0.0000 0.0000
# 4 0.0000 0.0000 0.0000 28.9060 0.0000 0.0000
# 5 0.0000 0.0000 0.0000 0.0000 54.4156 0.0000
# 6 0.0000 0.0000 0.0000 0.0000 0.0000 18.7970
#
#
#
# Elastic Compliance Matrix: (Units=1/GPa)
#
#
# Indices 1 2 3 4 5 6 
#
# 1 0.006841 -0.003103 -0.002595 0.000000 0.000000 0.000000
# 2 -0.003103 0.015970 0.000297 0.000000 0.000000 0.000000
# 3 -0.002595 0.000297 0.012088 0.000000 0.000000 0.000000
# 4 0.000000 0.000000 0.000000 0.034595 0.000000 0.000000
# 5 0.000000 0.000000 0.000000 0.000000 0.018377 0.000000
# 6 0.000000 0.000000 0.000000 0.000000 0.000000 0.053200
#
#
# Mechanical properties :
#
#
# Convention : Reuss Voigt Hill
#
# Bulk Modulus (GPa) = 41.50019 54.00769 47.75394
# Shear Modulus (GPa) = 31.26848 37.69832 34.48340
#
# Velocity S-wave (km/s) = 3.58337 3.93459 3.76308
# Velocity P-wave (km/s) = 5.84491 6.54368 6.20414
#
# Compressibility (1/GPa) = 0.02409627
#
# Stress axis : x y z
#
# Youngs Moduli (GPa) = 146.17693 62.61816 82.72659
#
# Poissons Ratio (x) = 0.19431 0.21465
# Poissons Ratio (y) = 0.45360 -0.02453
# Poissons Ratio (z) = 0.37929 -0.01857
#
# Static dielectric constant tensor:
#      x y z
#    x 4.773940 0.000000 0.000000 
#    y 0.000000 3.958910 0.000000 
#    z 0.000000 0.000000 4.672740 
# 
# 
# High freq. dielectric constant tensor:
#      x y z
#    x 1.996580 0.000000 0.000000 
#    y 0.000000 1.957030 0.000000 
#    z 0.000000 0.000000 1.970980 
# 
# From -- ./inp_files/7655.got.cif
#   From: 2010.03.12/outbox.cif.g09.slc.cpg/sg17_4_cif.got.tgz:7655.got - 2010.04.10 18:46:23.
