data_PCOD8155537
_publ_section_title
;
Structure prediction by ZEFSAII (Michael W. Deem and Ramdas Pophale) SiO2 
 PCOD8155537
Probable space group: P 2 2 21
;
_chemical_formula_sum "Si O2"
_cell_formula_units_Z 18
_cell_length_a 12.094584
_cell_length_b 8.098750
_cell_length_c 7.787474
_cell_angle_alpha 90.000000
_cell_angle_beta 90.000000
_cell_angle_gamma 90.000000
_cell_volume 762.790961
_symmetry_space_group_name_H-M "P 2 2 21"
_symmetry_group_IT_number 17
_symmetry_cell_setting 'orthorhombic'
loop_
_space_group_symop_operation_xyz
x,y,z
-x,-y,1/2+z
x,-y,-z
-x,y,1/2-z
loop_
_atom_site_type_symbol
_atom_site_label
_atom_site_fract_x
_atom_site_fract_y
_atom_site_fract_z
Si Si1 0.739893 0.005189 0.204997
Si Si2 0.124911 0.679092 0.699757
Si Si3 0.544622 0.670271 0.064984
Si Si4 0.794595 0.663905 0.163800
Si Si5 0.500000 0.096340 0.250000
O O1 0.800107 0.170045 0.274763
O O2 0.612490 0.990808 0.265825
O O3 0.798165 0.834733 0.275100
O O4 0.746384 0.000000 0.000000
O O5 0.173860 0.502254 0.770660
O O6 0.120391 0.677733 0.493652
O O7 0.000000 0.708878 0.750000
O O8 0.500000 0.722814 0.250000
O O9 0.675722 0.649255 0.072938
O O10 0.489997 0.500000 0.000000
O O11 0.510263 0.803513 0.925519
#
# Coordination Sequence:
#
# PCOD8155537 Si02
#       5
#     4   4   4   4   2
#     4  10  21  39  67 100 141 186 233 296 365 433
#     4  10  20  39  66  94 129 183 246 298 362 419
#     4  12  23  39  70 107 148 198 239 294 371 449
#     4  10  21  43  64  97 138 184 238 300 367 426
#     4  12  22  42  68 110 152 194 240 294 368 468
#
# _framework density 23.597553999999999
#
# number of rings (size 3 to 8) (size 9 to 14) (size 15 to 20)
#    0.000    1.333    7.778    0.000    1.556    0.889 
#    0.000    4.444    0.000    4.000    0.000    0.000 
#    0.000    0.000    0.000    0.000    0.000    0.000 
#
# Total GULP energy -223032.040050 kJ/mol
# GULP energy per Si atom -12390.668892 kJ/mol
# Density = 2.354384 g / cm^3
# Si number density = 23.597554 Si / 1000 Ang^3
#
#
#
# Elastic Constant Matrix: (Units=GPa)
#
#
# Indices 1 2 3 4 5 6 
#
# 1 153.7546 76.6442 31.9134 0.0000 0.0000 0.0000
# 2 76.6442 239.8253 9.0414 0.0000 0.0000 0.0000
# 3 31.9134 9.0414 78.8507 0.0000 0.0000 0.0000
# 4 0.0000 0.0000 0.0000 5.1692 0.0000 0.0000
# 5 0.0000 0.0000 0.0000 0.0000 30.5555 0.0000
# 6 0.0000 0.0000 0.0000 0.0000 0.0000 58.9866
#
#
#
# Elastic Compliance Matrix: (Units=1/GPa)
#
#
# Indices 1 2 3 4 5 6 
#
# 1 0.008437 -0.002579 -0.003119 0.000000 0.000000 0.000000
# 2 -0.002579 0.004976 0.000473 0.000000 0.000000 0.000000
# 3 -0.003119 0.000473 0.013890 0.000000 0.000000 0.000000
# 4 0.000000 0.000000 0.000000 0.193455 0.000000 0.000000
# 5 0.000000 0.000000 0.000000 0.000000 0.032727 0.000000
# 6 0.000000 0.000000 0.000000 0.000000 0.000000 0.016953
#
#
# Mechanical properties :
#
#
# Convention : Reuss Voigt Hill
#
# Bulk Modulus (GPa) = 59.33318 78.62541 68.97929
# Shear Modulus (GPa) = 17.45168 42.59768 30.02468
#
# Velocity S-wave (km/s) = 2.72243 4.25334 3.57089
# Velocity P-wave (km/s) = 5.92288 7.58372 6.80417
#
# Compressibility (1/GPa) = 0.01685398
#
# Stress axis : x y z
#
# Youngs Moduli (GPa) = 118.53059 200.96649 71.99284
#
# Poissons Ratio (x) = 0.51822 0.22454
# Poissons Ratio (y) = 0.30565 -0.03406
# Poissons Ratio (z) = 0.36969 -0.09507
#
# Static dielectric constant tensor:
#      x y z
#    x 4.057450 0.000000 0.000000 
#    y 0.000000 5.584280 0.000000 
#    z 0.000000 0.000000 3.665160 
# 
# 
# High freq. dielectric constant tensor:
#      x y z
#    x 1.918190 0.000000 0.000000 
#    y 0.000000 1.977170 0.000000 
#    z 0.000000 0.000000 1.884820 
# 
# From -- ./inp_files/4560.got.cif
#   From: 2010.03.12/outbox.cif.g09.slc.cpg/sg17_3_cif.got.tgz:4560.got - 2010.04.10 18:46:23.
