data_PCOD8155282
_publ_section_title
;
Structure prediction by ZEFSAII (Michael W. Deem and Ramdas Pophale) SiO2 
 PCOD8155282
Probable space group: P 2 2 2
;
_chemical_formula_sum "Si O2"
_cell_formula_units_Z 32
_cell_length_a 9.996767
_cell_length_b 13.520796
_cell_length_c 12.035962
_cell_angle_alpha 90.000000
_cell_angle_beta 90.000000
_cell_angle_gamma 90.000000
_cell_volume 1626.831744
_symmetry_space_group_name_H-M "P 2 2 2"
_symmetry_group_IT_number 16
_symmetry_cell_setting 'orthorhombic'
loop_
_space_group_symop_operation_xyz
x,y,z
-x,-y,z
x,-y,-z
-x,y,-z
loop_
_atom_site_type_symbol
_atom_site_label
_atom_site_fract_x
_atom_site_fract_y
_atom_site_fract_z
Si Si1 0.746644 0.222179 0.844085
Si Si2 0.367044 0.891213 0.450633
Si Si3 0.842763 0.609007 0.289847
Si Si4 0.741218 0.769486 0.893334
Si Si5 0.152003 0.729703 0.489377
Si Si6 0.517074 0.889332 0.792205
Si Si7 0.993329 0.110219 0.132021
Si Si8 0.847055 0.615834 0.733715
O O1 0.744858 0.330609 0.790814
O O2 0.630068 0.158101 0.787077
O O3 0.885402 0.168877 0.811107
O O4 0.746027 0.237973 0.975101
O O5 0.500000 0.841135 0.500000
O O6 0.242582 0.827015 0.491990
O O7 0.395251 0.896500 0.319541
O O8 0.344994 0.000000 0.500000
O O9 0.822481 0.650356 0.413688
O O10 0.796822 0.495722 0.284670
O O11 0.994303 0.619259 0.245276
O O12 0.597361 0.817575 0.873734
O O13 0.764371 0.661901 0.837631
O O14 0.853438 0.839310 0.836370
O O15 0.188910 0.675774 0.375981
O O16 0.000000 0.767030 0.500000
O O17 0.500000 0.000000 0.841470
O O18 0.000000 0.000000 0.180990
O O19 0.000000 0.108713 0.000000
#
# Coordination Sequence:
#
# PCOD8155282 Si02
#       8
#     4   4   4   4   4   4   4   4
#     4  11  23  38  60  93 124 167 215 258 309 373
#     4  11  22  40  63  91 125 167 205 250 313 375
#     4  10  21  37  65  94 125 162 209 262 322 378
#     4  11  22  39  61  90 127 165 213 261 311 370
#     4  10  21  40  65  93 124 159 207 263 315 379
#     4  12  24  41  64  89 126 171 211 251 310 380
#     4   9  18  35  57  83 120 159 205 259 304 360
#     4  10  20  39  64  94 124 164 207 263 323 376
#
# _framework density 19.670134000000001
#
# number of rings (size 3 to 8) (size 9 to 14) (size 15 to 20)
#    0.000    1.500    3.750    2.250    0.000    4.250 
#    0.000    1.875    0.000    2.250    0.000    0.000 
#    0.000    0.000    0.000    0.000    0.000    0.000 
#
# Total GULP energy -396732.881256 kJ/mol
# GULP energy per Si atom -12397.902539 kJ/mol
# Density = 1.962536 g / cm^3
# Si number density = 19.670134 Si / 1000 Ang^3
#
#
#
# Elastic Constant Matrix: (Units=GPa)
#
#
# Indices 1 2 3 4 5 6 
#
# 1 88.1298 55.5600 14.0095 0.0000 0.0000 0.0000
# 2 55.5600 140.6364 34.5829 0.0000 0.0000 0.0000
# 3 14.0095 34.5829 69.7496 0.0000 0.0000 0.0000
# 4 0.0000 0.0000 0.0000 22.2255 0.0000 0.0000
# 5 0.0000 0.0000 0.0000 0.0000 24.7371 0.0000
# 6 0.0000 0.0000 0.0000 0.0000 0.0000 32.7140
#
#
#
# Elastic Compliance Matrix: (Units=1/GPa)
#
#
# Indices 1 2 3 4 5 6 
#
# 1 0.015111 -0.005949 -0.000086 0.000000 0.000000 0.000000
# 2 -0.005949 0.010440 -0.003981 0.000000 0.000000 0.000000
# 3 -0.000086 -0.003981 0.016328 0.000000 0.000000 0.000000
# 4 0.000000 0.000000 0.000000 0.044993 0.000000 0.000000
# 5 0.000000 0.000000 0.000000 0.000000 0.040425 0.000000
# 6 0.000000 0.000000 0.000000 0.000000 0.000000 0.030568
#
#
# Mechanical properties :
#
#
# Convention : Reuss Voigt Hill
#
# Bulk Modulus (GPa) = 45.77204 56.31341 51.04272
# Shear Modulus (GPa) = 27.00094 28.89285 27.94690
#
# Velocity S-wave (km/s) = 3.70900 3.83674 3.77341
# Velocity P-wave (km/s) = 6.45465 6.95115 6.70750
#
# Compressibility (1/GPa) = 0.02184740
#
# Stress axis : x y z
#
# Youngs Moduli (GPa) = 66.17821 95.78895 61.24372
#
# Poissons Ratio (x) = 0.56981 0.00525
# Poissons Ratio (y) = 0.39367 0.24383
# Poissons Ratio (z) = 0.00567 0.38137
#
# Static dielectric constant tensor:
#      x y z
#    x 3.581620 0.000000 0.000000 
#    y 0.000000 3.682680 0.000000 
#    z 0.000000 0.000000 3.507660 
# 
# 
# High freq. dielectric constant tensor:
#      x y z
#    x 1.759090 0.000000 0.000000 
#    y 0.000000 1.767860 0.000000 
#    z 0.000000 0.000000 1.766610 
# 
# From -- ./inp_files/4836.got.cif
#   From: 2010.03.12/outbox.cif.g09.slc.cpg/sg16_3_cif.got.tgz:4836.got - 2010.03.31 00:51:45.
