data_PCOD8155976
_publ_section_title
;
Structure prediction by ZEFSAII (Michael W. Deem and Ramdas Pophale) SiO2 
 PCOD8155976
Probable space group: P 21 21 2
;
_chemical_formula_sum "Si O2"
_cell_formula_units_Z 20
_cell_length_a 8.610246
_cell_length_b 8.847496
_cell_length_c 11.964636
_cell_angle_alpha 90.000000
_cell_angle_beta 90.000000
_cell_angle_gamma 90.000000
_cell_volume 911.455406
_symmetry_space_group_name_H-M "P 21 21 2"
_symmetry_group_IT_number 18
_symmetry_cell_setting 'orthorhombic'
loop_
_space_group_symop_operation_xyz
x,y,z
-x,-y,z
1/2+x,1/2-y,-z
1/2-x,1/2+y,-z
loop_
_atom_site_type_symbol
_atom_site_label
_atom_site_fract_x
_atom_site_fract_y
_atom_site_fract_z
Si Si1 0.180404 0.996979 0.770503
Si Si2 0.337490 0.071054 0.556789
Si Si3 0.317273 0.303000 0.862041
Si Si4 0.341655 0.417287 0.622783
Si Si5 0.106368 0.354602 0.070094
O O1 0.206880 0.997494 0.637601
O O2 0.264407 0.140929 0.821224
O O3 0.265540 0.854560 0.829845
O O4 0.000000 0.000000 0.799209
O O5 0.342992 0.251466 0.567096
O O6 0.500000 0.000000 0.594683
O O7 0.296244 0.017751 0.431297
O O8 0.315077 0.415264 0.756112
O O9 0.493520 0.290847 0.912253
O O10 0.196613 0.359359 0.953480
O O11 0.500000 0.500000 0.592447
O O12 0.000000 0.500000 0.071627
#
# Coordination Sequence:
#
# PCOD8155976 Si02
#       5
#     4   4   4   4   4
#     4  10  20  37  61  86 119 166 215 268 335 397
#     4  11  23  42  64  91 129 170 219 275 332 401
#     4  10  22  39  61  92 126 168 219 271 333 403
#     4  11  24  42  64  94 129 173 224 275 335 398
#     4  10  21  38  60  89 127 167 216 275 337 403
#
# _framework density 21.942927000000001
#
# number of rings (size 3 to 8) (size 9 to 14) (size 15 to 20)
#    0.000    1.600    0.000    6.000    0.000    6.400 
#    0.000    2.000    0.000    0.000    0.000    0.000 
#    0.000    0.000    0.000    0.000    0.000    0.000 
#
# Total GULP energy -247976.648777 kJ/mol
# GULP energy per Si atom -12398.832439 kJ/mol
# Density = 2.189298 g / cm^3
# Si number density = 21.942927 Si / 1000 Ang^3
#
#
#
# Elastic Constant Matrix: (Units=GPa)
#
#
# Indices 1 2 3 4 5 6 
#
# 1 141.7891 26.4721 65.7411 0.0000 0.0000 0.0000
# 2 26.4721 61.2702 50.4233 0.0000 0.0000 0.0000
# 3 65.7411 50.4233 145.5115 0.0000 0.0000 0.0000
# 4 0.0000 0.0000 0.0000 10.9610 0.0000 0.0000
# 5 0.0000 0.0000 0.0000 0.0000 28.9522 0.0000
# 6 0.0000 0.0000 0.0000 0.0000 0.0000 26.6497
#
#
#
# Elastic Compliance Matrix: (Units=1/GPa)
#
#
# Indices 1 2 3 4 5 6 
#
# 1 0.008946 -0.000754 -0.003781 0.000000 0.000000 0.000000
# 2 -0.000754 0.022896 -0.007593 0.000000 0.000000 0.000000
# 3 -0.003781 -0.007593 0.011212 0.000000 0.000000 0.000000
# 4 0.000000 0.000000 0.000000 0.091233 0.000000 0.000000
# 5 0.000000 0.000000 0.000000 0.000000 0.034540 0.000000
# 6 0.000000 0.000000 0.000000 0.000000 0.000000 0.037524
#
#
# Mechanical properties :
#
#
# Convention : Reuss Voigt Hill
#
# Bulk Modulus (GPa) = 53.19698 70.42709 61.81204
# Shear Modulus (GPa) = 21.10841 27.04153 24.07497
#
# Velocity S-wave (km/s) = 3.10493 3.51430 3.31594
# Velocity P-wave (km/s) = 6.09509 6.97369 6.54914
#
# Compressibility (1/GPa) = 0.01879806
#
# Stress axis : x y z
#
# Youngs Moduli (GPa) = 111.77659 43.67566 89.19262
#
# Poissons Ratio (x) = 0.03293 0.33721
# Poissons Ratio (y) = 0.08428 0.67728
# Poissons Ratio (z) = 0.42259 0.33165
#
# Static dielectric constant tensor:
#      x y z
#    x 4.293710 0.000000 0.000000 
#    y 0.000000 3.878080 0.000000 
#    z 0.000000 0.000000 4.335660 
# 
# 
# High freq. dielectric constant tensor:
#      x y z
#    x 1.873630 0.000000 0.000000 
#    y 0.000000 1.845960 0.000000 
#    z 0.000000 0.000000 1.871630 
# 
# From -- ./inp_files/5399.got.cif
#   From: 2010.03.12/outbox.cif.g09.slc.cpg/sg18_3_cif.got.tgz:5399.got - 2010.04.10 18:53:55.
