data_PCOD8155811
_publ_section_title
;
Structure prediction by ZEFSAII (Michael W. Deem and Ramdas Pophale) SiO2 
 PCOD8155811
Probable space group: P 21 21 2
;
_chemical_formula_sum "Si O2"
_cell_formula_units_Z 22
_cell_length_a 10.681733
_cell_length_b 13.035647
_cell_length_c 8.930654
_cell_angle_alpha 90.000000
_cell_angle_beta 90.000000
_cell_angle_gamma 90.000000
_cell_volume 1243.533741
_symmetry_space_group_name_H-M "P 21 21 2"
_symmetry_group_IT_number 18
_symmetry_cell_setting 'orthorhombic'
loop_
_space_group_symop_operation_xyz
x,y,z
-x,-y,z
1/2+x,1/2-y,-z
1/2-x,1/2+y,-z
loop_
_atom_site_type_symbol
_atom_site_label
_atom_site_fract_x
_atom_site_fract_y
_atom_site_fract_z
Si Si1 0.723174 0.548733 0.864040
Si Si2 0.308403 0.620386 0.459642
Si Si3 0.095269 0.587671 0.682788
Si Si4 0.132249 0.045399 0.837713
Si Si5 0.113215 0.266177 0.777391
Si Si6 0.000000 0.000000 0.339423
O O1 0.812123 0.459167 0.804853
O O2 0.789410 0.658036 0.855459
O O3 0.596153 0.559257 0.768988
O O4 0.699110 0.520929 0.036096
O O5 0.177006 0.628827 0.544637
O O6 0.289179 0.542242 0.318312
O O7 0.342884 0.732437 0.390957
O O8 0.423577 0.582193 0.562379
O O9 0.000000 0.500000 0.624400
O O10 0.022507 0.681281 0.760915
O O11 0.108384 0.165351 0.884019
O O12 0.000000 0.000000 0.796223
#
# Coordination Sequence:
#
# PCOD8155811 Si02
#       6
#     4   4   4   4   4   2
#     4  10  20  36  59  80 117 156 192 238 297 354
#     4   9  19  34  57  85 111 150 193 240 292 339
#     4   9  19  38  57  82 116 149 191 245 294 343
#     4  10  20  37  55  84 120 152 190 245 285 350
#     4   9  21  35  59  82 116 152 193 239 293 348
#     4  10  18  34  60  82 110 154 192 246 292 348
#
# _framework density 17.691519
#
# number of rings (size 3 to 8) (size 9 to 14) (size 15 to 20)
#    1.091    1.455    1.818    0.000    2.545    1.455 
#    3.273    2.727    0.000    0.000    0.000    0.000 
#    0.000    0.000    0.000    0.000    0.000    0.000 
#
# Total GULP energy -272589.754875 kJ/mol
# GULP energy per Si atom -12390.443403 kJ/mol
# Density = 1.765125 g / cm^3
# Si number density = 17.691519 Si / 1000 Ang^3
#
#
#
# Elastic Constant Matrix: (Units=GPa)
#
#
# Indices 1 2 3 4 5 6 
#
# 1 93.6787 30.2807 32.9010 0.0000 0.0000 0.0000
# 2 30.2807 84.2163 21.4590 0.0000 0.0000 0.0000
# 3 32.9010 21.4590 80.4434 0.0000 0.0000 0.0000
# 4 0.0000 0.0000 0.0000 26.9348 0.0000 0.0000
# 5 0.0000 0.0000 0.0000 0.0000 15.6368 0.0000
# 6 0.0000 0.0000 0.0000 0.0000 0.0000 24.3229
#
#
#
# Elastic Compliance Matrix: (Units=1/GPa)
#
#
# Indices 1 2 3 4 5 6 
#
# 1 0.013453 -0.003686 -0.004519 0.000000 0.000000 0.000000
# 2 -0.003686 0.013750 -0.002160 0.000000 0.000000 0.000000
# 3 -0.004519 -0.002160 0.014856 0.000000 0.000000 0.000000
# 4 0.000000 0.000000 0.000000 0.037127 0.000000 0.000000
# 5 0.000000 0.000000 0.000000 0.000000 0.063952 0.000000
# 6 0.000000 0.000000 0.000000 0.000000 0.000000 0.041114
#
#
# Mechanical properties :
#
#
# Convention : Reuss Voigt Hill
#
# Bulk Modulus (GPa) = 46.88608 47.51329 47.19969
# Shear Modulus (GPa) = 23.57479 24.95875 24.26677
#
# Velocity S-wave (km/s) = 3.65437 3.76010 3.70761
# Velocity P-wave (km/s) = 6.66074 6.76506 6.71310
#
# Compressibility (1/GPa) = 0.02132829
#
# Stress axis : x y z
#
# Youngs Moduli (GPa) = 74.33099 72.72764 67.31410
#
# Poissons Ratio (x) = 0.26806 0.30420
# Poissons Ratio (y) = 0.27397 0.14543
# Poissons Ratio (z) = 0.33591 0.15712
#
# Static dielectric constant tensor:
#      x y z
#    x 3.353360 0.000000 0.000000 
#    y 0.000000 3.166600 0.000000 
#    z 0.000000 0.000000 3.123210 
# 
# 
# High freq. dielectric constant tensor:
#      x y z
#    x 1.687550 0.000000 0.000000 
#    y 0.000000 1.676190 0.000000 
#    z 0.000000 0.000000 1.673950 
# 
# From -- ./inp_files/3822.got.cif
#   From: 2010.03.12/outbox.cif.g09.slc.cpg/sg18_2_cif.got.tgz:3822.got - 2010.04.10 18:53:55.
