data_PCOD8155749
_publ_section_title
;
Structure prediction by ZEFSAII (Michael W. Deem and Ramdas Pophale) SiO2 
 PCOD8155749
Probable space group: P 2 2 21
;
_chemical_formula_sum "Si O2"
_cell_formula_units_Z 20
_cell_length_a 4.856568
_cell_length_b 9.082971
_cell_length_c 19.917132
_cell_angle_alpha 90.000000
_cell_angle_beta 90.000000
_cell_angle_gamma 90.000000
_cell_volume 878.585847
_symmetry_space_group_name_H-M "P 2 2 21"
_symmetry_group_IT_number 17
_symmetry_cell_setting 'orthorhombic'
loop_
_space_group_symop_operation_xyz
x,y,z
-x,-y,1/2+z
x,-y,-z
-x,y,1/2-z
loop_
_atom_site_type_symbol
_atom_site_label
_atom_site_fract_x
_atom_site_fract_y
_atom_site_fract_z
Si Si1 0.618372 0.710569 0.899461
Si Si2 0.249563 0.537102 0.294610
Si Si3 0.115212 0.657009 0.983036
Si Si4 0.617321 0.019495 0.580245
Si Si5 0.089552 0.196111 0.610650
O O1 0.629086 0.598922 0.837037
O O2 0.425540 0.637828 0.956633
O O3 0.927300 0.733621 0.926437
O O4 0.493199 0.870919 0.884059
O O5 0.500000 0.598894 0.250000
O O6 0.000000 0.474426 0.250000
O O7 0.124606 0.675085 0.335422
O O8 0.983884 0.500000 0.000000
O O9 0.105946 0.749820 0.050106
O O10 0.882973 0.060395 0.628071
O O11 0.385733 0.144836 0.586278
O O12 0.684572 0.000000 0.500000
#
# Coordination Sequence:
#
# PCOD8155749 Si02
#       5
#     4   4   4   4   4
#     4  12  25  41  70 105 144 179 230 294 360 426
#     4  12  28  50  70  98 139 200 256 292 327 408
#     4  12  22  37  68 109 142 174 225 299 368 422
#     4  12  23  41  68 113 150 177 211 291 386 446
#     4  12  24  43  70 104 147 181 229 292 361 432
#
# _framework density 22.763853000000001
#
# number of rings (size 3 to 8) (size 9 to 14) (size 15 to 20)
#    0.000    0.000    6.000    4.800    2.800    0.000 
#    0.000    4.000    0.000    0.000    0.000    0.000 
#    0.000    0.000    0.000    0.000    0.000    0.000 
#
# Total GULP energy -247886.857831 kJ/mol
# GULP energy per Si atom -12394.342892 kJ/mol
# Density = 2.271204 g / cm^3
# Si number density = 22.763853 Si / 1000 Ang^3
#
#
#
# Elastic Constant Matrix: (Units=GPa)
#
#
# Indices 1 2 3 4 5 6 
#
# 1 116.9906 21.8479 39.5707 0.0000 0.0000 0.0000
# 2 21.8479 123.7542 45.3884 0.0000 0.0000 0.0000
# 3 39.5707 45.3884 95.6342 0.0000 0.0000 0.0000
# 4 0.0000 0.0000 0.0000 10.3485 0.0000 0.0000
# 5 0.0000 0.0000 0.0000 0.0000 -68.2095 0.0000
# 6 0.0000 0.0000 0.0000 0.0000 0.0000 51.4846
#
#
#
# Elastic Compliance Matrix: (Units=1/GPa)
#
#
# Indices 1 2 3 4 5 6 
#
# 1 0.009948 -0.000299 -0.003974 0.000000 0.000000 0.000000
# 2 -0.000299 0.009792 -0.004524 0.000000 0.000000 0.000000
# 3 -0.003974 -0.004524 0.014248 0.000000 0.000000 0.000000
# 4 0.000000 0.000000 0.000000 0.096632 0.000000 0.000000
# 5 0.000000 0.000000 0.000000 0.000000 -0.014661 0.000000
# 6 0.000000 0.000000 0.000000 0.000000 0.000000 0.019423
#
#
# Mechanical properties :
#
#
# Convention : Reuss Voigt Hill
#
# Bulk Modulus (GPa) = 60.99640 61.11035 61.05338
# Shear Modulus (GPa) = 31.55735 14.02953 22.79344
#
# Velocity S-wave (km/s) = 3.72733 2.48525 3.16777
# Velocity P-wave (km/s) = 6.73628 5.92781 6.34493
#
# Compressibility (1/GPa) = 0.01639441
#
# Stress axis : x y z
#
# Youngs Moduli (GPa) = 100.52538 102.11918 70.18474
#
# Poissons Ratio (x) = 0.03049 0.27894
# Poissons Ratio (y) = 0.03001 0.31752
# Poissons Ratio (z) = 0.39953 0.46199
#
# Static dielectric constant tensor:
#      x y z
#    x 4.322120 0.000000 0.000000 
#    y 0.000000 4.903700 0.000000 
#    z 0.000000 0.000000 3.774710 
# 
# 
# High freq. dielectric constant tensor:
#      x y z
#    x 1.928420 0.000000 0.000000 
#    y 0.000000 1.917230 0.000000 
#    z 0.000000 0.000000 1.853300 
# 
# From -- ./inp_files/8943.got.cif
#   From: 2010.03.12/outbox.cif.g09.slc.cpg/sg17_5_cif.got.tgz:8943.got - 2010.04.10 18:46:23.
