data_PCOD8155956
_publ_section_title
;
Structure prediction by ZEFSAII (Michael W. Deem and Ramdas Pophale) SiO2 
 PCOD8155956
Probable space group: P 21 21 2
;
_chemical_formula_sum "Si O2"
_cell_formula_units_Z 32
_cell_length_a 15.086755
_cell_length_b 17.113909
_cell_length_c 6.736137
_cell_angle_alpha 90.000000
_cell_angle_beta 90.000000
_cell_angle_gamma 90.000000
_cell_volume 1739.225793
_symmetry_space_group_name_H-M "P 21 21 2"
_symmetry_group_IT_number 18
_symmetry_cell_setting 'orthorhombic'
loop_
_space_group_symop_operation_xyz
x,y,z
-x,-y,z
1/2+x,1/2-y,-z
1/2-x,1/2+y,-z
loop_
_atom_site_type_symbol
_atom_site_label
_atom_site_fract_x
_atom_site_fract_y
_atom_site_fract_z
Si Si1 0.649271 0.694085 0.553157
Si Si2 0.075636 0.202911 0.889569
Si Si3 0.075635 0.702912 0.110429
Si Si4 0.991382 0.910235 0.556606
Si Si5 0.649271 0.194085 0.446843
Si Si6 0.991383 0.410235 0.443391
Si Si7 0.850225 0.340038 0.711287
Si Si8 0.850224 0.840037 0.288712
O O1 0.634171 0.737169 0.762143
O O2 0.584329 0.620730 0.530798
O O3 0.750000 0.663452 0.543339
O O4 0.627852 0.754280 0.375614
O O5 0.134169 0.262833 0.762144
O O6 0.034272 0.135662 0.754391
O O7 0.138051 0.161531 0.051950
O O8 0.999999 0.249998 0.000001
O O9 0.034270 0.635663 0.245606
O O10 0.138049 0.661531 0.948049
O O11 0.916267 0.902162 0.387781
O O12 0.000000 0.000000 0.614994
O O13 0.584330 0.120729 0.469204
O O14 0.627852 0.254280 0.624384
O O15 0.916267 0.402162 0.612214
O O16 0.000000 0.500000 0.385003
O O17 0.750000 0.364773 0.658456
#
# Coordination Sequence:
#
# PCOD8155956 Si02
#       8
#     4   4   4   4   4   4   4   4
#     4  10  20  36  59  86 111 148 194 237 282 342
#     4  11  18  37  62  85 110 148 201 238 280 332
#     4  11  18  37  62  85 110 148 201 238 280 332
#     4  11  23  37  57  84 122 155 184 239 297 346
#     4  10  20  36  59  86 111 148 194 237 282 342
#     4  11  23  37  57  84 122 155 184 239 297 346
#     4  10  20  37  62  85 111 148 195 240 282 338
#     4  10  20  37  62  85 111 148 195 240 282 338
#
# _framework density 18.398990999999999
#
# number of rings (size 3 to 8) (size 9 to 14) (size 15 to 20)
#    0.000    1.500    5.000    2.250    0.000    3.000 
#    0.000    0.000    0.000    0.000    0.000    0.000 
#    0.000    0.000    0.000    0.000    0.000    0.000 
#
# Total GULP energy -396915.970043 kJ/mol
# GULP energy per Si atom -12403.624064 kJ/mol
# Density = 1.835711 g / cm^3
# Si number density = 18.398991 Si / 1000 Ang^3
#
#
#
# Elastic Constant Matrix: (Units=GPa)
#
#
# Indices 1 2 3 4 5 6 
#
# 1 114.1564 48.6514 35.9182 0.0000 0.0000 0.0000
# 2 48.6514 97.7289 34.7481 0.0000 0.0000 0.0000
# 3 35.9182 34.7481 120.8331 0.0000 0.0000 0.0000
# 4 0.0000 0.0000 0.0000 16.0750 0.0000 0.0000
# 5 0.0000 0.0000 0.0000 0.0000 29.0905 0.0000
# 6 0.0000 0.0000 0.0000 0.0000 0.0000 8.1167
#
#
#
# Elastic Compliance Matrix: (Units=1/GPa)
#
#
# Indices 1 2 3 4 5 6 
#
# 1 0.011529 -0.005036 -0.001979 0.000000 0.000000 0.000000
# 2 -0.005036 0.013597 -0.002413 0.000000 0.000000 0.000000
# 3 -0.001979 -0.002413 0.009558 0.000000 0.000000 0.000000
# 4 0.000000 0.000000 0.000000 0.062208 0.000000 0.000000
# 5 0.000000 0.000000 0.000000 0.000000 0.034375 0.000000
# 6 0.000000 0.000000 0.000000 0.000000 0.000000 0.123203
#
#
# Mechanical properties :
#
#
# Convention : Reuss Voigt Hill
#
# Bulk Modulus (GPa) = 63.17730 63.48375 63.33053
# Shear Modulus (GPa) = 17.94673 24.88316 21.41495
#
# Velocity S-wave (km/s) = 3.12656 3.68152 3.41533
# Velocity P-wave (km/s) = 6.88809 7.25605 7.07446
#
# Compressibility (1/GPa) = 0.01582847
#
# Stress axis : x y z
#
# Youngs Moduli (GPa) = 86.74074 73.54419 104.62330
#
# Poissons Ratio (x) = 0.37034 0.20703
# Poissons Ratio (y) = 0.43679 0.25249
# Poissons Ratio (z) = 0.17165 0.17749
#
# Static dielectric constant tensor:
#      x y z
#    x 3.502920 0.000000 0.000000 
#    y 0.000000 3.009160 0.000000 
#    z 0.000000 0.000000 3.703920 
# 
# 
# High freq. dielectric constant tensor:
#      x y z
#    x 1.728610 0.000000 0.000000 
#    y 0.000000 1.676850 0.000000 
#    z 0.000000 0.000000 1.724580 
# 
# From -- ./inp_files/1643.got.cif
#   From: 2010.03.12/outbox.cif.g09.slc.cpg/sg18_1_cif.got.tgz:1643.got - 2010.04.10 18:53:55.
