data_PCOD8155572
_publ_section_title
;
Structure prediction by ZEFSAII (Michael W. Deem and Ramdas Pophale) SiO2 
 PCOD8155572
Probable space group: P 2 2 21
;
_chemical_formula_sum "Si O2"
_cell_formula_units_Z 16
_cell_length_a 9.720619
_cell_length_b 9.110202
_cell_length_c 8.102189
_cell_angle_alpha 90.000000
_cell_angle_beta 90.000000
_cell_angle_gamma 90.000000
_cell_volume 717.503952
_symmetry_space_group_name_H-M "P 2 2 21"
_symmetry_group_IT_number 17
_symmetry_cell_setting 'orthorhombic'
loop_
_space_group_symop_operation_xyz
x,y,z
-x,-y,1/2+z
x,-y,-z
-x,y,1/2-z
loop_
_atom_site_type_symbol
_atom_site_label
_atom_site_fract_x
_atom_site_fract_y
_atom_site_fract_z
Si Si1 0.885030 0.375197 0.875193
Si Si2 0.350364 0.848816 0.812423
Si Si3 0.651309 0.803935 0.316132
Si Si4 0.104259 0.135745 0.390918
O O1 0.757734 0.297576 0.782570
O O2 0.000000 0.438594 0.750000
O O3 0.830684 0.500000 0.000000
O O4 0.964443 0.253505 0.986355
O O5 0.500000 0.808187 0.750000
O O6 0.236458 0.782383 0.689616
O O7 0.320041 0.022806 0.801020
O O8 0.334850 0.772241 0.989465
O O9 0.500000 0.765433 0.250000
O O10 0.000000 0.082174 0.250000
O O11 0.154127 0.000000 0.500000
#
# Coordination Sequence:
#
# PCOD8155572 Si02
#       4
#     4   4   4   4
#     4  12  26  46  65  93 134 181 223 268 333 395
#     4  10  21  37  68 104 137 166 212 279 343 388
#     4  10  21  40  68 101 135 171 219 274 332 395
#     4  12  24  39  64  98 129 169 225 279 327 383
#
# _framework density 22.299527999999999
#
# number of rings (size 3 to 8) (size 9 to 14) (size 15 to 20)
#    0.000    1.000    2.500    4.500    7.000    0.000 
#    0.000    5.000    0.000    0.000    0.000    0.000 
#    0.000    0.000    0.000    0.000    0.000    0.000 
#
# Total GULP energy -198333.382860 kJ/mol
# GULP energy per Si atom -12395.836429 kJ/mol
# Density = 2.224877 g / cm^3
# Si number density = 22.299528 Si / 1000 Ang^3
#
#
#
# Elastic Constant Matrix: (Units=GPa)
#
#
# Indices 1 2 3 4 5 6 
#
# 1 136.7067 23.3501 72.9915 0.0000 0.0000 0.0000
# 2 23.3501 71.6785 54.5151 0.0000 0.0000 0.0000
# 3 72.9915 54.5151 179.5837 0.0000 0.0000 0.0000
# 4 0.0000 0.0000 0.0000 36.7876 0.0000 0.0000
# 5 0.0000 0.0000 0.0000 0.0000 34.4755 0.0000
# 6 0.0000 0.0000 0.0000 0.0000 0.0000 19.6207
#
#
#
# Elastic Compliance Matrix: (Units=1/GPa)
#
#
# Indices 1 2 3 4 5 6 
#
# 1 0.009345 -0.000202 -0.003737 0.000000 0.000000 0.000000
# 2 -0.000202 0.018143 -0.005426 0.000000 0.000000 0.000000
# 3 -0.003737 -0.005426 0.008734 0.000000 0.000000 0.000000
# 4 0.000000 0.000000 0.000000 0.027183 0.000000 0.000000
# 5 0.000000 0.000000 0.000000 0.000000 0.029006 0.000000
# 6 0.000000 0.000000 0.000000 0.000000 0.000000 0.050967
#
#
# Mechanical properties :
#
#
# Convention : Reuss Voigt Hill
#
# Bulk Modulus (GPa) = 57.16427 76.63136 66.89781
# Shear Modulus (GPa) = 29.77290 33.98425 31.87857
#
# Velocity S-wave (km/s) = 3.65791 3.90807 3.78506
# Velocity P-wave (km/s) = 6.59779 7.40291 7.01192
#
# Compressibility (1/GPa) = 0.01749344
#
# Stress axis : x y z
#
# Youngs Moduli (GPa) = 107.01369 55.11643 114.49227
#
# Poissons Ratio (x) = 0.01114 0.42783
# Poissons Ratio (y) = 0.02163 0.62118
# Poissons Ratio (z) = 0.39988 0.29904
#
# Static dielectric constant tensor:
#      x y z
#    x 3.884380 0.000000 0.000000 
#    y 0.000000 3.678340 0.000000 
#    z 0.000000 0.000000 4.501790 
# 
# 
# High freq. dielectric constant tensor:
#      x y z
#    x 1.878250 0.000000 0.000000 
#    y 0.000000 1.839630 0.000000 
#    z 0.000000 0.000000 1.911720 
# 
# From -- ./inp_files/3733.got.cif
#   From: 2010.03.12/outbox.cif.g09.slc.cpg/sg17_2_cif.got.tgz:3733.got - 2010.04.10 18:46:23.
