data_PCOD8155276
_publ_section_title
;
Structure prediction by ZEFSAII (Michael W. Deem and Ramdas Pophale) SiO2 
 PCOD8155276
Probable space group: P 2 2 2
;
_chemical_formula_sum "Si O2"
_cell_formula_units_Z 32
_cell_length_a 11.810170
_cell_length_b 15.058427
_cell_length_c 8.481173
_cell_angle_alpha 90.000000
_cell_angle_beta 90.000000
_cell_angle_gamma 90.000000
_cell_volume 1508.313712
_symmetry_space_group_name_H-M "P 2 2 2"
_symmetry_group_IT_number 16
_symmetry_cell_setting 'orthorhombic'
loop_
_space_group_symop_operation_xyz
x,y,z
-x,-y,z
x,-y,-z
-x,y,-z
loop_
_atom_site_type_symbol
_atom_site_label
_atom_site_fract_x
_atom_site_fract_y
_atom_site_fract_z
Si Si1 0.858550 0.816912 0.181935
Si Si2 0.279574 0.660842 0.681199
Si Si3 0.738516 0.672478 0.684333
Si Si4 0.491177 0.723445 0.182847
Si Si5 0.448506 0.914903 0.324820
Si Si6 0.872294 0.497252 0.312476
Si Si7 0.884328 0.179125 0.179433
Si Si8 0.236147 0.008205 0.822260
O O1 0.784803 0.750460 0.282035
O O2 0.987947 0.804608 0.234630
O O3 0.806071 0.911912 0.231737
O O4 0.851997 0.791445 0.998033
O O5 0.294792 0.654613 0.494929
O O6 0.404341 0.664449 0.755968
O O7 0.206321 0.578216 0.748399
O O8 0.622490 0.669808 0.781046
O O9 0.818141 0.594161 0.749469
O O10 0.802481 0.766365 0.703936
O O11 0.486701 0.821465 0.256006
O O12 0.500000 0.738833 0.000000
O O13 0.500000 0.915559 0.500000
O O14 0.316074 0.938539 0.302970
O O15 0.500000 0.000000 0.231338
O O16 0.878670 0.500000 0.500000
O O17 0.000000 0.500000 0.242478
O O18 0.872155 0.072722 0.178716
O O19 0.287794 0.000000 0.000000
#
# Coordination Sequence:
#
# PCOD8155276 Si02
#       8
#     4   4   4   4   4   4   4   4
#     4  10  21  38  61  91 127 166 212 261 315 375
#     4  11  23  40  65  94 128 162 214 265 315 379
#     4  11  22  41  67  92 127 165 212 265 317 380
#     4  12  26  42  63  91 127 168 212 259 325 390
#     4  11  24  39  61  88 124 166 218 270 310 366
#     4   9  20  40  67  97 126 164 208 255 317 385
#     4  10  20  38  62  90 125 168 213 259 313 378
#     4  10  21  37  62  89 124 168 215 259 316 383
#
# _framework density 21.215744000000001
#
# number of rings (size 3 to 8) (size 9 to 14) (size 15 to 20)
#    0.000    1.500    1.250    3.750    3.500    4.500 
#    0.000    5.000    0.000    6.000    0.000    0.000 
#    0.000    0.000    0.000    0.000    0.000    0.000 
#
# Total GULP energy -396605.782846 kJ/mol
# GULP energy per Si atom -12393.930714 kJ/mol
# Density = 2.116746 g / cm^3
# Si number density = 21.215744 Si / 1000 Ang^3
#
#
#
# Elastic Constant Matrix: (Units=GPa)
#
#
# Indices 1 2 3 4 5 6 
#
# 1 155.4635 62.2938 34.9527 0.0000 0.0000 0.0000
# 2 62.2938 141.1590 21.9129 0.0000 0.0000 0.0000
# 3 34.9527 21.9129 64.6486 0.0000 0.0000 0.0000
# 4 0.0000 0.0000 0.0000 9.0695 0.0000 0.0000
# 5 0.0000 0.0000 0.0000 0.0000 32.7572 0.0000
# 6 0.0000 0.0000 0.0000 0.0000 0.0000 36.4388
#
#
#
# Elastic Compliance Matrix: (Units=1/GPa)
#
#
# Indices 1 2 3 4 5 6 
#
# 1 0.008508 -0.003209 -0.003512 0.000000 0.000000 0.000000
# 2 -0.003209 0.008688 -0.001210 0.000000 0.000000 0.000000
# 3 -0.003512 -0.001210 0.017777 0.000000 0.000000 0.000000
# 4 0.000000 0.000000 0.000000 0.110260 0.000000 0.000000
# 5 0.000000 0.000000 0.000000 0.000000 0.030528 0.000000
# 6 0.000000 0.000000 0.000000 0.000000 0.000000 0.027443
#
#
# Mechanical properties :
#
#
# Convention : Reuss Voigt Hill
#
# Bulk Modulus (GPa) = 52.32595 66.62112 59.47354
# Shear Modulus (GPa) = 22.17914 31.79387 26.98650
#
# Velocity S-wave (km/s) = 3.23679 3.87537 3.57039
# Velocity P-wave (km/s) = 6.21983 7.17597 6.71494
#
# Compressibility (1/GPa) = 0.01911098
#
# Stress axis : x y z
#
# Youngs Moduli (GPa) = 117.53656 115.09704 56.25208
#
# Poissons Ratio (x) = 0.36939 0.19756
# Poissons Ratio (y) = 0.37722 0.06805
# Poissons Ratio (z) = 0.41280 0.13924
#
# Static dielectric constant tensor:
#      x y z
#    x 4.062540 0.000000 0.000000 
#    y 0.000000 4.052560 0.000000 
#    z 0.000000 0.000000 3.644690 
# 
# 
# High freq. dielectric constant tensor:
#      x y z
#    x 1.845380 0.000000 0.000000 
#    y 0.000000 1.840310 0.000000 
#    z 0.000000 0.000000 1.809020 
# 
# From -- ./inp_files/4853.got.cif
#   From: 2010.03.12/outbox.cif.g09.slc.cpg/sg16_3_cif.got.tgz:4853.got - 2010.03.31 00:51:45.
