data_PCOD8155482
_publ_section_title
;
Structure prediction by ZEFSAII (Michael W. Deem and Ramdas Pophale) SiO2 
 PCOD8155482
Probable space group: P 2 2 21
;
_chemical_formula_sum "Si O2"
_cell_formula_units_Z 20
_cell_length_a 4.831718
_cell_length_b 10.584812
_cell_length_c 17.545834
_cell_angle_alpha 90.000000
_cell_angle_beta 90.000000
_cell_angle_gamma 90.000000
_cell_volume 897.343547
_symmetry_space_group_name_H-M "P 2 2 21"
_symmetry_group_IT_number 17
_symmetry_cell_setting 'orthorhombic'
loop_
_space_group_symop_operation_xyz
x,y,z
-x,-y,1/2+z
x,-y,-z
-x,y,1/2-z
loop_
_atom_site_type_symbol
_atom_site_label
_atom_site_fract_x
_atom_site_fract_y
_atom_site_fract_z
Si Si1 0.459338 0.507986 0.588035
Si Si2 0.754236 0.121530 0.698324
Si Si3 0.273466 0.923264 0.928495
Si Si4 0.985012 0.651529 0.400032
Si Si5 0.209549 0.757472 0.557808
O O1 0.373753 0.500000 0.500000
O O2 0.778636 0.470339 0.597254
O O3 0.363180 0.650295 0.609964
O O4 0.270632 0.405953 0.633496
O O5 0.500000 0.165045 0.750000
O O6 0.866394 0.243661 0.654852
O O7 0.000000 0.065543 0.750000
O O8 0.645637 0.015263 0.640538
O O9 0.545890 0.854974 0.961628
O O10 0.036451 0.827846 0.896643
O O11 0.145715 0.000000 0.000000
O O12 0.048038 0.709984 0.482527
#
# Coordination Sequence:
#
# PCOD8155482 Si02
#       5
#     4   4   4   4   4
#     4  10  20  34  62  96 130 158 204 267 340 388
#     4  12  27  44  65  94 136 183 224 273 343 408
#     4  12  24  40  68  95 135 174 227 279 329 396
#     4  11  21  39  63  93 132 166 214 276 331 397
#     4  11  22  38  66 100 132 167 216 284 337 381
#
# _framework density 22.288005999999999
#
# number of rings (size 3 to 8) (size 9 to 14) (size 15 to 20)
#    0.000    0.800    2.000    8.400    2.800    0.000 
#    0.000    0.000    0.000   24.000    0.000    0.000 
#    0.000    0.000    0.000    0.000    0.000    0.000 
#
# Total GULP energy -247853.314442 kJ/mol
# GULP energy per Si atom -12392.665722 kJ/mol
# Density = 2.223728 g / cm^3
# Si number density = 22.288006 Si / 1000 Ang^3
#
#
#
# Elastic Constant Matrix: (Units=GPa)
#
#
# Indices 1 2 3 4 5 6 
#
# 1 133.7665 29.7007 18.7396 0.0000 0.0000 0.0000
# 2 29.7007 88.1361 27.3662 0.0000 0.0000 0.0000
# 3 18.7396 27.3662 56.5122 0.0000 0.0000 0.0000
# 4 0.0000 0.0000 0.0000 6.5430 0.0000 0.0000
# 5 0.0000 0.0000 0.0000 0.0000 26.7065 0.0000
# 6 0.0000 0.0000 0.0000 0.0000 0.0000 50.0766
#
#
#
# Elastic Compliance Matrix: (Units=1/GPa)
#
#
# Indices 1 2 3 4 5 6 
#
# 1 0.008205 -0.002260 -0.001626 0.000000 0.000000 0.000000
# 2 -0.002260 0.013977 -0.006019 0.000000 0.000000 0.000000
# 3 -0.001626 -0.006019 0.021149 0.000000 0.000000 0.000000
# 4 0.000000 0.000000 0.000000 0.152836 0.000000 0.000000
# 5 0.000000 0.000000 0.000000 0.000000 0.037444 0.000000
# 6 0.000000 0.000000 0.000000 0.000000 0.000000 0.019969
#
#
# Mechanical properties :
#
#
# Convention : Reuss Voigt Hill
#
# Bulk Modulus (GPa) = 42.51600 47.78086 45.14843
# Shear Modulus (GPa) = 17.77895 30.17243 23.97569
#
# Velocity S-wave (km/s) = 2.82741 3.68333 3.28338
# Velocity P-wave (km/s) = 5.45675 6.29076 5.88854
#
# Compressibility (1/GPa) = 0.02352055
#
# Stress axis : x y z
#
# Youngs Moduli (GPa) = 121.87120 71.54859 47.28311
#
# Poissons Ratio (x) = 0.16171 0.07690
# Poissons Ratio (y) = 0.27544 0.28458
# Poissons Ratio (z) = 0.19822 0.43063
#
# Static dielectric constant tensor:
#      x y z
#    x 4.236030 0.000000 0.000000 
#    y 0.000000 4.565600 0.000000 
#    z 0.000000 0.000000 3.561290 
# 
# 
# High freq. dielectric constant tensor:
#      x y z
#    x 1.904490 0.000000 0.000000 
#    y 0.000000 1.896160 0.000000 
#    z 0.000000 0.000000 1.814560 
# 
# From -- ./inp_files/7594.got.cif
#   From: 2010.03.12/outbox.cif.g09.slc.cpg/sg17_4_cif.got.tgz:7594.got - 2010.04.10 18:46:23.
