data_PCOD8155512
_publ_section_title
;
Structure prediction by ZEFSAII (Michael W. Deem and Ramdas Pophale) SiO2 
 PCOD8155512
Probable space group: P 2 2 21
;
_chemical_formula_sum "Si O2"
_cell_formula_units_Z 32
_cell_length_a 12.073717
_cell_length_b 9.018151
_cell_length_c 15.318873
_cell_angle_alpha 90.000000
_cell_angle_beta 90.000000
_cell_angle_gamma 90.000000
_cell_volume 1667.958768
_symmetry_space_group_name_H-M "P 2 2 21"
_symmetry_group_IT_number 17
_symmetry_cell_setting 'orthorhombic'
loop_
_space_group_symop_operation_xyz
x,y,z
-x,-y,1/2+z
x,-y,-z
-x,y,1/2-z
loop_
_atom_site_type_symbol
_atom_site_label
_atom_site_fract_x
_atom_site_fract_y
_atom_site_fract_z
Si Si1 0.492289 0.325169 0.351419
Si Si2 0.634450 0.823135 0.500000
Si Si3 0.962368 0.824556 0.842698
Si Si4 0.248679 0.334810 0.398979
Si Si5 0.248679 0.665190 0.398979
Si Si6 0.492289 0.325169 0.648581
Si Si7 0.888878 0.176266 0.500000
Si Si8 0.962368 0.824556 0.157302
O O1 0.500000 0.279396 0.250000
O O2 0.580658 0.239420 0.411139
O O3 0.371866 0.274495 0.383789
O O4 0.511739 0.500000 0.364877
O O5 0.580658 0.760580 0.411139
O O6 0.762191 0.769608 0.500000
O O7 0.623894 0.000000 0.500000
O O8 0.046199 0.760349 0.915563
O O9 0.000000 0.761500 0.750000
O O10 0.836527 0.774332 0.853536
O O11 0.963871 1.000000 0.845601
O O12 0.237552 0.500000 0.358901
O O13 0.220763 0.337464 0.500000
O O14 0.371866 0.725505 0.383789
O O15 0.163473 0.774332 0.353536
O O16 0.500000 0.279395 0.750000
O O17 0.953801 0.239651 0.584437
O O18 0.892757 0.000000 0.500000
O O19 0.000000 0.761500 0.250000
#
# Coordination Sequence:
#
# PCOD8155512 Si02
#       8
#     4   4   4   4   4   4   4   4
#     4  10  22  41  62  84 116 157 195 236 289 346
#     4  11  23  38  59  86 120 153 188 243 292 339
#     4  10  21  37  59  83 111 151 190 227 280 342
#     4  10  20  37  59  83 113 145 187 243 284 325
#     4  10  20  37  59  83 113 145 187 243 284 325
#     4  10  22  41  62  84 116 157 195 236 289 346
#     4   9  20  38  53  78 118 149 182 231 282 331
#     4  10  21  37  59  83 111 151 190 227 280 342
#
# _framework density 19.185127000000001
#
# number of rings (size 3 to 8) (size 9 to 14) (size 15 to 20)
#    0.000    2.000    2.500    0.375    3.500    2.000 
#    0.000    2.500    0.000    0.000    0.000    0.000 
#    0.000    0.000    0.000    0.000    0.000    0.000 
#
# Total GULP energy -396803.858972 kJ/mol
# GULP energy per Si atom -12400.120593 kJ/mol
# Density = 1.914146 g / cm^3
# Si number density = 19.185127 Si / 1000 Ang^3
#
#
#
# Elastic Constant Matrix: (Units=GPa)
#
#
# Indices 1 2 3 4 5 6 
#
# 1 134.2721 30.9636 51.3728 0.0000 0.0000 0.0000
# 2 30.9636 32.7234 34.0834 0.0000 0.0000 0.0000
# 3 51.3728 34.0834 130.5044 0.0000 0.0000 0.0000
# 4 0.0000 0.0000 0.0000 20.3482 0.0000 0.0000
# 5 0.0000 0.0000 0.0000 0.0000 33.6480 0.0000
# 6 0.0000 0.0000 0.0000 0.0000 0.0000 255.6695
#
#
#
# Elastic Compliance Matrix: (Units=1/GPa)
#
#
# Indices 1 2 3 4 5 6 
#
# 1 0.009889 -0.007284 -0.001990 0.000000 0.000000 0.000000
# 2 -0.007284 0.047343 -0.009497 0.000000 0.000000 0.000000
# 3 -0.001990 -0.009497 0.010926 0.000000 0.000000 0.000000
# 4 0.000000 0.000000 0.000000 0.049144 0.000000 0.000000
# 5 0.000000 0.000000 0.000000 0.000000 0.029719 0.000000
# 6 0.000000 0.000000 0.000000 0.000000 0.000000 0.003911
#
#
# Mechanical properties :
#
#
# Convention : Reuss Voigt Hill
#
# Bulk Modulus (GPa) = 32.66317 58.92661 45.79489
# Shear Modulus (GPa) = 25.16589 74.00513 49.58551
#
# Velocity S-wave (km/s) = 3.62572 6.21755 5.08939
# Velocity P-wave (km/s) = 5.88133 9.07333 7.64576
#
# Compressibility (1/GPa) = 0.03061553
#
# Stress axis : x y z
#
# Youngs Moduli (GPa) = 101.12473 21.12238 91.52116
#
# Poissons Ratio (x) = 0.15385 0.18216
# Poissons Ratio (y) = 0.73658 0.86919
# Poissons Ratio (z) = 0.20128 0.20060
#
# Static dielectric constant tensor:
#      x y z
#    x 3.603080 0.000000 0.000000 
#    y 0.000000 3.270320 0.000000 
#    z 0.000000 0.000000 3.768690 
# 
# 
# High freq. dielectric constant tensor:
#      x y z
#    x 1.758200 0.000000 0.000000 
#    y 0.000000 1.721130 0.000000 
#    z 0.000000 0.000000 1.757400 
# 
# From -- ./inp_files/8550.got.cif
#   From: 2010.03.12/outbox.cif.g09.slc.cpg/sg17_5_cif.got.tgz:8550.got - 2010.04.10 18:46:23.
