data_PCOD8155805
_publ_section_title
;
Structure prediction by ZEFSAII (Michael W. Deem and Ramdas Pophale) SiO2 
 PCOD8155805
Probable space group: P 21 21 2
;
_chemical_formula_sum "Si O2"
_cell_formula_units_Z 32
_cell_length_a 14.414980
_cell_length_b 11.284052
_cell_length_c 9.019682
_cell_angle_alpha 90.000000
_cell_angle_beta 90.000000
_cell_angle_gamma 90.000000
_cell_volume 1467.135917
_symmetry_space_group_name_H-M "P 21 21 2"
_symmetry_group_IT_number 18
_symmetry_cell_setting 'orthorhombic'
loop_
_space_group_symop_operation_xyz
x,y,z
-x,-y,z
1/2+x,1/2-y,-z
1/2-x,1/2+y,-z
loop_
_atom_site_type_symbol
_atom_site_label
_atom_site_fract_x
_atom_site_fract_y
_atom_site_fract_z
Si Si1 0.047858 0.622754 0.051695
Si Si2 0.603377 0.189240 0.727496
Si Si3 0.395815 0.484582 0.275793
Si Si4 0.100381 0.049280 0.389842
Si Si5 0.221846 0.488236 0.101502
Si Si6 0.280687 0.988413 0.245713
Si Si7 0.402393 0.217948 0.256487
Si Si8 0.440042 0.887957 0.412372
O O1 0.145683 0.590616 0.128916
O O2 0.000000 0.500000 0.998012
O O3 0.987741 0.692157 0.171174
O O4 0.060786 0.707223 0.911317
O O5 0.622145 0.321272 0.673661
O O6 0.689734 0.134026 0.818053
O O7 0.584391 0.107575 0.585021
O O8 0.500000 0.500000 0.210230
O O9 0.389728 0.550577 0.432941
O O10 0.319191 0.539287 0.164313
O O11 0.362779 0.347996 0.286211
O O12 0.180608 0.968275 0.320104
O O13 0.000000 0.000000 0.341197
O O14 0.230375 0.464019 0.927416
O O15 0.323660 0.118416 0.285470
O O16 0.346684 0.887197 0.314493
O O17 0.491595 0.219026 0.367695
O O18 0.500000 0.000000 0.363782
#
# Coordination Sequence:
#
# PCOD8155805 Si02
#       8
#     4   4   4   4   4   4   4   4
#     4   9  19  38  64  94 122 149 198 257 301 355
#     4  11  21  38  64  92 121 160 200 246 303 362
#     4  11  24  42  59  83 123 164 204 250 298 356
#     4  11  25  43  57  82 123 163 202 246 295 360
#     4  10  21  40  63  91 120 152 201 254 303 359
#     4  10  22  39  63  91 121 155 201 253 303 360
#     4  10  20  39  63  89 120 160 199 245 302 356
#     4  10  18  33  61  92 120 153 199 253 303 350
#
# _framework density 21.811202999999999
#
# number of rings (size 3 to 8) (size 9 to 14) (size 15 to 20)
#    0.000    1.750    0.000    6.750    0.000    3.500 
#    0.000   12.500    0.000    0.000    0.000    0.000 
#    0.000    0.000    0.000    0.000    0.000    0.000 
#
# Total GULP energy -396757.535289 kJ/mol
# GULP energy per Si atom -12398.672978 kJ/mol
# Density = 2.176156 g / cm^3
# Si number density = 21.811203 Si / 1000 Ang^3
#
#
#
# Elastic Constant Matrix: (Units=GPa)
#
#
# Indices 1 2 3 4 5 6 
#
# 1 161.6588 -1.1761 50.3398 0.0000 0.0000 0.0000
# 2 -1.1761 41.9409 1.0958 0.0000 0.0000 0.0000
# 3 50.3398 1.0958 98.4201 0.0000 0.0000 0.0000
# 4 0.0000 0.0000 0.0000 20.3446 0.0000 0.0000
# 5 0.0000 0.0000 0.0000 0.0000 36.4636 0.0000
# 6 0.0000 0.0000 0.0000 0.0000 0.0000 22.3621
#
#
#
# Elastic Compliance Matrix: (Units=1/GPa)
#
#
# Indices 1 2 3 4 5 6 
#
# 1 0.007362 0.000305 -0.003769 0.000000 0.000000 0.000000
# 2 0.000305 0.023863 -0.000422 0.000000 0.000000 0.000000
# 3 -0.003769 -0.000422 0.012093 0.000000 0.000000 0.000000
# 4 0.000000 0.000000 0.000000 0.049153 0.000000 0.000000
# 5 0.000000 0.000000 0.000000 0.000000 0.027425 0.000000
# 6 0.000000 0.000000 0.000000 0.000000 0.000000 0.044718
#
#
# Mechanical properties :
#
#
# Convention : Reuss Voigt Hill
#
# Bulk Modulus (GPa) = 28.13241 44.72655 36.42948
# Shear Modulus (GPa) = 27.13956 32.61808 29.87882
#
# Velocity S-wave (km/s) = 3.53128 3.87133 3.70521
# Velocity P-wave (km/s) = 5.43624 6.36661 5.91973
#
# Compressibility (1/GPa) = 0.03554618
#
# Stress axis : x y z
#
# Youngs Moduli (GPa) = 135.83916 41.90654 82.69358
#
# Poissons Ratio (x) = -0.01278 0.31165
# Poissons Ratio (y) = -0.04142 0.03487
# Poissons Ratio (z) = 0.51194 0.01767
#
# Static dielectric constant tensor:
#      x y z
#    x 4.253740 0.000000 0.000000 
#    y 0.000000 3.608100 0.000000 
#    z 0.000000 0.000000 3.827260 
# 
# 
# High freq. dielectric constant tensor:
#      x y z
#    x 1.874920 0.000000 0.000000 
#    y 0.000000 1.829430 0.000000 
#    z 0.000000 0.000000 1.857530 
# 
# From -- ./inp_files/4312.got.cif
#   From: 2010.03.12/outbox.cif.g09.slc.cpg/sg18_3_cif.got.tgz:4312.got - 2010.04.10 18:53:55.
