data_PCOD8155530
_publ_section_title
;
Structure prediction by ZEFSAII (Michael W. Deem and Ramdas Pophale) SiO2 
 PCOD8155530
Probable space group: P 2 2 21
;
_chemical_formula_sum "Si O2"
_cell_formula_units_Z 20
_cell_length_a 11.533224
_cell_length_b 6.608739
_cell_length_c 13.510827
_cell_angle_alpha 90.000000
_cell_angle_beta 90.000000
_cell_angle_gamma 90.000000
_cell_volume 1029.796142
_symmetry_space_group_name_H-M "P 2 2 21"
_symmetry_group_IT_number 17
_symmetry_cell_setting 'orthorhombic'
loop_
_space_group_symop_operation_xyz
x,y,z
-x,-y,1/2+z
x,-y,-z
-x,y,1/2-z
loop_
_atom_site_type_symbol
_atom_site_label
_atom_site_fract_x
_atom_site_fract_y
_atom_site_fract_z
Si Si1 0.896547 0.725459 0.323894
Si Si2 0.125270 0.000000 0.000000
Si Si3 0.311659 0.981102 0.247877
Si Si4 0.248723 0.666914 0.873247
Si Si5 0.486811 0.881723 0.403320
Si Si6 0.550379 0.500000 0.500000
O O1 0.943059 0.872299 0.414220
O O2 0.799854 0.839181 0.259847
O O3 0.844210 0.513446 0.363111
O O4 0.000000 0.672761 0.250000
O O5 0.204294 0.166832 0.050459
O O6 0.366999 0.963790 0.356835
O O7 0.405652 0.898586 0.170525
O O8 0.275247 0.215710 0.229877
O O9 0.370571 0.595223 0.914754
O O10 0.467974 0.652367 0.439990
O O11 0.522757 0.000000 0.500000
#
# Coordination Sequence:
#
# PCOD8155530 Si02
#       6
#     4   2   4   4   4   2
#     4  11  23  40  65  96 125 169 218 263 315 374
#     4  10  20  38  66  92 120 156 212 266 308 370
#     4  10  23  40  60  94 130 158 210 262 320 380
#     4  11  19  37  66  92 121 159 215 265 302 377
#     4  11  22  38  62  94 124 164 206 257 323 382
#     4  12  18  34  66  88 118 164 214 258 302 382
#
# _framework density 19.421320999999999
#
# number of rings (size 3 to 8) (size 9 to 14) (size 15 to 20)
#    0.000    1.200    6.000    1.200    1.400    4.800 
#    1.800    0.000    4.400    0.000    0.000    0.000 
#    0.000    0.000    0.000    0.000    0.000    0.000 
#
# Total GULP energy -247839.689155 kJ/mol
# GULP energy per Si atom -12391.984458 kJ/mol
# Density = 1.937712 g / cm^3
# Si number density = 19.421321 Si / 1000 Ang^3
#
#
#
# Elastic Constant Matrix: (Units=GPa)
#
#
# Indices 1 2 3 4 5 6 
#
# 1 63.3699 27.8607 32.4156 0.0000 0.0000 0.0000
# 2 27.8607 129.0779 37.8455 0.0000 0.0000 0.0000
# 3 32.4156 37.8455 78.0708 0.0000 0.0000 0.0000
# 4 0.0000 0.0000 0.0000 33.6565 0.0000 0.0000
# 5 0.0000 0.0000 0.0000 0.0000 22.2068 0.0000
# 6 0.0000 0.0000 0.0000 0.0000 0.0000 20.5009
#
#
#
# Elastic Compliance Matrix: (Units=1/GPa)
#
#
# Indices 1 2 3 4 5 6 
#
# 1 0.020585 -0.002258 -0.007453 0.000000 0.000000 0.000000
# 2 -0.002258 0.009279 -0.003560 0.000000 0.000000 0.000000
# 3 -0.007453 -0.003560 0.017629 0.000000 0.000000 0.000000
# 4 0.000000 0.000000 0.000000 0.029712 0.000000 0.000000
# 5 0.000000 0.000000 0.000000 0.000000 0.045031 0.000000
# 6 0.000000 0.000000 0.000000 0.000000 0.000000 0.048778
#
#
# Mechanical properties :
#
#
# Convention : Reuss Voigt Hill
#
# Bulk Modulus (GPa) = 47.73014 51.86245 49.79629
# Shear Modulus (GPa) = 24.44509 26.76597 25.60553
#
# Velocity S-wave (km/s) = 3.55163 3.71640 3.63495
# Velocity P-wave (km/s) = 6.43803 6.72141 6.58125
#
# Compressibility (1/GPa) = 0.02095112
#
# Stress axis : x y z
#
# Youngs Moduli (GPa) = 48.57821 107.77567 56.72446
#
# Poissons Ratio (x) = 0.24337 0.42274
# Poissons Ratio (y) = 0.10970 0.20195
# Poissons Ratio (z) = 0.36203 0.38371
#
# Static dielectric constant tensor:
#      x y z
#    x 3.246950 0.000000 0.000000 
#    y 0.000000 4.344050 0.000000 
#    z 0.000000 0.000000 3.569960 
# 
# 
# High freq. dielectric constant tensor:
#      x y z
#    x 1.716010 0.000000 0.000000 
#    y 0.000000 1.777420 0.000000 
#    z 0.000000 0.000000 1.752570 
# 
# From -- ./inp_files/7653.got.cif
#   From: 2010.03.12/outbox.cif.g09.slc.cpg/sg17_4_cif.got.tgz:7653.got - 2010.04.10 18:46:23.
