data_PCOD8155367
_publ_section_title
;
Structure prediction by ZEFSAII (Michael W. Deem and Ramdas Pophale) SiO2 
 PCOD8155367
Probable space group: P 2 2 21
;
_chemical_formula_sum "Si O2"
_cell_formula_units_Z 20
_cell_length_a 15.666924
_cell_length_b 11.201509
_cell_length_c 5.781714
_cell_angle_alpha 90.000000
_cell_angle_beta 90.000000
_cell_angle_gamma 90.000000
_cell_volume 1014.651435
_symmetry_space_group_name_H-M "P 2 2 21"
_symmetry_group_IT_number 17
_symmetry_cell_setting 'orthorhombic'
loop_
_space_group_symop_operation_xyz
x,y,z
-x,-y,1/2+z
x,-y,-z
-x,y,1/2-z
loop_
_atom_site_type_symbol
_atom_site_label
_atom_site_fract_x
_atom_site_fract_y
_atom_site_fract_z
Si Si1 0.952096 0.500000 0.000000
Si Si2 0.421773 0.873718 0.398672
Si Si3 0.746436 0.124656 0.592272
Si Si4 0.289634 0.500000 0.000000
Si Si5 0.191624 0.662903 0.345731
Si Si6 0.329057 0.290193 0.281846
O O1 0.896646 0.620220 0.039670
O O2 0.000000 0.480578 0.250000
O O3 0.500000 0.822831 0.250000
O O4 0.336028 0.895364 0.253260
O O5 0.409602 0.773032 0.596468
O O6 0.451345 0.000000 0.500000
O O7 0.816295 0.203518 0.733477
O O8 0.719071 0.190912 0.362765
O O9 0.786002 0.000000 0.500000
O O10 0.222273 0.430363 0.843868
O O11 0.353364 0.594442 0.874323
O O12 0.264451 0.658464 0.533858
#
# Coordination Sequence:
#
# PCOD8155367 Si02
#       6
#     2   4   4   2   4   4
#     4  12  25  40  66 104 137 162 214 274 343 398
#     4  11  22  34  53  89 125 158 206 275 333 380
#     4  10  20  36  59  91 121 162 215 258 312 380
#     4  10  17  36  62  86 121 160 210 262 309 378
#     4  10  21  36  60  96 122 161 203 262 312 383
#     4  10  20  34  60  87 118 158 215 251 322 375
#
# _framework density 19.711203999999999
#
# number of rings (size 3 to 8) (size 9 to 14) (size 15 to 20)
#    0.000    1.600    4.000    1.200    2.800    0.000 
#    0.000    0.000    0.000    0.000  192.400    0.000 
#    0.000    0.000    0.000    0.000    0.000    0.000 
#
# Total GULP energy -247794.679636 kJ/mol
# GULP energy per Si atom -12389.733982 kJ/mol
# Density = 1.966634 g / cm^3
# Si number density = 19.711204 Si / 1000 Ang^3
#
#
#
# Elastic Constant Matrix: (Units=GPa)
#
#
# Indices 1 2 3 4 5 6 
#
# 1 68.0158 46.4247 35.5458 0.0000 0.0000 0.0000
# 2 46.4247 166.6271 64.1914 0.0000 0.0000 0.0000
# 3 35.5458 64.1914 116.5612 0.0000 0.0000 0.0000
# 4 0.0000 0.0000 0.0000 41.8119 0.0000 0.0000
# 5 0.0000 0.0000 0.0000 0.0000 46.0905 0.0000
# 6 0.0000 0.0000 0.0000 0.0000 0.0000 48.1584
#
#
#
# Elastic Compliance Matrix: (Units=1/GPa)
#
#
# Indices 1 2 3 4 5 6 
#
# 1 0.019348 -0.003957 -0.003721 0.000000 0.000000 0.000000
# 2 -0.003957 0.008427 -0.003434 0.000000 0.000000 0.000000
# 3 -0.003721 -0.003434 0.011605 0.000000 0.000000 0.000000
# 4 0.000000 0.000000 0.000000 0.023917 0.000000 0.000000
# 5 0.000000 0.000000 0.000000 0.000000 0.021696 0.000000
# 6 0.000000 0.000000 0.000000 0.000000 0.000000 0.020765
#
#
# Mechanical properties :
#
#
# Convention : Reuss Voigt Hill
#
# Bulk Modulus (GPa) = 58.28989 71.50311 64.89650
# Shear Modulus (GPa) = 37.39691 40.88164 39.13928
#
# Velocity S-wave (km/s) = 4.36046 4.55909 4.46088
# Velocity P-wave (km/s) = 7.41536 8.00424 7.71542
#
# Compressibility (1/GPa) = 0.01715563
#
# Stress axis : x y z
#
# Youngs Moduli (GPa) = 51.68465 118.66809 86.16928
#
# Poissons Ratio (x) = 0.46959 0.32064
# Poissons Ratio (y) = 0.20453 0.29591
# Poissons Ratio (z) = 0.19232 0.40751
#
# Static dielectric constant tensor:
#      x y z
#    x 3.184250 0.000000 0.000000 
#    y 0.000000 3.933510 0.000000 
#    z 0.000000 0.000000 4.044050 
# 
# 
# High freq. dielectric constant tensor:
#      x y z
#    x 1.708190 0.000000 0.000000 
#    y 0.000000 1.779910 0.000000 
#    z 0.000000 0.000000 1.801950 
# 
# From -- ./inp_files/1480.got.cif
#   From: 2010.03.12/outbox.cif.g09.slc.cpg/sg17_1_cif.got.tgz:1480.got - 2010.04.10 18:46:23.
