data_PCOD8155977
_publ_section_title
;
Structure prediction by ZEFSAII (Michael W. Deem and Ramdas Pophale) SiO2 
 PCOD8155977
Probable space group: P 21 21 2
;
_chemical_formula_sum "Si O2"
_cell_formula_units_Z 22
_cell_length_a 15.679293
_cell_length_b 7.275637
_cell_length_c 9.058597
_cell_angle_alpha 90.000000
_cell_angle_beta 90.000000
_cell_angle_gamma 90.000000
_cell_volume 1033.376159
_symmetry_space_group_name_H-M "P 21 21 2"
_symmetry_group_IT_number 18
_symmetry_cell_setting 'orthorhombic'
loop_
_space_group_symop_operation_xyz
x,y,z
-x,-y,z
1/2+x,1/2-y,-z
1/2-x,1/2+y,-z
loop_
_atom_site_type_symbol
_atom_site_label
_atom_site_fract_x
_atom_site_fract_y
_atom_site_fract_z
Si Si1 0.725000 0.712222 0.824016
Si Si2 0.324021 0.453029 0.128369
Si Si3 0.558309 0.679554 0.665856
Si Si4 0.000000 0.500000 0.121891
Si Si5 0.406268 0.820832 0.128709
Si Si6 0.544333 0.694894 0.336090
O O1 0.656880 0.634666 0.707068
O O2 0.817009 0.611853 0.795730
O O3 0.740748 0.934615 0.810674
O O4 0.696447 0.676111 0.991565
O O5 0.394507 0.606606 0.079495
O O6 0.364097 0.324125 0.255942
O O7 0.500000 0.500000 0.680509
O O8 0.557231 0.767472 0.502604
O O9 0.527722 0.829611 0.781120
O O10 0.077929 0.440742 0.016901
O O11 0.484738 0.835729 0.244360
O O12 0.500000 0.500000 0.351044
#
# Coordination Sequence:
#
# PCOD8155977 Si02
#       6
#     4   4   4   2   4   4
#     4  10  20  37  61  96 118 163 214 272 310 376
#     4   9  19  37  63  88 127 160 215 268 323 375
#     4  11  24  41  67  93 136 174 210 262 331 388
#     4  12  22  40  64 100 122 174 222 270 308 388
#     4   9  21  36  66  87 130 163 219 266 318 378
#     4   9  19  42  63  87 127 181 202 256 336 391
#
# _framework density 21.289439999999999
#
# number of rings (size 3 to 8) (size 9 to 14) (size 15 to 20)
#    1.091    1.091    0.000    3.273    0.000    2.182 
#    0.000    7.273    0.000    0.000    0.000    0.000 
#    0.000    0.000    0.000    0.000    0.000    0.000 
#
# Total GULP energy -272574.610072 kJ/mol
# GULP energy per Si atom -12389.755003 kJ/mol
# Density = 2.124098 g / cm^3
# Si number density = 21.289440 Si / 1000 Ang^3
#
#
#
# Elastic Constant Matrix: (Units=GPa)
#
#
# Indices 1 2 3 4 5 6 
#
# 1 137.4019 49.8219 74.7664 0.0000 0.0000 0.0000
# 2 49.8219 62.5754 51.3029 0.0000 0.0000 0.0000
# 3 74.7664 51.3029 150.0408 0.0000 0.0000 0.0000
# 4 0.0000 0.0000 0.0000 23.7578 0.0000 0.0000
# 5 0.0000 0.0000 0.0000 0.0000 21.0567 0.0000
# 6 0.0000 0.0000 0.0000 0.0000 0.0000 28.4222
#
#
#
# Elastic Compliance Matrix: (Units=1/GPa)
#
#
# Indices 1 2 3 4 5 6 
#
# 1 0.011484 -0.006186 -0.003607 0.000000 0.000000 0.000000
# 2 -0.006186 0.025538 -0.005650 0.000000 0.000000 0.000000
# 3 -0.003607 -0.005650 0.010394 0.000000 0.000000 0.000000
# 4 0.000000 0.000000 0.000000 0.042091 0.000000 0.000000
# 5 0.000000 0.000000 0.000000 0.000000 0.047491 0.000000
# 6 0.000000 0.000000 0.000000 0.000000 0.000000 0.035184
#
#
# Mechanical properties :
#
#
# Convention : Reuss Voigt Hill
#
# Bulk Modulus (GPa) = 60.49548 77.97783 69.23665
# Shear Modulus (GPa) = 23.97194 26.25580 25.11387
#
# Velocity S-wave (km/s) = 3.35923 3.51562 3.43831
# Velocity P-wave (km/s) = 6.59722 7.29290 6.95377
#
# Compressibility (1/GPa) = 0.01653016
#
# Stress axis : x y z
#
# Youngs Moduli (GPa) = 87.07905 39.15792 96.20767
#
# Poissons Ratio (x) = 0.24222 0.34706
# Poissons Ratio (y) = 0.53865 0.54353
# Poissons Ratio (z) = 0.31413 0.22123
#
# Static dielectric constant tensor:
#      x y z
#    x 4.059660 0.000000 0.000000 
#    y 0.000000 3.615150 0.000000 
#    z 0.000000 0.000000 3.775080 
# 
# 
# High freq. dielectric constant tensor:
#      x y z
#    x 1.837680 0.000000 0.000000 
#    y 0.000000 1.824540 0.000000 
#    z 0.000000 0.000000 1.817130 
# 
# From -- ./inp_files/4446.got.cif
#   From: 2010.03.12/outbox.cif.g09.slc.cpg/sg18_3_cif.got.tgz:4446.got - 2010.04.10 18:53:55.
