data_PCOD8155491
_publ_section_title
;
Structure prediction by ZEFSAII (Michael W. Deem and Ramdas Pophale) SiO2 
 PCOD8155491
Probable space group: P 2 2 21
;
_chemical_formula_sum "Si O2"
_cell_formula_units_Z 16
_cell_length_a 8.804211
_cell_length_b 6.595045
_cell_length_c 13.994380
_cell_angle_alpha 90.000000
_cell_angle_beta 90.000000
_cell_angle_gamma 90.000000
_cell_volume 812.572028
_symmetry_space_group_name_H-M "P 2 2 21"
_symmetry_group_IT_number 17
_symmetry_cell_setting 'orthorhombic'
loop_
_space_group_symop_operation_xyz
x,y,z
-x,-y,1/2+z
x,-y,-z
-x,y,1/2-z
loop_
_atom_site_type_symbol
_atom_site_label
_atom_site_fract_x
_atom_site_fract_y
_atom_site_fract_z
Si Si1 0.891588 0.111474 0.902116
Si Si2 0.823691 0.891910 0.602405
Si Si3 0.912499 0.462272 0.653541
Si Si4 0.327196 0.159978 0.763757
O O1 0.020969 0.977605 0.849605
O O2 0.739379 0.120379 0.841146
O O3 0.968897 0.335544 0.913119
O O4 0.847096 0.000000 0.000000
O O5 0.844259 0.650698 0.593912
O O6 0.801695 0.000000 0.500000
O O7 0.684992 0.953583 0.672573
O O8 0.764355 0.332948 0.680796
O O9 0.000000 0.530417 0.750000
O O10 0.500000 0.226748 0.750000
#
# Coordination Sequence:
#
# PCOD8155491 Si02
#       4
#     4   4   4   4
#     4   9  19  34  56  81 107 141 185 232 276 323
#     4  10  20  35  59  83 107 141 186 237 280 323
#     4   9  18  36  59  82 109 145 187 232 279 330
#     4  10  21  35  53  82 116 150 184 220 275 337
#
# _framework density 19.690562
#
# number of rings (size 3 to 8) (size 9 to 14) (size 15 to 20)
#    0.000    2.500    0.000    3.750    0.000   11.000 
#    0.000    0.000    0.000   15.000    0.000    0.000 
#    0.000    0.000    0.000    0.000    0.000    0.000 
#
# Total GULP energy -198237.114243 kJ/mol
# GULP energy per Si atom -12389.819640 kJ/mol
# Density = 1.964575 g / cm^3
# Si number density = 19.690562 Si / 1000 Ang^3
#
#
#
# Elastic Constant Matrix: (Units=GPa)
#
#
# Indices 1 2 3 4 5 6 
#
# 1 120.8695 29.7834 50.4912 0.0000 0.0000 0.0000
# 2 29.7834 137.3760 66.6279 0.0000 0.0000 0.0000
# 3 50.4912 66.6279 112.5993 0.0000 0.0000 0.0000
# 4 0.0000 0.0000 0.0000 34.2971 0.0000 0.0000
# 5 0.0000 0.0000 0.0000 0.0000 21.7924 0.0000
# 6 0.0000 0.0000 0.0000 0.0000 0.0000 14.6363
#
#
#
# Elastic Compliance Matrix: (Units=1/GPa)
#
#
# Indices 1 2 3 4 5 6 
#
# 1 0.010180 0.000010 -0.004571 0.000000 0.000000 0.000000
# 2 0.000010 0.010209 -0.006045 0.000000 0.000000 0.000000
# 3 -0.004571 -0.006045 0.014508 0.000000 0.000000 0.000000
# 4 0.000000 0.000000 0.000000 0.029157 0.000000 0.000000
# 5 0.000000 0.000000 0.000000 0.000000 0.045888 0.000000
# 6 0.000000 0.000000 0.000000 0.000000 0.000000 0.068323
#
#
# Mechanical properties :
#
#
# Convention : Reuss Voigt Hill
#
# Bulk Modulus (GPa) = 73.07528 73.84998 73.46263
# Shear Modulus (GPa) = 24.50500 29.07463 26.78982
#
# Velocity S-wave (km/s) = 3.53158 3.84679 3.69255
# Velocity P-wave (km/s) = 7.33634 7.57081 7.45449
#
# Compressibility (1/GPa) = 0.01368452
#
# Stress axis : x y z
#
# Youngs Moduli (GPa) = 98.22837 97.95050 68.92798
#
# Poissons Ratio (x) = -0.00095 0.31505
# Poissons Ratio (y) = -0.00096 0.41670
# Poissons Ratio (z) = 0.44898 0.59215
#
# Static dielectric constant tensor:
#      x y z
#    x 3.276130 0.000000 0.000000 
#    y 0.000000 3.666090 0.000000 
#    z 0.000000 0.000000 3.485810 
# 
# 
# High freq. dielectric constant tensor:
#      x y z
#    x 1.730040 0.000000 0.000000 
#    y 0.000000 1.768480 0.000000 
#    z 0.000000 0.000000 1.772800 
# 
# From -- ./inp_files/9180.got.cif
#   From: 2010.03.12/outbox.cif.g09.slc.cpg/sg17_5_cif.got.tgz:9180.got - 2010.04.10 18:46:23.
