data_PCOD8155886
_publ_section_title
;
Structure prediction by ZEFSAII (Michael W. Deem and Ramdas Pophale) SiO2 
 PCOD8155886
Probable space group: P 21 21 2
;
_chemical_formula_sum "Si O2"
_cell_formula_units_Z 24
_cell_length_a 7.903694
_cell_length_b 12.885944
_cell_length_c 10.235703
_cell_angle_alpha 90.000000
_cell_angle_beta 90.000000
_cell_angle_gamma 90.000000
_cell_volume 1042.471122
_symmetry_space_group_name_H-M "P 21 21 2"
_symmetry_group_IT_number 18
_symmetry_cell_setting 'orthorhombic'
loop_
_space_group_symop_operation_xyz
x,y,z
-x,-y,z
1/2+x,1/2-y,-z
1/2-x,1/2+y,-z
loop_
_atom_site_type_symbol
_atom_site_label
_atom_site_fract_x
_atom_site_fract_y
_atom_site_fract_z
Si Si1 0.851577 0.130215 0.888504
Si Si2 0.110096 0.804727 0.613776
Si Si3 0.992646 0.760711 0.126360
Si Si4 0.190346 0.492211 0.473654
Si Si5 0.326672 0.062157 0.804100
Si Si6 0.122700 0.144755 0.383350
O O1 0.956518 0.155710 0.755563
O O2 0.681061 0.198799 0.892524
O O3 0.809708 0.005870 0.888340
O O4 0.970959 0.161161 0.008016
O O5 0.188339 0.691237 0.629870
O O6 0.965105 0.802280 0.507428
O O7 0.269349 0.876072 0.570655
O O8 0.147380 0.678220 0.139752
O O9 0.984984 0.835760 0.253133
O O10 0.220456 0.568571 0.349343
O O11 0.330581 0.524209 0.584381
O O12 0.000000 0.500000 0.527863
O O13 0.500000 0.000000 0.812443
#
# Coordination Sequence:
#
# PCOD8155886 Si02
#       6
#     4   4   4   4   4   4
#     4   9  20  37  59  84 116 161 205 244 302 368
#     4  10  21  37  58  86 117 157 203 245 303 375
#     4  10  20  37  59  87 117 151 203 258 300 355
#     4  10  19  36  60  86 118 157 198 247 309 375
#     4   8  16  35  60  82 112 157 201 243 300 368
#     4  11  21  36  61  91 119 153 201 257 306 357
#
# _framework density 23.022220000000001
#
# number of rings (size 3 to 8) (size 9 to 14) (size 15 to 20)
#    0.000    2.333    0.000    5.500    0.000    2.667 
#    0.000    9.167    0.000    9.000    0.000    1.167 
#    0.000    0.000    0.000    0.000    0.000    0.000 
#
# Total GULP energy -297467.370912 kJ/mol
# GULP energy per Si atom -12394.473788 kJ/mol
# Density = 2.296982 g / cm^3
# Si number density = 23.022220 Si / 1000 Ang^3
#
#
#
# Elastic Constant Matrix: (Units=GPa)
#
#
# Indices 1 2 3 4 5 6 
#
# 1 32.0618 14.4083 42.6550 0.0000 0.0000 0.0000
# 2 14.4083 43.9806 46.5646 0.0000 0.0000 0.0000
# 3 42.6550 46.5646 152.7021 0.0000 0.0000 0.0000
# 4 0.0000 0.0000 0.0000 35.6420 0.0000 0.0000
# 5 0.0000 0.0000 0.0000 0.0000 37.9260 0.0000
# 6 0.0000 0.0000 0.0000 0.0000 0.0000 25.0740
#
#
#
# Elastic Compliance Matrix: (Units=1/GPa)
#
#
# Indices 1 2 3 4 5 6 
#
# 1 0.049799 -0.002343 -0.013196 0.000000 0.000000 0.000000
# 2 -0.002343 0.033688 -0.009618 0.000000 0.000000 0.000000
# 3 -0.013196 -0.009618 0.013168 0.000000 0.000000 0.000000
# 4 0.000000 0.000000 0.000000 0.028057 0.000000 0.000000
# 5 0.000000 0.000000 0.000000 0.000000 0.026367 0.000000
# 6 0.000000 0.000000 0.000000 0.000000 0.000000 0.039882
#
#
# Mechanical properties :
#
#
# Convention : Reuss Voigt Hill
#
# Bulk Modulus (GPa) = 21.57962 48.44448 35.01205
# Shear Modulus (GPa) = 19.47632 28.06952 23.77292
#
# Velocity S-wave (km/s) = 2.91173 3.49554 3.21691
# Velocity P-wave (km/s) = 4.54950 6.11391 5.38878
#
# Compressibility (1/GPa) = 0.04634003
#
# Stress axis : x y z
#
# Youngs Moduli (GPa) = 20.08086 29.68388 75.94283
#
# Poissons Ratio (x) = 0.06955 1.00214
# Poissons Ratio (y) = 0.04705 0.73044
# Poissons Ratio (z) = 0.26499 0.28551
#
# Static dielectric constant tensor:
#      x y z
#    x 3.992660 0.000000 0.000000 
#    y 0.000000 4.096560 0.000000 
#    z 0.000000 0.000000 4.117100 
# 
# 
# High freq. dielectric constant tensor:
#      x y z
#    x 1.911420 0.000000 0.000000 
#    y 0.000000 1.903890 0.000000 
#    z 0.000000 0.000000 1.887470 
# 
# From -- ./inp_files/3165.got.cif
#   From: 2010.03.12/outbox.cif.g09.slc.cpg/sg18_2_cif.got.tgz:3165.got - 2010.04.10 18:53:55.
