data_PCOD8155696
_publ_section_title
;
Structure prediction by ZEFSAII (Michael W. Deem and Ramdas Pophale) SiO2 
 PCOD8155696
Probable space group: P 2 2 21
;
_chemical_formula_sum "Si O2"
_cell_formula_units_Z 18
_cell_length_a 8.083648
_cell_length_b 4.867379
_cell_length_c 18.435279
_cell_angle_alpha 90.000000
_cell_angle_beta 90.000000
_cell_angle_gamma 90.000000
_cell_volume 725.357779
_symmetry_space_group_name_H-M "P 2 2 21"
_symmetry_group_IT_number 17
_symmetry_cell_setting 'orthorhombic'
loop_
_space_group_symop_operation_xyz
x,y,z
-x,-y,1/2+z
x,-y,-z
-x,y,1/2-z
loop_
_atom_site_type_symbol
_atom_site_label
_atom_site_fract_x
_atom_site_fract_y
_atom_site_fract_z
Si Si1 0.124018 0.822120 0.065063
Si Si2 0.586987 0.479272 0.084924
Si Si3 0.000000 0.805868 0.750000
Si Si4 0.204918 0.975080 0.379272
Si Si5 0.244861 0.317012 0.137393
O O1 0.173302 0.501473 0.069912
O O2 0.926214 0.848835 0.063942
O O3 0.207875 0.990496 0.131675
O O4 0.203596 0.000000 0.000000
O O5 0.638547 0.771161 0.119316
O O6 0.440003 0.374806 0.138308
O O7 0.739080 0.271277 0.091915
O O8 0.532884 0.500000 0.000000
O O9 0.867264 0.605919 0.707970
O O10 0.886064 0.995228 0.802111
#
# Coordination Sequence:
#
# PCOD8155696 Si02
#       5
#     4   4   2   4   4
#     4  11  21  40  66  97 129 179 228 277 339 399
#     4  12  24  43  69 106 135 171 223 290 359 394
#     4  10  26  50  66 100 136 192 242 258 336 414
#     4  11  25  42  69  96 139 179 224 286 330 412
#     4  11  25  42  69  96 139 179 224 286 330 412
#
# _framework density 24.815341
#
# number of rings (size 3 to 8) (size 9 to 14) (size 15 to 20)
#    0.000    0.889    0.000    8.000    0.000    8.889 
#    0.000    4.444    0.000    0.000    0.000    0.000 
#    0.000    0.000    0.000    0.000    0.000    0.000 
#
# Total GULP energy -223021.342464 kJ/mol
# GULP energy per Si atom -12390.074581 kJ/mol
# Density = 2.475886 g / cm^3
# Si number density = 24.815341 Si / 1000 Ang^3
#
#
#
# Elastic Constant Matrix: (Units=GPa)
#
#
# Indices 1 2 3 4 5 6 
#
# 1 122.6301 23.3582 41.5061 0.0000 0.0000 0.0000
# 2 23.3582 87.8258 3.1452 0.0000 0.0000 0.0000
# 3 41.5061 3.1452 81.3012 0.0000 0.0000 0.0000
# 4 0.0000 0.0000 0.0000 29.5903 0.0000 0.0000
# 5 0.0000 0.0000 0.0000 0.0000 43.7383 0.0000
# 6 0.0000 0.0000 0.0000 0.0000 0.0000 37.9689
#
#
#
# Elastic Compliance Matrix: (Units=1/GPa)
#
#
# Indices 1 2 3 4 5 6 
#
# 1 0.010412 -0.002582 -0.005216 0.000000 0.000000 0.000000
# 2 -0.002582 0.012042 0.000852 0.000000 0.000000 0.000000
# 3 -0.005216 0.000852 0.014930 0.000000 0.000000 0.000000
# 4 0.000000 0.000000 0.000000 0.033795 0.000000 0.000000
# 5 0.000000 0.000000 0.000000 0.000000 0.022863 0.000000
# 6 0.000000 0.000000 0.000000 0.000000 0.000000 0.026337
#
#
# Mechanical properties :
#
#
# Convention : Reuss Voigt Hill
#
# Bulk Modulus (GPa) = 42.56587 47.53070 45.04828
# Shear Modulus (GPa) = 35.18622 37.17600 36.18111
#
# Velocity S-wave (km/s) = 3.76962 3.87474 3.82254
# Velocity P-wave (km/s) = 6.01140 6.26206 6.13801
#
# Compressibility (1/GPa) = 0.02349300
#
# Stress axis : x y z
#
# Youngs Moduli (GPa) = 96.04520 83.03960 66.98094
#
# Poissons Ratio (x) = 0.21444 0.34934
# Poissons Ratio (y) = 0.24802 -0.05710
# Poissons Ratio (z) = 0.50093 -0.07079
#
# Static dielectric constant tensor:
#      x y z
#    x 4.389190 0.000000 0.000000 
#    y 0.000000 4.342870 0.000000 
#    z 0.000000 0.000000 4.584480 
# 
# 
# High freq. dielectric constant tensor:
#      x y z
#    x 1.991790 0.000000 0.000000 
#    y 0.000000 1.991620 0.000000 
#    z 0.000000 0.000000 1.970540 
# 
# From -- ./inp_files/9215.got.cif
#   From: 2010.03.12/outbox.cif.g09.slc.cpg/sg17_5_cif.got.tgz:9215.got - 2010.04.10 18:46:23.
