data_PCOD8155052
_publ_section_title
;
Structure prediction by ZEFSAII (Michael W. Deem and Ramdas Pophale) SiO2 
 PCOD8155052
Probable space group: C 2/C
;
_chemical_formula_sum "Si O2"
_cell_formula_units_Z 40
_cell_length_a 8.030698
_cell_length_b 11.939564
_cell_length_c 18.873592
_cell_angle_alpha 90.000000
_cell_angle_beta 107.945517
_cell_angle_gamma 90.000000
_cell_volume 1721.617293
_symmetry_space_group_name_H-M "C 2/C"
_symmetry_group_IT_number 15
_symmetry_cell_setting 'monoclinic'
loop_
_space_group_symop_operation_xyz
x,y,z
-x,y,1/2-z
-x,-y,-z
x,-y,1/2+z
1/2+x,1/2+y,z
1/2-x,1/2+y,1/2-z
1/2-x,1/2-y,-z
1/2+x,1/2-y,1/2+z
loop_
_atom_site_type_symbol
_atom_site_label
_atom_site_fract_x
_atom_site_fract_y
_atom_site_fract_z
Si Si1 0.771543 0.488106 0.359963
Si Si2 0.208152 0.604552 0.784199
Si Si3 0.563492 0.809822 0.682989
Si Si4 0.780075 0.735932 0.922042
Si Si5 0.444278 0.466748 0.913744
O O1 0.706456 0.456183 0.272631
O O2 0.909006 0.590089 0.369816
O O3 0.868900 0.382604 0.411470
O O4 0.608686 0.526729 0.384432
O O5 0.261379 0.735436 0.788570
O O6 0.282814 0.543478 0.864703
O O7 0.000000 0.597712 0.750000
O O8 0.500000 0.861533 0.750000
O O9 0.413616 0.726919 0.636125
O O10 0.888531 0.837414 0.904003
O O11 0.750000 0.750000 0.000000
O O12 0.500000 0.500000 0.000000
#
# Coordination Sequence:
#
# PCOD8155052 Si02
#       5
#     8   8   8   8   8
#     4  12  26  46  76 108 145 199 246 304 375 442
#     4  12  26  47  76 111 147 199 256 311 375 447
#     4  12  25  49  70 107 149 190 248 309 366 443
#     4  12  25  49  73 105 154 191 242 310 371 441
#     4  12  25  51  77 109 153 198 247 312 379 446
#
# _framework density 23.233967
#
# number of rings (size 3 to 8) (size 9 to 14) (size 15 to 20)
#    0.000    0.000    6.000    3.600    2.800    0.800 
#    3.600    2.000    0.000    0.000    0.000    0.000 
#    0.000    0.000    0.000    0.000    0.000    0.000 
#
# Total GULP energy -248027.061946 kJ/mol
# GULP energy per Si atom -12401.353097 kJ/mol
# Density = 2.318109 g / cm^3
# Si number density = 23.233967 Si / 1000 Ang^3
#
#
#
# Elastic Constant Matrix: (Units=GPa)
#
#
# Indices 1 2 3 4 5 6 
#
# 1 130.3523 65.0786 62.2510 0.0000 -16.7999 0.0000
# 2 65.0786 164.7977 36.1289 0.0000 -25.6777 0.0000
# 3 62.2510 36.1289 148.4935 0.0000 -16.7693 0.0000
# 4 0.0000 0.0000 0.0000 43.8120 0.0000 -10.3308
# 5 -16.7999 -25.6777 -16.7693 0.0000 33.4029 0.0000
# 6 0.0000 0.0000 0.0000 -10.3308 0.0000 39.1579
#
#
#
# Elastic Compliance Matrix: (Units=1/GPa)
#
#
# Indices 1 2 3 4 5 6 
#
# 1 0.011365 -0.003480 -0.003789 0.000000 0.001139 0.000000
# 2 -0.003480 0.008148 -0.000015 0.000000 0.004506 0.000000
# 3 -0.003789 -0.000015 0.008597 0.000000 0.002399 0.000000
# 4 0.000000 0.000000 0.000000 0.024339 0.000000 0.006421
# 5 0.001139 0.004506 0.002399 0.000000 0.035178 0.000000
# 6 0.000000 0.000000 0.000000 0.006421 0.000000 0.027232
#
#
# Mechanical properties :
#
#
# Convention : Reuss Voigt Hill
#
# Bulk Modulus (GPa) = 73.84227 85.61785 79.73006
# Shear Modulus (GPa) = 37.32994 41.95356 39.64175
#
# Velocity S-wave (km/s) = 4.01271 4.25396 4.13510
# Velocity P-wave (km/s) = 7.30207 7.81400 7.56236
#
# Compressibility (1/GPa) = 0.01354238
#
# Stress axis : x y z
#
# Youngs Moduli (GPa) = 87.98761 122.73653 116.31563
#
# Poissons Ratio (x) = 0.42712 0.44075
# Poissons Ratio (y) = 0.30620 0.00170
# Poissons Ratio (z) = 0.33340 0.00180
#
# Static dielectric constant tensor:
#      x y z
#    x 4.005550 0.000000 -0.254300 
#    y 0.000000 4.652380 0.000000 
#    z -0.254300 0.000000 4.166110 
# 
# 
# High freq. dielectric constant tensor:
#      x y z
#    x 1.909800 0.000000 -0.013750 
#    y 0.000000 1.940770 0.000000 
#    z -0.013750 0.000000 1.921950 
# 
# From -- ./inp_files/187967.got.cif
#   From: 2010.06.25/outbox.cif.g09.slc.cpg/sg15_94_cif.got.tgz:187967.got - 2010.06.28 07:06:18.
