data_PCOD8155921
_publ_section_title
;
Structure prediction by ZEFSAII (Michael W. Deem and Ramdas Pophale) SiO2 
 PCOD8155921
Probable space group: P 21 21 2
;
_chemical_formula_sum "Si O2"
_cell_formula_units_Z 20
_cell_length_a 8.775223
_cell_length_b 13.929472
_cell_length_c 7.401000
_cell_angle_alpha 90.000000
_cell_angle_beta 90.000000
_cell_angle_gamma 90.000000
_cell_volume 904.655485
_symmetry_space_group_name_H-M "P 21 21 2"
_symmetry_group_IT_number 18
_symmetry_cell_setting 'orthorhombic'
loop_
_space_group_symop_operation_xyz
x,y,z
-x,-y,z
1/2+x,1/2-y,-z
1/2-x,1/2+y,-z
loop_
_atom_site_type_symbol
_atom_site_label
_atom_site_fract_x
_atom_site_fract_y
_atom_site_fract_z
Si Si1 0.376469 0.228605 0.413134
Si Si2 0.000000 0.000000 0.037282
Si Si3 0.277009 0.044832 0.254709
Si Si4 0.203898 0.323741 0.708787
Si Si5 0.500000 0.000000 0.960897
Si Si6 0.745294 0.637092 0.110226
O O1 0.308814 0.120586 0.413220
O O2 0.348682 0.275347 0.609116
O O3 0.554439 0.229421 0.366839
O O4 0.278016 0.288448 0.268606
O O5 0.890137 0.940416 0.170860
O O6 0.094976 0.928385 0.910607
O O7 0.299498 0.937505 0.332885
O O8 0.396535 0.066008 0.092687
O O9 0.222112 0.306998 0.922717
O O10 0.391757 0.930576 0.841619
#
# Coordination Sequence:
#
# PCOD8155921 Si02
#       6
#     4   2   4   4   2   4
#     4  12  24  42  69  94 129 172 225 265 318 399
#     4   8  20  36  64  96 126 168 208 266 326 374
#     4  10  19  42  66  85 138 171 201 274 334 372
#     4  10  25  44  61 102 127 172 219 263 332 380
#     4   8  16  42  62  90 126 172 208 256 328 382
#     4  10  22  43  66  96 131 172 218 262 330 387
#
# _framework density 22.107863999999999
#
# number of rings (size 3 to 8) (size 9 to 14) (size 15 to 20)
#    0.000    2.400    4.000    0.000    8.400    0.000 
#    7.200    0.000    0.000    0.000    0.000    0.000 
#    0.000    0.000    0.000    0.000    0.000    0.000 
#
# Total GULP energy -247944.133987 kJ/mol
# GULP energy per Si atom -12397.206699 kJ/mol
# Density = 2.205755 g / cm^3
# Si number density = 22.107864 Si / 1000 Ang^3
#
#
#
# Elastic Constant Matrix: (Units=GPa)
#
#
# Indices 1 2 3 4 5 6 
#
# 1 125.4724 21.2024 10.9583 0.0000 0.0000 0.0000
# 2 21.2024 75.9365 16.1401 0.0000 0.0000 0.0000
# 3 10.9583 16.1401 51.2739 0.0000 0.0000 0.0000
# 4 0.0000 0.0000 0.0000 29.8078 0.0000 0.0000
# 5 0.0000 0.0000 0.0000 0.0000 20.1759 0.0000
# 6 0.0000 0.0000 0.0000 0.0000 0.0000 33.8973
#
#
#
# Elastic Compliance Matrix: (Units=1/GPa)
#
#
# Indices 1 2 3 4 5 6 
#
# 1 0.008426 -0.002111 -0.001136 0.000000 0.000000 0.000000
# 2 -0.002111 0.014642 -0.004158 0.000000 0.000000 0.000000
# 3 -0.001136 -0.004158 0.021055 0.000000 0.000000 0.000000
# 4 0.000000 0.000000 0.000000 0.033548 0.000000 0.000000
# 5 0.000000 0.000000 0.000000 0.000000 0.049564 0.000000
# 6 0.000000 0.000000 0.000000 0.000000 0.000000 0.029501
#
#
# Mechanical properties :
#
#
# Convention : Reuss Voigt Hill
#
# Bulk Modulus (GPa) = 34.11541 38.80938 36.46240
# Shear Modulus (GPa) = 27.57600 30.40168 28.98884
#
# Velocity S-wave (km/s) = 3.53560 3.71233 3.62504
# Velocity P-wave (km/s) = 5.66852 5.99732 5.83524
#
# Compressibility (1/GPa) = 0.02931226
#
# Stress axis : x y z
#
# Youngs Moduli (GPa) = 118.68236 68.29627 47.49521
#
# Poissons Ratio (x) = 0.14418 0.05397
# Poissons Ratio (y) = 0.25055 0.19748
# Poissons Ratio (z) = 0.13485 0.28397
#
# Static dielectric constant tensor:
#      x y z
#    x 4.341670 0.000000 0.000000 
#    y 0.000000 3.862790 0.000000 
#    z 0.000000 0.000000 3.567620 
# 
# 
# High freq. dielectric constant tensor:
#      x y z
#    x 1.890570 0.000000 0.000000 
#    y 0.000000 1.861670 0.000000 
#    z 0.000000 0.000000 1.833740 
# 
# From -- ./inp_files/3107.got.cif
#   From: 2010.03.12/outbox.cif.g09.slc.cpg/sg18_2_cif.got.tgz:3107.got - 2010.04.10 18:53:55.
