data_PCOD8155413
_publ_section_title
;
Structure prediction by ZEFSAII (Michael W. Deem and Ramdas Pophale) SiO2 
 PCOD8155413
Probable space group: P 2 2 21
;
_chemical_formula_sum "Si O2"
_cell_formula_units_Z 32
_cell_length_a 5.067795
_cell_length_b 13.747196
_cell_length_c 24.609282
_cell_angle_alpha 90.000000
_cell_angle_beta 90.000000
_cell_angle_gamma 90.000000
_cell_volume 1714.478748
_symmetry_space_group_name_H-M "P 2 2 21"
_symmetry_group_IT_number 17
_symmetry_cell_setting 'orthorhombic'
loop_
_space_group_symop_operation_xyz
x,y,z
-x,-y,1/2+z
x,-y,-z
-x,y,1/2-z
loop_
_atom_site_type_symbol
_atom_site_label
_atom_site_fract_x
_atom_site_fract_y
_atom_site_fract_z
Si Si1 0.487967 0.373731 0.598793
Si Si2 0.001533 0.913699 0.186396
Si Si3 0.027062 0.297275 0.072981
Si Si4 0.550393 0.933657 0.546786
Si Si5 0.510347 0.731539 0.990984
Si Si6 0.501451 0.788418 0.185472
Si Si7 0.985725 0.507312 0.433398
Si Si8 0.035285 0.911309 0.611932
O O1 0.526939 0.292841 0.553192
O O2 0.506366 0.317294 0.656320
O O3 0.707947 0.456177 0.590347
O O4 0.202818 0.419864 0.589678
O O5 0.755678 0.849337 0.166192
O O6 0.000000 0.924249 0.250000
O O7 0.258196 0.855375 0.166702
O O8 0.990678 0.026445 0.166860
O O9 0.312103 0.329380 0.047731
O O10 0.944607 0.403205 0.095793
O O11 0.038530 0.205722 0.115962
O O12 0.815333 0.270056 0.026500
O O13 0.617362 0.836205 0.515259
O O14 0.830965 0.965923 0.571605
O O15 0.336104 0.920822 0.593730
O O16 0.433395 0.000000 0.500000
O O17 0.500000 0.767877 0.250000
O O18 0.995439 0.500000 0.500000
#
# Coordination Sequence:
#
# PCOD8155413 Si02
#       8
#     4   4   4   4   4   4   4   4
#     4  12  22  34  57  81 106 152 186 229 279 326
#     4  10  21  39  62  83 106 144 187 236 283 331
#     4  10  20  35  49  75 114 140 177 225 262 312
#     4  10  21  33  46  75 112 149 173 210 267 333
#     4  10  19  31  48  74 108 144 178 215 258 322
#     4  10  23  41  59  84 113 141 187 239 282 331
#     4  12  21  35  55  80 114 149 189 226 269 333
#     4  10  21  35  53  76 107 143 179 221 275 326
#
# _framework density 18.664566000000001
#
# number of rings (size 3 to 8) (size 9 to 14) (size 15 to 20)
#    0.000    1.500    2.500    3.000    3.500    0.000 
#    0.000    0.000    0.000    1.500    0.000    0.000 
#    0.000    0.000    0.000    0.000    0.000    0.000 
#
# Total GULP energy -396434.780987 kJ/mol
# GULP energy per Si atom -12388.586906 kJ/mol
# Density = 1.862209 g / cm^3
# Si number density = 18.664566 Si / 1000 Ang^3
#
#
#
# Elastic Constant Matrix: (Units=GPa)
#
#
# Indices 1 2 3 4 5 6 
#
# 1 98.8456 21.9792 14.2639 0.0000 0.0000 0.0000
# 2 21.9792 91.9190 48.1975 0.0000 0.0000 0.0000
# 3 14.2639 48.1975 46.3553 0.0000 0.0000 0.0000
# 4 0.0000 0.0000 0.0000 34.2257 0.0000 0.0000
# 5 0.0000 0.0000 0.0000 0.0000 14.9826 0.0000
# 6 0.0000 0.0000 0.0000 0.0000 0.0000 28.8868
#
#
#
# Elastic Compliance Matrix: (Units=1/GPa)
#
#
# Indices 1 2 3 4 5 6 
#
# 1 0.010726 -0.001834 -0.001394 0.000000 0.000000 0.000000
# 2 -0.001834 0.024234 -0.024632 0.000000 0.000000 0.000000
# 3 -0.001394 -0.024632 0.047612 0.000000 0.000000 0.000000
# 4 0.000000 0.000000 0.000000 0.029218 0.000000 0.000000
# 5 0.000000 0.000000 0.000000 0.000000 0.066744 0.000000
# 6 0.000000 0.000000 0.000000 0.000000 0.000000 0.034618
#
#
# Mechanical properties :
#
#
# Convention : Reuss Voigt Hill
#
# Bulk Modulus (GPa) = 37.24096 45.11124 41.17610
# Shear Modulus (GPa) = 17.99717 25.79766 21.89742
#
# Velocity S-wave (km/s) = 3.10859 3.72179 3.42893
# Velocity P-wave (km/s) = 5.73416 6.53383 6.14701
#
# Compressibility (1/GPa) = 0.02685216
#
# Stress axis : x y z
#
# Youngs Moduli (GPa) = 93.23414 41.26514 21.00293
#
# Poissons Ratio (x) = 0.07568 0.02927
# Poissons Ratio (y) = 0.17099 0.51735
# Poissons Ratio (z) = 0.12992 1.01645
#
# Static dielectric constant tensor:
#      x y z
#    x 3.729160 0.000000 0.000000 
#    y 0.000000 3.326150 0.000000 
#    z 0.000000 0.000000 2.913390 
# 
# 
# High freq. dielectric constant tensor:
#      x y z
#    x 1.750550 0.000000 0.000000 
#    y 0.000000 1.735490 0.000000 
#    z 0.000000 0.000000 1.673170 
# 
# From -- ./inp_files/10498.got.cif
#   From: 2010.03.12/outbox.cif.g09.slc.cpg/sg17_6_cif.got.tgz:10498.got - 2010.04.10 18:46:23.
