data_PCOD8155725
_publ_section_title
;
Structure prediction by ZEFSAII (Michael W. Deem and Ramdas Pophale) SiO2 
 PCOD8155725
Probable space group: P 2 2 21
;
_chemical_formula_sum "Si O2"
_cell_formula_units_Z 24
_cell_length_a 13.392587
_cell_length_b 12.128365
_cell_length_c 6.684372
_cell_angle_alpha 90.000000
_cell_angle_beta 90.000000
_cell_angle_gamma 90.000000
_cell_volume 1085.743770
_symmetry_space_group_name_H-M "P 2 2 21"
_symmetry_group_IT_number 17
_symmetry_cell_setting 'orthorhombic'
loop_
_space_group_symop_operation_xyz
x,y,z
-x,-y,1/2+z
x,-y,-z
-x,y,1/2-z
loop_
_atom_site_type_symbol
_atom_site_label
_atom_site_fract_x
_atom_site_fract_y
_atom_site_fract_z
Si Si1 0.209444 0.372680 0.500367
Si Si2 0.290556 0.127320 0.999633
Si Si3 0.402598 0.899273 0.370001
Si Si4 0.601279 0.280414 0.179299
Si Si5 0.898721 0.780414 0.679299
Si Si6 0.902598 0.600727 0.370001
O O1 0.171904 0.500000 0.500000
O O2 0.324494 0.366676 0.429083
O O3 0.150967 0.287673 0.359807
O O4 0.185221 0.344687 0.732612
O O5 0.314779 0.155313 0.767388
O O6 0.349033 0.212327 0.140193
O O7 0.175506 0.133324 0.070916
O O8 0.328096 0.000000 0.000000
O O9 0.500000 0.940462 0.250000
O O10 0.439140 0.805247 0.517575
O O11 0.356816 0.000000 0.500000
O O12 0.500000 0.343485 0.250000
O O13 0.939140 0.694753 0.517576
O O14 0.000000 0.843485 0.750000
O O15 0.856816 0.500000 0.500000
O O16 0.000000 0.559538 0.250000
#
# Coordination Sequence:
#
# PCOD8155725 Si02
#       6
#     4   4   4   4   4   4
#     4  11  23  41  65  94 128 173 219 270 333 398
#     4  11  23  41  65  94 128 173 219 270 333 398
#     4  12  21  36  63  99 129 167 221 278 329 386
#     4  11  23  41  65  94 132 170 218 272 329 399
#     4  11  23  41  65  94 132 170 218 272 329 399
#     4  12  21  36  63  99 129 167 221 278 329 386
#
# _framework density 22.104662000000001
#
# number of rings (size 3 to 8) (size 9 to 14) (size 15 to 20)
#    0.000    0.667    6.667    3.000    0.000    0.000 
#    0.000    1.667    0.000    0.000    0.000    0.000 
#    0.000    0.000    0.000    0.000    0.000    0.000 
#
# Total GULP energy -297315.956134 kJ/mol
# GULP energy per Si atom -12388.164839 kJ/mol
# Density = 2.205435 g / cm^3
# Si number density = 22.104662 Si / 1000 Ang^3
#
#
#
# Elastic Constant Matrix: (Units=GPa)
#
#
# Indices 1 2 3 4 5 6 
#
# 1 153.1535 10.8663 57.8105 0.0000 0.0000 0.0000
# 2 10.8663 39.7822 18.9111 0.0000 0.0000 0.0000
# 3 57.8105 18.9111 135.6706 0.0000 0.0000 0.0000
# 4 0.0000 0.0000 0.0000 26.7835 0.0000 0.0000
# 5 0.0000 0.0000 0.0000 0.0000 47.8979 0.0000
# 6 0.0000 0.0000 0.0000 0.0000 0.0000 43.3748
#
#
#
# Elastic Compliance Matrix: (Units=1/GPa)
#
#
# Indices 1 2 3 4 5 6 
#
# 1 0.007794 -0.000589 -0.003239 0.000000 0.000000 0.000000
# 2 -0.000589 0.026965 -0.003508 0.000000 0.000000 0.000000
# 3 -0.003239 -0.003508 0.009240 0.000000 0.000000 0.000000
# 4 0.000000 0.000000 0.000000 0.037336 0.000000 0.000000
# 5 0.000000 0.000000 0.000000 0.000000 0.020878 0.000000
# 6 0.000000 0.000000 0.000000 0.000000 0.000000 0.023055
#
#
# Mechanical properties :
#
#
# Convention : Reuss Voigt Hill
#
# Bulk Modulus (GPa) = 34.09774 55.97580 45.03677
# Shear Modulus (GPa) = 33.39679 39.67913 36.53796
#
# Velocity S-wave (km/s) = 3.89118 4.24141 4.07006
# Velocity P-wave (km/s) = 5.97055 7.02596 6.51965
#
# Compressibility (1/GPa) = 0.02932746
#
# Stress axis : x y z
#
# Youngs Moduli (GPa) = 128.30758 37.08482 108.22703
#
# Poissons Ratio (x) = 0.02185 0.35053
# Poissons Ratio (y) = 0.07560 0.37962
# Poissons Ratio (z) = 0.41557 0.13008
#
# Static dielectric constant tensor:
#      x y z
#    x 3.968300 0.000000 0.000000 
#    y 0.000000 3.571490 0.000000 
#    z 0.000000 0.000000 4.568170 
# 
# 
# High freq. dielectric constant tensor:
#      x y z
#    x 1.866510 0.000000 0.000000 
#    y 0.000000 1.831340 0.000000 
#    z 0.000000 0.000000 1.895080 
# 
# From -- ./inp_files/2180.got.cif
#   From: 2010.03.12/outbox.cif.g09.slc.cpg/sg17_2_cif.got.tgz:2180.got - 2010.04.10 18:46:23.
