data_PCOD8155205
_publ_section_title
;
Structure prediction by ZEFSAII (Michael W. Deem and Ramdas Pophale) SiO2 
 PCOD8155205
Probable space group: C 2/C
;
_chemical_formula_sum "Si O2"
_cell_formula_units_Z 64
_cell_length_a 28.010455
_cell_length_b 8.245795
_cell_length_c 27.963106
_cell_angle_alpha 90.000000
_cell_angle_beta 150.352245
_cell_angle_gamma 90.000000
_cell_volume 3194.850356
_symmetry_space_group_name_H-M "C 2/C"
_symmetry_group_IT_number 15
_symmetry_cell_setting 'monoclinic'
loop_
_space_group_symop_operation_xyz
x,y,z
-x,y,1/2-z
-x,-y,-z
x,-y,1/2+z
1/2+x,1/2+y,z
1/2-x,1/2+y,1/2-z
1/2-x,1/2-y,-z
1/2+x,1/2-y,1/2+z
loop_
_atom_site_type_symbol
_atom_site_label
_atom_site_fract_x
_atom_site_fract_y
_atom_site_fract_z
Si Si1 0.679030 0.774016 0.366556
Si Si2 0.120285 0.145291 0.122688
Si Si3 0.583954 0.094295 0.263277
Si Si4 0.918171 0.770857 0.419669
Si Si5 0.619812 0.811373 0.899157
Si Si6 0.201807 0.982711 0.960201
Si Si7 0.187171 0.622087 0.257675
Si Si8 0.272088 0.251413 0.696562
O O1 0.766894 0.868078 0.468816
O O2 0.645554 0.625408 0.371477
O O3 0.714633 0.704332 0.347137
O O4 0.592970 0.901471 0.281893
O O5 0.210040 0.204275 0.166943
O O6 0.153654 0.145048 0.206995
O O7 0.091646 0.962804 0.088143
O O8 0.028767 0.264583 0.032515
O O9 0.472643 0.124525 0.152323
O O10 0.607458 0.193796 0.331140
O O11 0.655748 0.159420 0.284786
O O12 0.897771 0.688255 0.350601
O O13 0.838814 0.702786 0.387856
O O14 0.636704 0.622999 0.927512
O O15 0.708166 0.930715 0.988512
O O16 0.200805 0.430705 0.264812
#
# Coordination Sequence:
#
# PCOD8155205 Si02
#       8
#     8   8   8   8   8   8   8   8
#     4   9  18  35  56  78 110 144 178 228 282 322
#     4   9  18  34  53  74 110 143 178 227 272 320
#     4   9  18  35  54  76 112 143 175 227 277 325
#     4   9  18  34  52  78 107 142 183 222 270 329
#     4   9  18  35  54  77 111 143 179 227 276 332
#     4   9  18  35  56  79 108 142 182 225 276 332
#     4   9  18  34  53  75 108 144 178 221 278 318
#     4   9  18  34  54  76 110 143 175 230 273 321
#
# _framework density 20.032238
#
# number of rings (size 3 to 8) (size 9 to 14) (size 15 to 20)
#    0.000    3.000    0.000    0.000    0.000    1.500 
#   18.000    7.500    0.000    0.000    0.000    0.000 
#    0.000    0.000    0.000    0.000    0.000    0.000 
#
# Total GULP energy -396565.026028 kJ/mol
# GULP energy per Si atom -12392.657063 kJ/mol
# Density = 1.998664 g / cm^3
# Si number density = 20.032238 Si / 1000 Ang^3
#
#
#
# Elastic Constant Matrix: (Units=GPa)
#
#
# Indices 1 2 3 4 5 6 
#
# 1 101.8136 17.6938 49.3016 0.0000 -1.2139 -0.0001
# 2 17.6938 40.5978 26.8296 0.0001 2.1818 -0.0016
# 3 49.3016 26.8296 105.8548 0.0000 13.2542 -0.0001
# 4 0.0000 0.0001 0.0000 27.1966 0.0000 -7.0595
# 5 -1.2139 2.1818 13.2542 0.0000 25.8633 -0.0001
# 6 -0.0001 -0.0016 -0.0001 -7.0595 -0.0001 17.3187
#
#
#
# Elastic Compliance Matrix: (Units=1/GPa)
#
#
# Indices 1 2 3 4 5 6 
#
# 1 0.013175 -0.001889 -0.006149 0.000000 0.003929 0.000000
# 2 -0.001889 0.029909 -0.006811 0.000001 0.000879 0.000003
# 3 -0.006149 -0.006811 0.014961 0.000000 -0.007381 -0.000001
# 4 0.000000 0.000001 0.000000 0.041120 0.000000 0.016761
# 5 0.003929 0.000879 -0.007381 0.000000 0.042558 0.000000
# 6 0.000000 0.000003 -0.000001 0.016761 0.000000 0.064573
#
#
# Mechanical properties :
#
#
# Convention : Reuss Voigt Hill
#
# Bulk Modulus (GPa) = 35.27755 48.43514 41.85635
# Shear Modulus (GPa) = 20.37129 24.37181 22.37155
#
# Velocity S-wave (km/s) = 3.19239 3.49181 3.34545
# Velocity P-wave (km/s) = 5.58901 6.36302 5.98853
#
# Compressibility (1/GPa) = 0.02834664
#
# Stress axis : x y z
#
# Youngs Moduli (GPa) = 75.90309 33.43471 66.83913
#
# Poissons Ratio (x) = 0.06317 0.41101
# Poissons Ratio (y) = 0.14341 0.45522
# Poissons Ratio (z) = 0.46674 0.22771
#
# Static dielectric constant tensor:
#      x y z
#    x 3.626230 0.000000 0.184560 
#    y 0.000000 3.509810 0.000000 
#    z 0.184560 0.000000 3.803860 
# 
# 
# High freq. dielectric constant tensor:
#      x y z
#    x 1.764650 0.000000 0.001430 
#    y 0.000000 1.770870 0.000000 
#    z 0.001430 0.000000 1.775050 
# 
# From -- ./inp_files/320132.got.cif
#   From: 2010.06.25/outbox.cif.g09.slc.cpg/sg15_161_cif.got.tgz:320132.got - 2010.06.28 07:06:18.
