data_PCOD8155751
_publ_section_title
;
Structure prediction by ZEFSAII (Michael W. Deem and Ramdas Pophale) SiO2 
 PCOD8155751
Probable space group: P 2 2 21
;
_chemical_formula_sum "Si O2"
_cell_formula_units_Z 18
_cell_length_a 10.052083
_cell_length_b 6.566537
_cell_length_c 12.088744
_cell_angle_alpha 90.000000
_cell_angle_beta 90.000000
_cell_angle_gamma 90.000000
_cell_volume 797.946258
_symmetry_space_group_name_H-M "P 2 2 21"
_symmetry_group_IT_number 17
_symmetry_cell_setting 'orthorhombic'
loop_
_space_group_symop_operation_xyz
x,y,z
-x,-y,1/2+z
x,-y,-z
-x,y,1/2-z
loop_
_atom_site_type_symbol
_atom_site_label
_atom_site_fract_x
_atom_site_fract_y
_atom_site_fract_z
Si Si1 0.362043 0.266050 0.200569
Si Si2 0.180977 0.128407 0.397165
Si Si3 0.053939 0.500000 0.500000
Si Si4 0.814895 0.653310 0.366039
Si Si5 0.000000 0.906574 0.250000
Si Si6 0.321503 0.000000 0.000000
O O1 0.500000 0.348525 0.250000
O O2 0.280613 0.142903 0.293172
O O3 0.282453 0.465061 0.157482
O O4 0.399900 0.102213 0.103393
O O5 0.156555 0.349979 0.443194
O O6 0.241230 0.000000 0.500000
O O7 0.035726 0.043567 0.357245
O O8 0.960786 0.587362 0.404895
O O9 0.859648 0.782101 0.259151
O O10 0.759855 0.804913 0.458496
#
# Coordination Sequence:
#
# PCOD8155751 Si02
#       6
#     4   4   2   4   2   2
#     4  12  29  49  73 106 152 203 255 306 367 456
#     4  12  26  44  70 114 147 194 246 310 386 443
#     4  12  22  42  72 108 152 180 242 314 380 454
#     4  12  23  45  72 109 143 192 238 309 382 436
#     4  12  22  44  74 106 150 182 244 314 376 448
#     4  12  24  50  76 104 138 200 254 294 378 430
#
# _framework density 22.55791
#
# number of rings (size 3 to 8) (size 9 to 14) (size 15 to 20)
#    0.000    0.000    6.667    4.000    1.556    0.889 
#    4.000    0.000    0.000    0.000    0.000    0.000 
#    0.000    0.000    0.000    0.000    0.000    0.000 
#
# Total GULP energy -222998.057577 kJ/mol
# GULP energy per Si atom -12388.780976 kJ/mol
# Density = 2.250657 g / cm^3
# Si number density = 22.557910 Si / 1000 Ang^3
#
#
#
# Elastic Constant Matrix: (Units=GPa)
#
#
# Indices 1 2 3 4 5 6 
#
# 1 74.3667 33.4044 34.1446 0.0000 0.0000 0.0000
# 2 33.4044 123.9575 57.9790 0.0000 0.0000 0.0000
# 3 34.1446 57.9790 126.7875 0.0000 0.0000 0.0000
# 4 0.0000 0.0000 0.0000 47.1344 0.0000 0.0000
# 5 0.0000 0.0000 0.0000 0.0000 16.0977 0.0000
# 6 0.0000 0.0000 0.0000 0.0000 0.0000 20.9990
#
#
#
# Elastic Compliance Matrix: (Units=1/GPa)
#
#
# Indices 1 2 3 4 5 6 
#
# 1 0.016149 -0.002948 -0.003001 0.000000 0.000000 0.000000
# 2 -0.002948 0.010801 -0.004145 0.000000 0.000000 0.000000
# 3 -0.003001 -0.004145 0.010591 0.000000 0.000000 0.000000
# 4 0.000000 0.000000 0.000000 0.021216 0.000000 0.000000
# 5 0.000000 0.000000 0.000000 0.000000 0.062121 0.000000
# 6 0.000000 0.000000 0.000000 0.000000 0.000000 0.047621
#
#
# Mechanical properties :
#
#
# Convention : Reuss Voigt Hill
#
# Bulk Modulus (GPa) = 57.62973 64.01865 60.82419
# Shear Modulus (GPa) = 25.71081 30.15179 27.93130
#
# Velocity S-wave (km/s) = 3.37971 3.65997 3.52263
# Velocity P-wave (km/s) = 6.39006 6.80455 6.60056
#
# Compressibility (1/GPa) = 0.01735215
#
# Stress axis : x y z
#
# Youngs Moduli (GPa) = 61.92342 92.58777 94.42134
#
# Poissons Ratio (x) = 0.27298 0.28334
# Poissons Ratio (y) = 0.18257 0.39138
# Poissons Ratio (z) = 0.18582 0.38378
#
# Static dielectric constant tensor:
#      x y z
#    x 3.615020 0.000000 0.000000 
#    y 0.000000 4.483610 0.000000 
#    z 0.000000 0.000000 5.394090 
# 
# 
# High freq. dielectric constant tensor:
#      x y z
#    x 1.848990 0.000000 0.000000 
#    y 0.000000 1.911680 0.000000 
#    z 0.000000 0.000000 1.913320 
# 
# From -- ./inp_files/5840.got.cif
#   From: 2010.03.12/outbox.cif.g09.slc.cpg/sg17_3_cif.got.tgz:5840.got - 2010.04.10 18:46:23.
