data_PCOD8155126
_publ_section_title
;
Structure prediction by ZEFSAII (Michael W. Deem and Ramdas Pophale) SiO2 
 PCOD8155126
Probable space group: C 2/C
;
_chemical_formula_sum "Si O2"
_cell_formula_units_Z 36
_cell_length_a 27.119654
_cell_length_b 4.950975
_cell_length_c 21.568738
_cell_angle_alpha 90.000000
_cell_angle_beta 149.339284
_cell_angle_gamma 90.000000
_cell_volume 1476.828209
_symmetry_space_group_name_H-M "C 2/C"
_symmetry_group_IT_number 15
_symmetry_cell_setting 'monoclinic'
loop_
_space_group_symop_operation_xyz
x,y,z
-x,y,1/2-z
-x,-y,-z
x,-y,1/2+z
1/2+x,1/2+y,z
1/2-x,1/2+y,1/2-z
1/2-x,1/2-y,-z
1/2+x,1/2-y,1/2+z
loop_
_atom_site_type_symbol
_atom_site_label
_atom_site_fract_x
_atom_site_fract_y
_atom_site_fract_z
Si Si1 0.600135 0.664757 0.455771
Si Si2 0.531016 0.752087 0.073698
Si Si3 0.316031 0.998843 0.554181
Si Si4 0.760413 0.601476 0.721113
Si Si5 0.000000 0.232408 0.750000
O O1 0.513561 0.756544 0.406255
O O2 0.683855 0.516218 0.585685
O O3 0.560583 0.455299 0.362222
O O4 0.647951 0.935162 0.477141
O O5 0.645980 0.762955 0.208566
O O6 0.500000 0.500000 0.000000
O O7 0.500000 0.000000 0.000000
O O8 0.250000 0.750000 0.500000
O O9 0.420803 0.927089 0.699719
O O10 0.250000 0.250000 0.500000
O O11 0.789046 0.329547 0.788830
#
# Coordination Sequence:
#
# PCOD8155126 Si02
#       5
#     8   8   8   8   4
#     4  12  29  52  85 120 172 219 280 354 422 506
#     4  12  26  50  80 119 166 216 271 340 426 501
#     4  12  29  54  80 119 165 225 286 339 418 507
#     4  12  26  49  78 120 162 210 274 337 414 502
#     4  12  30  56  84 126 172 222 288 346 438 502
#
# _framework density 24.376566
#
# number of rings (size 3 to 8) (size 9 to 14) (size 15 to 20)
#    0.000    0.000    6.667    0.667    9.333    0.000 
#    0.000    0.000    0.000    0.000    0.000    0.000 
#    0.000    0.000    0.000    0.000    0.000    0.000 
#
# Total GULP energy -222990.132345 kJ/mol
# GULP energy per Si atom -12388.340686 kJ/mol
# Density = 2.432108 g / cm^3
# Si number density = 24.376566 Si / 1000 Ang^3
#
#
#
# Elastic Constant Matrix: (Units=GPa)
#
#
# Indices 1 2 3 4 5 6 
#
# 1 177.1710 64.0896 62.4142 0.0013 27.3831 -0.0022
# 2 64.0896 173.7248 63.9551 0.0101 4.9447 0.0060
# 3 62.4142 63.9551 188.1956 0.0030 18.5473 -0.0005
# 4 0.0013 0.0101 0.0030 44.1667 0.0010 9.2047
# 5 27.3831 4.9447 18.5473 0.0010 54.7505 -0.0018
# 6 -0.0022 0.0060 -0.0005 9.2047 -0.0018 28.9712
#
#
#
# Elastic Compliance Matrix: (Units=1/GPa)
#
#
# Indices 1 2 3 4 5 6 
#
# 1 0.007378 -0.002108 -0.001433 0.000000 -0.003014 0.000001
# 2 -0.002108 0.007183 -0.001843 -0.000001 0.001030 -0.000001
# 3 -0.001433 -0.001843 0.006547 0.000000 -0.001335 0.000000
# 4 0.000000 -0.000001 0.000000 0.024247 -0.000001 -0.007704
# 5 -0.003014 0.001030 -0.001335 -0.000001 0.020131 0.000001
# 6 0.000001 -0.000001 0.000000 -0.007704 0.000001 0.036965
#
#
# Mechanical properties :
#
#
# Convention : Reuss Voigt Hill
#
# Bulk Modulus (GPa) = 96.73137 102.22325 99.47731
# Shear Modulus (GPa) = 42.85712 48.81985 45.83849
#
# Velocity S-wave (km/s) = 4.19755 4.48005 4.34110
# Velocity P-wave (km/s) = 7.95367 8.29381 8.12552
#
# Compressibility (1/GPa) = 0.01033791
#
# Stress axis : x y z
#
# Youngs Moduli (GPa) = 135.54434 139.21094 152.74301
#
# Poissons Ratio (x) = 0.29350 0.21892
# Poissons Ratio (y) = 0.28577 0.28158
# Poissons Ratio (z) = 0.19427 0.25663
#
# Static dielectric constant tensor:
#      x y z
#    x 3.565960 -0.000040 -0.832120 
#    y -0.000040 4.355520 -0.000040 
#    z -0.832120 -0.000040 3.282400 
# 
# 
# High freq. dielectric constant tensor:
#      x y z
#    x 1.974080 0.000000 0.033180 
#    y 0.000000 1.983920 0.000000 
#    z 0.033180 0.000000 1.979000 
# 
# From -- ./inp_files/256834.got.cif
#   From: 2010.06.25/outbox.cif.g09.slc.cpg/sg15_129_cif.got.tgz:256834.got - 2010.06.28 07:06:18.
