data_PCOD8155270
_publ_section_title
;
Structure prediction by ZEFSAII (Michael W. Deem and Ramdas Pophale) SiO2 
 PCOD8155270
Probable space group: P 2 2 2
;
_chemical_formula_sum "Si O2"
_cell_formula_units_Z 32
_cell_length_a 8.860015
_cell_length_b 12.519306
_cell_length_c 15.036324
_cell_angle_alpha 90.000000
_cell_angle_beta 90.000000
_cell_angle_gamma 90.000000
_cell_volume 1667.847687
_symmetry_space_group_name_H-M "P 2 2 2"
_symmetry_group_IT_number 16
_symmetry_cell_setting 'orthorhombic'
loop_
_space_group_symop_operation_xyz
x,y,z
-x,-y,z
x,-y,-z
-x,y,-z
loop_
_atom_site_type_symbol
_atom_site_label
_atom_site_fract_x
_atom_site_fract_y
_atom_site_fract_z
Si Si1 0.408679 0.607698 0.709897
Si Si2 0.156541 0.907814 0.444800
Si Si3 0.158444 0.980099 0.742127
Si Si4 0.177459 0.125108 0.002014
Si Si5 0.678919 0.799487 0.179899
Si Si6 0.661487 0.848097 0.827217
Si Si7 0.688111 0.275547 0.348187
Si Si8 0.824170 0.489025 0.400202
O O1 0.500000 0.500000 0.739050
O O2 0.349903 0.675090 0.794742
O O3 0.514221 0.683979 0.647526
O O4 0.260570 0.579920 0.654703
O O5 0.268020 0.808066 0.427188
O O6 0.000000 0.878670 0.500000
O O7 0.244657 0.000000 0.500000
O O8 0.123279 0.963631 0.351200
O O9 0.218877 0.857237 0.741849
O O10 0.289124 0.033634 0.799778
O O11 0.000000 0.000000 0.795344
O O12 0.232253 0.188649 0.088550
O O13 0.259290 0.184333 0.919542
O O14 0.000000 0.141634 0.000000
O O15 0.222655 0.000000 0.000000
O O16 0.517270 0.853451 0.166022
O O17 0.719683 0.768477 0.750237
O O18 0.798010 0.373641 0.359857
O O19 0.762696 0.500000 0.500000
O O20 0.000000 0.500000 0.394161
#
# Coordination Sequence:
#
# PCOD8155270 Si02
#       8
#     4   4   4   4   4   4   4   4
#     4   9  21  43  63  91 123 155 214 272 324 375
#     4  10  20  36  54  85 123 164 205 247 302 380
#     4  11  20  33  53  84 121 161 207 248 298 370
#     4  11  22  36  57  93 130 161 206 254 295 374
#     4  11  22  36  63  88 119 174 202 251 327 363
#     4  10  21  37  56  84 123 162 207 247 298 383
#     4   9  21  38  62  84 119 166 197 258 314 368
#     4  10  22  38  62  93 115 152 213 272 319 372
#
# _framework density 19.186402999999999
#
# number of rings (size 3 to 8) (size 9 to 14) (size 15 to 20)
#    0.000    1.875    2.500    1.500    1.750    6.750 
#    0.000    1.250    0.000   21.750    0.000    8.750 
#    0.000    0.000    0.000    0.000    0.000    0.000 
#
# Total GULP energy -396437.821106 kJ/mol
# GULP energy per Si atom -12388.681910 kJ/mol
# Density = 1.914273 g / cm^3
# Si number density = 19.186403 Si / 1000 Ang^3
#
#
#
# Elastic Constant Matrix: (Units=GPa)
#
#
# Indices 1 2 3 4 5 6 
#
# 1 103.0613 52.4985 60.0720 0.0000 0.0000 0.0000
# 2 52.4985 108.5540 50.6210 0.0000 0.0000 0.0000
# 3 60.0720 50.6210 102.3057 0.0000 0.0000 0.0000
# 4 0.0000 0.0000 0.0000 23.5555 0.0000 0.0000
# 5 0.0000 0.0000 0.0000 0.0000 31.5812 0.0000
# 6 0.0000 0.0000 0.0000 0.0000 0.0000 23.5167
#
#
#
# Elastic Compliance Matrix: (Units=1/GPa)
#
#
# Indices 1 2 3 4 5 6 
#
# 1 0.016240 -0.004429 -0.007344 0.000000 0.000000 0.000000
# 2 -0.004429 0.013183 -0.003922 0.000000 0.000000 0.000000
# 3 -0.007344 -0.003922 0.016028 0.000000 0.000000 0.000000
# 4 0.000000 0.000000 0.000000 0.042453 0.000000 0.000000
# 5 0.000000 0.000000 0.000000 0.000000 0.031664 0.000000
# 6 0.000000 0.000000 0.000000 0.000000 0.000000 0.042523
#
#
# Mechanical properties :
#
#
# Convention : Reuss Voigt Hill
#
# Bulk Modulus (GPa) = 71.12659 71.14488 71.13574
# Shear Modulus (GPa) = 25.23102 25.77932 25.50517
#
# Velocity S-wave (km/s) = 3.63029 3.66952 3.64996
# Velocity P-wave (km/s) = 7.39756 7.42397 7.41077
#
# Compressibility (1/GPa) = 0.01405944
#
# Stress axis : x y z
#
# Youngs Moduli (GPa) = 61.57680 75.85493 62.39162
#
# Poissons Ratio (x) = 0.33597 0.45822
# Poissons Ratio (y) = 0.27273 0.24472
# Poissons Ratio (z) = 0.45223 0.29753
#
# Static dielectric constant tensor:
#      x y z
#    x 3.630930 0.000000 0.000000 
#    y 0.000000 3.613100 0.000000 
#    z 0.000000 0.000000 3.631700 
# 
# 
# High freq. dielectric constant tensor:
#      x y z
#    x 1.756390 0.000000 0.000000 
#    y 0.000000 1.734150 0.000000 
#    z 0.000000 0.000000 1.740640 
# 
# From -- ./inp_files/7968.got.cif
#   From: 2010.03.12/outbox.cif.g09.slc.cpg/sg16_4_cif.got.tgz:7968.got - 2010.03.31 00:51:45.
