data_PCOD8155687
_publ_section_title
;
Structure prediction by ZEFSAII (Michael W. Deem and Ramdas Pophale) SiO2 
 PCOD8155687
Probable space group: P 2 2 21
;
_chemical_formula_sum "Si O2"
_cell_formula_units_Z 18
_cell_length_a 7.609993
_cell_length_b 11.684382
_cell_length_c 8.324751
_cell_angle_alpha 90.000000
_cell_angle_beta 90.000000
_cell_angle_gamma 90.000000
_cell_volume 740.220752
_symmetry_space_group_name_H-M "P 2 2 21"
_symmetry_group_IT_number 17
_symmetry_cell_setting 'orthorhombic'
loop_
_space_group_symop_operation_xyz
x,y,z
-x,-y,1/2+z
x,-y,-z
-x,y,1/2-z
loop_
_atom_site_type_symbol
_atom_site_label
_atom_site_fract_x
_atom_site_fract_y
_atom_site_fract_z
Si Si1 0.000000 0.792157 0.750000
Si Si2 0.795290 0.813784 0.215620
Si Si3 0.500000 0.356788 0.250000
Si Si4 0.614786 0.000000 0.000000
Si Si5 0.201284 0.621556 0.524406
Si Si6 0.325764 0.161929 0.071357
O O1 0.924228 0.711754 0.888784
O O2 0.853408 0.874686 0.666415
O O3 0.741082 0.916816 0.098864
O O4 0.690193 0.829913 0.380226
O O5 0.000000 0.819441 0.250000
O O6 0.744363 0.689795 0.137972
O O7 0.629658 0.422809 0.128975
O O8 0.369586 0.285648 0.137844
O O9 0.485047 0.075777 0.112442
O O10 0.100004 0.500000 0.500000
#
# Coordination Sequence:
#
# PCOD8155687 Si02
#       6
#     2   4   2   2   4   4
#     4  10  24  46  72 110 156 196 258 320 378 456
#     4  12  27  51  74 113 152 198 256 313 390 466
#     4  10  24  46  70 110 148 192 256 318 376 456
#     4  12  28  48  78 106 148 202 256 316 390 462
#     4  11  25  46  76 111 154 200 255 318 390 457
#     4  11  25  47  75 105 154 198 251 321 370 468
#
# _framework density 24.317069
#
# number of rings (size 3 to 8) (size 9 to 14) (size 15 to 20)
#    0.000    0.889    4.444    0.667    4.667    2.667 
#    4.000    4.444    0.000    0.000    0.000    0.000 
#    0.000    0.000    0.000    0.000    0.000    0.000 
#
# Total GULP energy -223076.473025 kJ/mol
# GULP energy per Si atom -12393.137390 kJ/mol
# Density = 2.426172 g / cm^3
# Si number density = 24.317069 Si / 1000 Ang^3
#
#
#
# Elastic Constant Matrix: (Units=GPa)
#
#
# Indices 1 2 3 4 5 6 
#
# 1 115.1793 29.0448 31.5225 0.0000 0.0000 0.0000
# 2 29.0448 114.8956 49.2481 0.0000 0.0000 0.0000
# 3 31.5225 49.2481 119.1711 0.0000 0.0000 0.0000
# 4 0.0000 0.0000 0.0000 14.6226 0.0000 0.0000
# 5 0.0000 0.0000 0.0000 0.0000 37.5714 0.0000
# 6 0.0000 0.0000 0.0000 0.0000 0.0000 14.4678
#
#
#
# Elastic Compliance Matrix: (Units=1/GPa)
#
#
# Indices 1 2 3 4 5 6 
#
# 1 0.009604 -0.001627 -0.001868 0.000000 0.000000 0.000000
# 2 -0.001627 0.010853 -0.004055 0.000000 0.000000 0.000000
# 3 -0.001868 -0.004055 0.010561 0.000000 0.000000 0.000000
# 4 0.000000 0.000000 0.000000 0.068387 0.000000 0.000000
# 5 0.000000 0.000000 0.000000 0.000000 0.026616 0.000000
# 6 0.000000 0.000000 0.000000 0.000000 0.000000 0.069119
#
#
# Mechanical properties :
#
#
# Convention : Reuss Voigt Hill
#
# Bulk Modulus (GPa) = 62.82100 63.20854 63.01477
# Shear Modulus (GPa) = 23.19702 29.29440 26.24571
#
# Velocity S-wave (km/s) = 3.09194 3.47462 3.28885
# Velocity P-wave (km/s) = 6.21587 6.49209 6.35548
#
# Compressibility (1/GPa) = 0.01591824
#
# Stress axis : x y z
#
# Youngs Moduli (GPa) = 104.12727 92.14208 94.68832
#
# Poissons Ratio (x) = 0.14992 0.17687
# Poissons Ratio (y) = 0.16942 0.38392
# Poissons Ratio (z) = 0.19450 0.37360
#
# Static dielectric constant tensor:
#      x y z
#    x 4.692500 0.000000 0.000000 
#    y 0.000000 4.112980 0.000000 
#    z 0.000000 0.000000 5.062850 
# 
# 
# High freq. dielectric constant tensor:
#      x y z
#    x 1.974970 0.000000 0.000000 
#    y 0.000000 1.943390 0.000000 
#    z 0.000000 0.000000 1.989960 
# 
# From -- ./inp_files/4051.got.cif
#   From: 2010.03.12/outbox.cif.g09.slc.cpg/sg17_3_cif.got.tgz:4051.got - 2010.04.10 18:46:23.
