data_PCOD8155238
_publ_section_title
;
Structure prediction by ZEFSAII (Michael W. Deem and Ramdas Pophale) SiO2 
 PCOD8155238
Probable space group: P 2 2 2
;
_chemical_formula_sum "Si O2"
_cell_formula_units_Z 32
_cell_length_a 14.643121
_cell_length_b 12.708573
_cell_length_c 9.013537
_cell_angle_alpha 90.000000
_cell_angle_beta 90.000000
_cell_angle_gamma 90.000000
_cell_volume 1677.357693
_symmetry_space_group_name_H-M "P 2 2 2"
_symmetry_group_IT_number 16
_symmetry_cell_setting 'orthorhombic'
loop_
_space_group_symop_operation_xyz
x,y,z
-x,-y,z
x,-y,-z
-x,y,-z
loop_
_atom_site_type_symbol
_atom_site_label
_atom_site_fract_x
_atom_site_fract_y
_atom_site_fract_z
Si Si1 0.508566 0.382327 0.673332
Si Si2 0.322911 0.701646 0.330331
Si Si3 0.820898 0.118893 0.667013
Si Si4 0.958970 0.400054 0.163390
Si Si5 0.292731 0.683536 0.675388
Si Si6 0.811379 0.885311 0.674247
Si Si7 0.760503 0.517865 0.835035
Si Si8 0.005810 0.827829 0.177010
O O1 0.500000 0.500000 0.747316
O O2 0.500000 0.402264 0.500000
O O3 0.431432 0.291471 0.703254
O O4 0.603262 0.331062 0.730871
O O5 0.293119 0.680658 0.498481
O O6 0.267621 0.803901 0.270500
O O7 0.308319 0.592047 0.248631
O O8 0.750809 0.206168 0.731049
O O9 0.840520 0.140743 0.493942
O O10 0.917288 0.119205 0.751989
O O11 0.773436 0.004672 0.687537
O O12 0.851758 0.413745 0.154917
O O13 0.986578 0.291238 0.240625
O O14 0.000000 0.500000 0.253442
O O15 0.000000 0.399329 0.000000
O O16 0.229508 0.591499 0.744802
O O17 0.901110 0.884216 0.775885
O O18 0.723075 0.500000 0.000000
O O19 0.000000 0.833231 0.000000
#
# Coordination Sequence:
#
# PCOD8155238 Si02
#       8
#     4   4   4   4   4   4   4   4
#     4   9  16  32  57  82 109 143 177 220 271 327
#     4  10  20  37  58  81 109 144 185 222 270 332
#     4  10  22  37  57  79 110 145 183 232 276 314
#     4  10  19  33  48  71 108 143 177 214 265 315
#     4  10  21  36  58  82 111 143 185 222 272 333
#     4  10  21  39  56  79 110 145 184 230 276 316
#     4  12  21  33  56  81 112 145 176 224 274 319
#     4  11  22  35  56  79 108 146 190 226 266 326
#
# _framework density 19.077625000000001
#
# number of rings (size 3 to 8) (size 9 to 14) (size 15 to 20)
#    0.000    1.750    3.750    1.875    1.750    2.000 
#    0.000    1.875    0.000    3.750    0.000    0.000 
#    0.000    4.000    0.000    0.000    0.000    0.000 
#
# Total GULP energy -396469.243125 kJ/mol
# GULP energy per Si atom -12389.663848 kJ/mol
# Density = 1.903420 g / cm^3
# Si number density = 19.077625 Si / 1000 Ang^3
#
#
#
# Elastic Constant Matrix: (Units=GPa)
#
#
# Indices 1 2 3 4 5 6 
#
# 1 112.3322 49.9902 19.5810 0.0000 0.0000 0.0000
# 2 49.9902 142.9213 25.5362 0.0000 0.0000 0.0000
# 3 19.5810 25.5362 38.5025 0.0000 0.0000 0.0000
# 4 0.0000 0.0000 0.0000 14.9193 0.0000 0.0000
# 5 0.0000 0.0000 0.0000 0.0000 10.7772 0.0000
# 6 0.0000 0.0000 0.0000 0.0000 0.0000 4.6620
#
#
#
# Elastic Compliance Matrix: (Units=1/GPa)
#
#
# Indices 1 2 3 4 5 6 
#
# 1 0.010928 -0.003210 -0.003429 0.000000 0.000000 0.000000
# 2 -0.003210 0.008880 -0.004257 0.000000 0.000000 0.000000
# 3 -0.003429 -0.004257 0.030540 0.000000 0.000000 0.000000
# 4 0.000000 0.000000 0.000000 0.067027 0.000000 0.000000
# 5 0.000000 0.000000 0.000000 0.000000 0.092788 0.000000
# 6 0.000000 0.000000 0.000000 0.000000 0.000000 0.214501
#
#
# Mechanical properties :
#
#
# Convention : Reuss Voigt Hill
#
# Bulk Modulus (GPa) = 35.01854 53.77454 44.39654
# Shear Modulus (GPa) = 10.96551 19.31495 15.14023
#
# Velocity S-wave (km/s) = 2.40007 3.18534 2.82017
# Velocity P-wave (km/s) = 5.10647 6.46351 5.82465
#
# Compressibility (1/GPa) = 0.02855630
#
# Stress axis : x y z
#
# Youngs Moduli (GPa) = 91.50568 112.60981 32.74421
#
# Poissons Ratio (x) = 0.36145 0.11228
# Poissons Ratio (y) = 0.29371 0.13940
# Poissons Ratio (z) = 0.31376 0.47941
#
# Static dielectric constant tensor:
#      x y z
#    x 3.533350 0.000000 0.000000 
#    y 0.000000 4.149060 0.000000 
#    z 0.000000 0.000000 3.266300 
# 
# 
# High freq. dielectric constant tensor:
#      x y z
#    x 1.738440 0.000000 0.000000 
#    y 0.000000 1.750730 0.000000 
#    z 0.000000 0.000000 1.710320 
# 
# From -- ./inp_files/5225.got.cif
#   From: 2010.03.12/outbox.cif.g09.slc.cpg/sg16_3_cif.got.tgz:5225.got - 2010.03.31 00:51:45.
