data_PCOD8155562
_publ_section_title
;
Structure prediction by ZEFSAII (Michael W. Deem and Ramdas Pophale) SiO2 
 PCOD8155562
Probable space group: P 2 2 21
;
_chemical_formula_sum "Si O2"
_cell_formula_units_Z 24
_cell_length_a 27.263017
_cell_length_b 8.857431
_cell_length_c 5.059433
_cell_angle_alpha 90.000000
_cell_angle_beta 90.000000
_cell_angle_gamma 90.000000
_cell_volume 1221.753358
_symmetry_space_group_name_H-M "P 2 2 21"
_symmetry_group_IT_number 17
_symmetry_cell_setting 'orthorhombic'
loop_
_space_group_symop_operation_xyz
x,y,z
-x,-y,1/2+z
x,-y,-z
-x,y,1/2-z
loop_
_atom_site_type_symbol
_atom_site_label
_atom_site_fract_x
_atom_site_fract_y
_atom_site_fract_z
Si Si1 0.305321 0.324880 0.010819
Si Si2 0.881626 0.100237 0.239224
Si Si3 0.470750 0.178928 0.503013
Si Si4 0.633528 0.675981 0.000183
Si Si5 0.228155 0.099630 0.253307
Si Si6 0.942564 0.402577 0.250949
O O1 0.349640 0.285805 0.205509
O O2 0.259989 0.238959 0.145519
O O3 0.290267 0.500000 0.000000
O O4 0.324589 0.277181 0.718011
O O5 0.826230 0.155929 0.167782
O O6 0.915031 0.245381 0.266391
O O7 0.884450 0.000000 0.500000
O O8 0.902377 0.000000 0.000000
O O9 0.500000 0.242996 0.250000
O O10 0.415514 0.231975 0.541173
O O11 0.469866 0.000000 0.500000
O O12 0.500000 0.244230 0.750000
O O13 0.621541 0.500000 0.000000
O O14 0.250494 0.000000 0.500000
O O15 0.221967 0.000000 0.000000
O O16 0.926517 0.500000 0.500000
O O17 0.000000 0.366232 0.250000
O O18 0.926331 0.500000 0.000000
#
# Coordination Sequence:
#
# PCOD8155562 Si02
#       6
#     4   4   4   4   4   4
#     4  10  21  37  55  79 109 140 178 224 272 327
#     4  10  21  37  57  83 115 150 192 240 288 344
#     4  10  21  36  53  76 105 135 171 215 262 317
#     4  10  21  36  55  79 106 137 176 219 265 322
#     4  10  21  37  56  81 111 144 186 232 278 334
#     4  10  21  37  57  84 117 152 194 242 291 348
#
# _framework density 19.643899999999999
#
# number of rings (size 3 to 8) (size 9 to 14) (size 15 to 20)
#    0.000    2.000    0.000    3.000    0.000    4.000 
#    0.000    2.500    0.000    0.000    0.000    0.000 
#    0.000    0.000    0.000    0.000    0.000    0.000 
#
# Total GULP energy -297439.020143 kJ/mol
# GULP energy per Si atom -12393.292506 kJ/mol
# Density = 1.959919 g / cm^3
# Si number density = 19.643900 Si / 1000 Ang^3
#
#
#
# Elastic Constant Matrix: (Units=GPa)
#
#
# Indices 1 2 3 4 5 6 
#
# 1 84.0129 64.7096 36.5738 0.0000 0.0000 0.0000
# 2 64.7096 94.9722 51.4980 0.0000 0.0000 0.0000
# 3 36.5738 51.4980 144.3359 0.0000 0.0000 0.0000
# 4 0.0000 0.0000 0.0000 22.8477 0.0000 0.0000
# 5 0.0000 0.0000 0.0000 0.0000 43.2736 0.0000
# 6 0.0000 0.0000 0.0000 0.0000 0.0000 19.7316
#
#
#
# Elastic Compliance Matrix: (Units=1/GPa)
#
#
# Indices 1 2 3 4 5 6 
#
# 1 0.025060 -0.016901 -0.000320 0.000000 0.000000 0.000000
# 2 -0.016901 0.024454 -0.004442 0.000000 0.000000 0.000000
# 3 -0.000320 -0.004442 0.008594 0.000000 0.000000 0.000000
# 4 0.000000 0.000000 0.000000 0.043768 0.000000 0.000000
# 5 0.000000 0.000000 0.000000 0.000000 0.023109 0.000000
# 6 0.000000 0.000000 0.000000 0.000000 0.000000 0.050680
#
#
# Mechanical properties :
#
#
# Convention : Reuss Voigt Hill
#
# Bulk Modulus (GPa) = 67.65221 69.87597 68.76409
# Shear Modulus (GPa) = 22.32940 28.53987 25.43464
#
# Velocity S-wave (km/s) = 3.37517 3.81578 3.60222
# Velocity P-wave (km/s) = 7.05004 7.42038 7.23758
#
# Compressibility (1/GPa) = 0.01478148
#
# Stress axis : x y z
#
# Youngs Moduli (GPa) = 39.90384 40.89299 116.35625
#
# Poissons Ratio (x) = 0.69115 0.03721
# Poissons Ratio (y) = 0.67443 0.51689
# Poissons Ratio (z) = 0.01276 0.18166
#
# Static dielectric constant tensor:
#      x y z
#    x 3.609910 0.000000 0.000000 
#    y 0.000000 3.377290 0.000000 
#    z 0.000000 0.000000 4.029880 
# 
# 
# High freq. dielectric constant tensor:
#      x y z
#    x 1.760960 0.000000 0.000000 
#    y 0.000000 1.756600 0.000000 
#    z 0.000000 0.000000 1.791680 
# 
# From -- ./inp_files/3059.got.cif
#   From: 2010.03.12/outbox.cif.g09.slc.cpg/sg17_2_cif.got.tgz:3059.got - 2010.04.10 18:46:23.
