data_PCOD8155016
_publ_section_title
;
Structure prediction by ZEFSAII (Michael W. Deem and Ramdas Pophale) SiO2 
 PCOD8155016
Probable space group: C 2/C
;
_chemical_formula_sum "Si O2"
_cell_formula_units_Z 44
_cell_length_a 5.082206
_cell_length_b 13.823086
_cell_length_c 27.517018
_cell_angle_alpha 90.000000
_cell_angle_beta 86.495592
_cell_angle_gamma 90.000000
_cell_volume 1929.504494
_symmetry_space_group_name_H-M "C 2/C"
_symmetry_group_IT_number 15
_symmetry_cell_setting 'monoclinic'
loop_
_space_group_symop_operation_xyz
x,y,z
-x,y,1/2-z
-x,-y,-z
x,-y,1/2+z
1/2+x,1/2+y,z
1/2-x,1/2+y,1/2-z
1/2-x,1/2-y,-z
1/2+x,1/2-y,1/2+z
loop_
_atom_site_type_symbol
_atom_site_label
_atom_site_fract_x
_atom_site_fract_y
_atom_site_fract_z
Si Si1 0.343894 0.942111 0.202068
Si Si2 0.796091 0.656013 0.180414
Si Si3 0.824530 0.181727 0.115362
Si Si4 0.500000 0.705092 0.750000
Si Si5 0.578863 0.506539 0.943654
Si Si6 0.082583 0.605378 0.903591
O O1 0.500000 0.927696 0.250000
O O2 0.111574 0.863189 0.205982
O O3 0.504108 0.917522 0.151206
O O4 0.228309 0.049754 0.201092
O O5 0.593248 0.686695 0.142120
O O6 0.088792 0.661580 0.155081
O O7 0.779618 0.727799 0.226771
O O8 0.814535 0.285485 0.088612
O O9 0.824444 0.098683 0.074827
O O10 0.326774 0.536485 0.914635
O O11 0.821328 0.582365 0.937617
O O12 0.500000 0.500000 0.000000
#
# Coordination Sequence:
#
# PCOD8155016 Si02
#       6
#     8   8   8   4   8   8
#     4  12  26  43  72 104 143 191 238 288 351 428
#     4  12  26  44  70 102 144 192 231 289 352 421
#     4  12  25  47  72 101 143 185 235 291 365 425
#     4  12  28  44  68 106 144 186 250 286 342 430
#     4  12  27  48  76 109 141 184 246 306 363 432
#     4  12  26  47  75 103 146 192 232 296 368 425
#
# _framework density 22.803782999999999
#
# number of rings (size 3 to 8) (size 9 to 14) (size 15 to 20)
#    0.000    0.000    6.364    2.727    5.091    1.455 
#    0.000    0.000    0.000    0.000    0.000    0.000 
#    0.000    0.000    0.000    0.000    0.000    0.000 
#
# Total GULP energy -272896.559878 kJ/mol
# GULP energy per Si atom -12404.389085 kJ/mol
# Density = 2.275188 g / cm^3
# Si number density = 22.803783 Si / 1000 Ang^3
#
#
#
# Elastic Constant Matrix: (Units=GPa)
#
#
# Indices 1 2 3 4 5 6 
#
# 1 74.1405 25.7360 20.2785 0.0000 -7.8038 0.0000
# 2 25.7360 141.6527 49.1657 0.0000 -6.7342 0.0000
# 3 20.2785 49.1657 111.2756 0.0000 -10.4993 0.0000
# 4 0.0000 0.0000 0.0000 27.7916 0.0000 -9.6136
# 5 -7.8038 -6.7342 -10.4993 0.0000 30.9200 0.0000
# 6 0.0000 0.0000 0.0000 -9.6136 0.0000 23.7628
#
#
#
# Elastic Compliance Matrix: (Units=1/GPa)
#
#
# Indices 1 2 3 4 5 6 
#
# 1 0.014914 -0.002037 -0.001554 0.000000 0.002793 0.000000
# 2 -0.002037 0.008627 -0.003421 0.000000 0.000203 0.000000
# 3 -0.001554 -0.003421 0.011028 0.000000 0.002607 0.000000
# 4 0.000000 0.000000 0.000000 0.041837 0.000000 0.016926
# 5 0.002793 0.000203 0.002607 0.000000 0.033976 0.000000
# 6 0.000000 0.000000 0.000000 0.016926 0.000000 0.048930
#
#
# Mechanical properties :
#
#
# Convention : Reuss Voigt Hill
#
# Bulk Modulus (GPa) = 48.67874 57.49211 53.08543
# Shear Modulus (GPa) = 27.74927 31.95411 29.85169
#
# Velocity S-wave (km/s) = 3.49215 3.74741 3.62203
# Velocity P-wave (km/s) = 6.13623 6.63253 6.38920
#
# Compressibility (1/GPa) = 0.02054285
#
# Stress axis : x y z
#
# Youngs Moduli (GPa) = 67.05017 115.91801 90.68210
#
# Poissons Ratio (x) = 0.23618 0.14094
# Poissons Ratio (y) = 0.13661 0.31024
# Poissons Ratio (z) = 0.10421 0.39658
#
# Static dielectric constant tensor:
#      x y z
#    x 4.093620 0.000000 -0.139890 
#    y 0.000000 4.673380 0.000000 
#    z -0.139890 0.000000 3.987270 
# 
# 
# High freq. dielectric constant tensor:
#      x y z
#    x 1.897090 0.000000 -0.004100 
#    y 0.000000 1.926390 0.000000 
#    z -0.004100 0.000000 1.891270 
# 
# From -- ./inp_files/260442.got.cif
#   From: 2010.06.25/outbox.cif.g09.slc.cpg/sg15_131_cif.got.tgz:260442.got - 2010.06.28 07:06:18.
