data_PCOD8155567
_publ_section_title
;
Structure prediction by ZEFSAII (Michael W. Deem and Ramdas Pophale) SiO2 
 PCOD8155567
Probable space group: P 2 2 21
;
_chemical_formula_sum "Si O2"
_cell_formula_units_Z 30
_cell_length_a 5.213407
_cell_length_b 11.269153
_cell_length_c 23.862115
_cell_angle_alpha 90.000000
_cell_angle_beta 90.000000
_cell_angle_gamma 90.000000
_cell_volume 1401.915510
_symmetry_space_group_name_H-M "P 2 2 21"
_symmetry_group_IT_number 17
_symmetry_cell_setting 'orthorhombic'
loop_
_space_group_symop_operation_xyz
x,y,z
-x,-y,1/2+z
x,-y,-z
-x,y,1/2-z
loop_
_atom_site_type_symbol
_atom_site_label
_atom_site_fract_x
_atom_site_fract_y
_atom_site_fract_z
Si Si1 0.054513 0.191259 0.917218
Si Si2 0.667433 0.412433 0.049110
Si Si3 0.832495 0.264341 0.464056
Si Si4 0.221455 0.398793 0.638359
Si Si5 0.590596 0.775752 0.314572
Si Si6 0.480593 0.031303 0.312080
Si Si7 0.996989 0.940938 0.618752
Si Si8 0.000000 0.341202 0.750000
O O1 0.862254 0.301716 0.908286
O O2 0.226028 0.182604 0.863229
O O3 0.929119 0.059508 0.917384
O O4 0.214813 0.211226 0.974001
O O5 0.436884 0.318291 0.057648
O O6 0.714267 0.478101 0.108409
O O7 0.940030 0.359528 0.031575
O O8 0.573525 0.500000 0.000000
O O9 0.933986 0.163052 0.423875
O O10 0.475202 0.348306 0.665885
O O11 0.025456 0.416115 0.691740
O O12 0.408893 0.890527 0.305660
O O13 0.749731 0.744779 0.257073
O O14 0.500000 0.087969 0.250000
O O15 0.753968 0.048539 0.340959
O O16 0.249950 0.094491 0.345805
#
# Coordination Sequence:
#
# PCOD8155567 Si02
#       8
#     4   4   4   4   4   4   4   2
#     4  10  22  39  65 100 133 172 212 277 341 407
#     4  12  26  43  71  94 131 181 230 277 326 398
#     4  12  26  45  66  97 135 178 225 271 331 403
#     4  11  21  40  63  99 132 174 217 283 336 404
#     4  10  21  36  63 100 138 163 217 269 353 400
#     4  11  22  39  67  96 131 176 217 276 330 400
#     4  11  24  42  66  99 134 172 218 275 341 400
#     4  10  22  34  64  98 138 168 212 288 348 400
#
# _framework density 21.399291999999999
#
# number of rings (size 3 to 8) (size 9 to 14) (size 15 to 20)
#    0.000    1.067    2.667    4.000    7.467    0.000 
#    0.000    2.667    5.867    0.000    0.000    0.000 
#    0.000    0.000    0.000    0.000    0.000    0.000 
#
# Total GULP energy -371794.564973 kJ/mol
# GULP energy per Si atom -12393.152166 kJ/mol
# Density = 2.135059 g / cm^3
# Si number density = 21.399292 Si / 1000 Ang^3
#
#
#
# Elastic Constant Matrix: (Units=GPa)
#
#
# Indices 1 2 3 4 5 6 
#
# 1 84.7510 9.1144 9.3101 0.0000 0.0000 0.0000
# 2 9.1144 66.8107 40.5408 0.0000 0.0000 0.0000
# 3 9.3101 40.5408 113.5214 0.0000 0.0000 0.0000
# 4 0.0000 0.0000 0.0000 26.2965 0.0000 0.0000
# 5 0.0000 0.0000 0.0000 0.0000 25.3148 0.0000
# 6 0.0000 0.0000 0.0000 0.0000 0.0000 33.9252
#
#
#
# Elastic Compliance Matrix: (Units=1/GPa)
#
#
# Indices 1 2 3 4 5 6 
#
# 1 0.011998 -0.001327 -0.000510 0.000000 0.000000 0.000000
# 2 -0.001327 0.019255 -0.006768 0.000000 0.000000 0.000000
# 3 -0.000510 -0.006768 0.011268 0.000000 0.000000 0.000000
# 4 0.000000 0.000000 0.000000 0.038028 0.000000 0.000000
# 5 0.000000 0.000000 0.000000 0.000000 0.039503 0.000000
# 6 0.000000 0.000000 0.000000 0.000000 0.000000 0.029477
#
#
# Mechanical properties :
#
#
# Convention : Reuss Voigt Hill
#
# Bulk Modulus (GPa) = 39.50832 42.55707 41.03270
# Shear Modulus (GPa) = 28.54288 30.84846 29.69567
#
# Velocity S-wave (km/s) = 3.65612 3.80091 3.72922
# Velocity P-wave (km/s) = 6.02706 6.26042 6.14485
#
# Compressibility (1/GPa) = 0.02531112
#
# Stress axis : x y z
#
# Youngs Moduli (GPa) = 83.34693 51.93366 88.75014
#
# Poissons Ratio (x) = 0.06893 0.04526
# Poissons Ratio (y) = 0.11063 0.60063
# Poissons Ratio (z) = 0.04250 0.35147
#
# Static dielectric constant tensor:
#      x y z
#    x 4.515510 0.000000 0.000000 
#    y 0.000000 3.760600 0.000000 
#    z 0.000000 0.000000 4.066550 
# 
# 
# High freq. dielectric constant tensor:
#      x y z
#    x 1.844640 0.000000 0.000000 
#    y 0.000000 1.810370 0.000000 
#    z 0.000000 0.000000 1.859330 
# 
# From -- ./inp_files/9943.got.cif
#   From: 2010.03.12/outbox.cif.g09.slc.cpg/sg17_5_cif.got.tgz:9943.got - 2010.04.10 18:46:23.
