data_PCOD8155541
_publ_section_title
;
Structure prediction by ZEFSAII (Michael W. Deem and Ramdas Pophale) SiO2 
 PCOD8155541
Probable space group: P 2 2 21
;
_chemical_formula_sum "Si O2"
_cell_formula_units_Z 22
_cell_length_a 14.953891
_cell_length_b 8.022128
_cell_length_c 9.279251
_cell_angle_alpha 90.000000
_cell_angle_beta 90.000000
_cell_angle_gamma 90.000000
_cell_volume 1113.157765
_symmetry_space_group_name_H-M "P 2 2 21"
_symmetry_group_IT_number 17
_symmetry_cell_setting 'orthorhombic'
loop_
_space_group_symop_operation_xyz
x,y,z
-x,-y,1/2+z
x,-y,-z
-x,y,1/2-z
loop_
_atom_site_type_symbol
_atom_site_label
_atom_site_fract_x
_atom_site_fract_y
_atom_site_fract_z
Si Si1 0.083236 0.000000 0.000000
Si Si2 0.000000 0.785016 0.250000
Si Si3 0.701688 0.500000 0.000000
Si Si4 0.391575 0.152814 0.096829
Si Si5 0.793648 0.723618 0.556469
Si Si6 0.171035 0.415905 0.763576
Si Si7 0.589500 0.169714 0.074791
O O1 0.021345 0.896152 0.109687
O O2 0.149367 0.113409 0.097021
O O3 0.080189 0.662791 0.298463
O O4 0.761144 0.553990 0.134247
O O5 0.644279 0.336487 0.039402
O O6 0.311002 0.285439 0.098249
O O7 0.486510 0.215139 0.031424
O O8 0.406158 0.108862 0.261923
O O9 0.356708 0.000000 0.000000
O O10 0.791513 0.711426 0.382770
O O11 0.846170 0.583842 0.646212
O O12 0.624447 0.000000 0.000000
#
# Coordination Sequence:
#
# PCOD8155541 Si02
#       7
#     2   2   2   4   4   4   4
#     4  10  22  40  68  92 120 156 220 256 320 392
#     4  10  24  44  60  96 120 164 206 270 330 378
#     4  12  24  42  62  98 132 172 206 272 328 384
#     4  10  20  41  65  89 128 171 213 264 309 375
#     4  10  20  40  64  90 118 169 213 253 303 398
#     4  10  24  40  62  88 128 162 209 261 326 377
#     4  10  24  41  61  97 133 167 215 266 321 376
#
# _framework density 19.763594999999999
#
# number of rings (size 3 to 8) (size 9 to 14) (size 15 to 20)
#    0.000    1.818    2.727    0.000    2.545    6.545 
#    1.636    0.000    0.000    0.000    0.000    0.000 
#    0.000    0.000    0.000    0.000    0.000    0.000 
#
# Total GULP energy -272543.104798 kJ/mol
# GULP energy per Si atom -12388.322945 kJ/mol
# Density = 1.971861 g / cm^3
# Si number density = 19.763595 Si / 1000 Ang^3
#
#
#
# Elastic Constant Matrix: (Units=GPa)
#
#
# Indices 1 2 3 4 5 6 
#
# 1 137.2447 73.3975 50.6902 0.0000 0.0000 0.0000
# 2 73.3975 132.3719 46.8713 0.0000 0.0000 0.0000
# 3 50.6902 46.8713 97.1771 0.0000 0.0000 0.0000
# 4 0.0000 0.0000 0.0000 28.9665 0.0000 0.0000
# 5 0.0000 0.0000 0.0000 0.0000 30.6833 0.0000
# 6 0.0000 0.0000 0.0000 0.0000 0.0000 -44.0522
#
#
#
# Elastic Compliance Matrix: (Units=1/GPa)
#
#
# Indices 1 2 3 4 5 6 
#
# 1 0.011239 -0.005012 -0.003445 0.000000 0.000000 0.000000
# 2 -0.005012 0.011345 -0.002858 0.000000 0.000000 0.000000
# 3 -0.003445 -0.002858 0.013466 0.000000 0.000000 0.000000
# 4 0.000000 0.000000 0.000000 0.034523 0.000000 0.000000
# 5 0.000000 0.000000 0.000000 0.000000 0.032591 0.000000
# 6 0.000000 0.000000 0.000000 0.000000 0.000000 -0.022700
#
#
# Mechanical properties :
#
#
# Convention : Reuss Voigt Hill
#
# Bulk Modulus (GPa) = 74.51273 78.74575 76.62924
# Shear Modulus (GPa) = 46.48252 16.17516 31.32884
#
# Velocity S-wave (km/s) = 4.85493 2.86393 3.98575
# Velocity P-wave (km/s) = 8.31931 7.13207 7.74846
#
# Compressibility (1/GPa) = 0.01342053
#
# Stress axis : x y z
#
# Youngs Moduli (GPa) = 88.97546 88.14131 74.26093
#
# Poissons Ratio (x) = 0.44176 0.25584
# Poissons Ratio (y) = 0.44594 0.21223
# Poissons Ratio (z) = 0.30654 0.25190
#
# Static dielectric constant tensor:
#      x y z
#    x 3.844510 0.000000 0.000000 
#    y 0.000000 3.677510 0.000000 
#    z 0.000000 0.000000 3.871100 
# 
# 
# High freq. dielectric constant tensor:
#      x y z
#    x 1.777740 0.000000 0.000000 
#    y 0.000000 1.771460 0.000000 
#    z 0.000000 0.000000 1.772300 
# 
# From -- ./inp_files/5160.got.cif
#   From: 2010.03.12/outbox.cif.g09.slc.cpg/sg17_3_cif.got.tgz:5160.got - 2010.04.10 18:46:23.
