data_PCOD8155819
_publ_section_title
;
Structure prediction by ZEFSAII (Michael W. Deem and Ramdas Pophale) SiO2 
 PCOD8155819
Probable space group: P 21 21 2
;
_chemical_formula_sum "Si O2"
_cell_formula_units_Z 26
_cell_length_a 12.171622
_cell_length_b 13.208482
_cell_length_c 8.008466
_cell_angle_alpha 90.000000
_cell_angle_beta 90.000000
_cell_angle_gamma 90.000000
_cell_volume 1287.510268
_symmetry_space_group_name_H-M "P 21 21 2"
_symmetry_group_IT_number 18
_symmetry_cell_setting 'orthorhombic'
loop_
_space_group_symop_operation_xyz
x,y,z
-x,-y,z
1/2+x,1/2-y,-z
1/2-x,1/2+y,-z
loop_
_atom_site_type_symbol
_atom_site_label
_atom_site_fract_x
_atom_site_fract_y
_atom_site_fract_z
Si Si1 0.000000 0.500000 0.557852
Si Si2 0.625278 0.632297 0.528722
Si Si3 0.181383 0.643558 0.511676
Si Si4 0.267906 0.564449 0.865160
Si Si5 0.672987 0.345957 0.188167
Si Si6 0.837660 0.620951 0.746607
Si Si7 0.500000 0.500000 0.769028
Si Si8 0.500000 0.500000 0.278781
O O1 0.097046 0.554466 0.455148
O O2 0.045263 0.409135 0.672184
O O3 0.615240 0.750361 0.481311
O O4 0.747833 0.614141 0.597309
O O5 0.534489 0.600156 0.664821
O O6 0.598611 0.557411 0.375930
O O7 0.235183 0.622340 0.693604
O O8 0.274412 0.642060 0.371024
O O9 0.197906 0.461689 0.884561
O O10 0.396796 0.537366 0.874981
O O11 0.245275 0.628761 0.033570
O O12 0.645987 0.227954 0.164966
O O13 0.562747 0.413533 0.173624
#
# Coordination Sequence:
#
# PCOD8155819 Si02
#       8
#     2   4   4   4   4   4   2   2
#     4  10  18  36  58  78 112 156 184 224 284 326
#     4   9  18  34  58  84 109 144 184 228 280 330
#     4  10  21  37  58  81 114 150 185 229 278 332
#     4  10  21  38  58  81 114 149 181 230 284 329
#     4  11  22  37  58  87 112 145 192 231 275 336
#     4   9  20  37  56  80 115 148 185 230 277 335
#     4   9  17  36  58  81 111 142 181 231 278 327
#     4  11  19  32  58  87 111 140 187 233 272 329
#
# _framework density 20.194013999999999
#
# number of rings (size 3 to 8) (size 9 to 14) (size 15 to 20)
#    0.000    2.154    0.000    5.077    0.000    2.462 
#    0.000   15.385    0.000    0.000    0.000    0.000 
#    0.000    0.000    0.000    0.000    0.000    0.000 
#
# Total GULP energy -322114.358476 kJ/mol
# GULP energy per Si atom -12389.013788 kJ/mol
# Density = 2.014805 g / cm^3
# Si number density = 20.194014 Si / 1000 Ang^3
#
#
#
# Elastic Constant Matrix: (Units=GPa)
#
#
# Indices 1 2 3 4 5 6 
#
# 1 55.6088 29.2213 4.9841 0.0000 0.0000 0.0000
# 2 29.2213 160.2459 44.3468 0.0000 0.0000 0.0000
# 3 4.9841 44.3468 93.8165 0.0000 0.0000 0.0000
# 4 0.0000 0.0000 0.0000 20.9861 0.0000 0.0000
# 5 0.0000 0.0000 0.0000 0.0000 -5.6759 0.0000
# 6 0.0000 0.0000 0.0000 0.0000 0.0000 37.6729
#
#
#
# Elastic Compliance Matrix: (Units=1/GPa)
#
#
# Indices 1 2 3 4 5 6 
#
# 1 0.019935 -0.003845 0.000759 0.000000 0.000000 0.000000
# 2 -0.003845 0.007921 -0.003540 0.000000 0.000000 0.000000
# 3 0.000759 -0.003540 0.012292 0.000000 0.000000 0.000000
# 4 0.000000 0.000000 0.000000 0.047651 0.000000 0.000000
# 5 0.000000 0.000000 0.000000 0.000000 -0.176183 0.000000
# 6 0.000000 0.000000 0.000000 0.000000 0.000000 0.026544
#
#
# Mechanical properties :
#
#
# Convention : Reuss Voigt Hill
#
# Bulk Modulus (GPa) = 37.18117 51.86397 44.52257
# Shear Modulus (GPa) = -126.19769 26.00456 -50.09656
#
# Velocity S-wave (km/s) = -7.91380 3.59240 -4.98613
# Velocity P-wave (km/s) = 8.06551 6.55330 3.32466
#
# Compressibility (1/GPa) = 0.02689534
#
# Stress axis : x y z
#
# Youngs Moduli (GPa) = 50.16214 126.24218 81.35239
#
# Poissons Ratio (x) = 0.48542 -0.06171
# Poissons Ratio (y) = 0.19288 0.28800
# Poissons Ratio (z) = -0.03805 0.44691
#
# Static dielectric constant tensor:
#      x y z
#    x 3.600920 0.000000 0.000000 
#    y 0.000000 4.009460 0.000000 
#    z 0.000000 0.000000 3.369120 
# 
# 
# High freq. dielectric constant tensor:
#      x y z
#    x 1.787400 0.000000 0.000000 
#    y 0.000000 1.805200 0.000000 
#    z 0.000000 0.000000 1.758970 
# 
# From -- ./inp_files/3805.got.cif
#   From: 2010.03.12/outbox.cif.g09.slc.cpg/sg18_2_cif.got.tgz:3805.got - 2010.04.10 18:53:55.
