data_PCOD8155560
_publ_section_title
;
Structure prediction by ZEFSAII (Michael W. Deem and Ramdas Pophale) SiO2 
 PCOD8155560
Probable space group: P 2 2 21
;
_chemical_formula_sum "Si O2"
_cell_formula_units_Z 16
_cell_length_a 10.484277
_cell_length_b 14.515291
_cell_length_c 5.202518
_cell_angle_alpha 90.000000
_cell_angle_beta 90.000000
_cell_angle_gamma 90.000000
_cell_volume 791.731319
_symmetry_space_group_name_H-M "P 2 2 21"
_symmetry_group_IT_number 17
_symmetry_cell_setting 'orthorhombic'
loop_
_space_group_symop_operation_xyz
x,y,z
-x,-y,1/2+z
x,-y,-z
-x,y,1/2-z
loop_
_atom_site_type_symbol
_atom_site_label
_atom_site_fract_x
_atom_site_fract_y
_atom_site_fract_z
Si Si1 0.619241 0.398639 0.090189
Si Si2 0.762108 0.746207 0.186477
Si Si3 0.138725 0.671282 0.801662
Si Si4 0.650903 0.945710 0.250019
O O1 0.500000 0.358068 0.250000
O O2 0.646448 0.671596 0.147255
O O3 0.748281 0.404234 0.265581
O O4 0.581959 0.500000 0.000000
O O5 0.854606 0.714140 0.415569
O O6 0.708007 0.844597 0.257684
O O7 0.841201 0.750464 0.918174
O O8 0.000000 0.625593 0.750000
O O9 0.500000 0.936554 0.250000
O O10 0.699580 0.000000 0.500000
O O11 0.699589 0.000000 0.000000
#
# Coordination Sequence:
#
# PCOD8155560 Si02
#       4
#     4   4   4   4
#     4  10  26  39  64  98 133 167 213 267 326 391
#     4  10  23  39  66  89 128 168 210 267 327 372
#     4  10  23  43  64  91 125 174 221 261 318 390
#     4  10  21  35  60  94 128 161 208 263 322 391
#
# _framework density 20.208874999999999
#
# number of rings (size 3 to 8) (size 9 to 14) (size 15 to 20)
#    1.500    0.500    0.000    2.250    7.000    1.000 
#    4.500    0.000    0.000   15.000    0.000    0.000 
#    0.000    0.000    0.000    0.000    0.000    0.000 
#
# Total GULP energy -198261.060120 kJ/mol
# GULP energy per Si atom -12391.316258 kJ/mol
# Density = 2.016288 g / cm^3
# Si number density = 20.208875 Si / 1000 Ang^3
#
#
#
# Elastic Constant Matrix: (Units=GPa)
#
#
# Indices 1 2 3 4 5 6 
#
# 1 113.9161 38.6252 44.7748 0.0000 0.0000 0.0000
# 2 38.6252 58.6843 11.4499 0.0000 0.0000 0.0000
# 3 44.7748 11.4499 135.8571 0.0000 0.0000 0.0000
# 4 0.0000 0.0000 0.0000 31.6019 0.0000 0.0000
# 5 0.0000 0.0000 0.0000 0.0000 27.7498 0.0000
# 6 0.0000 0.0000 0.0000 0.0000 0.0000 370.7637
#
#
#
# Elastic Compliance Matrix: (Units=1/GPa)
#
#
# Indices 1 2 3 4 5 6 
#
# 1 0.012802 -0.007730 -0.003568 0.000000 0.000000 0.000000
# 2 -0.007730 0.021993 0.000694 0.000000 0.000000 0.000000
# 3 -0.003568 0.000694 0.008478 0.000000 0.000000 0.000000
# 4 0.000000 0.000000 0.000000 0.031644 0.000000 0.000000
# 5 0.000000 0.000000 0.000000 0.000000 0.036036 0.000000
# 6 0.000000 0.000000 0.000000 0.000000 0.000000 0.002697
#
#
# Mechanical properties :
#
#
# Convention : Reuss Voigt Hill
#
# Bulk Modulus (GPa) = 45.31981 55.35081 50.33531
# Shear Modulus (GPa) = 35.15909 100.26361 67.71135
#
# Velocity S-wave (km/s) = 4.17560 7.05134 5.79469
# Velocity P-wave (km/s) = 6.76179 9.68215 8.35062
#
# Compressibility (1/GPa) = 0.02206541
#
# Stress axis : x y z
#
# Youngs Moduli (GPa) = 78.11578 45.47004 117.95289
#
# Poissons Ratio (x) = 0.35147 0.42081
# Poissons Ratio (y) = 0.60381 -0.08186
# Poissons Ratio (z) = 0.27868 -0.03156
#
# Static dielectric constant tensor:
#      x y z
#    x 3.497490 0.000000 0.000000 
#    y 0.000000 3.273690 0.000000 
#    z 0.000000 0.000000 0.323870 
# 
# 
# High freq. dielectric constant tensor:
#      x y z
#    x 1.777000 0.000000 0.000000 
#    y 0.000000 1.760800 0.000000 
#    z 0.000000 0.000000 1.806420 
# 
# From -- ./inp_files/1197.got.cif
#   From: 2010.03.12/outbox.cif.g09.slc.cpg/sg17_1_cif.got.tgz:1197.got - 2010.04.10 18:46:23.
