data_PCOD8155830
_publ_section_title
;
Structure prediction by ZEFSAII (Michael W. Deem and Ramdas Pophale) SiO2 
 PCOD8155830
Probable space group: P 21 21 2
;
_chemical_formula_sum "Si O2"
_cell_formula_units_Z 24
_cell_length_a 13.817958
_cell_length_b 9.639410
_cell_length_c 8.639535
_cell_angle_alpha 90.000000
_cell_angle_beta 90.000000
_cell_angle_gamma 90.000000
_cell_volume 1150.759820
_symmetry_space_group_name_H-M "P 21 21 2"
_symmetry_group_IT_number 18
_symmetry_cell_setting 'orthorhombic'
loop_
_space_group_symop_operation_xyz
x,y,z
-x,-y,z
1/2+x,1/2-y,-z
1/2-x,1/2+y,-z
loop_
_atom_site_type_symbol
_atom_site_label
_atom_site_fract_x
_atom_site_fract_y
_atom_site_fract_z
Si Si1 0.351678 0.125040 0.152784
Si Si2 0.165464 0.390219 0.424004
Si Si3 0.799775 0.903378 0.407994
Si Si4 0.526791 0.652945 0.999339
Si Si5 0.500000 0.000000 0.380236
Si Si6 0.500000 0.500000 0.707812
Si Si7 0.408132 0.908814 0.913073
O O1 0.248811 0.113947 0.238108
O O2 0.437577 0.102395 0.274990
O O3 0.376886 0.275973 0.075042
O O4 0.344844 0.001046 0.029541
O O5 0.205896 0.245819 0.487659
O O6 0.243500 0.503062 0.471113
O O7 0.063852 0.407518 0.507381
O O8 0.154569 0.379744 0.238986
O O9 0.911331 0.949526 0.396836
O O10 0.500000 0.500000 0.076377
O O11 0.543045 0.624092 0.815899
O O12 0.439371 0.766761 0.002603
O O13 0.500000 0.000000 0.862909
#
# Coordination Sequence:
#
# PCOD8155830 Si02
#       7
#     4   4   4   4   2   2   4
#     4  10  21  40  64 101 127 168 219 273 324 405
#     4  11  23  42  64  97 127 178 214 274 332 406
#     4  11  26  43  64  95 138 171 232 272 334 398
#     4   9  18  37  66  93 127 164 212 271 334 382
#     4  10  20  38  66  88 130 166 220 256 328 396
#     4  10  22  42  62  92 132 180 210 288 328 386
#     4  10  18  38  70  91 124 173 210 261 336 405
#
# _framework density 20.855785999999998
#
# number of rings (size 3 to 8) (size 9 to 14) (size 15 to 20)
#    0.500    1.333    5.000    0.000    0.000    6.667 
#    3.000    1.667    0.000    1.000    0.000    0.000 
#    0.000    0.000    0.000    0.000    0.000    0.000 
#
# Total GULP energy -297371.413988 kJ/mol
# GULP energy per Si atom -12390.475583 kJ/mol
# Density = 2.080832 g / cm^3
# Si number density = 20.855786 Si / 1000 Ang^3
#
#
#
# Elastic Constant Matrix: (Units=GPa)
#
#
# Indices 1 2 3 4 5 6 
#
# 1 101.6410 48.5443 38.5576 0.0000 0.0000 0.0000
# 2 48.5443 164.9331 35.2687 0.0000 0.0000 0.0000
# 3 38.5576 35.2687 75.9046 0.0000 0.0000 0.0000
# 4 0.0000 0.0000 0.0000 23.9130 0.0000 0.0000
# 5 0.0000 0.0000 0.0000 0.0000 192.1815 0.0000
# 6 0.0000 0.0000 0.0000 0.0000 0.0000 30.2226
#
#
#
# Elastic Compliance Matrix: (Units=1/GPa)
#
#
# Indices 1 2 3 4 5 6 
#
# 1 0.013203 -0.002722 -0.005442 0.000000 0.000000 0.000000
# 2 -0.002722 0.007293 -0.002006 0.000000 0.000000 0.000000
# 3 -0.005442 -0.002006 0.016871 0.000000 0.000000 0.000000
# 4 0.000000 0.000000 0.000000 0.041818 0.000000 0.000000
# 5 0.000000 0.000000 0.000000 0.000000 0.005203 0.000000
# 6 0.000000 0.000000 0.000000 0.000000 0.000000 0.033088
#
#
# Mechanical properties :
#
#
# Convention : Reuss Voigt Hill
#
# Bulk Modulus (GPa) = 58.73067 65.24664 61.98865
# Shear Modulus (GPa) = 34.84495 63.93728 49.39112
#
# Velocity S-wave (km/s) = 4.09192 5.54287 4.87172
# Velocity P-wave (km/s) = 7.10962 8.50395 7.83785
#
# Compressibility (1/GPa) = 0.01702688
#
# Stress axis : x y z
#
# Youngs Moduli (GPa) = 75.73938 137.11287 59.27391
#
# Poissons Ratio (x) = 0.37327 0.32256
# Poissons Ratio (y) = 0.20619 0.11890
# Poissons Ratio (z) = 0.41217 0.27503
#
# Static dielectric constant tensor:
#      x y z
#    x 3.685040 0.000000 0.000000 
#    y 0.000000 3.902130 0.000000 
#    z 0.000000 0.000000 3.641500 
# 
# 
# High freq. dielectric constant tensor:
#      x y z
#    x 1.802900 0.000000 0.000000 
#    y 0.000000 1.828970 0.000000 
#    z 0.000000 0.000000 1.802280 
# 
# From -- ./inp_files/4197.got.cif
#   From: 2010.03.12/outbox.cif.g09.slc.cpg/sg18_3_cif.got.tgz:4197.got - 2010.04.10 18:53:55.
