data_PCOD8155185
_publ_section_title
;
Structure prediction by ZEFSAII (Michael W. Deem and Ramdas Pophale) SiO2 
 PCOD8155185
Probable space group: C 2/C
;
_chemical_formula_sum "Si O2"
_cell_formula_units_Z 24
_cell_length_a 9.726187
_cell_length_b 7.225676
_cell_length_c 17.745158
_cell_angle_alpha 90.000000
_cell_angle_beta 135.483642
_cell_angle_gamma 90.000000
_cell_volume 874.357236
_symmetry_space_group_name_H-M "C 2/C"
_symmetry_group_IT_number 15
_symmetry_cell_setting 'monoclinic'
loop_
_space_group_symop_operation_xyz
x,y,z
-x,y,1/2-z
-x,-y,-z
x,-y,1/2+z
1/2+x,1/2+y,z
1/2-x,1/2+y,1/2-z
1/2-x,1/2-y,-z
1/2+x,1/2-y,1/2+z
loop_
_atom_site_type_symbol
_atom_site_label
_atom_site_fract_x
_atom_site_fract_y
_atom_site_fract_z
Si Si1 0.199603 0.721063 0.856742
Si Si2 0.996904 0.100632 0.415494
Si Si3 0.692793 0.410199 0.280978
O O1 0.000000 0.616320 0.750000
O O2 0.147336 0.858588 0.906555
O O3 0.261430 0.876036 0.819178
O O4 0.367110 0.574896 0.954588
O O5 0.866921 0.282126 0.375637
O O6 0.861825 0.920976 0.332449
O O7 0.500000 0.349338 0.250000
#
# Coordination Sequence:
#
# PCOD8155185 Si02
#       3
#     8   8   8
#     4   8  16  30  52  71  93 133 164 190 240 290
#     4   9  16  31  52  73  98 126 162 201 239 287
#     4   9  18  31  50  75  98 127 160 197 245 286
#
# _framework density 27.448734000000002
#
# number of rings (size 3 to 8) (size 9 to 14) (size 15 to 20)
#    0.000    4.000    0.000    1.000    0.000    0.000 
#    0.000   13.333    0.000   64.000    0.000    0.000 
#    0.000    0.000    0.000    0.000    0.000    0.000 
#
# Total GULP energy -148741.892945 kJ/mol
# GULP energy per Si atom -12395.157745 kJ/mol
# Density = 2.738626 g / cm^3
# Si number density = 27.448734 Si / 1000 Ang^3
#
#
#
# Elastic Constant Matrix: (Units=GPa)
#
#
# Indices 1 2 3 4 5 6 
#
# 1 80.9810 33.7669 77.9846 0.0000 -7.9519 0.0000
# 2 33.7669 105.2906 74.3082 0.0000 23.7231 0.0000
# 3 77.9846 74.3082 289.4162 0.0000 -9.7146 0.0000
# 4 0.0000 0.0000 0.0000 57.7083 0.0000 18.6764
# 5 -7.9519 23.7231 -9.7146 0.0000 54.6994 0.0000
# 6 0.0000 0.0000 0.0000 18.6764 0.0000 34.1798
#
#
#
# Elastic Compliance Matrix: (Units=1/GPa)
#
#
# Indices 1 2 3 4 5 6 
#
# 1 0.017913 -0.003973 -0.003683 0.000000 0.003673 0.000000
# 2 -0.003973 0.014473 -0.002893 0.000000 -0.007368 0.000000
# 3 -0.003683 -0.002893 0.005246 0.000000 0.001651 0.000000
# 4 0.000000 0.000000 0.000000 0.021051 0.000000 -0.011503
# 5 0.003673 -0.007368 0.001651 0.000000 0.022305 0.000000
# 6 0.000000 0.000000 0.000000 -0.011503 0.000000 0.035542
#
#
# Mechanical properties :
#
#
# Convention : Reuss Voigt Hill
#
# Bulk Modulus (GPa) = 60.48096 94.20079 77.34087
# Shear Modulus (GPa) = 34.93089 48.62604 41.77847
#
# Velocity S-wave (km/s) = 3.57120 4.21351 3.90558
# Velocity P-wave (km/s) = 6.25193 7.62003 6.96963
#
# Compressibility (1/GPa) = 0.01653413
#
# Stress axis : x y z
#
# Youngs Moduli (GPa) = 55.82576 69.09207 190.62368
#
# Poissons Ratio (x) = 0.27448 0.70215
# Poissons Ratio (y) = 0.22178 0.55147
# Poissons Ratio (z) = 0.20563 0.19988
#
# Static dielectric constant tensor:
#      x y z
#    x 5.771660 0.000000 -0.583770 
#    y 0.000000 4.754740 0.000000 
#    z -0.583770 0.000000 6.031250 
# 
# 
# High freq. dielectric constant tensor:
#      x y z
#    x 2.159380 0.000000 -0.044110 
#    y 0.000000 2.099570 0.000000 
#    z -0.044110 0.000000 2.152210 
# 
# From -- ./inp_files/74728.got.cif
#   From: 2010.06.25/outbox.cif.g09.slc.cpg/sg15_38_cif.got.tgz:74728.got - 2010.06.28 07:06:18.
