data_PCOD8155116
_publ_section_title
;
Structure prediction by ZEFSAII (Michael W. Deem and Ramdas Pophale) SiO2 
 PCOD8155116
Probable space group: C 2/C
;
_chemical_formula_sum "Si O2"
_cell_formula_units_Z 32
_cell_length_a 17.258823
_cell_length_b 7.570310
_cell_length_c 19.279420
_cell_angle_alpha 90.000000
_cell_angle_beta 147.637004
_cell_angle_gamma 90.000000
_cell_volume 1348.344726
_symmetry_space_group_name_H-M "C 2/C"
_symmetry_group_IT_number 15
_symmetry_cell_setting 'monoclinic'
loop_
_space_group_symop_operation_xyz
x,y,z
-x,y,1/2-z
-x,-y,-z
x,-y,1/2+z
1/2+x,1/2+y,z
1/2-x,1/2+y,1/2-z
1/2-x,1/2-y,-z
1/2+x,1/2-y,1/2+z
loop_
_atom_site_type_symbol
_atom_site_label
_atom_site_fract_x
_atom_site_fract_y
_atom_site_fract_z
Si Si1 0.115525 0.651974 0.595510
Si Si2 0.671188 0.642013 0.001121
Si Si3 0.114823 0.940352 0.707217
Si Si4 0.830836 0.302549 0.131105
O O1 0.132081 0.724844 0.531421
O O2 0.061344 0.802028 0.608156
O O3 0.270144 0.576649 0.739116
O O4 0.000000 0.500000 0.500000
O O5 0.523173 0.543660 0.864924
O O6 0.750000 0.750000 0.000000
O O7 0.779289 0.496516 0.114572
O O8 0.201484 0.840711 0.834001
O O9 0.000000 0.314312 0.250000
O O10 0.750000 0.250000 0.000000
#
# Coordination Sequence:
#
# PCOD8155116 Si02
#       4
#     8   8   8   8
#     4  12  27  48  77 110 158 202 253 314 385 458
#     4  12  28  46  77 115 151 200 257 314 382 454
#     4  12  26  49  76 111 153 202 258 314 384 455
#     4  12  26  48  77 112 153 195 253 319 381 448
#
# _framework density 23.732803000000001
#
# number of rings (size 3 to 8) (size 9 to 14) (size 15 to 20)
#    0.000    0.000    2.500    6.750    7.000    0.000 
#    0.000    0.000    0.000    0.000    0.000    0.000 
#    0.000    0.000    0.000    0.000    0.000    0.000 
#
# Total GULP energy -198472.207542 kJ/mol
# GULP energy per Si atom -12404.512971 kJ/mol
# Density = 2.367879 g / cm^3
# Si number density = 23.732803 Si / 1000 Ang^3
#
#
#
# Elastic Constant Matrix: (Units=GPa)
#
#
# Indices 1 2 3 4 5 6 
#
# 1 150.2721 80.4370 56.5478 0.0000 -9.1434 0.0000
# 2 80.4370 158.7815 63.3917 0.0001 4.1812 0.0001
# 3 56.5478 63.3917 135.8303 0.0000 11.0877 0.0000
# 4 0.0000 0.0001 0.0000 64.7742 0.0000 8.2182
# 5 -9.1434 4.1812 11.0877 0.0000 49.2288 0.0000
# 6 0.0000 0.0001 0.0000 8.2182 0.0000 61.4913
#
#
#
# Elastic Compliance Matrix: (Units=1/GPa)
#
#
# Indices 1 2 3 4 5 6 
#
# 1 0.009957 -0.004144 -0.002436 0.000000 0.002750 0.000000
# 2 -0.004144 0.009466 -0.002612 0.000000 -0.000985 0.000000
# 3 -0.002436 -0.002612 0.009794 0.000000 -0.002436 0.000000
# 4 0.000000 0.000000 0.000000 0.015705 0.000000 -0.002099
# 5 0.002750 -0.000985 -0.002436 0.000000 0.021456 0.000000
# 6 0.000000 0.000000 0.000000 -0.002099 0.000000 0.016543
#
#
# Mechanical properties :
#
#
# Convention : Reuss Voigt Hill
#
# Bulk Modulus (GPa) = 92.30746 93.95965 93.13356
# Shear Modulus (GPa) = 47.65760 51.39937 49.52849
#
# Velocity S-wave (km/s) = 4.48603 4.65881 4.57324
# Velocity P-wave (km/s) = 8.11243 8.28348 8.19840
#
# Compressibility (1/GPa) = 0.01083336
#
# Stress axis : x y z
#
# Youngs Moduli (GPa) = 100.43637 105.64055 102.10278
#
# Poissons Ratio (x) = 0.43777 0.24868
# Poissons Ratio (y) = 0.41620 0.26671
# Poissons Ratio (z) = 0.24462 0.27595
#
# Static dielectric constant tensor:
#      x y z
#    x 3.858360 0.000000 0.170630 
#    y 0.000000 4.661200 0.000000 
#    z 0.170630 0.000000 4.017160 
# 
# 
# High freq. dielectric constant tensor:
#      x y z
#    x 1.950070 0.000000 0.014050 
#    y 0.000000 1.964040 0.000000 
#    z 0.014050 0.000000 1.944570 
# 
# From -- ./inp_files/247715.got.cif
#   From: 2010.06.25/outbox.cif.g09.slc.cpg/sg15_124_cif.got.tgz:247715.got - 2010.06.28 07:06:18.
