data_PCOD8155143
_publ_section_title
;
Structure prediction by ZEFSAII (Michael W. Deem and Ramdas Pophale) SiO2 
 PCOD8155143
Probable space group: C 2/C
;
_chemical_formula_sum "Si O2"
_cell_formula_units_Z 20
_cell_length_a 11.232299
_cell_length_b 14.458140
_cell_length_c 5.331033
_cell_angle_alpha 90.000000
_cell_angle_beta 118.683346
_cell_angle_gamma 90.000000
_cell_volume 759.510021
_symmetry_space_group_name_H-M "C 2/C"
_symmetry_group_IT_number 15
_symmetry_cell_setting 'monoclinic'
loop_
_space_group_symop_operation_xyz
x,y,z
-x,y,1/2-z
-x,-y,-z
x,-y,1/2+z
1/2+x,1/2+y,z
1/2-x,1/2+y,1/2-z
1/2-x,1/2-y,-z
1/2+x,1/2-y,1/2+z
loop_
_atom_site_type_symbol
_atom_site_label
_atom_site_fract_x
_atom_site_fract_y
_atom_site_fract_z
Si Si1 0.500000 0.112430 0.750000
Si Si2 0.781152 0.949177 0.417779
Si Si3 0.379422 0.730087 0.798377
O O1 0.383746 0.050580 0.763581
O O2 0.423456 0.174364 0.467625
O O3 0.841073 0.845315 0.471276
O O4 0.834178 0.994942 0.728178
O O5 0.500000 0.690113 0.750000
O O6 0.250000 0.750000 0.500000
#
# Coordination Sequence:
#
# PCOD8155143 Si02
#       3
#     4   8   8
#     4  12  26  50  82 106 158 212 264 300 386 484
#     4  12  28  48  77 118 157 200 256 329 389 449
#     4  12  27  50  81 113 154 206 264 313 383 470
#
# _framework density 26.332765999999999
#
# number of rings (size 3 to 8) (size 9 to 14) (size 15 to 20)
#    0.000    0.000    4.000    4.800    5.600    1.600 
#    0.000    0.000    0.000    0.000    0.000    0.000 
#    0.000    0.000    0.000    0.000    0.000    0.000 
#
# Total GULP energy -124101.450348 kJ/mol
# GULP energy per Si atom -12410.145035 kJ/mol
# Density = 2.627283 g / cm^3
# Si number density = 26.332766 Si / 1000 Ang^3
#
#
#
# Elastic Constant Matrix: (Units=GPa)
#
#
# Indices 1 2 3 4 5 6 
#
# 1 119.7612 5.6095 21.9373 0.0000 -13.0166 0.0000
# 2 5.6095 76.1199 17.0366 0.0000 -24.2284 0.0000
# 3 21.9373 17.0366 132.2073 0.0000 -17.8738 0.0000
# 4 0.0000 0.0000 0.0000 37.1180 0.0000 1.9877
# 5 -13.0166 -24.2284 -17.8738 0.0000 51.0997 0.0000
# 6 0.0000 0.0000 0.0000 1.9877 0.0000 58.6336
#
#
#
# Elastic Compliance Matrix: (Units=1/GPa)
#
#
# Indices 1 2 3 4 5 6 
#
# 1 0.008772 0.000239 -0.001227 0.000000 0.001919 0.000000
# 2 0.000239 0.015619 -0.001095 0.000000 0.007084 0.000000
# 3 -0.001227 -0.001095 0.008183 0.000000 0.002031 0.000000
# 4 0.000000 0.000000 0.000000 0.026990 0.000000 -0.000915
# 5 0.001919 0.007084 0.002031 0.000000 0.024127 0.000000
# 6 0.000000 0.000000 0.000000 -0.000915 0.000000 0.017086
#
#
# Mechanical properties :
#
#
# Convention : Reuss Voigt Hill
#
# Bulk Modulus (GPa) = 35.20042 46.36168 40.78105
# Shear Modulus (GPa) = 43.70135 48.27061 45.98598
#
# Velocity S-wave (km/s) = 4.07821 4.28612 4.18346
# Velocity P-wave (km/s) = 5.96425 6.49143 6.23342
#
# Compressibility (1/GPa) = 0.02840875
#
# Stress axis : x y z
#
# Youngs Moduli (GPa) = 113.99859 64.02359 122.20347
#
# Poissons Ratio (x) = -0.01529 0.14994
# Poissons Ratio (y) = -0.02723 0.13377
# Poissons Ratio (z) = 0.13987 0.07009
#
# Static dielectric constant tensor:
#      x y z
#    x 5.338870 0.000000 -0.019220 
#    y 0.000000 4.819180 0.000000 
#    z -0.019220 0.000000 4.389490 
# 
# 
# High freq. dielectric constant tensor:
#      x y z
#    x 2.078490 0.000000 -0.001040 
#    y 0.000000 2.055960 0.000000 
#    z -0.001040 0.000000 2.052820 
# 
# From -- ./inp_files/2957.got.cif
#   From: 2010.06.25/outbox.cif.g09.slc.cpg/sg15_2_cif.got.tgz:2957.got - 2010.06.28 07:06:18.
