data_PCOD8155706
_publ_section_title
;
Structure prediction by ZEFSAII (Michael W. Deem and Ramdas Pophale) SiO2 
 PCOD8155706
Probable space group: P 2 2 21
;
_chemical_formula_sum "Si O2"
_cell_formula_units_Z 18
_cell_length_a 7.794689
_cell_length_b 8.562831
_cell_length_c 12.229175
_cell_angle_alpha 90.000000
_cell_angle_beta 90.000000
_cell_angle_gamma 90.000000
_cell_volume 816.231450
_symmetry_space_group_name_H-M "P 2 2 21"
_symmetry_group_IT_number 17
_symmetry_cell_setting 'orthorhombic'
loop_
_space_group_symop_operation_xyz
x,y,z
-x,-y,1/2+z
x,-y,-z
-x,y,1/2-z
loop_
_atom_site_type_symbol
_atom_site_label
_atom_site_fract_x
_atom_site_fract_y
_atom_site_fract_z
Si Si1 0.815900 0.702030 0.714537
Si Si2 0.667304 0.676112 0.487749
Si Si3 0.297207 0.636592 0.250684
Si Si4 0.500000 0.915624 0.750000
Si Si5 0.631224 0.127563 0.925454
O O1 0.805542 0.708667 0.582568
O O2 0.798000 0.528297 0.766694
O O3 0.669639 0.812014 0.762692
O O4 0.000000 0.768942 0.750000
O O5 0.602785 0.500000 0.500000
O O6 0.753640 0.706273 0.368573
O O7 0.491695 0.772801 0.505832
O O8 0.500000 0.604623 0.250000
O O9 0.249805 0.759658 0.348582
O O10 0.495145 0.031761 0.852574
O O11 0.736869 0.000000 0.000000
#
# Coordination Sequence:
#
# PCOD8155706 Si02
#       5
#     4   4   4   2   4
#     4  11  23  40  65  99 138 180 230 290 341 419
#     4   9  18  35  64  91 127 177 227 274 347 406
#     4   9  18  38  65  94 127 181 234 275 341 418
#     4  12  22  38  68  98 140 176 226 282 346 416
#     4  11  20  35  66 102 131 180 227 285 352 412
#
# _framework density 22.052569999999999
#
# number of rings (size 3 to 8) (size 9 to 14) (size 15 to 20)
#    0.000    1.778    6.667    0.000    0.000    0.000 
#    0.000    7.778    4.889    0.000    0.000    0.000 
#    0.000    0.000    0.000    0.000    0.000    0.000 
#
# Total GULP energy -223005.883122 kJ/mol
# GULP energy per Si atom -12389.215729 kJ/mol
# Density = 2.200238 g / cm^3
# Si number density = 22.052570 Si / 1000 Ang^3
#
#
#
# Elastic Constant Matrix: (Units=GPa)
#
#
# Indices 1 2 3 4 5 6 
#
# 1 98.4394 32.7798 34.9112 0.0000 0.0000 0.0000
# 2 32.7798 103.4346 47.5416 0.0000 0.0000 0.0000
# 3 34.9112 47.5416 122.4424 0.0000 0.0000 0.0000
# 4 0.0000 0.0000 0.0000 49.5686 0.0000 0.0000
# 5 0.0000 0.0000 0.0000 0.0000 23.3885 0.0000
# 6 0.0000 0.0000 0.0000 0.0000 0.0000 2.0663
#
#
#
# Elastic Compliance Matrix: (Units=1/GPa)
#
#
# Indices 1 2 3 4 5 6 
#
# 1 0.011885 -0.002689 -0.002345 0.000000 0.000000 0.000000
# 2 -0.002689 0.012376 -0.004039 0.000000 0.000000 0.000000
# 3 -0.002345 -0.004039 0.010404 0.000000 0.000000 0.000000
# 4 0.000000 0.000000 0.000000 0.020174 0.000000 0.000000
# 5 0.000000 0.000000 0.000000 0.000000 0.042756 0.000000
# 6 0.000000 0.000000 0.000000 0.000000 0.000000 0.483946
#
#
# Mechanical properties :
#
#
# Convention : Reuss Voigt Hill
#
# Bulk Modulus (GPa) = 60.53003 61.64239 61.08621
# Shear Modulus (GPa) = 8.26181 28.94362 18.60271
#
# Velocity S-wave (km/s) = 1.93767 3.62675 2.90757
# Velocity P-wave (km/s) = 5.70208 6.74914 6.24758
#
# Compressibility (1/GPa) = 0.01652073
#
# Stress axis : x y z
#
# Youngs Moduli (GPa) = 84.13613 80.79851 96.11835
#
# Poissons Ratio (x) = 0.21726 0.22538
# Poissons Ratio (y) = 0.22624 0.38820
# Poissons Ratio (z) = 0.19728 0.32633
#
# Static dielectric constant tensor:
#      x y z
#    x 3.180280 0.000000 0.000000 
#    y 0.000000 4.339450 0.000000 
#    z 0.000000 0.000000 4.580450 
# 
# 
# High freq. dielectric constant tensor:
#      x y z
#    x 1.787930 0.000000 0.000000 
#    y 0.000000 1.886110 0.000000 
#    z 0.000000 0.000000 1.886000 
# 
# From -- ./inp_files/6406.got.cif
#   From: 2010.03.12/outbox.cif.g09.slc.cpg/sg17_4_cif.got.tgz:6406.got - 2010.04.10 18:46:23.
