data_PCOD8155398
_publ_section_title
;
Structure prediction by ZEFSAII (Michael W. Deem and Ramdas Pophale) SiO2 
 PCOD8155398
Probable space group: P 2 2 21
;
_chemical_formula_sum "Si O2"
_cell_formula_units_Z 30
_cell_length_a 8.830083
_cell_length_b 14.231202
_cell_length_c 12.466432
_cell_angle_alpha 90.000000
_cell_angle_beta 90.000000
_cell_angle_gamma 90.000000
_cell_volume 1566.565440
_symmetry_space_group_name_H-M "P 2 2 21"
_symmetry_group_IT_number 17
_symmetry_cell_setting 'orthorhombic'
loop_
_space_group_symop_operation_xyz
x,y,z
-x,-y,1/2+z
x,-y,-z
-x,y,1/2-z
loop_
_atom_site_type_symbol
_atom_site_label
_atom_site_fract_x
_atom_site_fract_y
_atom_site_fract_z
Si Si1 0.000000 0.479592 0.750000
Si Si2 0.306538 0.776868 0.557911
Si Si3 0.670863 0.117130 0.274736
Si Si4 0.099311 0.161516 0.622126
Si Si5 0.199231 0.920566 0.168437
Si Si6 0.096047 0.337715 0.919792
Si Si7 0.856803 0.585028 0.930007
Si Si8 0.649072 0.203660 0.501208
O O1 0.106679 0.418265 0.829467
O O2 0.118517 0.546397 0.689184
O O3 0.279997 0.820643 0.674312
O O4 0.202416 0.841339 0.482564
O O5 0.263203 0.668427 0.566812
O O6 0.471508 0.776782 0.504543
O O7 0.500000 0.085463 0.250000
O O8 0.699172 0.179073 0.380516
O O9 0.768803 0.024119 0.289124
O O10 0.201436 0.148943 0.728522
O O11 0.969533 0.080717 0.616038
O O12 0.014817 0.260494 0.630420
O O13 0.321074 0.885069 0.080483
O O14 0.258290 0.293774 0.953987
O O15 0.019711 0.381321 0.025539
O O16 0.788495 0.500000 0.000000
#
# Coordination Sequence:
#
# PCOD8155398 Si02
#       8
#     2   4   4   4   4   4   4   4
#     4  10  18  34  64  88 116 148 192 254 300 360
#     4  10  22  41  61  86 122 160 195 244 309 353
#     4  10  23  39  57  84 121 163 196 243 290 351
#     4   9  20  39  58  87 118 153 196 259 283 345
#     4  10  20  39  57  86 118 154 206 245 286 337
#     4   9  18  37  58  86 116 150 197 237 304 345
#     4   9  20  37  60  86 115 150 194 245 300 361
#     4  10  21  38  63  81 121 162 194 241 288 358
#
# _framework density 19.150172999999999
#
# number of rings (size 3 to 8) (size 9 to 14) (size 15 to 20)
#    0.000    2.400    0.000    2.000    3.733    0.533 
#   21.600    2.000    0.000    0.000    0.000    0.000 
#    0.000    0.000    0.000    0.000    0.000    0.000 
#
# Total GULP energy -371841.021520 kJ/mol
# GULP energy per Si atom -12394.700717 kJ/mol
# Density = 1.910659 g / cm^3
# Si number density = 19.150173 Si / 1000 Ang^3
#
#
#
# Elastic Constant Matrix: (Units=GPa)
#
#
# Indices 1 2 3 4 5 6 
#
# 1 100.2526 67.8465 69.5722 0.0000 0.0000 0.0000
# 2 67.8465 113.4627 63.2362 0.0000 0.0000 0.0000
# 3 69.5722 63.2362 141.4456 0.0000 0.0000 0.0000
# 4 0.0000 0.0000 0.0000 30.0521 0.0000 0.0000
# 5 0.0000 0.0000 0.0000 0.0000 28.9528 0.0000
# 6 0.0000 0.0000 0.0000 0.0000 0.0000 27.9812
#
#
#
# Elastic Compliance Matrix: (Units=1/GPa)
#
#
# Indices 1 2 3 4 5 6 
#
# 1 0.019926 -0.008594 -0.005959 0.000000 0.000000 0.000000
# 2 -0.008594 0.015445 -0.002678 0.000000 0.000000 0.000000
# 3 -0.005959 -0.002678 0.011198 0.000000 0.000000 0.000000
# 4 0.000000 0.000000 0.000000 0.033276 0.000000 0.000000
# 5 0.000000 0.000000 0.000000 0.000000 0.034539 0.000000
# 6 0.000000 0.000000 0.000000 0.000000 0.000000 0.035738
#
#
# Mechanical properties :
#
#
# Convention : Reuss Voigt Hill
#
# Bulk Modulus (GPa) = 82.59317 84.05229 83.32273
# Shear Modulus (GPa) = 26.50849 27.69762 27.10306
#
# Velocity S-wave (km/s) = 3.72458 3.80720 3.76612
# Velocity P-wave (km/s) = 7.85617 7.95693 7.90671
#
# Compressibility (1/GPa) = 0.01210754
#
# Stress axis : x y z
#
# Youngs Moduli (GPa) = 50.18543 64.74662 89.30194
#
# Poissons Ratio (x) = 0.55644 0.53213
# Poissons Ratio (y) = 0.43130 0.23913
# Poissons Ratio (z) = 0.29905 0.17338
#
# Static dielectric constant tensor:
#      x y z
#    x 3.398430 0.000000 0.000000 
#    y 0.000000 3.576760 0.000000 
#    z 0.000000 0.000000 3.746740 
# 
# 
# High freq. dielectric constant tensor:
#      x y z
#    x 1.721590 0.000000 0.000000 
#    y 0.000000 1.744870 0.000000 
#    z 0.000000 0.000000 1.763790 
# 
# From -- ./inp_files/6700.got.cif
#   From: 2010.03.12/outbox.cif.g09.slc.cpg/sg17_4_cif.got.tgz:6700.got - 2010.04.10 18:46:23.
