data_PCOD8155795
_publ_section_title
;
Structure prediction by ZEFSAII (Michael W. Deem and Ramdas Pophale) SiO2 
 PCOD8155795
Probable space group: P 21 21 2
;
_chemical_formula_sum "Si O2"
_cell_formula_units_Z 30
_cell_length_a 14.579166
_cell_length_b 12.962504
_cell_length_c 8.895194
_cell_angle_alpha 90.000000
_cell_angle_beta 90.000000
_cell_angle_gamma 90.000000
_cell_volume 1681.035979
_symmetry_space_group_name_H-M "P 21 21 2"
_symmetry_group_IT_number 18
_symmetry_cell_setting 'orthorhombic'
loop_
_space_group_symop_operation_xyz
x,y,z
-x,-y,z
1/2+x,1/2-y,-z
1/2-x,1/2+y,-z
loop_
_atom_site_type_symbol
_atom_site_label
_atom_site_fract_x
_atom_site_fract_y
_atom_site_fract_z
Si Si1 0.291856 0.619895 0.169677
Si Si2 0.308112 0.928667 0.940350
Si Si3 0.620787 0.279822 0.896181
Si Si4 0.325600 0.304556 0.872059
Si Si5 0.042713 0.722553 0.888069
Si Si6 0.976283 0.886543 0.667287
Si Si7 0.000000 0.500000 0.926790
Si Si8 0.994033 0.115971 0.317104
O O1 0.241547 0.509353 0.170405
O O2 0.226692 0.714093 0.216252
O O3 0.369048 0.625270 0.297944
O O4 0.326297 0.636499 0.997977
O O5 0.318391 0.819724 0.852513
O O6 0.243724 0.899171 0.085282
O O7 0.408829 0.973416 0.977799
O O8 0.585267 0.328224 0.742322
O O9 0.537589 0.240415 0.995551
O O10 0.401680 0.340239 0.754549
O O11 0.364147 0.251473 0.025006
O O12 0.035802 0.798562 0.747298
O O13 0.032352 0.602255 0.833149
O O14 0.003825 0.874428 0.495064
O O15 0.000000 0.000000 0.730028
O O16 0.000000 0.000000 0.261031
#
# Coordination Sequence:
#
# PCOD8155795 Si02
#       8
#     4   4   4   4   4   4   2   4
#     4  10  18  33  54  84 109 138 181 230 272 319
#     4  10  18  30  55  86 112 135 180 229 276 319
#     4   8  18  31  53  83 104 140 179 225 271 323
#     4  10  19  33  57  85 107 141 182 233 269 321
#     4   9  17  33  55  81 112 141 181 223 275 328
#     4  10  21  36  57  79 111 150 186 227 275 325
#     4  10  18  32  54  84 118 144 168 226 286 328
#     4  10  20  37  56  76 111 150 184 223 277 325
#
# _framework density 17.846139000000001
#
# number of rings (size 3 to 8) (size 9 to 14) (size 15 to 20)
#    0.000    2.400    1.333    2.400    0.000    3.733 
#    0.000    5.333    5.867    0.000    0.000    0.000 
#    0.000    0.000    0.000    0.000    0.000    0.000 
#
# Total GULP energy -371674.659464 kJ/mol
# GULP energy per Si atom -12389.155315 kJ/mol
# Density = 1.780552 g / cm^3
# Si number density = 17.846139 Si / 1000 Ang^3
#
#
#
# Elastic Constant Matrix: (Units=GPa)
#
#
# Indices 1 2 3 4 5 6 
#
# 1 106.8921 45.5705 37.2019 0.0000 0.0000 0.0000
# 2 45.5705 127.7223 45.9870 0.0000 0.0000 0.0000
# 3 37.2019 45.9870 56.7904 0.0000 0.0000 0.0000
# 4 0.0000 0.0000 0.0000 21.6722 0.0000 0.0000
# 5 0.0000 0.0000 0.0000 0.0000 16.8470 0.0000
# 6 0.0000 0.0000 0.0000 0.0000 0.0000 37.0679
#
#
#
# Elastic Compliance Matrix: (Units=1/GPa)
#
#
# Indices 1 2 3 4 5 6 
#
# 1 0.012518 -0.002137 -0.006470 0.000000 0.000000 0.000000
# 2 -0.002137 0.011416 -0.007845 0.000000 0.000000 0.000000
# 3 -0.006470 -0.007845 0.028199 0.000000 0.000000 0.000000
# 4 0.000000 0.000000 0.000000 0.046142 0.000000 0.000000
# 5 0.000000 0.000000 0.000000 0.000000 0.059358 0.000000
# 6 0.000000 0.000000 0.000000 0.000000 0.000000 0.026978
#
#
# Mechanical properties :
#
#
# Convention : Reuss Voigt Hill
#
# Bulk Modulus (GPa) = 52.00036 60.99150 56.49593
# Shear Modulus (GPa) = 22.32897 25.96045 24.14471
#
# Velocity S-wave (km/s) = 3.54106 3.81817 3.68222
# Velocity P-wave (km/s) = 6.77644 7.32723 7.05721
#
# Compressibility (1/GPa) = 0.01923064
#
# Stress axis : x y z
#
# Youngs Moduli (GPa) = 79.88555 87.59263 35.46183
#
# Poissons Ratio (x) = 0.18717 0.22943
# Poissons Ratio (y) = 0.17070 0.27819
# Poissons Ratio (z) = 0.51684 0.68716
#
# Static dielectric constant tensor:
#      x y z
#    x 3.634240 0.000000 0.000000 
#    y 0.000000 3.772490 0.000000 
#    z 0.000000 0.000000 2.809590 
# 
# 
# High freq. dielectric constant tensor:
#      x y z
#    x 1.707470 0.000000 0.000000 
#    y 0.000000 1.714050 0.000000 
#    z 0.000000 0.000000 1.633180 
# 
# From -- ./inp_files/3894.got.cif
#   From: 2010.03.12/outbox.cif.g09.slc.cpg/sg18_2_cif.got.tgz:3894.got - 2010.04.10 18:53:55.
