data_PCOD8155841
_publ_section_title
;
Structure prediction by ZEFSAII (Michael W. Deem and Ramdas Pophale) SiO2 
 PCOD8155841
Probable space group: P 21 21 2
;
_chemical_formula_sum "Si O2"
_cell_formula_units_Z 24
_cell_length_a 5.347502
_cell_length_b 22.194374
_cell_length_c 10.141858
_cell_angle_alpha 90.000000
_cell_angle_beta 90.000000
_cell_angle_gamma 90.000000
_cell_volume 1203.680934
_symmetry_space_group_name_H-M "P 21 21 2"
_symmetry_group_IT_number 18
_symmetry_cell_setting 'orthorhombic'
loop_
_space_group_symop_operation_xyz
x,y,z
-x,-y,z
1/2+x,1/2-y,-z
1/2-x,1/2+y,-z
loop_
_atom_site_type_symbol
_atom_site_label
_atom_site_fract_x
_atom_site_fract_y
_atom_site_fract_z
Si Si1 0.751903 0.521347 0.312845
Si Si2 0.252021 0.028395 0.980610
Si Si3 0.665126 0.657078 0.262363
Si Si4 0.654153 0.336290 0.011333
Si Si5 0.638101 0.262513 0.424299
Si Si6 0.944109 0.248519 0.189429
O O1 0.500000 0.500000 0.389212
O O2 0.778518 0.592552 0.295096
O O3 0.000000 0.500000 0.391737
O O4 0.748681 0.484102 0.175690
O O5 0.500000 0.000000 0.046194
O O6 0.278289 0.099068 0.009845
O O7 0.000000 0.000000 0.044588
O O8 0.574207 0.655668 0.112037
O O9 0.445591 0.671346 0.369351
O O10 0.867267 0.710557 0.275948
O O11 0.852397 0.288622 0.066952
O O12 0.563765 0.311915 0.869633
O O13 0.386401 0.231407 0.483767
O O14 0.725722 0.227066 0.290832
#
# Coordination Sequence:
#
# PCOD8155841 Si02
#       6
#     4   4   4   4   4   4
#     4  10  19  31  51  81 120 157 191 233 302 373
#     4  10  19  33  50  75 125 164 194 228 283 387
#     4  11  21  37  59  87 130 164 195 261 309 382
#     4  11  21  33  55  93 132 162 194 244 324 381
#     4  11  24  43  60  83 121 165 222 253 305 366
#     4  11  22  35  60  90 129 165 197 255 315 385
#
# _framework density 19.938839999999999
#
# number of rings (size 3 to 8) (size 9 to 14) (size 15 to 20)
#    0.000    1.333    6.667    2.000    2.333    0.000 
#    0.000    0.000    0.000    0.000    0.000    1.167 
#    5.000    0.000    0.000    0.000    0.000    0.000 
#
# Total GULP energy -297353.590361 kJ/mol
# GULP energy per Si atom -12389.732932 kJ/mol
# Density = 1.989346 g / cm^3
# Si number density = 19.938840 Si / 1000 Ang^3
#
#
#
# Elastic Constant Matrix: (Units=GPa)
#
#
# Indices 1 2 3 4 5 6 
#
# 1 162.7516 46.9981 38.6919 0.0000 0.0000 0.0000
# 2 46.9981 108.6490 44.6638 0.0000 0.0000 0.0000
# 3 38.6919 44.6638 63.8513 0.0000 0.0000 0.0000
# 4 0.0000 0.0000 0.0000 11.0527 0.0000 0.0000
# 5 0.0000 0.0000 0.0000 0.0000 25.1494 0.0000
# 6 0.0000 0.0000 0.0000 0.0000 0.0000 35.4988
#
#
#
# Elastic Compliance Matrix: (Units=1/GPa)
#
#
# Indices 1 2 3 4 5 6 
#
# 1 0.007453 -0.001919 -0.003174 0.000000 0.000000 0.000000
# 2 -0.001919 0.013413 -0.008219 0.000000 0.000000 0.000000
# 3 -0.003174 -0.008219 0.023334 0.000000 0.000000 0.000000
# 4 0.000000 0.000000 0.000000 0.090476 0.000000 0.000000
# 5 0.000000 0.000000 0.000000 0.000000 0.039762 0.000000
# 6 0.000000 0.000000 0.000000 0.000000 0.000000 0.028170
#
#
# Mechanical properties :
#
#
# Convention : Reuss Voigt Hill
#
# Bulk Modulus (GPa) = 56.89812 66.21773 61.55792
# Shear Modulus (GPa) = 21.26830 28.00005 24.63417
#
# Velocity S-wave (km/s) = 3.26955 3.75146 3.51876
# Velocity P-wave (km/s) = 6.54611 7.21437 6.88835
#
# Compressibility (1/GPa) = 0.01757527
#
# Stress axis : x y z
#
# Youngs Moduli (GPa) = 134.17249 74.55454 42.85583
#
# Poissons Ratio (x) = 0.14309 0.13602
# Poissons Ratio (y) = 0.25751 0.35225
# Poissons Ratio (z) = 0.42584 0.61279
#
# Static dielectric constant tensor:
#      x y z
#    x 4.910710 0.000000 0.000000 
#    y 0.000000 3.496530 0.000000 
#    z 0.000000 0.000000 3.238560 
# 
# 
# High freq. dielectric constant tensor:
#      x y z
#    x 1.809450 0.000000 0.000000 
#    y 0.000000 1.761940 0.000000 
#    z 0.000000 0.000000 1.714180 
# 
# From -- ./inp_files/5147.got.cif
#   From: 2010.03.12/outbox.cif.g09.slc.cpg/sg18_3_cif.got.tgz:5147.got - 2010.04.10 18:53:55.
