data_PCOD8155681
_publ_section_title
;
Structure prediction by ZEFSAII (Michael W. Deem and Ramdas Pophale) SiO2 
 PCOD8155681
Probable space group: P 2 2 21
;
_chemical_formula_sum "Si O2"
_cell_formula_units_Z 22
_cell_length_a 13.754307
_cell_length_b 8.234838
_cell_length_c 8.551102
_cell_angle_alpha 90.000000
_cell_angle_beta 90.000000
_cell_angle_gamma 90.000000
_cell_volume 968.536207
_symmetry_space_group_name_H-M "P 2 2 21"
_symmetry_group_IT_number 17
_symmetry_cell_setting 'orthorhombic'
loop_
_space_group_symop_operation_xyz
x,y,z
-x,-y,1/2+z
x,-y,-z
-x,y,1/2-z
loop_
_atom_site_type_symbol
_atom_site_label
_atom_site_fract_x
_atom_site_fract_y
_atom_site_fract_z
Si Si1 0.000000 0.275632 0.750000
Si Si2 0.676663 0.374074 0.769789
Si Si3 0.176402 0.179830 0.547314
Si Si4 0.500000 0.596527 0.750000
Si Si5 0.799524 0.319284 0.276365
Si Si6 0.371767 0.815163 0.957160
Si Si7 0.075439 0.500000 0.000000
O O1 0.905622 0.174009 0.812386
O O2 0.991241 0.400069 0.611893
O O3 0.719089 0.253957 0.901169
O O4 0.582391 0.477519 0.821991
O O5 0.762786 0.497719 0.740650
O O6 0.657726 0.274734 0.613838
O O7 0.146595 0.268025 0.384317
O O8 0.201301 0.000000 0.500000
O O9 0.462657 0.714652 0.887918
O O10 0.715811 0.191176 0.329966
O O11 0.871511 0.345671 0.419496
O O12 0.400550 0.000000 0.000000
#
# Coordination Sequence:
#
# PCOD8155681 Si02
#       7
#     2   4   4   2   4   4   2
#     4  12  26  42  68 106 144 184 240 298 370 430
#     4  11  23  47  69 101 139 191 245 298 352 434
#     4  12  27  45  71 107 147 188 238 303 372 436
#     4  10  24  42  72 102 140 194 246 304 356 422
#     4  11  21  42  73 100 136 191 240 292 355 430
#     4  11  23  43  70 105 147 188 241 304 373 427
#     4  12  22  42  72 102 134 182 244 302 344 440
#
# _framework density 22.714690999999998
#
# number of rings (size 3 to 8) (size 9 to 14) (size 15 to 20)
#    0.000    0.727    3.636    4.364    0.000    8.000 
#    0.000    5.455    0.000    0.000    0.000    0.000 
#    0.000    0.000    0.000    0.000    0.000    0.000 
#
# Total GULP energy -272542.659498 kJ/mol
# GULP energy per Si atom -12388.302704 kJ/mol
# Density = 2.266299 g / cm^3
# Si number density = 22.714691 Si / 1000 Ang^3
#
#
#
# Elastic Constant Matrix: (Units=GPa)
#
#
# Indices 1 2 3 4 5 6 
#
# 1 72.5825 44.0159 28.7960 0.0000 0.0000 0.0000
# 2 44.0159 155.1917 52.9074 0.0000 0.0000 0.0000
# 3 28.7960 52.9074 128.3545 0.0000 0.0000 0.0000
# 4 0.0000 0.0000 0.0000 57.1000 0.0000 0.0000
# 5 0.0000 0.0000 0.0000 0.0000 69.3136 0.0000
# 6 0.0000 0.0000 0.0000 0.0000 0.0000 31.9442
#
#
#
# Elastic Compliance Matrix: (Units=1/GPa)
#
#
# Indices 1 2 3 4 5 6 
#
# 1 0.017131 -0.004129 -0.002141 0.000000 0.000000 0.000000
# 2 -0.004129 0.008492 -0.002574 0.000000 0.000000 0.000000
# 3 -0.002141 -0.002574 0.009332 0.000000 0.000000 0.000000
# 4 0.000000 0.000000 0.000000 0.017513 0.000000 0.000000
# 5 0.000000 0.000000 0.000000 0.000000 0.014427 0.000000
# 6 0.000000 0.000000 0.000000 0.000000 0.000000 0.031305
#
#
# Mechanical properties :
#
#
# Convention : Reuss Voigt Hill
#
# Bulk Modulus (GPa) = 57.91454 67.50750 62.71102
# Shear Modulus (GPa) = 41.10341 47.03218 44.06779
#
# Velocity S-wave (km/s) = 4.25850 4.55528 4.40939
# Velocity P-wave (km/s) = 7.05206 7.57969 7.32063
#
# Compressibility (1/GPa) = 0.01726682
#
# Stress axis : x y z
#
# Youngs Moduli (GPa) = 58.37468 117.75503 107.15320
#
# Poissons Ratio (x) = 0.48616 0.22946
# Poissons Ratio (y) = 0.24101 0.27584
# Poissons Ratio (z) = 0.12501 0.30313
#
# Static dielectric constant tensor:
#      x y z
#    x 3.357930 0.000000 0.000000 
#    y 0.000000 3.752670 0.000000 
#    z 0.000000 0.000000 4.039580 
# 
# 
# High freq. dielectric constant tensor:
#      x y z
#    x 1.888940 0.000000 0.000000 
#    y 0.000000 1.893430 0.000000 
#    z 0.000000 0.000000 1.912710 
# 
# From -- ./inp_files/5095.got.cif
#   From: 2010.03.12/outbox.cif.g09.slc.cpg/sg17_3_cif.got.tgz:5095.got - 2010.04.10 18:46:23.
