data_PCOD8155239
_publ_section_title
;
Structure prediction by ZEFSAII (Michael W. Deem and Ramdas Pophale) SiO2 
 PCOD8155239
Probable space group: P 2 2 2
;
_chemical_formula_sum "Si O2"
_cell_formula_units_Z 27
_cell_length_a 14.777462
_cell_length_b 10.825096
_cell_length_c 9.854061
_cell_angle_alpha 90.000000
_cell_angle_beta 90.000000
_cell_angle_gamma 90.000000
_cell_volume 1576.328959
_symmetry_space_group_name_H-M "P 2 2 2"
_symmetry_group_IT_number 16
_symmetry_cell_setting 'orthorhombic'
loop_
_space_group_symop_operation_xyz
x,y,z
-x,-y,z
x,-y,-z
-x,y,-z
loop_
_atom_site_type_symbol
_atom_site_label
_atom_site_fract_x
_atom_site_fract_y
_atom_site_fract_z
Si Si1 0.596791 0.841989 0.245600
Si Si2 0.721675 0.854099 0.000338
Si Si3 0.787612 0.500000 0.500000
Si Si4 0.362495 0.305584 0.513412
Si Si5 0.103389 0.501941 0.223924
Si Si6 0.895264 0.301150 0.999797
Si Si7 0.500000 0.500000 0.500000
Si Si8 0.389473 0.126164 0.747356
O O1 0.607974 0.743777 0.366177
O O2 0.491450 0.844419 0.204674
O O3 0.625842 0.981418 0.283078
O O4 0.660526 0.797928 0.121634
O O5 0.675493 0.813796 0.859995
O O6 0.825895 0.812243 0.008123
O O7 0.719818 0.000000 0.000000
O O8 0.732910 0.627607 0.500418
O O9 0.843953 0.501350 0.363260
O O10 0.432964 0.406103 0.579379
O O11 0.359650 0.187708 0.607852
O O12 0.125287 0.384028 0.131325
O O13 0.000000 0.500000 0.266234
O O14 0.125655 0.624244 0.137427
O O15 0.000000 0.255179 0.000000
#
# Coordination Sequence:
#
# PCOD8155239 Si02
#       8
#     4   4   2   4   4   4   1   4
#     4  10  19  33  52  71  95 131 170 203 234 277
#     4  10  20  32  50  77 102 123 157 204 248 288
#     4  11  21  29  49  76 100 128 153 205 253 281
#     4  11  20  32  49  69  99 130 161 198 239 291
#     4   9  18  34  53  72  94 124 167 202 235 285
#     4   9  18  34  54  72  96 129 160 195 241 297
#     4  10  20  32  44  66  94 124 158 192 236 270
#     4  10  19  33  52  71  95 131 170 203 234 277
#
# _framework density 17.128405000000001
#
# number of rings (size 3 to 8) (size 9 to 14) (size 15 to 20)
#    0.000    2.074    1.481    3.778    0.000    3.259 
#    0.000    0.000    0.000    0.889    0.000    0.000 
#    0.000   21.333    0.000    0.000    0.000    0.000 
#
# Total GULP energy -334596.019119 kJ/mol
# GULP energy per Si atom -12392.445153 kJ/mol
# Density = 1.708942 g / cm^3
# Si number density = 17.128405 Si / 1000 Ang^3
#
#
#
# Elastic Constant Matrix: (Units=GPa)
#
#
# Indices 1 2 3 4 5 6 
#
# 1 95.9760 25.3316 47.9912 0.0000 0.0000 0.0000
# 2 25.3316 40.7310 21.8612 0.0000 0.0000 0.0000
# 3 47.9912 21.8612 99.8966 0.0000 0.0000 0.0000
# 4 0.0000 0.0000 0.0000 10.6851 0.0000 0.0000
# 5 0.0000 0.0000 0.0000 0.0000 31.9777 0.0000
# 6 0.0000 0.0000 0.0000 0.0000 0.0000 33.2719
#
#
#
# Elastic Compliance Matrix: (Units=1/GPa)
#
#
# Indices 1 2 3 4 5 6 
#
# 1 0.014969 -0.006175 -0.005840 0.000000 0.000000 0.000000
# 2 -0.006175 0.030366 -0.003679 0.000000 0.000000 0.000000
# 3 -0.005840 -0.003679 0.013621 0.000000 0.000000 0.000000
# 4 0.000000 0.000000 0.000000 0.093588 0.000000 0.000000
# 5 0.000000 0.000000 0.000000 0.000000 0.031272 0.000000
# 6 0.000000 0.000000 0.000000 0.000000 0.000000 0.030055
#
#
# Mechanical properties :
#
#
# Convention : Reuss Voigt Hill
#
# Bulk Modulus (GPa) = 36.27303 47.44128 41.85716
# Shear Modulus (GPa) = 19.65026 24.61493 22.13259
#
# Velocity S-wave (km/s) = 3.39076 3.79500 3.59856
# Velocity P-wave (km/s) = 6.04589 6.85276 6.46193
#
# Compressibility (1/GPa) = 0.02756869
#
# Stress axis : x y z
#
# Youngs Moduli (GPa) = 66.80305 32.93121 73.41625
#
# Poissons Ratio (x) = 0.20336 0.42875
# Poissons Ratio (y) = 0.41253 0.27007
# Poissons Ratio (z) = 0.39013 0.12114
#
# Static dielectric constant tensor:
#      x y z
#    x 3.238690 0.000000 0.000000 
#    y 0.000000 3.155870 0.000000 
#    z 0.000000 0.000000 3.194560 
# 
# 
# High freq. dielectric constant tensor:
#      x y z
#    x 1.665520 0.000000 0.000000 
#    y 0.000000 1.653820 0.000000 
#    z 0.000000 0.000000 1.659150 
# 
# From -- ./inp_files/4797.got.cif
#   From: 2010.03.12/outbox.cif.g09.slc.cpg/sg16_3_cif.got.tgz:4797.got - 2010.03.31 00:51:45.
