data_PCOD8155644
_publ_section_title
;
Structure prediction by ZEFSAII (Michael W. Deem and Ramdas Pophale) SiO2 
 PCOD8155644
Probable space group: P 2 2 21
;
_chemical_formula_sum "Si O2"
_cell_formula_units_Z 24
_cell_length_a 7.452491
_cell_length_b 10.241890
_cell_length_c 15.035319
_cell_angle_alpha 90.000000
_cell_angle_beta 90.000000
_cell_angle_gamma 90.000000
_cell_volume 1147.609710
_symmetry_space_group_name_H-M "P 2 2 21"
_symmetry_group_IT_number 17
_symmetry_cell_setting 'orthorhombic'
loop_
_space_group_symop_operation_xyz
x,y,z
-x,-y,1/2+z
x,-y,-z
-x,y,1/2-z
loop_
_atom_site_type_symbol
_atom_site_label
_atom_site_fract_x
_atom_site_fract_y
_atom_site_fract_z
Si Si1 0.500000 0.415092 0.750000
Si Si2 0.237470 0.131408 0.050827
Si Si3 0.479388 0.724041 0.070700
Si Si4 0.902770 0.144936 0.167225
Si Si5 0.841935 0.435397 0.187688
Si Si6 0.547086 0.005031 0.850736
Si Si7 0.736215 0.500000 0.000000
O O1 0.571793 0.329625 0.667731
O O2 0.343025 0.506608 0.718958
O O3 0.395622 0.099294 0.120912
O O4 0.051547 0.177577 0.093365
O O5 0.300362 0.251984 0.988040
O O6 0.189006 0.000000 0.000000
O O7 0.560138 0.869022 0.085221
O O8 0.613535 0.628225 0.017819
O O9 0.823547 0.281349 0.201807
O O10 0.741880 0.056295 0.133780
O O11 0.000000 0.072242 0.250000
O O12 0.000000 0.493047 0.250000
O O13 0.866411 0.473237 0.083808
O O14 0.500000 0.045861 0.750000
#
# Coordination Sequence:
#
# PCOD8155644 Si02
#       7
#     2   4   4   4   4   4   2
#     4  10  22  44  64  92 128 178 224 270 322 378
#     4  10  23  40  63  99 127 167 215 267 333 390
#     4  10  22  42  69  93 130 175 219 270 325 389
#     4  11  23  37  62  96 128 166 211 270 331 392
#     4  10  24  40  63  93 128 171 221 271 326 391
#     4  11  21  40  68  95 130 167 212 270 331 396
#     4  10  22  42  64  94 128 178 228 270 328 384
#
# _framework density 20.913032999999999
#
# number of rings (size 3 to 8) (size 9 to 14) (size 15 to 20)
#    0.000    1.667    2.500    1.000    1.167   10.000 
#    0.000    9.167    0.000    0.000    0.000    0.000 
#    0.000    0.000    0.000    0.000    0.000    0.000 
#
# Total GULP energy -297555.394265 kJ/mol
# GULP energy per Si atom -12398.141428 kJ/mol
# Density = 2.086543 g / cm^3
# Si number density = 20.913033 Si / 1000 Ang^3
#
#
#
# Elastic Constant Matrix: (Units=GPa)
#
#
# Indices 1 2 3 4 5 6 
#
# 1 119.4256 43.4147 54.6944 0.0000 0.0000 0.0000
# 2 43.4147 86.7540 26.5986 0.0000 0.0000 0.0000
# 3 54.6944 26.5986 127.1289 0.0000 0.0000 0.0000
# 4 0.0000 0.0000 0.0000 26.2964 0.0000 0.0000
# 5 0.0000 0.0000 0.0000 0.0000 41.9748 0.0000
# 6 0.0000 0.0000 0.0000 0.0000 0.0000 23.4160
#
#
#
# Elastic Compliance Matrix: (Units=1/GPa)
#
#
# Indices 1 2 3 4 5 6 
#
# 1 0.012004 -0.004727 -0.004175 0.000000 0.000000 0.000000
# 2 -0.004727 0.014178 -0.000933 0.000000 0.000000 0.000000
# 3 -0.004175 -0.000933 0.009858 0.000000 0.000000 0.000000
# 4 0.000000 0.000000 0.000000 0.038028 0.000000 0.000000
# 5 0.000000 0.000000 0.000000 0.000000 0.023824 0.000000
# 6 0.000000 0.000000 0.000000 0.000000 0.000000 0.042706
#
#
# Mechanical properties :
#
#
# Convention : Reuss Voigt Hill
#
# Bulk Modulus (GPa) = 61.08928 64.74710 62.91819
# Shear Modulus (GPa) = 30.17045 32.24415 31.20730
#
# Velocity S-wave (km/s) = 3.80236 3.93086 3.86715
# Velocity P-wave (km/s) = 6.96791 7.18538 7.07748
#
# Compressibility (1/GPa) = 0.01636948
#
# Stress axis : x y z
#
# Youngs Moduli (GPa) = 83.30462 70.52974 101.44452
#
# Poissons Ratio (x) = 0.33340 0.42358
# Poissons Ratio (y) = 0.39379 0.09462
# Poissons Ratio (z) = 0.34784 0.06579
#
# Static dielectric constant tensor:
#      x y z
#    x 3.673860 0.000000 0.000000 
#    y 0.000000 3.691350 0.000000 
#    z 0.000000 0.000000 4.304020 
# 
# 
# High freq. dielectric constant tensor:
#      x y z
#    x 1.807170 0.000000 0.000000 
#    y 0.000000 1.815220 0.000000 
#    z 0.000000 0.000000 1.839500 
# 
# From -- ./inp_files/9049.got.cif
#   From: 2010.03.12/outbox.cif.g09.slc.cpg/sg17_5_cif.got.tgz:9049.got - 2010.04.10 18:46:23.
