data_PCOD8155009
_publ_section_title
;
Structure prediction by ZEFSAII (Michael W. Deem and Ramdas Pophale) SiO2 
 PCOD8155009
Probable space group: C 2/C
;
_chemical_formula_sum "Si O2"
_cell_formula_units_Z 36
_cell_length_a 13.959115
_cell_length_b 14.507916
_cell_length_c 12.116245
_cell_angle_alpha 90.000000
_cell_angle_beta 38.851726
_cell_angle_gamma 90.000000
_cell_volume 1539.257188
_symmetry_space_group_name_H-M "C 2/C"
_symmetry_group_IT_number 15
_symmetry_cell_setting 'monoclinic'
loop_
_space_group_symop_operation_xyz
x,y,z
-x,y,1/2-z
-x,-y,-z
x,-y,1/2+z
1/2+x,1/2+y,z
1/2-x,1/2+y,1/2-z
1/2-x,1/2-y,-z
1/2+x,1/2-y,1/2+z
loop_
_atom_site_type_symbol
_atom_site_label
_atom_site_fract_x
_atom_site_fract_y
_atom_site_fract_z
Si Si1 0.847998 0.663280 0.441113
Si Si2 0.500000 0.560382 0.250000
Si Si3 0.104309 0.649080 0.846151
Si Si4 0.214646 0.974274 0.900747
Si Si5 0.755438 0.843022 0.833360
O O1 0.750000 0.750000 0.500000
O O2 0.872987 0.641319 0.545016
O O3 0.788751 0.569072 0.442856
O O4 0.000000 0.696632 0.250000
O O5 0.453747 0.503594 0.402907
O O6 0.649633 0.619237 0.147548
O O7 0.178756 0.558633 0.728325
O O8 0.195194 0.737473 0.722350
O O9 0.924598 0.652938 0.977795
O O10 0.200850 0.899014 0.816497
#
# Coordination Sequence:
#
# PCOD8155009 Si02
#       5
#     8   4   8   8   8
#     4  12  25  46  77 110 145 192 235 297 367 432
#     4  12  30  46  72 108 144 204 248 296 370 424
#     4  12  26  48  76 109 147 191 245 300 370 431
#     4  12  27  47  76 108 150 191 245 304 360 437
#     4  12  27  49  74 105 152 192 244 310 356 436
#
# _framework density 23.387903000000001
#
# number of rings (size 3 to 8) (size 9 to 14) (size 15 to 20)
#    0.000    0.000    4.444    4.000    4.667    5.333 
#    0.000    0.000    0.000    0.000    0.000    0.000 
#    0.000    0.000    0.000    0.000    0.000    0.000 
#
# Total GULP energy -223204.414297 kJ/mol
# GULP energy per Si atom -12400.245239 kJ/mol
# Density = 2.333467 g / cm^3
# Si number density = 23.387903 Si / 1000 Ang^3
#
#
#
# Elastic Constant Matrix: (Units=GPa)
#
#
# Indices 1 2 3 4 5 6 
#
# 1 106.6594 36.1736 20.6069 0.0000 -23.0554 0.0000
# 2 36.1736 144.1273 40.4343 0.0000 -13.6541 0.0000
# 3 20.6069 40.4343 113.6150 0.0001 -19.0926 -0.0001
# 4 0.0000 0.0000 0.0001 43.7466 -0.0001 9.9467
# 5 -23.0554 -13.6541 -19.0926 -0.0001 35.3978 0.0000
# 6 0.0000 0.0000 -0.0001 9.9467 0.0000 43.8234
#
#
#
# Elastic Compliance Matrix: (Units=1/GPa)
#
#
# Indices 1 2 3 4 5 6 
#
# 1 0.011594 -0.002229 -0.000203 0.000000 0.006582 0.000000
# 2 -0.002229 0.008224 -0.002456 0.000000 0.000396 0.000000
# 3 -0.000203 -0.002456 0.010481 0.000000 0.004573 0.000000
# 4 0.000000 0.000000 0.000000 0.024103 0.000000 -0.005471
# 5 0.006582 0.000396 0.004573 0.000000 0.035156 0.000000
# 6 0.000000 0.000000 0.000000 -0.005471 0.000000 0.024061
#
#
# Mechanical properties :
#
#
# Convention : Reuss Voigt Hill
#
# Bulk Modulus (GPa) = 48.72913 62.09236 55.41075
# Shear Modulus (GPa) = 38.39152 42.40602 40.39877
#
# Velocity S-wave (km/s) = 4.05595 4.26274 4.16063
# Velocity P-wave (km/s) = 6.54330 7.12983 6.84285
#
# Compressibility (1/GPa) = 0.02052161
#
# Stress axis : x y z
#
# Youngs Moduli (GPa) = 86.25410 121.59013 95.40897
#
# Poissons Ratio (x) = 0.27105 0.01941
# Poissons Ratio (y) = 0.19228 0.23434
# Poissons Ratio (z) = 0.01755 0.29864
#
# Static dielectric constant tensor:
#      x y z
#    x 4.144380 0.000000 -0.194350 
#    y 0.000000 4.367640 0.000000 
#    z -0.194350 0.000000 4.557090 
# 
# 
# High freq. dielectric constant tensor:
#      x y z
#    x 1.938800 0.000000 0.001030 
#    y 0.000000 1.942820 0.000000 
#    z 0.001030 0.000000 1.944030 
# 
# From -- ./inp_files/96780.got.cif
#   From: 2010.06.25/outbox.cif.g09.slc.cpg/sg15_49_cif.got.tgz:96780.got - 2010.06.28 07:06:18.
