data_PCOD8155791
_publ_section_title
;
Structure prediction by ZEFSAII (Michael W. Deem and Ramdas Pophale) SiO2 
 PCOD8155791
Probable space group: P 21 21 2
;
_chemical_formula_sum "Si O2"
_cell_formula_units_Z 18
_cell_length_a 6.455025
_cell_length_b 7.115646
_cell_length_c 17.059607
_cell_angle_alpha 90.000000
_cell_angle_beta 90.000000
_cell_angle_gamma 90.000000
_cell_volume 783.576287
_symmetry_space_group_name_H-M "P 21 21 2"
_symmetry_group_IT_number 18
_symmetry_cell_setting 'orthorhombic'
loop_
_space_group_symop_operation_xyz
x,y,z
-x,-y,z
1/2+x,1/2-y,-z
1/2-x,1/2+y,-z
loop_
_atom_site_type_symbol
_atom_site_label
_atom_site_fract_x
_atom_site_fract_y
_atom_site_fract_z
Si Si1 0.000000 0.500000 0.669638
Si Si2 0.667410 0.230266 0.598830
Si Si3 0.131391 0.813872 0.093380
Si Si4 0.119874 0.806906 0.267582
Si Si5 0.000000 0.500000 0.975353
Si Si6 0.500000 0.500000 0.475427
O O1 0.164593 0.610281 0.617832
O O2 0.134251 0.344796 0.718128
O O3 0.503677 0.179254 0.668685
O O4 0.535530 0.312181 0.526408
O O5 0.794198 0.040655 0.577111
O O6 0.093409 0.725533 0.179736
O O7 0.110619 0.650452 0.030425
O O8 0.000000 0.000000 0.075187
O O9 0.363050 0.885743 0.085564
O O10 0.000000 0.000000 0.272280
#
# Coordination Sequence:
#
# PCOD8155791 Si02
#       6
#     2   4   4   4   2   2
#     4  10  17  42  66  93 126 176 230 262 345 408
#     4  11  23  42  63  97 129 177 227 276 344 401
#     4  11  23  42  68 100 142 179 225 285 333 409
#     4   9  20  40  66  92 134 180 220 273 344 407
#     4  12  23  42  70 107 134 180 232 270 349 404
#     4  12  24  42  66  94 132 172 226 292 332 398
#
# _framework density 22.971599999999999
#
# number of rings (size 3 to 8) (size 9 to 14) (size 15 to 20)
#    0.000    1.333    5.556    2.000    0.000    0.000 
#    4.000    0.000    0.000    0.000    0.000    0.000 
#    0.000    0.000    0.000    0.000    0.000    0.000 
#
# Total GULP energy -223040.524442 kJ/mol
# GULP energy per Si atom -12391.140247 kJ/mol
# Density = 2.291932 g / cm^3
# Si number density = 22.971600 Si / 1000 Ang^3
#
#
#
# Elastic Constant Matrix: (Units=GPa)
#
#
# Indices 1 2 3 4 5 6 
#
# 1 123.1465 20.7627 52.2401 0.0000 0.0000 0.0000
# 2 20.7627 58.9207 27.6136 0.0000 0.0000 0.0000
# 3 52.2401 27.6136 129.6691 0.0000 0.0000 0.0000
# 4 0.0000 0.0000 0.0000 -31.4056 0.0000 0.0000
# 5 0.0000 0.0000 0.0000 0.0000 33.7681 0.0000
# 6 0.0000 0.0000 0.0000 0.0000 0.0000 51.5382
#
#
#
# Elastic Compliance Matrix: (Units=1/GPa)
#
#
# Indices 1 2 3 4 5 6 
#
# 1 0.009965 -0.001811 -0.003629 0.000000 0.000000 0.000000
# 2 -0.001811 0.019183 -0.003356 0.000000 0.000000 0.000000
# 3 -0.003629 -0.003356 0.009889 0.000000 0.000000 0.000000
# 4 0.000000 0.000000 0.000000 -0.031841 0.000000 0.000000
# 5 0.000000 0.000000 0.000000 0.000000 0.029614 0.000000
# 6 0.000000 0.000000 0.000000 0.000000 0.000000 0.019403
#
#
# Mechanical properties :
#
#
# Convention : Reuss Voigt Hill
#
# Bulk Modulus (GPa) = 46.62952 56.99658 51.81305
# Shear Modulus (GPa) = 61.76564 24.85480 43.31022
#
# Velocity S-wave (km/s) = 5.19097 3.29291 4.34681
# Velocity P-wave (km/s) = 7.50141 6.27083 6.91355
#
# Compressibility (1/GPa) = 0.02144564
#
# Stress axis : x y z
#
# Youngs Moduli (GPa) = 100.34909 52.13044 101.12686
#
# Poissons Ratio (x) = 0.09440 0.36700
# Poissons Ratio (y) = 0.18171 0.33933
# Poissons Ratio (z) = 0.36418 0.17492
#
# Static dielectric constant tensor:
#      x y z
#    x 4.860920 0.000000 0.000000 
#    y 0.000000 3.900360 0.000000 
#    z 0.000000 0.000000 4.641200 
# 
# 
# High freq. dielectric constant tensor:
#      x y z
#    x 1.921530 0.000000 0.000000 
#    y 0.000000 1.886720 0.000000 
#    z 0.000000 0.000000 1.905400 
# 
# From -- ./inp_files/7069.got.cif
#   From: 2010.03.12/outbox.cif.g09.slc.cpg/sg18_4_cif.got.tgz:7069.got - 2010.04.10 18:53:55.
