data_PCOD8155165
_publ_section_title
;
Structure prediction by ZEFSAII (Michael W. Deem and Ramdas Pophale) SiO2 
 PCOD8155165
Probable space group: C 2/C
;
_chemical_formula_sum "Si O2"
_cell_formula_units_Z 28
_cell_length_a 18.657292
_cell_length_b 5.631066
_cell_length_c 13.785618
_cell_angle_alpha 90.000000
_cell_angle_beta 54.009111
_cell_angle_gamma 90.000000
_cell_volume 1171.853382
_symmetry_space_group_name_H-M "C 2/C"
_symmetry_group_IT_number 15
_symmetry_cell_setting 'monoclinic'
loop_
_space_group_symop_operation_xyz
x,y,z
-x,y,1/2-z
-x,-y,-z
x,-y,1/2+z
1/2+x,1/2+y,z
1/2-x,1/2+y,1/2-z
1/2-x,1/2-y,-z
1/2+x,1/2-y,1/2+z
loop_
_atom_site_type_symbol
_atom_site_label
_atom_site_fract_x
_atom_site_fract_y
_atom_site_fract_z
Si Si1 0.849493 0.721240 0.884177
Si Si2 0.500000 0.584724 0.750000
Si Si3 0.055923 0.614670 0.040414
Si Si4 0.799001 0.679097 0.716716
O O1 0.904909 0.566761 0.913897
O O2 0.848294 0.609134 0.777582
O O3 0.904878 0.961370 0.832215
O O4 0.750000 0.750000 0.000000
O O5 0.508479 0.720874 0.845479
O O6 0.135748 0.751573 0.923024
O O7 0.000000 0.500000 0.000000
O O8 0.753825 0.426362 0.722364
#
# Coordination Sequence:
#
# PCOD8155165 Si02
#       4
#     8   4   8   8
#     4  12  27  50  79 116 162 219 273 342 416 500
#     4  12  28  48  80 112 164 210 280 340 418 490
#     4  12  28  48  77 115 162 211 276 345 415 490
#     4  12  28  49  81 117 158 211 276 334 411 492
#
# _framework density 23.893775999999999
#
# number of rings (size 3 to 8) (size 9 to 14) (size 15 to 20)
#    0.000    0.000    2.857    6.000    8.000    4.571 
#    0.000    0.000    0.000    0.000    0.000    0.000 
#    0.000    0.000    0.000    0.000    0.000    0.000 
#
# Total GULP energy -173443.205817 kJ/mol
# GULP energy per Si atom -12388.800416 kJ/mol
# Density = 2.383939 g / cm^3
# Si number density = 23.893776 Si / 1000 Ang^3
#
#
#
# Elastic Constant Matrix: (Units=GPa)
#
#
# Indices 1 2 3 4 5 6 
#
# 1 143.1380 55.9453 67.9095 0.0001 18.2371 0.0003
# 2 55.9453 101.0328 58.9585 -0.0117 -7.4361 -0.0020
# 3 67.9095 58.9585 219.9084 0.0005 4.6050 -0.0012
# 4 0.0001 -0.0117 0.0005 45.6352 -0.0020 -3.4687
# 5 18.2371 -7.4361 4.6050 -0.0020 62.5529 0.0001
# 6 0.0003 -0.0020 -0.0012 -3.4687 0.0001 36.2520
#
#
#
# Elastic Compliance Matrix: (Units=1/GPa)
#
#
# Indices 1 2 3 4 5 6 
#
# 1 0.010149 -0.004841 -0.001765 -0.000001 -0.003405 -0.000001
# 2 -0.004841 0.014210 -0.002384 0.000004 0.003276 0.000001
# 3 -0.001765 -0.002384 0.005736 -0.000001 -0.000191 0.000000
# 4 -0.000001 0.000004 -0.000001 0.022073 0.000002 0.002112
# 5 -0.003405 0.003276 -0.000191 0.000002 0.017383 0.000000
# 6 -0.000001 0.000001 0.000000 0.002112 0.000000 0.027787
#
#
# Mechanical properties :
#
#
# Convention : Reuss Voigt Hill
#
# Bulk Modulus (GPa) = 82.53231 92.18953 87.36092
# Shear Modulus (GPa) = 41.89169 47.63910 44.76540
#
# Velocity S-wave (km/s) = 4.19172 4.47003 4.33311
# Velocity P-wave (km/s) = 7.61864 8.08136 7.85341
#
# Compressibility (1/GPa) = 0.01211647
#
# Stress axis : x y z
#
# Youngs Moduli (GPa) = 98.52796 70.37164 174.35260
#
# Poissons Ratio (x) = 0.34064 0.30776
# Poissons Ratio (y) = 0.47693 0.41559
# Poissons Ratio (z) = 0.17392 0.16774
#
# Static dielectric constant tensor:
#      x y z
#    x 4.231120 -0.000040 -0.463830 
#    y -0.000040 4.376620 0.000020 
#    z -0.463830 0.000020 5.444690 
# 
# 
# High freq. dielectric constant tensor:
#      x y z
#    x 1.958660 0.000000 0.007040 
#    y 0.000000 1.935560 0.000000 
#    z 0.007040 0.000000 1.991400 
# 
# From -- ./inp_files/108971.got.cif
#   From: 2010.06.25/outbox.cif.g09.slc.cpg/sg15_55_cif.got.tgz:108971.got - 2010.06.28 07:06:18.
