data_PCOD8155158
_publ_section_title
;
Structure prediction by ZEFSAII (Michael W. Deem and Ramdas Pophale) SiO2 
 PCOD8155158
Probable space group: C 2/C
;
_chemical_formula_sum "Si O2"
_cell_formula_units_Z 28
_cell_length_a 17.232372
_cell_length_b 6.833960
_cell_length_c 17.724106
_cell_angle_alpha 90.000000
_cell_angle_beta 149.050200
_cell_angle_gamma 90.000000
_cell_volume 1073.463459
_symmetry_space_group_name_H-M "C 2/C"
_symmetry_group_IT_number 15
_symmetry_cell_setting 'monoclinic'
loop_
_space_group_symop_operation_xyz
x,y,z
-x,y,1/2-z
-x,-y,-z
x,-y,1/2+z
1/2+x,1/2+y,z
1/2-x,1/2+y,1/2-z
1/2-x,1/2-y,-z
1/2+x,1/2-y,1/2+z
loop_
_atom_site_type_symbol
_atom_site_label
_atom_site_fract_x
_atom_site_fract_y
_atom_site_fract_z
Si Si1 0.241743 0.395198 0.129690
Si Si2 0.313198 0.473555 0.353617
Si Si3 0.996036 0.707567 0.605004
Si Si4 0.000000 0.048569 0.250000
O O1 0.312437 0.501027 0.262525
O O2 0.201124 0.172696 0.111801
O O3 0.364855 0.410038 0.165909
O O4 0.088451 0.502392 0.977383
O O5 0.462862 0.351644 0.504847
O O6 0.172528 0.336220 0.259025
O O7 0.936720 0.812865 0.630790
#
# Coordination Sequence:
#
# PCOD8155158 Si02
#       4
#     8   8   8   4
#     4  12  27  49  78 115 150 202 252 313 380 451
#     4  12  28  49  85 108 153 202 262 309 375 454
#     4  12  27  53  77 114 154 200 257 314 377 454
#     4  12  28  50  74 114 164 194 246 322 386 448
#
# _framework density 26.083794000000001
#
# number of rings (size 3 to 8) (size 9 to 14) (size 15 to 20)
#    0.000    0.000    5.714    1.714    4.000    4.571 
#    0.000    0.000    0.000    0.000    0.000    0.000 
#    0.000    0.000    0.000    0.000    0.000    0.000 
#
# Total GULP energy -173744.045062 kJ/mol
# GULP energy per Si atom -12410.288933 kJ/mol
# Density = 2.602443 g / cm^3
# Si number density = 26.083794 Si / 1000 Ang^3
#
#
#
# Elastic Constant Matrix: (Units=GPa)
#
#
# Indices 1 2 3 4 5 6 
#
# 1 153.9462 37.7235 9.6592 0.0000 -7.9488 0.0000
# 2 37.7235 180.8438 39.5566 0.0000 0.1864 0.0000
# 3 9.6592 39.5566 111.0235 0.0000 3.4019 0.0000
# 4 0.0000 0.0000 0.0000 36.6016 0.0000 -0.3343
# 5 -7.9488 0.1864 3.4019 0.0000 36.1200 0.0000
# 6 0.0000 0.0000 0.0000 -0.3343 0.0000 49.4017
#
#
#
# Elastic Compliance Matrix: (Units=1/GPa)
#
#
# Indices 1 2 3 4 5 6 
#
# 1 0.006932 -0.001416 -0.000146 0.000000 0.001546 0.000000
# 2 -0.001416 0.006287 -0.002112 0.000000 -0.000145 0.000000
# 3 -0.000146 -0.002112 0.009801 0.000000 -0.000944 0.000000
# 4 0.000000 0.000000 0.000000 0.027323 0.000000 0.000185
# 5 0.001546 -0.000145 -0.000944 0.000000 0.028116 0.000000
# 6 0.000000 0.000000 0.000000 0.000185 0.000000 0.020243
#
#
# Mechanical properties :
#
#
# Convention : Reuss Voigt Hill
#
# Bulk Modulus (GPa) = 63.80816 68.85467 66.33141
# Shear Modulus (GPa) = 44.93402 48.34961 46.64182
#
# Velocity S-wave (km/s) = 4.15502 4.31005 4.23324
# Velocity P-wave (km/s) = 6.89455 7.15706 7.02703
#
# Compressibility (1/GPa) = 0.01567198
#
# Stress axis : x y z
#
# Youngs Moduli (GPa) = 144.26542 159.05508 102.02626
#
# Poissons Ratio (x) = 0.22515 0.01491
# Poissons Ratio (y) = 0.20422 0.21553
# Poissons Ratio (z) = 0.02108 0.33600
#
# Static dielectric constant tensor:
#      x y z
#    x 4.762400 0.000000 0.014580 
#    y 0.000000 4.739110 0.000000 
#    z 0.014580 0.000000 4.840710 
# 
# 
# High freq. dielectric constant tensor:
#      x y z
#    x 2.050090 0.000000 0.017480 
#    y 0.000000 2.076300 0.000000 
#    z 0.017480 0.000000 2.063390 
# 
# From -- ./inp_files/64675.got.cif
#   From: 2010.06.25/outbox.cif.g09.slc.cpg/sg15_33_cif.got.tgz:64675.got - 2010.06.28 07:06:18.
