data_PCOD8155380
_publ_section_title
;
Structure prediction by ZEFSAII (Michael W. Deem and Ramdas Pophale) SiO2 
 PCOD8155380
Probable space group: P 2 2 21
;
_chemical_formula_sum "Si O2"
_cell_formula_units_Z 24
_cell_length_a 9.189131
_cell_length_b 9.206685
_cell_length_c 15.970245
_cell_angle_alpha 90.000000
_cell_angle_beta 90.000000
_cell_angle_gamma 90.000000
_cell_volume 1351.105637
_symmetry_space_group_name_H-M "P 2 2 21"
_symmetry_group_IT_number 17
_symmetry_cell_setting 'orthorhombic'
loop_
_space_group_symop_operation_xyz
x,y,z
-x,-y,1/2+z
x,-y,-z
-x,y,1/2-z
loop_
_atom_site_type_symbol
_atom_site_label
_atom_site_fract_x
_atom_site_fract_y
_atom_site_fract_z
Si Si1 0.162220 0.984000 0.096452
Si Si2 0.660869 0.153935 0.270124
Si Si3 0.078622 0.823582 0.663841
Si Si4 0.663893 0.489699 0.250409
Si Si5 0.092519 0.321174 0.831285
Si Si6 0.857043 0.523706 0.906856
O O1 0.284790 0.069768 0.148017
O O2 0.003137 0.049024 0.115421
O O3 0.156717 0.816427 0.121000
O O4 0.203640 0.000000 0.000000
O O5 0.500000 0.097641 0.250000
O O6 0.761771 0.117456 0.189485
O O7 0.664387 0.326480 0.286876
O O8 0.082079 0.686221 0.602889
O O9 0.000000 0.774323 0.750000
O O10 0.500000 0.552448 0.250000
O O11 0.766989 0.583716 0.309281
O O12 0.722587 0.498214 0.155729
O O13 0.000000 0.273163 0.750000
O O14 0.988338 0.412026 0.891997
O O15 0.796473 0.500000 0.000000
#
# Coordination Sequence:
#
# PCOD8155380 Si02
#       6
#     4   4   4   4   4   4
#     4  11  21  33  50  77 104 130 168 214 250 288
#     4   9  18  35  55  71  96 137 174 199 243 313
#     4   9  17  33  53  70  96 135 169 197 247 310
#     4   9  19  36  55  74 100 136 171 201 248 309
#     4  10  19  32  51  74 102 133 166 204 252 301
#     4  10  18  31  52  78 100 125 166 217 254 289
#
# _framework density 17.76323
#
# number of rings (size 3 to 8) (size 9 to 14) (size 15 to 20)
#    0.000    2.333    0.000    6.000    0.000    0.667 
#    0.000    6.667    0.000    0.000    0.000    0.000 
#    0.000    0.000    0.000    0.000    0.000    0.000 
#
# Total GULP energy -297623.407013 kJ/mol
# GULP energy per Si atom -12400.975292 kJ/mol
# Density = 1.772280 g / cm^3
# Si number density = 17.763230 Si / 1000 Ang^3
#
#
#
# Elastic Constant Matrix: (Units=GPa)
#
#
# Indices 1 2 3 4 5 6 
#
# 1 139.1887 50.5139 49.8174 0.0000 0.0000 0.0000
# 2 50.5139 88.1754 56.0588 0.0000 0.0000 0.0000
# 3 49.8174 56.0588 114.2538 0.0000 0.0000 0.0000
# 4 0.0000 0.0000 0.0000 15.1004 0.0000 0.0000
# 5 0.0000 0.0000 0.0000 0.0000 13.7392 0.0000
# 6 0.0000 0.0000 0.0000 0.0000 0.0000 17.4850
#
#
#
# Elastic Compliance Matrix: (Units=1/GPa)
#
#
# Indices 1 2 3 4 5 6 
#
# 1 0.009411 -0.004044 -0.002119 0.000000 0.000000 0.000000
# 2 -0.004044 0.018220 -0.007177 0.000000 0.000000 0.000000
# 3 -0.002119 -0.007177 0.013198 0.000000 0.000000 0.000000
# 4 0.000000 0.000000 0.000000 0.066223 0.000000 0.000000
# 5 0.000000 0.000000 0.000000 0.000000 0.072784 0.000000
# 6 0.000000 0.000000 0.000000 0.000000 0.000000 0.057192
#
#
# Mechanical properties :
#
#
# Convention : Reuss Voigt Hill
#
# Bulk Modulus (GPa) = 70.67457 72.71090 71.69273
# Shear Modulus (GPa) = 18.62726 21.61343 20.12034
#
# Velocity S-wave (km/s) = 3.24179 3.49198 3.36921
# Velocity P-wave (km/s) = 7.34068 7.56841 7.45541
#
# Compressibility (1/GPa) = 0.01414936
#
# Stress axis : x y z
#
# Youngs Moduli (GPa) = 106.26399 54.88383 75.77122
#
# Poissons Ratio (x) = 0.22194 0.16057
# Poissons Ratio (y) = 0.42972 0.54378
# Poissons Ratio (z) = 0.22518 0.39388
#
# Static dielectric constant tensor:
#      x y z
#    x 3.450980 0.000000 0.000000 
#    y 0.000000 3.236040 0.000000 
#    z 0.000000 0.000000 3.119230 
# 
# 
# High freq. dielectric constant tensor:
#      x y z
#    x 1.685630 0.000000 0.000000 
#    y 0.000000 1.688620 0.000000 
#    z 0.000000 0.000000 1.672660 
# 
# From -- ./inp_files/8087.got.cif
#   From: 2010.03.12/outbox.cif.g09.slc.cpg/sg17_5_cif.got.tgz:8087.got - 2010.04.10 18:46:23.
