data_PCOD8155059
_publ_section_title
;
Structure prediction by ZEFSAII (Michael W. Deem and Ramdas Pophale) SiO2 
 PCOD8155059
Probable space group: C 2/C
;
_chemical_formula_sum "Si O2"
_cell_formula_units_Z 40
_cell_length_a 22.164482
_cell_length_b 8.848538
_cell_length_c 14.430928
_cell_angle_alpha 90.000000
_cell_angle_beta 144.023504
_cell_angle_gamma 90.000000
_cell_volume 1662.634291
_symmetry_space_group_name_H-M "C 2/C"
_symmetry_group_IT_number 15
_symmetry_cell_setting 'monoclinic'
loop_
_space_group_symop_operation_xyz
x,y,z
-x,y,1/2-z
-x,-y,-z
x,-y,1/2+z
1/2+x,1/2+y,z
1/2-x,1/2+y,1/2-z
1/2-x,1/2-y,-z
1/2+x,1/2-y,1/2+z
loop_
_atom_site_type_symbol
_atom_site_label
_atom_site_fract_x
_atom_site_fract_y
_atom_site_fract_z
Si Si1 0.584529 0.599841 0.152870
Si Si2 0.610148 0.910086 0.916098
Si Si3 0.272242 0.573356 0.008903
Si Si4 0.722932 0.634012 0.150209
Si Si5 0.057228 0.622190 0.012179
O O1 0.633303 0.526340 0.306250
O O2 0.677153 0.620639 0.195944
O O3 0.500000 0.500000 0.000000
O O4 0.527590 0.751646 0.113325
O O5 0.500000 0.845197 0.750000
O O6 0.670326 0.773531 0.035728
O O7 0.672154 0.972365 0.905366
O O8 0.597030 0.053043 0.966304
O O9 0.250000 0.750000 0.000000
O O10 0.296992 0.523065 0.933232
O O11 0.842740 0.678233 0.307389
O O12 0.000000 0.500000 0.000000
#
# Coordination Sequence:
#
# PCOD8155059 Si02
#       5
#     8   8   8   8   8
#     4  12  28  47  76 114 152 196 254 314 377 450
#     4  12  26  47  74 109 153 200 251 307 375 452
#     4  12  28  48  74 111 150 196 253 314 376 446
#     4  12  28  49  77 109 154 200 254 310 377 460
#     4  12  25  49  79 109 150 200 249 314 383 444
#
# _framework density 24.058209000000002
#
# number of rings (size 3 to 8) (size 9 to 14) (size 15 to 20)
#    0.000    0.000    4.000    5.400    5.600    0.000 
#    0.000    0.000    0.000    0.000    0.000    0.000 
#    0.000    0.000    0.000    0.000    0.000    0.000 
#
# Total GULP energy -248022.343592 kJ/mol
# GULP energy per Si atom -12401.117180 kJ/mol
# Density = 2.400345 g / cm^3
# Si number density = 24.058209 Si / 1000 Ang^3
#
#
#
# Elastic Constant Matrix: (Units=GPa)
#
#
# Indices 1 2 3 4 5 6 
#
# 1 80.4775 37.0723 47.9771 0.0000 5.4644 0.0000
# 2 37.0723 58.6800 10.7468 0.0000 5.4607 0.0000
# 3 47.9771 10.7468 163.4502 0.0000 20.3615 0.0000
# 4 0.0000 0.0000 0.0000 47.1820 0.0000 5.3715
# 5 5.4644 5.4607 20.3615 0.0000 40.4245 0.0000
# 6 0.0000 0.0000 0.0000 5.3715 0.0000 45.5527
#
#
#
# Elastic Compliance Matrix: (Units=1/GPa)
#
#
# Indices 1 2 3 4 5 6 
#
# 1 0.021587 -0.012749 -0.005707 0.000000 0.001679 0.000000
# 2 -0.012749 0.024913 0.002463 0.000000 -0.002883 0.000000
# 3 -0.005707 0.002463 0.008084 0.000000 -0.003633 0.000000
# 4 0.000000 0.000000 0.000000 0.021483 0.000000 -0.002533
# 5 0.001679 -0.002883 -0.003633 0.000000 0.026730 0.000000
# 6 0.000000 0.000000 0.000000 -0.002533 0.000000 0.022251
#
#
# Mechanical properties :
#
#
# Convention : Reuss Voigt Hill
#
# Bulk Modulus (GPa) = 44.25160 54.91115 49.58137
# Shear Modulus (GPa) = 30.38263 40.41928 35.40095
#
# Velocity S-wave (km/s) = 3.55756 4.10330 3.84014
# Velocity P-wave (km/s) = 5.94209 6.73226 6.34948
#
# Compressibility (1/GPa) = 0.02259805
#
# Stress axis : x y z
#
# Youngs Moduli (GPa) = 46.32363 40.13929 123.70178
#
# Poissons Ratio (x) = 0.51174 0.70601
# Poissons Ratio (y) = 0.59059 -0.30472
# Poissons Ratio (z) = 0.26438 -0.09888
#
# Static dielectric constant tensor:
#      x y z
#    x 3.106020 0.000000 -0.699250 
#    y 0.000000 4.015990 0.000000 
#    z -0.699250 0.000000 4.274450 
# 
# 
# High freq. dielectric constant tensor:
#      x y z
#    x 1.961140 0.000000 0.005800 
#    y 0.000000 1.950870 0.000000 
#    z 0.005800 0.000000 1.982210 
# 
# From -- ./inp_files/221967.got.cif
#   From: 2010.06.25/outbox.cif.g09.slc.cpg/sg15_111_cif.got.tgz:221967.got - 2010.06.28 07:06:18.
