data_PCOD8155392
_publ_section_title
;
Structure prediction by ZEFSAII (Michael W. Deem and Ramdas Pophale) SiO2 
 PCOD8155392
Probable space group: P 2 2 21
;
_chemical_formula_sum "Si O2"
_cell_formula_units_Z 20
_cell_length_a 19.897140
_cell_length_b 5.462757
_cell_length_c 8.822777
_cell_angle_alpha 90.000000
_cell_angle_beta 90.000000
_cell_angle_gamma 90.000000
_cell_volume 958.976225
_symmetry_space_group_name_H-M "P 2 2 21"
_symmetry_group_IT_number 17
_symmetry_cell_setting 'orthorhombic'
loop_
_space_group_symop_operation_xyz
x,y,z
-x,-y,1/2+z
x,-y,-z
-x,y,1/2-z
loop_
_atom_site_type_symbol
_atom_site_label
_atom_site_fract_x
_atom_site_fract_y
_atom_site_fract_z
Si Si1 0.125522 0.247627 0.647214
Si Si2 0.376277 0.364261 0.845792
Si Si3 0.535457 0.000000 0.500000
Si Si4 0.500000 0.665920 0.750000
Si Si5 0.281281 0.251074 0.582992
Si Si6 0.073845 0.252153 0.316765
O O1 0.201530 0.239528 0.592664
O O2 0.076719 0.249899 0.499934
O O3 0.111436 0.498581 0.741299
O O4 0.109376 0.999881 0.743002
O O5 0.430076 0.522576 0.752907
O O6 0.311972 0.278926 0.750571
O O7 0.352364 0.500000 0.000000
O O8 0.416248 0.118434 0.877057
O O9 0.489494 0.187204 0.406943
O O10 0.303770 0.500000 0.500000
O O11 0.306405 0.000000 0.500000
O O12 0.000000 0.258245 0.250000
#
# Coordination Sequence:
#
# PCOD8155392 Si02
#       6
#     4   4   2   2   4   4
#     4  10  19  38  58  90 126 163 211 277 317 392
#     4  10  25  44  66  95 137 178 225 289 356 409
#     4  10  22  44  66  90 134 172 212 294 340 408
#     4  10  22  44  64  96 130 170 224 282 346 400
#     4  12  24  43  71 100 131 184 236 279 338 417
#     4  10  18  33  61  84 120 160 201 261 329 377
#
# _framework density 20.855575999999999
#
# number of rings (size 3 to 8) (size 9 to 14) (size 15 to 20)
#    0.000    1.600    4.000    1.200    5.600    4.000 
#    1.800    0.000   13.200    0.000    0.000    0.000 
#    0.000    0.000    0.000    0.000    0.000    0.000 
#
# Total GULP energy -247792.452346 kJ/mol
# GULP energy per Si atom -12389.622617 kJ/mol
# Density = 2.080811 g / cm^3
# Si number density = 20.855576 Si / 1000 Ang^3
#
#
#
# Elastic Constant Matrix: (Units=GPa)
#
#
# Indices 1 2 3 4 5 6 
#
# 1 80.1550 38.6738 60.8463 0.0000 0.0000 0.0000
# 2 38.6738 202.6736 39.8637 0.0000 0.0000 0.0000
# 3 60.8463 39.8637 86.1264 0.0000 0.0000 0.0000
# 4 0.0000 0.0000 0.0000 15.4722 0.0000 0.0000
# 5 0.0000 0.0000 0.0000 0.0000 43.7817 0.0000
# 6 0.0000 0.0000 0.0000 0.0000 0.0000 75.1072
#
#
#
# Elastic Compliance Matrix: (Units=1/GPa)
#
#
# Indices 1 2 3 4 5 6 
#
# 1 0.027346 -0.001560 -0.018597 0.000000 0.000000 0.000000
# 2 -0.001560 0.005517 -0.001451 0.000000 0.000000 0.000000
# 3 -0.018597 -0.001451 0.025421 0.000000 0.000000 0.000000
# 4 0.000000 0.000000 0.000000 0.064632 0.000000 0.000000
# 5 0.000000 0.000000 0.000000 0.000000 0.022841 0.000000
# 6 0.000000 0.000000 0.000000 0.000000 0.000000 0.013314
#
#
# Mechanical properties :
#
#
# Convention : Reuss Voigt Hill
#
# Bulk Modulus (GPa) = 66.37144 71.96919 69.17031
# Shear Modulus (GPa) = 24.11843 42.17696 33.14769
#
# Velocity S-wave (km/s) = 3.40435 4.50192 3.99104
# Velocity P-wave (km/s) = 6.88086 7.84897 7.38080
#
# Compressibility (1/GPa) = 0.01506672
#
# Stress axis : x y z
#
# Youngs Moduli (GPa) = 36.56879 181.25015 39.33763
#
# Poissons Ratio (x) = 0.28279 0.73156
# Poissons Ratio (y) = 0.05706 0.05709
# Poissons Ratio (z) = 0.68007 0.26306
#
# Static dielectric constant tensor:
#      x y z
#    x 3.482520 0.000000 0.000000 
#    y 0.000000 4.800260 0.000000 
#    z 0.000000 0.000000 3.429470 
# 
# 
# High freq. dielectric constant tensor:
#      x y z
#    x 1.800820 0.000000 0.000000 
#    y 0.000000 1.856950 0.000000 
#    z 0.000000 0.000000 1.778880 
# 
# From -- ./inp_files/5371.got.cif
#   From: 2010.03.12/outbox.cif.g09.slc.cpg/sg17_3_cif.got.tgz:5371.got - 2010.04.10 18:46:23.
