data_PCOD8155391
_publ_section_title
;
Structure prediction by ZEFSAII (Michael W. Deem and Ramdas Pophale) SiO2 
 PCOD8155391
Probable space group: P 2 2 21
;
_chemical_formula_sum "Si O2"
_cell_formula_units_Z 20
_cell_length_a 18.163966
_cell_length_b 11.334682
_cell_length_c 5.044661
_cell_angle_alpha 90.000000
_cell_angle_beta 90.000000
_cell_angle_gamma 90.000000
_cell_volume 1038.608823
_symmetry_space_group_name_H-M "P 2 2 21"
_symmetry_group_IT_number 17
_symmetry_cell_setting 'orthorhombic'
loop_
_space_group_symop_operation_xyz
x,y,z
-x,-y,1/2+z
x,-y,-z
-x,y,1/2-z
loop_
_atom_site_type_symbol
_atom_site_label
_atom_site_fract_x
_atom_site_fract_y
_atom_site_fract_z
Si Si1 0.374257 0.000000 0.500000
Si Si2 0.500000 0.885236 0.750000
Si Si3 0.500000 0.274051 0.750000
Si Si4 0.264618 0.787369 0.448976
Si Si5 0.048741 0.000000 0.000000
Si Si6 0.811004 0.129510 0.466081
Si Si7 0.360013 0.576606 0.253899
O O1 0.427200 0.031429 0.246458
O O2 0.325768 0.111863 0.586294
O O3 0.482710 0.805987 0.498665
O O4 0.569602 0.350596 0.659007
O O5 0.229468 0.793213 0.741784
O O6 0.296685 0.659752 0.376542
O O7 0.197863 0.805615 0.245175
O O8 0.000000 0.037190 0.750000
O O9 0.101453 0.889744 0.913036
O O10 0.772863 0.000000 0.500000
O O11 0.387409 0.500000 0.500000
O O12 0.331823 0.500000 0.000000
#
# Coordination Sequence:
#
# PCOD8155391 Si02
#       7
#     2   2   2   4   2   4   4
#     4  12  24  39  57  84 118 146 194 252 322 390
#     4  12  27  37  56  88 110 143 201 252 326 390
#     4  12  25  45  60  78 112 149 209 280 324 376
#     4  12  23  39  61  82 122 159 199 256 309 370
#     4  10  18  33  59  90 140 174 188 220 272 360
#     4  10  21  35  57  93 124 161 197 226 285 362
#     4  12  26  44  61  81 109 158 217 270 324 370
#
# _framework density 19.256529
#
# number of rings (size 3 to 8) (size 9 to 14) (size 15 to 20)
#    0.600    0.000    4.000    4.800    2.800    1.600 
#    0.000    0.000    0.000    0.000    0.000    0.000 
#    0.000   44.800    0.000    0.000    0.000    0.000 
#
# Total GULP energy -247854.788232 kJ/mol
# GULP energy per Si atom -12392.739412 kJ/mol
# Density = 1.921270 g / cm^3
# Si number density = 19.256529 Si / 1000 Ang^3
#
#
#
# Elastic Constant Matrix: (Units=GPa)
#
#
# Indices 1 2 3 4 5 6 
#
# 1 98.4305 26.3768 28.0432 0.0000 0.0000 0.0000
# 2 26.3768 73.5130 33.3155 0.0000 0.0000 0.0000
# 3 28.0432 33.3155 119.0645 0.0000 0.0000 0.0000
# 4 0.0000 0.0000 0.0000 40.2634 0.0000 0.0000
# 5 0.0000 0.0000 0.0000 0.0000 37.2946 0.0000
# 6 0.0000 0.0000 0.0000 0.0000 0.0000 8.8512
#
#
#
# Elastic Compliance Matrix: (Units=1/GPa)
#
#
# Indices 1 2 3 4 5 6 
#
# 1 0.011564 -0.003338 -0.001790 0.000000 0.000000 0.000000
# 2 -0.003338 0.016542 -0.003842 0.000000 0.000000 0.000000
# 3 -0.001790 -0.003842 0.009895 0.000000 0.000000 0.000000
# 4 0.000000 0.000000 0.000000 0.024836 0.000000 0.000000
# 5 0.000000 0.000000 0.000000 0.000000 0.026814 0.000000
# 6 0.000000 0.000000 0.000000 0.000000 0.000000 0.112979
#
#
# Mechanical properties :
#
#
# Convention : Reuss Voigt Hill
#
# Bulk Modulus (GPa) = 49.84761 51.83099 50.83930
# Shear Modulus (GPa) = 22.00144 30.83334 26.41739
#
# Velocity S-wave (km/s) = 3.38382 4.00583 3.70789
# Velocity P-wave (km/s) = 6.41944 6.95486 6.69251
#
# Compressibility (1/GPa) = 0.02006114
#
# Stress axis : x y z
#
# Youngs Moduli (GPa) = 86.47641 60.45169 101.05647
#
# Poissons Ratio (x) = 0.20180 0.18085
# Poissons Ratio (y) = 0.28867 0.38830
# Poissons Ratio (z) = 0.15476 0.23228
#
# Static dielectric constant tensor:
#      x y z
#    x 3.280050 0.000000 0.000000 
#    y 0.000000 3.630930 0.000000 
#    z 0.000000 0.000000 3.608570 
# 
# 
# High freq. dielectric constant tensor:
#      x y z
#    x 1.726060 0.000000 0.000000 
#    y 0.000000 1.733030 0.000000 
#    z 0.000000 0.000000 1.766240 
# 
# From -- ./inp_files/2578.got.cif
#   From: 2010.03.12/outbox.cif.g09.slc.cpg/sg17_2_cif.got.tgz:2578.got - 2010.04.10 18:46:23.
