data_PCOD8155930
_publ_section_title
;
Structure prediction by ZEFSAII (Michael W. Deem and Ramdas Pophale) SiO2 
 PCOD8155930
Probable space group: P 21 21 2
;
_chemical_formula_sum "Si O2"
_cell_formula_units_Z 24
_cell_length_a 9.574251
_cell_length_b 13.891097
_cell_length_c 9.670686
_cell_angle_alpha 90.000000
_cell_angle_beta 90.000000
_cell_angle_gamma 90.000000
_cell_volume 1286.170769
_symmetry_space_group_name_H-M "P 21 21 2"
_symmetry_group_IT_number 18
_symmetry_cell_setting 'orthorhombic'
loop_
_space_group_symop_operation_xyz
x,y,z
-x,-y,z
1/2+x,1/2-y,-z
1/2-x,1/2+y,-z
loop_
_atom_site_type_symbol
_atom_site_label
_atom_site_fract_x
_atom_site_fract_y
_atom_site_fract_z
Si Si1 0.378655 0.780293 0.576253
Si Si2 0.857086 0.214493 0.092819
Si Si3 0.337628 0.489030 0.777573
Si Si4 0.324476 0.694537 0.865591
Si Si5 0.343277 0.988067 0.496309
Si Si6 0.812265 0.315264 0.367032
O O1 0.313899 0.725082 0.706075
O O2 0.320986 0.734287 0.436186
O O3 0.545952 0.768877 0.571288
O O4 0.331854 0.891036 0.585268
O O5 0.806385 0.108214 0.137844
O O6 0.807734 0.294201 0.203944
O O7 0.023317 0.216816 0.072249
O O8 0.788962 0.244078 0.948365
O O9 0.500000 0.500000 0.740562
O O10 0.289931 0.580310 0.870470
O O11 0.259163 0.486523 0.632668
O O12 0.305015 0.071159 0.605442
O O13 0.500000 0.000000 0.437305
#
# Coordination Sequence:
#
# PCOD8155930 Si02
#       6
#     4   4   4   4   4   4
#     4  10  20  35  56  83 112 144 185 231 276 328
#     4  10  22  38  57  82 115 150 187 230 277 333
#     4  10  20  37  58  82 112 148 186 229 282 334
#     4  10  22  38  57  82 115 150 187 230 277 333
#     4  10  20  33  56  88 114 142 186 233 278 332
#     4  10  20  35  56  83 112 144 185 231 276 328
#
# _framework density 18.660043999999999
#
# number of rings (size 3 to 8) (size 9 to 14) (size 15 to 20)
#    0.000    2.000    3.333    0.000    0.000    4.000 
#    0.000    1.667    0.000    0.000    0.000    0.000 
#    0.000    0.000    0.000    0.000    0.000    0.000 
#
# Total GULP energy -297652.111129 kJ/mol
# GULP energy per Si atom -12402.171297 kJ/mol
# Density = 1.861757 g / cm^3
# Si number density = 18.660044 Si / 1000 Ang^3
#
#
#
# Elastic Constant Matrix: (Units=GPa)
#
#
# Indices 1 2 3 4 5 6 
#
# 1 41.2022 14.6402 15.9150 0.0000 0.0000 0.0000
# 2 14.6402 103.1785 11.2469 0.0000 0.0000 0.0000
# 3 15.9150 11.2469 39.5016 0.0000 0.0000 0.0000
# 4 0.0000 0.0000 0.0000 27.3096 0.0000 0.0000
# 5 0.0000 0.0000 0.0000 0.0000 33.8273 0.0000
# 6 0.0000 0.0000 0.0000 0.0000 0.0000 25.4592
#
#
#
# Elastic Compliance Matrix: (Units=1/GPa)
#
#
# Indices 1 2 3 4 5 6 
#
# 1 0.029614 -0.002994 -0.011079 0.000000 0.000000 0.000000
# 2 -0.002994 0.010305 -0.001728 0.000000 0.000000 0.000000
# 3 -0.011079 -0.001728 0.030271 0.000000 0.000000 0.000000
# 4 0.000000 0.000000 0.000000 0.036617 0.000000 0.000000
# 5 0.000000 0.000000 0.000000 0.000000 0.029562 0.000000
# 6 0.000000 0.000000 0.000000 0.000000 0.000000 0.039278
#
#
# Mechanical properties :
#
#
# Convention : Reuss Voigt Hill
#
# Bulk Modulus (GPa) = 25.91452 29.72072 27.81762
# Shear Modulus (GPa) = 22.71576 26.79125 24.75350
#
# Velocity S-wave (km/s) = 3.49284 3.79325 3.64614
# Velocity P-wave (km/s) = 5.49403 5.92849 5.71539
#
# Compressibility (1/GPa) = 0.03858841
#
# Stress axis : x y z
#
# Youngs Moduli (GPa) = 33.76801 97.03901 33.03509
#
# Poissons Ratio (x) = 0.29057 0.36599
# Poissons Ratio (y) = 0.10111 0.05707
# Poissons Ratio (z) = 0.37411 0.16765
#
# Static dielectric constant tensor:
#      x y z
#    x 3.417060 0.000000 0.000000 
#    y 0.000000 3.779650 0.000000 
#    z 0.000000 0.000000 3.123370 
# 
# 
# High freq. dielectric constant tensor:
#      x y z
#    x 1.722160 0.000000 0.000000 
#    y 0.000000 1.742900 0.000000 
#    z 0.000000 0.000000 1.702030 
# 
# From -- ./inp_files/3162.got.cif
#   From: 2010.03.12/outbox.cif.g09.slc.cpg/sg18_2_cif.got.tgz:3162.got - 2010.04.10 18:53:55.
