data_PCOD8155320
_publ_section_title
;
Structure prediction by ZEFSAII (Michael W. Deem and Ramdas Pophale) SiO2 
 PCOD8155320
Probable space group: P 2 2 2
;
_chemical_formula_sum "Si O2"
_cell_formula_units_Z 32
_cell_length_a 10.971705
_cell_length_b 15.344024
_cell_length_c 8.195402
_cell_angle_alpha 90.000000
_cell_angle_beta 90.000000
_cell_angle_gamma 90.000000
_cell_volume 1379.696786
_symmetry_space_group_name_H-M "P 2 2 2"
_symmetry_group_IT_number 16
_symmetry_cell_setting 'orthorhombic'
loop_
_space_group_symop_operation_xyz
x,y,z
-x,-y,z
x,-y,-z
-x,y,-z
loop_
_atom_site_type_symbol
_atom_site_label
_atom_site_fract_x
_atom_site_fract_y
_atom_site_fract_z
Si Si1 0.726650 0.581086 0.882591
Si Si2 0.008340 0.224941 0.692110
Si Si3 0.375920 0.271088 0.093125
Si Si4 0.766882 0.136224 0.709619
Si Si5 0.719264 0.195143 0.343665
Si Si6 0.962663 0.410273 0.310462
Si Si7 0.538051 0.640817 0.672870
Si Si8 0.634111 0.022923 0.188673
O O1 0.820003 0.595725 0.732416
O O2 0.597626 0.566064 0.788250
O O3 0.757099 0.500000 0.000000
O O4 0.716246 0.671041 0.984978
O O5 0.146930 0.202961 0.739068
O O6 0.974316 0.322315 0.761653
O O7 0.000000 0.233147 0.500000
O O8 0.909921 0.153797 0.751826
O O9 0.311236 0.182903 0.149490
O O10 0.411155 0.327324 0.251226
O O11 0.500000 0.245172 0.000000
O O12 0.730609 0.169589 0.531929
O O13 0.737034 0.033765 0.716753
O O14 0.637362 0.281121 0.336950
O O15 0.653739 0.123666 0.231024
O O16 0.000000 0.500000 0.219848
O O17 0.000000 0.417691 0.500000
O O18 0.500000 0.601172 0.500000
O O19 0.500000 0.000000 0.254844
O O20 0.646401 0.000000 0.000000
#
# Coordination Sequence:
#
# PCOD8155320 Si02
#       8
#     4   4   4   4   4   4   4   4
#     4  11  26  47  69 104 152 190 236 310 396 448
#     4   9  21  41  70 100 134 179 238 306 369 431
#     4  10  24  41  70  99 148 185 237 300 374 450
#     4  11  23  42  70 102 137 191 248 299 371 448
#     4  11  22  44  71 102 141 184 251 307 363 439
#     4  10  22  44  73 102 136 184 246 308 362 445
#     4  11  22  43  77 105 135 198 254 304 364 452
#     4  11  27  42  65 101 145 187 236 312 384 450
#
# _framework density 23.193501000000001
#
# number of rings (size 3 to 8) (size 9 to 14) (size 15 to 20)
#    0.000    1.500    2.500    1.125    7.000    3.500 
#    2.250    5.000    0.000    0.000    0.000    0.000 
#    0.000    0.000    0.000    0.000    0.000    0.000 
#
# Total GULP energy -396483.610495 kJ/mol
# GULP energy per Si atom -12390.112828 kJ/mol
# Density = 2.314071 g / cm^3
# Si number density = 23.193501 Si / 1000 Ang^3
#
#
#
# Elastic Constant Matrix: (Units=GPa)
#
#
# Indices 1 2 3 4 5 6 
#
# 1 114.8468 39.1576 28.0579 0.0000 0.0000 0.0000
# 2 39.1576 81.0917 10.8844 0.0000 0.0000 0.0000
# 3 28.0579 10.8844 98.4318 0.0000 0.0000 0.0000
# 4 0.0000 0.0000 0.0000 25.0107 0.0000 0.0000
# 5 0.0000 0.0000 0.0000 0.0000 39.3992 0.0000
# 6 0.0000 0.0000 0.0000 0.0000 0.0000 36.4816
#
#
#
# Elastic Compliance Matrix: (Units=1/GPa)
#
#
# Indices 1 2 3 4 5 6 
#
# 1 0.011040 -0.004983 -0.002596 0.000000 0.000000 0.000000
# 2 -0.004983 0.014766 -0.000213 0.000000 0.000000 0.000000
# 3 -0.002596 -0.000213 0.010923 0.000000 0.000000 0.000000
# 4 0.000000 0.000000 0.000000 0.039983 0.000000 0.000000
# 5 0.000000 0.000000 0.000000 0.000000 0.025381 0.000000
# 6 0.000000 0.000000 0.000000 0.000000 0.000000 0.027411
#
#
# Mechanical properties :
#
#
# Convention : Reuss Voigt Hill
#
# Bulk Modulus (GPa) = 47.28826 50.06334 48.67580
# Shear Modulus (GPa) = 32.86527 34.59633 33.73080
#
# Velocity S-wave (km/s) = 3.76839 3.86636 3.81769
# Velocity P-wave (km/s) = 6.27433 6.44699 6.36124
#
# Compressibility (1/GPa) = 0.02114690
#
# Stress axis : x y z
#
# Youngs Moduli (GPa) = 90.57669 67.72181 91.55141
#
# Poissons Ratio (x) = 0.33744 0.23767
# Poissons Ratio (y) = 0.45132 0.01945
# Poissons Ratio (z) = 0.23514 0.01439
#
# Static dielectric constant tensor:
#      x y z
#    x 4.419790 0.000000 0.000000 
#    y 0.000000 4.379490 0.000000 
#    z 0.000000 0.000000 4.245860 
# 
# 
# High freq. dielectric constant tensor:
#      x y z
#    x 1.913990 0.000000 0.000000 
#    y 0.000000 1.915740 0.000000 
#    z 0.000000 0.000000 1.914540 
# 
# From -- ./inp_files/4846.got.cif
#   From: 2010.03.12/outbox.cif.g09.slc.cpg/sg16_3_cif.got.tgz:4846.got - 2010.03.31 00:51:45.
