data_PCOD8155106
_publ_section_title
;
Structure prediction by ZEFSAII (Michael W. Deem and Ramdas Pophale) SiO2 
 PCOD8155106
Probable space group: C 2/C
;
_chemical_formula_sum "Si O2"
_cell_formula_units_Z 36
_cell_length_a 20.551837
_cell_length_b 6.943917
_cell_length_c 11.854363
_cell_angle_alpha 90.000000
_cell_angle_beta 83.167351
_cell_angle_gamma 90.000000
_cell_volume 1679.724171
_symmetry_space_group_name_H-M "C 2/C"
_symmetry_group_IT_number 15
_symmetry_cell_setting 'monoclinic'
loop_
_space_group_symop_operation_xyz
x,y,z
-x,y,1/2-z
-x,-y,-z
x,-y,1/2+z
1/2+x,1/2+y,z
1/2-x,1/2+y,1/2-z
1/2-x,1/2-y,-z
1/2+x,1/2-y,1/2+z
loop_
_atom_site_type_symbol
_atom_site_label
_atom_site_fract_x
_atom_site_fract_y
_atom_site_fract_z
Si Si1 0.952397 0.844317 0.562428
Si Si2 0.500000 0.090608 0.750000
Si Si3 0.280559 0.156469 0.883263
Si Si4 0.161305 0.000319 0.764741
Si Si5 0.888273 0.349808 0.869161
O O1 0.994786 0.725072 0.642435
O O2 0.926576 0.694048 0.475778
O O3 0.892011 0.956584 0.629647
O O4 0.000000 0.000000 0.500000
O O5 0.435644 0.959122 0.772389
O O6 0.225579 0.080804 0.810512
O O7 0.324709 0.308069 0.807684
O O8 0.325431 0.978772 0.912631
O O9 0.250000 0.250000 0.000000
O O10 0.134194 0.152711 0.682005
#
# Coordination Sequence:
#
# PCOD8155106 Si02
#       5
#     8   4   8   8   8
#     4  12  27  47  77 107 143 190 245 299 361 429
#     4  12  26  48  72 104 146 190 240 298 364 422
#     4  12  28  45  76 107 144 193 240 295 364 432
#     4  12  26  50  72 109 147 187 240 300 362 430
#     4  12  27  47  75 104 146 190 239 296 360 431
#
# _framework density 21.432089999999999
#
# number of rings (size 3 to 8) (size 9 to 14) (size 15 to 20)
#    0.000    0.000    4.444    4.667    9.333    1.778 
#    0.000    0.000    0.000    0.000    0.000    0.000 
#    0.000    0.000    0.000    0.000    0.000    0.000 
#
# Total GULP energy -223392.284662 kJ/mol
# GULP energy per Si atom -12410.682481 kJ/mol
# Density = 2.138331 g / cm^3
# Si number density = 21.432090 Si / 1000 Ang^3
#
#
#
# Elastic Constant Matrix: (Units=GPa)
#
#
# Indices 1 2 3 4 5 6 
#
# 1 106.1511 49.7324 41.9054 0.0000 -3.0080 0.0000
# 2 49.7324 123.3391 52.0724 0.0000 -1.5757 0.0000
# 3 41.9054 52.0724 120.3744 0.0000 -0.4450 0.0000
# 4 0.0000 0.0000 0.0000 24.4242 0.0000 -15.0303
# 5 -3.0080 -1.5757 -0.4450 0.0000 56.0548 0.0000
# 6 0.0000 0.0000 0.0000 -15.0303 0.0000 48.8847
#
#
#
# Elastic Compliance Matrix: (Units=1/GPa)
#
#
# Indices 1 2 3 4 5 6 
#
# 1 0.012262 -0.003837 -0.002607 0.000000 0.000529 0.000000
# 2 -0.003837 0.011123 -0.003476 0.000000 0.000079 0.000000
# 3 -0.002607 -0.003476 0.010718 0.000000 -0.000153 0.000000
# 4 0.000000 0.000000 0.000000 0.050498 0.000000 0.015526
# 5 0.000529 0.000079 -0.000153 0.000000 0.017869 0.000000
# 6 0.000000 0.000000 0.000000 0.015526 0.000000 0.025230
#
#
# Mechanical properties :
#
#
# Convention : Reuss Voigt Hill
#
# Bulk Modulus (GPa) = 70.10604 70.80944 70.45774
# Shear Modulus (GPa) = 32.83108 39.61637 36.22372
#
# Velocity S-wave (km/s) = 3.91815 4.30404 4.11562
# Velocity P-wave (km/s) = 7.29733 7.60331 7.45189
#
# Compressibility (1/GPa) = 0.01426411
#
# Stress axis : x y z
#
# Youngs Moduli (GPa) = 81.55033 89.90149 93.30096
#
# Poissons Ratio (x) = 0.34495 0.24324
# Poissons Ratio (y) = 0.31290 0.32429
# Poissons Ratio (z) = 0.21261 0.31248
#
# Static dielectric constant tensor:
#      x y z
#    x 10.229410 0.000000 2.636330 
#    y 0.000000 4.085140 0.000000 
#    z 2.636330 0.000000 5.065580 
# 
# 
# High freq. dielectric constant tensor:
#      x y z
#    x 1.862660 0.000000 0.000690 
#    y 0.000000 1.863040 0.000000 
#    z 0.000690 0.000000 1.851880 
# 
# From -- ./inp_files/115583.got.cif
#   From: 2010.06.25/outbox.cif.g09.slc.cpg/sg15_58_cif.got.tgz:115583.got - 2010.06.28 07:06:18.
