data_PCOD8155103
_publ_section_title
;
Structure prediction by ZEFSAII (Michael W. Deem and Ramdas Pophale) SiO2 
 PCOD8155103
Probable space group: C 2/C
;
_chemical_formula_sum "Si O2"
_cell_formula_units_Z 40
_cell_length_a 15.621305
_cell_length_b 11.733150
_cell_length_c 9.036419
_cell_angle_alpha 90.000000
_cell_angle_beta 72.883051
_cell_angle_gamma 90.000000
_cell_volume 1582.896808
_symmetry_space_group_name_H-M "C 2/C"
_symmetry_group_IT_number 15
_symmetry_cell_setting 'monoclinic'
loop_
_space_group_symop_operation_xyz
x,y,z
-x,y,1/2-z
-x,-y,-z
x,-y,1/2+z
1/2+x,1/2+y,z
1/2-x,1/2+y,1/2-z
1/2-x,1/2-y,-z
1/2+x,1/2-y,1/2+z
loop_
_atom_site_type_symbol
_atom_site_label
_atom_site_fract_x
_atom_site_fract_y
_atom_site_fract_z
Si Si1 0.483022 0.881211 0.586932
Si Si2 0.601116 0.456153 0.928872
Si Si3 0.711522 0.575827 0.648249
Si Si4 0.632889 0.780600 0.330451
Si Si5 0.682649 0.145780 0.504767
O O1 0.500000 0.892534 0.750000
O O2 0.553194 0.793817 0.485618
O O3 0.384059 0.832289 0.599486
O O4 0.500000 0.000000 0.500000
O O5 0.664743 0.555714 0.832212
O O6 0.621328 0.354315 0.798825
O O7 0.500000 0.500000 0.000000
O O8 0.632815 0.405560 0.069898
O O9 0.772947 0.687681 0.637715
O O10 0.771442 0.473366 0.553748
O O11 0.624032 0.858836 0.187033
O O12 0.750000 0.250000 0.500000
#
# Coordination Sequence:
#
# PCOD8155103 Si02
#       5
#     8   8   8   8   8
#     4  12  28  47  77 117 161 206 271 342 417 490
#     4  12  29  49  77 115 161 215 271 341 418 502
#     4  12  26  49  77 113 160 209 277 330 412 498
#     4  12  27  48  80 115 159 211 274 338 415 487
#     4  12  26  47  82 115 157 214 267 334 412 489
#
# _framework density 25.270123999999999
#
# number of rings (size 3 to 8) (size 9 to 14) (size 15 to 20)
#    0.000    0.000    6.000    3.000    5.600    4.800 
#    0.000    0.000    0.000    0.000    0.000    0.000 
#    0.000    0.000    0.000    0.000    0.000    0.000 
#
# Total GULP energy -247911.604148 kJ/mol
# GULP energy per Si atom -12395.580207 kJ/mol
# Density = 2.521261 g / cm^3
# Si number density = 25.270124 Si / 1000 Ang^3
#
#
#
# Elastic Constant Matrix: (Units=GPa)
#
#
# Indices 1 2 3 4 5 6 
#
# 1 180.7817 58.7368 48.2698 0.0000 16.0856 0.0000
# 2 58.7368 93.6909 12.8247 0.0000 -14.9205 0.0000
# 3 48.2698 12.8247 135.0089 0.0000 14.5167 0.0000
# 4 0.0000 0.0000 0.0000 29.6156 0.0000 -4.1510
# 5 16.0856 -14.9205 14.5167 0.0000 54.8336 0.0000
# 6 0.0000 0.0000 0.0000 -4.1510 0.0000 47.8314
#
#
#
# Elastic Compliance Matrix: (Units=1/GPa)
#
#
# Indices 1 2 3 4 5 6 
#
# 1 0.008096 -0.005320 -0.002036 0.000000 -0.003283 0.000000
# 2 -0.005320 0.014926 -0.000124 0.000000 0.005655 0.000000
# 3 -0.002036 -0.000124 0.008323 0.000000 -0.001640 0.000000
# 4 0.000000 0.000000 0.000000 0.034182 0.000000 0.002966
# 5 -0.003283 0.005655 -0.001640 0.000000 0.021173 0.000000
# 6 0.000000 0.000000 0.000000 0.002966 0.000000 0.021164
#
#
# Mechanical properties :
#
#
# Convention : Reuss Voigt Hill
#
# Bulk Modulus (GPa) = 61.03025 72.12713 66.57869
# Shear Modulus (GPa) = 38.97592 45.76612 42.37102
#
# Velocity S-wave (km/s) = 3.93156 4.26029 4.09922
# Velocity P-wave (km/s) = 6.69426 7.26667 6.98633
#
# Compressibility (1/GPa) = 0.01638532
#
# Stress axis : x y z
#
# Youngs Moduli (GPa) = 123.52295 66.99808 120.14914
#
# Poissons Ratio (x) = 0.35640 0.24464
# Poissons Ratio (y) = 0.65708 0.01489
# Poissons Ratio (z) = 0.25151 0.00830
#
# Static dielectric constant tensor:
#      x y z
#    x 9.963050 0.000000 -2.079770 
#    y 0.000000 4.528460 0.000000 
#    z -2.079770 0.000000 6.035020 
# 
# 
# High freq. dielectric constant tensor:
#      x y z
#    x 2.017580 0.000000 -0.005150 
#    y 0.000000 2.007750 0.000000 
#    z -0.005150 0.000000 2.019980 
# 
# From -- ./inp_files/46064.got.cif
#   From: 2010.06.25/outbox.cif.g09.slc.cpg/sg15_24_cif.got.tgz:46064.got - 2010.06.28 07:06:18.
