data_PCOD8155611
_publ_section_title
;
Structure prediction by ZEFSAII (Michael W. Deem and Ramdas Pophale) SiO2 
 PCOD8155611
Probable space group: P 2 2 21
;
_chemical_formula_sum "Si O2"
_cell_formula_units_Z 32
_cell_length_a 11.466368
_cell_length_b 9.608983
_cell_length_c 14.646981
_cell_angle_alpha 90.000000
_cell_angle_beta 90.000000
_cell_angle_gamma 90.000000
_cell_volume 1613.806347
_symmetry_space_group_name_H-M "P 2 2 21"
_symmetry_group_IT_number 17
_symmetry_cell_setting 'orthorhombic'
loop_
_space_group_symop_operation_xyz
x,y,z
-x,-y,1/2+z
x,-y,-z
-x,y,1/2-z
loop_
_atom_site_type_symbol
_atom_site_label
_atom_site_fract_x
_atom_site_fract_y
_atom_site_fract_z
Si Si1 0.868939 0.199255 0.942525
Si Si2 0.419616 0.394167 0.919152
Si Si3 0.089628 0.635531 0.062325
Si Si4 0.224793 0.513591 0.215262
Si Si5 0.687651 0.408159 0.908895
Si Si6 0.162113 0.203931 0.188019
Si Si7 0.275842 0.163175 0.011961
Si Si8 0.912357 0.084634 0.134442
O O1 0.740151 0.253848 0.919337
O O2 0.952924 0.333885 0.937902
O O3 0.915807 0.083393 0.871499
O O4 0.855719 0.140882 0.043259
O O5 0.347425 0.456060 0.834688
O O6 0.552241 0.386205 0.886952
O O7 0.399319 0.500000 0.000000
O O8 0.379042 0.243432 0.958466
O O9 0.132803 0.618022 0.166987
O O10 0.119684 0.500000 0.000000
O O11 0.153024 0.771988 0.021302
O O12 0.245187 0.525570 0.322970
O O13 0.160978 0.367638 0.202082
O O14 0.706898 0.500000 0.000000
O O15 0.273078 0.175695 0.122429
O O16 0.176145 0.125386 0.284265
O O17 0.040122 0.150156 0.145804
O O18 0.286615 0.000000 0.000000
#
# Coordination Sequence:
#
# PCOD8155611 Si02
#       8
#     4   4   4   4   4   4   4   4
#     4  11  22  41  55  88 133 178 202 254 320 398
#     4  10  21  43  65  92 120 162 215 278 320 377
#     4  11  20  36  65  95 127 163 216 265 321 383
#     4  11  21  38  65  92 120 160 212 278 315 374
#     4  11  25  40  62  88 124 169 219 263 328 382
#     4  11  20  37  61  94 123 165 215 260 320 393
#     4  11  20  36  64  96 125 158 212 275 332 378
#     4  10  23  36  58  87 134 174 204 253 327 396
#
# _framework density 19.828897999999999
#
# number of rings (size 3 to 8) (size 9 to 14) (size 15 to 20)
#    0.000    1.250    3.750    3.000    0.000    6.500 
#    2.250    0.000    0.000    0.000    0.000    0.000 
#    0.000    0.000    0.000    0.000    0.000    0.000 
#
# Total GULP energy -396560.981605 kJ/mol
# GULP energy per Si atom -12392.530675 kJ/mol
# Density = 1.978377 g / cm^3
# Si number density = 19.828898 Si / 1000 Ang^3
#
#
#
# Elastic Constant Matrix: (Units=GPa)
#
#
# Indices 1 2 3 4 5 6 
#
# 1 60.7708 37.2841 25.6435 0.0000 0.0000 0.0000
# 2 37.2841 132.4865 40.0562 0.0000 0.0000 0.0000
# 3 25.6435 40.0562 121.8523 0.0000 0.0000 0.0000
# 4 0.0000 0.0000 0.0000 29.5085 0.0000 0.0000
# 5 0.0000 0.0000 0.0000 0.0000 26.8458 0.0000
# 6 0.0000 0.0000 0.0000 0.0000 0.0000 23.9826
#
#
#
# Elastic Compliance Matrix: (Units=1/GPa)
#
#
# Indices 1 2 3 4 5 6 
#
# 1 0.020663 -0.004997 -0.002706 0.000000 0.000000 0.000000
# 2 -0.004997 0.009589 -0.002101 0.000000 0.000000 0.000000
# 3 -0.002706 -0.002101 0.009467 0.000000 0.000000 0.000000
# 4 0.000000 0.000000 0.000000 0.033888 0.000000 0.000000
# 5 0.000000 0.000000 0.000000 0.000000 0.037250 0.000000
# 6 0.000000 0.000000 0.000000 0.000000 0.000000 0.041697
#
#
# Mechanical properties :
#
#
# Convention : Reuss Voigt Hill
#
# Bulk Modulus (GPa) = 49.72158 57.89747 53.80953
# Shear Modulus (GPa) = 27.95415 30.20911 29.08163
#
# Velocity S-wave (km/s) = 3.75876 3.90742 3.83381
# Velocity P-wave (km/s) = 6.63080 7.04409 6.84057
#
# Compressibility (1/GPa) = 0.02011199
#
# Stress axis : x y z
#
# Youngs Moduli (GPa) = 48.39641 104.28346 105.63402
#
# Poissons Ratio (x) = 0.52108 0.28583
# Poissons Ratio (y) = 0.24183 0.22190
# Poissons Ratio (z) = 0.13095 0.21907
#
# Static dielectric constant tensor:
#      x y z
#    x 3.494400 0.000000 0.000000 
#    y 0.000000 3.655280 0.000000 
#    z 0.000000 0.000000 4.205690 
# 
# 
# High freq. dielectric constant tensor:
#      x y z
#    x 1.750800 0.000000 0.000000 
#    y 0.000000 1.774600 0.000000 
#    z 0.000000 0.000000 1.787710 
# 
# From -- ./inp_files/8294.got.cif
#   From: 2010.03.12/outbox.cif.g09.slc.cpg/sg17_5_cif.got.tgz:8294.got - 2010.04.10 18:46:23.
