data_PCOD8155662
_publ_section_title
;
Structure prediction by ZEFSAII (Michael W. Deem and Ramdas Pophale) SiO2 
 PCOD8155662
Probable space group: P 2 2 21
;
_chemical_formula_sum "Si O2"
_cell_formula_units_Z 12
_cell_length_a 6.617096
_cell_length_b 6.940296
_cell_length_c 11.672615
_cell_angle_alpha 90.000000
_cell_angle_beta 90.000000
_cell_angle_gamma 90.000000
_cell_volume 536.060232
_symmetry_space_group_name_H-M "P 2 2 21"
_symmetry_group_IT_number 17
_symmetry_cell_setting 'orthorhombic'
loop_
_space_group_symop_operation_xyz
x,y,z
-x,-y,1/2+z
x,-y,-z
-x,y,1/2-z
loop_
_atom_site_type_symbol
_atom_site_label
_atom_site_fract_x
_atom_site_fract_y
_atom_site_fract_z
Si Si1 0.737845 0.790227 0.451906
Si Si2 0.926262 0.500000 0.000000
Si Si3 0.500000 0.065795 0.750000
Si Si4 0.586668 0.698219 0.865628
O O1 0.940833 0.666779 0.442941
O O2 0.648094 0.801145 0.323941
O O3 0.577448 0.681956 0.533279
O O4 0.793478 0.000000 0.500000
O O5 0.792106 0.406742 0.100157
O O6 0.627787 0.925582 0.836571
O O7 0.500000 0.596930 0.750000
#
# Coordination Sequence:
#
# PCOD8155662 Si02
#       4
#     4   2   2   4
#     4  10  22  47  72 105 139 183 233 284 348 417
#     4  12  24  44  78 106 136 180 246 286 342 416
#     4   8  20  48  76  92 150 184 218 288 360 408
#     4   9  22  46  72  95 147 183 222 287 353 411
#
# _framework density 22.385542999999998
#
# number of rings (size 3 to 8) (size 9 to 14) (size 15 to 20)
#    1.000    1.333    0.000    1.000    0.000    5.333 
#   18.000    3.333    7.333    0.000    0.000    0.000 
#    0.000    0.000    0.000    0.000    0.000    0.000 
#
# Total GULP energy -148763.624289 kJ/mol
# GULP energy per Si atom -12396.968691 kJ/mol
# Density = 2.233459 g / cm^3
# Si number density = 22.385543 Si / 1000 Ang^3
#
#
#
# Elastic Constant Matrix: (Units=GPa)
#
#
# Indices 1 2 3 4 5 6 
#
# 1 170.0229 91.4376 93.8684 0.0000 0.0000 0.0000
# 2 91.4376 111.2093 55.3768 0.0000 0.0000 0.0000
# 3 93.8684 55.3768 146.2652 0.0000 0.0000 0.0000
# 4 0.0000 0.0000 0.0000 -32.0365 0.0000 0.0000
# 5 0.0000 0.0000 0.0000 0.0000 39.3219 0.0000
# 6 0.0000 0.0000 0.0000 0.0000 0.0000 42.5841
#
#
#
# Elastic Compliance Matrix: (Units=1/GPa)
#
#
# Indices 1 2 3 4 5 6 
#
# 1 0.013306 -0.008242 -0.005419 0.000000 0.000000 0.000000
# 2 -0.008242 0.016186 -0.000839 0.000000 0.000000 0.000000
# 3 -0.005419 -0.000839 0.010632 0.000000 0.000000 0.000000
# 4 0.000000 0.000000 0.000000 -0.031214 0.000000 0.000000
# 5 0.000000 0.000000 0.000000 0.000000 0.025431 0.000000
# 6 0.000000 0.000000 0.000000 0.000000 0.000000 0.023483
#
#
# Mechanical properties :
#
#
# Convention : Reuss Voigt Hill
#
# Bulk Modulus (GPa) = 89.88655 100.98481 95.43568
# Shear Modulus (GPa) = 55.22989 22.42821 38.82905
#
# Velocity S-wave (km/s) = 4.97249 3.16872 4.16932
# Velocity P-wave (km/s) = 8.55620 7.65489 8.11806
#
# Compressibility (1/GPa) = 0.01112513
#
# Stress axis : x y z
#
# Youngs Moduli (GPa) = 75.15648 61.78087 94.05494
#
# Poissons Ratio (x) = 0.50918 0.50966
# Poissons Ratio (y) = 0.61942 0.07890
# Poissons Ratio (z) = 0.40725 0.05183
#
# Static dielectric constant tensor:
#      x y z
#    x 3.677710 0.000000 0.000000 
#    y 0.000000 4.072140 0.000000 
#    z 0.000000 0.000000 4.004730 
# 
# 
# High freq. dielectric constant tensor:
#      x y z
#    x 1.853590 0.000000 0.000000 
#    y 0.000000 1.896540 0.000000 
#    z 0.000000 0.000000 1.883720 
# 
# From -- ./inp_files/5671.got.cif
#   From: 2010.03.12/outbox.cif.g09.slc.cpg/sg17_3_cif.got.tgz:5671.got - 2010.04.10 18:46:23.
