data_PCOD8155796
_publ_section_title
;
Structure prediction by ZEFSAII (Michael W. Deem and Ramdas Pophale) SiO2 
 PCOD8155796
Probable space group: P 21 21 2
;
_chemical_formula_sum "Si O2"
_cell_formula_units_Z 32
_cell_length_a 8.762265
_cell_length_b 30.471166
_cell_length_c 5.409236
_cell_angle_alpha 90.000000
_cell_angle_beta 90.000000
_cell_angle_gamma 90.000000
_cell_volume 1444.246708
_symmetry_space_group_name_H-M "P 21 21 2"
_symmetry_group_IT_number 18
_symmetry_cell_setting 'orthorhombic'
loop_
_space_group_symop_operation_xyz
x,y,z
-x,-y,z
1/2+x,1/2-y,-z
1/2-x,1/2+y,-z
loop_
_atom_site_type_symbol
_atom_site_label
_atom_site_fract_x
_atom_site_fract_y
_atom_site_fract_z
Si Si1 0.630839 0.612052 0.115367
Si Si2 0.282971 0.810881 0.641449
Si Si3 0.228313 0.227449 0.078097
Si Si4 0.176969 0.987025 0.907996
Si Si5 0.363204 0.188912 0.580823
Si Si6 0.050119 0.818958 0.260377
Si Si7 0.834414 0.977456 0.405054
Si Si8 0.852946 0.882345 0.568192
O O1 0.706453 0.564868 0.077893
O O2 0.635091 0.640383 0.868437
O O3 0.730185 0.638957 0.315214
O O4 0.453729 0.604657 0.193349
O O5 0.259662 0.780394 0.885508
O O6 0.456210 0.809093 0.560346
O O7 0.176605 0.791883 0.418098
O O8 0.309433 0.205550 0.313450
O O9 0.048158 0.212763 0.078459
O O10 0.302507 0.216560 0.815684
O O11 0.253898 0.007581 0.155496
O O12 0.000000 0.000000 0.906069
O O13 0.252143 0.006784 0.656303
O O14 0.313419 0.137807 0.632471
O O15 0.930292 0.840132 0.447381
O O16 0.843467 0.924774 0.392894
O O17 0.000000 0.000000 0.403115
#
# Coordination Sequence:
#
# PCOD8155796 Si02
#       8
#     4   4   4   4   4   4   4   4
#     4  11  21  38  62  96 128 166 219 270 334 388
#     4  11  27  39  65  95 133 177 218 284 339 402
#     4  11  25  44  67  90 132 173 238 264 332 395
#     4  10  19  31  56  91 122 155 206 270 312 378
#     4  11  26  44  66  98 132 180 218 286 336 407
#     4  10  22  40  63  92 125 173 214 277 317 395
#     4  10  18  30  56  93 117 156 204 271 311 374
#     4  10  20  38  62  95 128 165 218 267 331 392
#
# _framework density 22.156880000000001
#
# number of rings (size 3 to 8) (size 9 to 14) (size 15 to 20)
#    0.000    1.500    3.750    2.250    7.000    0.000 
#    0.000    0.000    0.000    0.750    0.000    0.000 
#    0.000    0.000    0.000    0.000    0.000    0.000 
#
# Total GULP energy -396570.488114 kJ/mol
# GULP energy per Si atom -12392.827754 kJ/mol
# Density = 2.210645 g / cm^3
# Si number density = 22.156880 Si / 1000 Ang^3
#
#
#
# Elastic Constant Matrix: (Units=GPa)
#
#
# Indices 1 2 3 4 5 6 
#
# 1 85.6607 24.4296 16.2038 0.0000 0.0000 0.0000
# 2 24.4296 119.5808 19.6148 0.0000 0.0000 0.0000
# 3 16.2038 19.6148 126.5569 0.0000 0.0000 0.0000
# 4 0.0000 0.0000 0.0000 30.1675 0.0000 0.0000
# 5 0.0000 0.0000 0.0000 0.0000 8.1109 0.0000
# 6 0.0000 0.0000 0.0000 0.0000 0.0000 19.5768
#
#
#
# Elastic Compliance Matrix: (Units=1/GPa)
#
#
# Indices 1 2 3 4 5 6 
#
# 1 0.012584 -0.002367 -0.001244 0.000000 0.000000 0.000000
# 2 -0.002367 0.009026 -0.001096 0.000000 0.000000 0.000000
# 3 -0.001244 -0.001096 0.008231 0.000000 0.000000 0.000000
# 4 0.000000 0.000000 0.000000 0.033148 0.000000 0.000000
# 5 0.000000 0.000000 0.000000 0.000000 0.123290 0.000000
# 6 0.000000 0.000000 0.000000 0.000000 0.000000 0.051081
#
#
# Mechanical properties :
#
#
# Convention : Reuss Voigt Hill
#
# Bulk Modulus (GPa) = 48.95531 50.25498 49.60514
# Shear Modulus (GPa) = 19.71739 29.67440 24.69589
#
# Velocity S-wave (km/s) = 2.98635 3.66360 3.34217
# Velocity P-wave (km/s) = 5.83386 6.37390 6.10985
#
# Compressibility (1/GPa) = 0.02042679
#
# Stress axis : x y z
#
# Youngs Moduli (GPa) = 79.46386 110.79326 121.49549
#
# Poissons Ratio (x) = 0.26222 0.15119
# Poissons Ratio (y) = 0.18807 0.13314
# Poissons Ratio (z) = 0.09889 0.12141
#
# Static dielectric constant tensor:
#      x y z
#    x 3.728920 0.000000 0.000000 
#    y 0.000000 4.236180 0.000000 
#    z 0.000000 0.000000 4.934240 
# 
# 
# High freq. dielectric constant tensor:
#      x y z
#    x 1.819440 0.000000 0.000000 
#    y 0.000000 1.880850 0.000000 
#    z 0.000000 0.000000 1.886750 
# 
# From -- ./inp_files/758.got.cif
#   From: 2010.03.12/outbox.cif.g09.slc.cpg/sg18_1_cif.got.tgz:758.got - 2010.04.10 18:53:55.
