data_PCOD8155814
_publ_section_title
;
Structure prediction by ZEFSAII (Michael W. Deem and Ramdas Pophale) SiO2 
 PCOD8155814
Probable space group: P 21 21 2
;
_chemical_formula_sum "Si O2"
_cell_formula_units_Z 24
_cell_length_a 13.554732
_cell_length_b 4.986933
_cell_length_c 17.360463
_cell_angle_alpha 90.000000
_cell_angle_beta 90.000000
_cell_angle_gamma 90.000000
_cell_volume 1173.507237
_symmetry_space_group_name_H-M "P 21 21 2"
_symmetry_group_IT_number 18
_symmetry_cell_setting 'orthorhombic'
loop_
_space_group_symop_operation_xyz
x,y,z
-x,-y,z
1/2+x,1/2-y,-z
1/2-x,1/2+y,-z
loop_
_atom_site_type_symbol
_atom_site_label
_atom_site_fract_x
_atom_site_fract_y
_atom_site_fract_z
Si Si1 0.500000 0.500000 0.362925
Si Si2 0.000000 0.500000 0.530361
Si Si3 0.705376 0.972794 0.536007
Si Si4 0.000000 0.500000 0.827429
Si Si5 0.286702 0.588518 0.301006
Si Si6 0.292357 0.095636 0.209365
Si Si7 0.000000 0.000000 0.926544
Si Si8 0.794332 0.216636 0.963612
O O1 0.472673 0.251507 0.416970
O O2 0.405450 0.583447 0.311589
O O3 0.092030 0.441586 0.474319
O O4 0.770400 0.238507 0.524591
O O5 0.729708 0.853768 0.619954
O O6 0.910744 0.390997 0.776163
O O7 0.042400 0.250280 0.877548
O O8 0.245405 0.313223 0.266046
O O9 0.254337 0.808259 0.237449
O O10 0.270310 0.163937 0.120710
O O11 0.907443 0.115995 0.975060
O O12 0.776705 0.462103 0.022305
#
# Coordination Sequence:
#
# PCOD8155814 Si02
#       8
#     2   2   4   2   4   4   2   4
#     4  12  22  35  62  90 123 160 196 244 314 379
#     4  12  22  41  60  88 121 162 212 254 296 373
#     4  12  23  41  61  87 121 164 209 258 301 364
#     4  10  18  35  54  84 125 158 184 240 320 391
#     4  12  22  36  57  89 124 161 200 253 309 366
#     4  11  22  36  57  89 125 159 199 250 312 374
#     4  10  20  35  60  90 121 156 198 246 310 369
#     4  11  22  39  63  90 125 167 207 251 306 375
#
# _framework density 20.451515000000001
#
# number of rings (size 3 to 8) (size 9 to 14) (size 15 to 20)
#    0.000    0.667    3.333    8.000    0.000    0.667 
#    0.000    0.000    0.000    4.000    0.000    0.000 
#    0.000    0.000    0.000    0.000    0.000    0.000 
#
# Total GULP energy -297567.086008 kJ/mol
# GULP energy per Si atom -12398.628584 kJ/mol
# Density = 2.040497 g / cm^3
# Si number density = 20.451515 Si / 1000 Ang^3
#
#
#
# Elastic Constant Matrix: (Units=GPa)
#
#
# Indices 1 2 3 4 5 6 
#
# 1 67.7453 33.7342 40.9881 0.0000 0.0000 0.0000
# 2 33.7342 141.6837 40.2738 0.0000 0.0000 0.0000
# 3 40.9881 40.2738 85.9837 0.0000 0.0000 0.0000
# 4 0.0000 0.0000 0.0000 45.3540 0.0000 0.0000
# 5 0.0000 0.0000 0.0000 0.0000 26.1722 0.0000
# 6 0.0000 0.0000 0.0000 0.0000 0.0000 26.6213
#
#
#
# Elastic Compliance Matrix: (Units=1/GPa)
#
#
# Indices 1 2 3 4 5 6 
#
# 1 0.021512 -0.002546 -0.009062 0.000000 0.000000 0.000000
# 2 -0.002546 0.008443 -0.002741 0.000000 0.000000 0.000000
# 3 -0.009062 -0.002741 0.017234 0.000000 0.000000 0.000000
# 4 0.000000 0.000000 0.000000 0.022049 0.000000 0.000000
# 5 0.000000 0.000000 0.000000 0.000000 0.038208 0.000000
# 6 0.000000 0.000000 0.000000 0.000000 0.000000 0.037564
#
#
# Mechanical properties :
#
#
# Convention : Reuss Voigt Hill
#
# Bulk Modulus (GPa) = 54.08127 58.37833 56.22980
# Shear Modulus (GPa) = 27.79755 31.65730 29.72742
#
# Velocity S-wave (km/s) = 3.69072 3.93863 3.81669
# Velocity P-wave (km/s) = 6.68304 7.02072 6.85396
#
# Compressibility (1/GPa) = 0.01849069
#
# Stress axis : x y z
#
# Youngs Moduli (GPa) = 46.48603 118.43690 58.02518
#
# Poissons Ratio (x) = 0.30153 0.52583
# Poissons Ratio (y) = 0.11835 0.15905
# Poissons Ratio (z) = 0.42126 0.32465
#
# Static dielectric constant tensor:
#      x y z
#    x 3.396280 0.000000 0.000000 
#    y 0.000000 4.051960 0.000000 
#    z 0.000000 0.000000 3.540290 
# 
# 
# High freq. dielectric constant tensor:
#      x y z
#    x 1.760360 0.000000 0.000000 
#    y 0.000000 1.833700 0.000000 
#    z 0.000000 0.000000 1.785430 
# 
# From -- ./inp_files/6478.got.cif
#   From: 2010.03.12/outbox.cif.g09.slc.cpg/sg18_4_cif.got.tgz:6478.got - 2010.04.10 18:53:55.
