data_PCOD8155433
_publ_section_title
;
Structure prediction by ZEFSAII (Michael W. Deem and Ramdas Pophale) SiO2 
 PCOD8155433
Probable space group: P 2 2 21
;
_chemical_formula_sum "Si O2"
_cell_formula_units_Z 30
_cell_length_a 13.617037
_cell_length_b 19.735156
_cell_length_c 5.526980
_cell_angle_alpha 90.000000
_cell_angle_beta 90.000000
_cell_angle_gamma 90.000000
_cell_volume 1485.289375
_symmetry_space_group_name_H-M "P 2 2 21"
_symmetry_group_IT_number 17
_symmetry_cell_setting 'orthorhombic'
loop_
_space_group_symop_operation_xyz
x,y,z
-x,-y,1/2+z
x,-y,-z
-x,y,1/2-z
loop_
_atom_site_type_symbol
_atom_site_label
_atom_site_fract_x
_atom_site_fract_y
_atom_site_fract_z
Si Si1 0.887549 0.459978 0.748570
Si Si2 0.891825 0.272746 0.232305
Si Si3 0.458498 0.773237 0.996829
Si Si4 0.754150 0.777571 0.379785
Si Si5 0.534755 0.620091 0.998165
Si Si6 0.941231 0.000000 0.000000
Si Si7 0.103260 0.142951 0.609352
Si Si8 0.752123 0.349919 0.919541
O O1 0.867814 0.500000 0.500000
O O2 0.810041 0.398224 0.733560
O O3 0.000000 0.433685 0.750000
O O4 0.865676 0.500000 0.000000
O O5 0.847437 0.255164 0.489582
O O6 0.000000 0.303951 0.250000
O O7 0.896797 0.203589 0.081032
O O8 0.827179 0.334400 0.134446
O O9 0.500000 0.806971 0.750000
O O10 0.482406 0.693568 0.996492
O O11 0.500000 0.805280 0.250000
O O12 0.342879 0.790784 0.964250
O O13 0.798972 0.846855 0.271777
O O14 0.719011 0.722599 0.184536
O O15 0.500000 0.582368 0.750000
O O16 0.500000 0.584008 0.250000
O O17 0.652300 0.617527 0.983027
O O18 0.879356 0.930244 0.984153
O O19 0.000000 0.996785 0.250000
O O20 0.000000 0.144545 0.750000
#
# Coordination Sequence:
#
# PCOD8155433 Si02
#       8
#     4   4   4   4   4   2   4   4
#     4  10  25  45  63  85 119 161 211 252 287 360
#     4  11  22  33  55  88 129 154 195 255 312 372
#     4  10  19  35  53  81 119 154 190 236 299 364
#     4  11  22  35  57  91 125 159 196 253 312 371
#     4  10  19  35  56  86 116 148 189 238 297 365
#     4  10  22  38  62  80 118 184 222 244 294 358
#     4  10  21  37  53  86 128 168 207 252 298 361
#     4  11  24  36  62  89 115 163 201 248 318 366
#
# _framework density 20.198081999999999
#
# number of rings (size 3 to 8) (size 9 to 14) (size 15 to 20)
#    0.000    1.600    4.000    2.000    7.467    0.533 
#    0.000    0.000    0.000    1.600    0.000    0.000 
#    4.000    0.000    0.000    0.000    0.000    0.000 
#
# Total GULP energy -371660.831948 kJ/mol
# GULP energy per Si atom -12388.694398 kJ/mol
# Density = 2.015211 g / cm^3
# Si number density = 20.198082 Si / 1000 Ang^3
#
#
#
# Elastic Constant Matrix: (Units=GPa)
#
#
# Indices 1 2 3 4 5 6 
#
# 1 139.5728 21.9593 33.7062 0.0000 0.0000 0.0000
# 2 21.9593 61.5388 11.8049 0.0000 0.0000 0.0000
# 3 33.7062 11.8049 132.5697 0.0000 0.0000 0.0000
# 4 0.0000 0.0000 0.0000 9.7220 0.0000 0.0000
# 5 0.0000 0.0000 0.0000 0.0000 36.4601 0.0000
# 6 0.0000 0.0000 0.0000 0.0000 0.0000 8.1976
#
#
#
# Elastic Compliance Matrix: (Units=1/GPa)
#
#
# Indices 1 2 3 4 5 6 
#
# 1 0.007996 -0.002506 -0.001810 0.000000 0.000000 0.000000
# 2 -0.002506 0.017318 -0.000905 0.000000 0.000000 0.000000
# 3 -0.001810 -0.000905 0.008084 0.000000 0.000000 0.000000
# 4 0.000000 0.000000 0.000000 0.102859 0.000000 0.000000
# 5 0.000000 0.000000 0.000000 0.000000 0.027427 0.000000
# 6 0.000000 0.000000 0.000000 0.000000 0.000000 0.121986
#
#
# Mechanical properties :
#
#
# Convention : Reuss Voigt Hill
#
# Bulk Modulus (GPa) = 43.56154 52.06913 47.81533
# Shear Modulus (GPa) = 16.46014 28.62335 22.54174
#
# Velocity S-wave (km/s) = 2.85780 3.76857 3.34433
# Velocity P-wave (km/s) = 5.70117 6.69114 6.21590
#
# Compressibility (1/GPa) = 0.02295603
#
# Stress axis : x y z
#
# Youngs Moduli (GPa) = 125.06117 57.74412 123.70198
#
# Poissons Ratio (x) = 0.14471 0.22388
# Poissons Ratio (y) = 0.31342 0.11194
# Poissons Ratio (z) = 0.22634 0.05225
#
# Static dielectric constant tensor:
#      x y z
#    x 3.988320 0.000000 0.000000 
#    y 0.000000 3.545860 0.000000 
#    z 0.000000 0.000000 4.287980 
# 
# 
# High freq. dielectric constant tensor:
#      x y z
#    x 1.792110 0.000000 0.000000 
#    y 0.000000 1.734550 0.000000 
#    z 0.000000 0.000000 1.807640 
# 
# From -- ./inp_files/1855.got.cif
#   From: 2010.03.12/outbox.cif.g09.slc.cpg/sg17_1_cif.got.tgz:1855.got - 2010.04.10 18:46:23.
