data_PCOD8155475
_publ_section_title
;
Structure prediction by ZEFSAII (Michael W. Deem and Ramdas Pophale) SiO2 
 PCOD8155475
Probable space group: P 2 2 21
;
_chemical_formula_sum "Si O2"
_cell_formula_units_Z 12
_cell_length_a 14.861680
_cell_length_b 8.578625
_cell_length_c 4.921234
_cell_angle_alpha 90.000000
_cell_angle_beta 90.000000
_cell_angle_gamma 90.000000
_cell_volume 627.421802
_symmetry_space_group_name_H-M "P 2 2 21"
_symmetry_group_IT_number 17
_symmetry_cell_setting 'orthorhombic'
loop_
_space_group_symop_operation_xyz
x,y,z
-x,-y,1/2+z
x,-y,-z
-x,y,1/2-z
loop_
_atom_site_type_symbol
_atom_site_label
_atom_site_fract_x
_atom_site_fract_y
_atom_site_fract_z
Si Si1 0.690770 0.325838 0.396224
Si Si2 0.500000 0.396080 0.250000
Si Si3 0.939406 0.000000 0.000000
Si Si4 0.232982 0.164342 0.594948
O O1 0.707874 0.500000 0.500000
O O2 0.583944 0.293539 0.355308
O O3 0.730812 0.201986 0.606711
O O4 0.740925 0.302379 0.110759
O O5 0.463078 0.500000 0.500000
O O6 0.000000 0.056894 0.250000
O O7 0.875847 0.855933 0.098170
O O8 0.277713 0.000000 0.500000
#
# Coordination Sequence:
#
# PCOD8155475 Si02
#       4
#     4   2   2   4
#     4  11  20  37  59  85 117 154 197 236 280 335
#     4  10  20  34  56  84 116 162 202 228 272 350
#     4  10  20  38  64  84 110 152 196 228 286 376
#     4  10  22  36  60  88 113 147 199 235 293 341
#
# _framework density 19.125889000000001
#
# number of rings (size 3 to 8) (size 9 to 14) (size 15 to 20)
#    1.000    0.667    0.000    8.000    0.000    0.000 
#    0.000    3.333    0.000   22.000    0.000    0.000 
#    0.000    0.000    0.000    0.000    0.000    0.000 
#
# Total GULP energy -148758.603979 kJ/mol
# GULP energy per Si atom -12396.550332 kJ/mol
# Density = 1.908236 g / cm^3
# Si number density = 19.125889 Si / 1000 Ang^3
#
#
#
# Elastic Constant Matrix: (Units=GPa)
#
#
# Indices 1 2 3 4 5 6 
#
# 1 148.7302 31.5012 50.6132 0.0000 0.0000 0.0000
# 2 31.5012 47.2859 5.7889 0.0000 0.0000 0.0000
# 3 50.6132 5.7889 106.5085 0.0000 0.0000 0.0000
# 4 0.0000 0.0000 0.0000 42.6309 0.0000 0.0000
# 5 0.0000 0.0000 0.0000 0.0000 47.0830 0.0000
# 6 0.0000 0.0000 0.0000 0.0000 0.0000 17.2241
#
#
#
# Elastic Compliance Matrix: (Units=1/GPa)
#
#
# Indices 1 2 3 4 5 6 
#
# 1 0.009339 -0.005716 -0.004127 0.000000 0.000000 0.000000
# 2 -0.005716 0.024788 0.001369 0.000000 0.000000 0.000000
# 3 -0.004127 0.001369 0.011276 0.000000 0.000000 0.000000
# 4 0.000000 0.000000 0.000000 0.023457 0.000000 0.000000
# 5 0.000000 0.000000 0.000000 0.000000 0.021239 0.000000
# 6 0.000000 0.000000 0.000000 0.000000 0.000000 0.058058
#
#
# Mechanical properties :
#
#
# Convention : Reuss Voigt Hill
#
# Bulk Modulus (GPa) = 35.14393 53.14792 44.14592
# Shear Modulus (GPa) = 28.63845 35.69568 32.16706
#
# Velocity S-wave (km/s) = 3.87378 4.32482 4.10550
# Velocity P-wave (km/s) = 6.19864 7.26550 6.75317
#
# Compressibility (1/GPa) = 0.02845441
#
# Stress axis : x y z
#
# Youngs Moduli (GPa) = 107.08105 40.34163 88.68598
#
# Poissons Ratio (x) = 0.23060 0.36602
# Poissons Ratio (y) = 0.61208 -0.12141
# Poissons Ratio (z) = 0.44194 -0.05523
#
# Static dielectric constant tensor:
#      x y z
#    x 3.456810 0.000000 0.000000 
#    y 0.000000 3.162890 0.000000 
#    z 0.000000 0.000000 3.688490 
# 
# 
# High freq. dielectric constant tensor:
#      x y z
#    x 1.738110 0.000000 0.000000 
#    y 0.000000 1.708340 0.000000 
#    z 0.000000 0.000000 1.769710 
# 
# From -- ./inp_files/1894.got.cif
#   From: 2010.03.12/outbox.cif.g09.slc.cpg/sg17_1_cif.got.tgz:1894.got - 2010.04.10 18:46:23.
