data_PCOD8155236
_publ_section_title
;
Structure prediction by ZEFSAII (Michael W. Deem and Ramdas Pophale) SiO2 
 PCOD8155236
Probable space group: P 2 2 2
;
_chemical_formula_sum "Si O2"
_cell_formula_units_Z 25
_cell_length_a 5.125547
_cell_length_b 8.289183
_cell_length_c 28.388141
_cell_angle_alpha 90.000000
_cell_angle_beta 90.000000
_cell_angle_gamma 90.000000
_cell_volume 1206.115508
_symmetry_space_group_name_H-M "P 2 2 2"
_symmetry_group_IT_number 16
_symmetry_cell_setting 'orthorhombic'
loop_
_space_group_symop_operation_xyz
x,y,z
-x,-y,z
x,-y,-z
-x,y,-z
loop_
_atom_site_type_symbol
_atom_site_label
_atom_site_fract_x
_atom_site_fract_y
_atom_site_fract_z
Si Si1 0.994964 0.191014 0.270260
Si Si2 0.495663 0.807355 0.891547
Si Si3 0.902518 0.677803 0.628876
Si Si4 0.399085 0.163300 0.409117
Si Si5 0.500000 0.000000 0.500000
Si Si6 0.998459 0.807605 0.946933
Si Si7 0.499599 0.809480 0.213641
O O1 0.273539 0.248860 0.249553
O O2 0.906265 0.292092 0.315587
O O3 0.782194 0.242958 0.231962
O O4 0.000000 0.000000 0.281281
O O5 0.752282 0.741840 0.917690
O O6 0.468927 0.736388 0.838659
O O7 0.252971 0.740875 0.920975
O O8 0.500000 0.000000 0.890021
O O9 0.617625 0.702256 0.604513
O O10 0.000000 0.500000 0.616579
O O11 0.111389 0.799993 0.607670
O O12 0.352382 0.125054 0.464945
O O13 0.500000 0.000000 0.383097
O O14 0.000000 0.000000 0.948070
O O15 0.000000 0.739056 0.000000
O O16 0.500000 0.000000 0.210023
#
# Coordination Sequence:
#
# PCOD8155236 Si02
#       7
#     4   4   4   4   1   4   4
#     4  10  19  32  51  74 101 138 183 222 268 329
#     4   9  15  23  34  50  76 110 154 213 263 300
#     4  12  24  39  60  93 125 154 189 241 296 342
#     4  10  22  42  67  88 119 158 202 234 279 338
#     4   8  24  42  74  90 120 154 214 234 280 330
#     4   9  15  21  30  46  72 110 156 201 255 322
#     4   9  17  28  44  66  91 123 174 228 267 314
#
# _framework density 20.727699000000001
#
# number of rings (size 3 to 8) (size 9 to 14) (size 15 to 20)
#    0.480    1.760    0.000    4.320    0.000    8.320 
#    0.000    2.400    0.000    0.000    0.000    0.000 
#    0.000    0.000    0.000    0.000    0.000   56.000 
#
# Total GULP energy -309782.293358 kJ/mol
# GULP energy per Si atom -12391.291734 kJ/mol
# Density = 2.068052 g / cm^3
# Si number density = 20.727699 Si / 1000 Ang^3
#
#
#
# Elastic Constant Matrix: (Units=GPa)
#
#
# Indices 1 2 3 4 5 6 
#
# 1 127.2045 -5.3200 42.7025 0.0000 0.0000 0.0000
# 2 -5.3200 27.3600 7.0215 0.0000 0.0000 0.0000
# 3 42.7025 7.0215 142.9573 0.0000 0.0000 0.0000
# 4 0.0000 0.0000 0.0000 -5.1416 0.0000 0.0000
# 5 0.0000 0.0000 0.0000 0.0000 -40.4001 0.0000
# 6 0.0000 0.0000 0.0000 0.0000 0.0000 14.5791
#
#
#
# Elastic Compliance Matrix: (Units=1/GPa)
#
#
# Indices 1 2 3 4 5 6 
#
# 1 0.008896 0.002442 -0.002777 0.000000 0.000000 0.000000
# 2 0.002442 0.037687 -0.002581 0.000000 0.000000 0.000000
# 3 -0.002777 -0.002581 0.007951 0.000000 0.000000 0.000000
# 4 0.000000 0.000000 0.000000 -0.194491 0.000000 0.000000
# 5 0.000000 0.000000 0.000000 0.000000 -0.024752 0.000000
# 6 0.000000 0.000000 0.000000 0.000000 0.000000 0.068591
#
#
# Mechanical properties :
#
#
# Convention : Reuss Voigt Hill
#
# Bulk Modulus (GPa) = 20.53243 42.92555 31.72899
# Shear Modulus (GPa) = -67.51957 10.68199 -28.41879
#
# Velocity S-wave (km/s) = -5.71360 2.27259 -3.70679
# Velocity P-wave (km/s) = 5.79653 5.25742 1.72616
#
# Compressibility (1/GPa) = 0.04870344
#
# Stress axis : x y z
#
# Youngs Moduli (GPa) = 112.41236 26.53438 125.76361
#
# Poissons Ratio (x) = -0.06481 0.34927
# Poissons Ratio (y) = -0.27456 0.32455
# Poissons Ratio (z) = 0.31219 0.06848
#
# Static dielectric constant tensor:
#      x y z
#    x 3.904730 0.000000 0.000000 
#    y 0.000000 3.243270 0.000000 
#    z 0.000000 0.000000 3.919660 
# 
# 
# High freq. dielectric constant tensor:
#      x y z
#    x 1.821490 0.000000 0.000000 
#    y 0.000000 1.751160 0.000000 
#    z 0.000000 0.000000 1.820980 
# 
# From -- ./inp_files/9623.got.cif
#   From: 2010.03.12/outbox.cif.g09.slc.cpg/sg16_5_cif.got.tgz:9623.got - 2010.03.31 00:51:45.
