data_PCOD8155585
_publ_section_title
;
Structure prediction by ZEFSAII (Michael W. Deem and Ramdas Pophale) SiO2 
 PCOD8155585
Probable space group: P 2 2 21
;
_chemical_formula_sum "Si O2"
_cell_formula_units_Z 32
_cell_length_a 10.840328
_cell_length_b 14.446951
_cell_length_c 10.043213
_cell_angle_alpha 90.000000
_cell_angle_beta 90.000000
_cell_angle_gamma 90.000000
_cell_volume 1572.864449
_symmetry_space_group_name_H-M "P 2 2 21"
_symmetry_group_IT_number 17
_symmetry_cell_setting 'orthorhombic'
loop_
_space_group_symop_operation_xyz
x,y,z
-x,-y,1/2+z
x,-y,-z
-x,y,1/2-z
loop_
_atom_site_type_symbol
_atom_site_label
_atom_site_fract_x
_atom_site_fract_y
_atom_site_fract_z
Si Si1 0.496954 0.231927 0.399943
Si Si2 0.566286 0.557441 0.621204
Si Si3 0.136518 0.910208 0.713773
Si Si4 0.139717 0.877511 0.239338
Si Si5 0.897430 0.596656 0.938725
Si Si6 0.227887 0.781857 0.483930
Si Si7 0.751762 0.178412 0.460693
Si Si8 0.832900 0.379838 0.367172
O O1 0.500000 0.190682 0.250000
O O2 0.521279 0.339449 0.392268
O O3 0.368373 0.219466 0.471642
O O4 0.604459 0.182825 0.486011
O O5 0.511895 0.500000 0.500000
O O6 0.500000 0.512917 0.750000
O O7 0.715770 0.551966 0.617944
O O8 0.161542 0.857702 0.576056
O O9 0.228933 0.884429 0.831698
O O10 0.000000 0.877910 0.750000
O O11 0.147120 0.020034 0.699151
O O12 0.225580 0.813728 0.330985
O O13 0.000000 0.841391 0.250000
O O14 0.183364 0.868415 0.087124
O O15 0.858223 0.619375 0.789225
O O16 0.046300 0.588262 0.948244
O O17 0.844958 0.500000 0.000000
O O18 0.840137 0.682522 0.018984
O O19 0.803175 0.278987 0.423953
#
# Coordination Sequence:
#
# PCOD8155585 Si02
#       8
#     4   4   4   4   4   4   4   4
#     4  10  21  42  65  87 121 173 220 257 306 389
#     4  10  21  39  60  85 117 158 213 262 306 364
#     4  11  21  40  71  94 123 170 216 260 321 396
#     4  11  25  41  62 103 133 159 210 271 328 380
#     4  11  22  39  63  94 124 167 218 259 317 384
#     4  12  23  42  66  92 133 167 211 270 324 377
#     4  11  21  42  67  90 131 173 210 259 323 385
#     4  10  21  40  63  88 126 168 212 259 322 384
#
# _framework density 20.345046
#
# number of rings (size 3 to 8) (size 9 to 14) (size 15 to 20)
#    0.000    1.250    2.500    4.875    0.000    4.500 
#   15.750    3.750    0.000    0.000    0.000    0.000 
#    0.000    0.000    0.000    0.000    0.000    0.000 
#
# Total GULP energy -396684.729868 kJ/mol
# GULP energy per Si atom -12396.397808 kJ/mol
# Density = 2.029874 g / cm^3
# Si number density = 20.345046 Si / 1000 Ang^3
#
#
#
# Elastic Constant Matrix: (Units=GPa)
#
#
# Indices 1 2 3 4 5 6 
#
# 1 104.6868 20.5885 22.3506 0.0000 0.0000 0.0000
# 2 20.5885 56.7911 32.5502 0.0000 0.0000 0.0000
# 3 22.3506 32.5502 67.2080 0.0000 0.0000 0.0000
# 4 0.0000 0.0000 0.0000 36.4750 0.0000 0.0000
# 5 0.0000 0.0000 0.0000 0.0000 23.8324 0.0000
# 6 0.0000 0.0000 0.0000 0.0000 0.0000 14.8399
#
#
#
# Elastic Compliance Matrix: (Units=1/GPa)
#
#
# Indices 1 2 3 4 5 6 
#
# 1 0.010534 -0.002507 -0.002289 0.000000 0.000000 0.000000
# 2 -0.002507 0.024971 -0.011260 0.000000 0.000000 0.000000
# 3 -0.002289 -0.011260 0.021094 0.000000 0.000000 0.000000
# 4 0.000000 0.000000 0.000000 0.027416 0.000000 0.000000
# 5 0.000000 0.000000 0.000000 0.000000 0.041960 0.000000
# 6 0.000000 0.000000 0.000000 0.000000 0.000000 0.067386
#
#
# Mechanical properties :
#
#
# Convention : Reuss Voigt Hill
#
# Bulk Modulus (GPa) = 40.83860 42.18494 41.51177
# Shear Modulus (GPa) = 21.40084 25.24256 23.32170
#
# Velocity S-wave (km/s) = 3.24681 3.52621 3.38939
# Velocity P-wave (km/s) = 5.84571 6.11217 5.98042
#
# Compressibility (1/GPa) = 0.02448664
#
# Stress axis : x y z
#
# Youngs Moduli (GPa) = 94.93035 40.04620 47.40683
#
# Poissons Ratio (x) = 0.10039 0.10852
# Poissons Ratio (y) = 0.23798 0.53382
# Poissons Ratio (z) = 0.21730 0.45093
#
# Static dielectric constant tensor:
#      x y z
#    x 2.498700 0.000000 0.000000 
#    y 0.000000 3.589780 0.000000 
#    z 0.000000 0.000000 3.714260 
# 
# 
# High freq. dielectric constant tensor:
#      x y z
#    x 1.806980 0.000000 0.000000 
#    y 0.000000 1.787950 0.000000 
#    z 0.000000 0.000000 1.791200 
# 
# From -- ./inp_files/4966.got.cif
#   From: 2010.03.12/outbox.cif.g09.slc.cpg/sg17_3_cif.got.tgz:4966.got - 2010.04.10 18:46:23.
