data_PCOD8155425
_publ_section_title
;
Structure prediction by ZEFSAII (Michael W. Deem and Ramdas Pophale) SiO2 
 PCOD8155425
Probable space group: P 2 2 21
;
_chemical_formula_sum "Si O2"
_cell_formula_units_Z 20
_cell_length_a 12.340258
_cell_length_b 4.914080
_cell_length_c 16.244177
_cell_angle_alpha 90.000000
_cell_angle_beta 90.000000
_cell_angle_gamma 90.000000
_cell_volume 985.063382
_symmetry_space_group_name_H-M "P 2 2 21"
_symmetry_group_IT_number 17
_symmetry_cell_setting 'orthorhombic'
loop_
_space_group_symop_operation_xyz
x,y,z
-x,-y,1/2+z
x,-y,-z
-x,y,1/2-z
loop_
_atom_site_type_symbol
_atom_site_label
_atom_site_fract_x
_atom_site_fract_y
_atom_site_fract_z
Si Si1 0.108423 0.237255 0.442455
Si Si2 0.373458 0.645901 0.239241
Si Si3 0.754972 0.136614 0.211153
Si Si4 0.748047 0.655866 0.419559
Si Si5 0.124368 0.150771 0.127668
O O1 0.091394 0.500000 0.500000
O O2 0.199323 0.268863 0.372398
O O3 0.000642 0.136238 0.396262
O O4 0.151863 0.000000 0.500000
O O5 0.500000 0.680222 0.250000
O O6 0.336384 0.339433 0.255346
O O7 0.349910 0.710284 0.143249
O O8 0.307475 0.849630 0.299807
O O9 0.852735 0.081475 0.276390
O O10 0.701562 0.500000 0.500000
O O11 0.840434 0.461619 0.383037
O O12 0.808508 0.945630 0.432339
#
# Coordination Sequence:
#
# PCOD8155425 Si02
#       5
#     4   4   4   4   4
#     4  12  23  36  56  85 119 154 184 223 279 344
#     4  10  21  39  61  81 108 151 195 238 289 338
#     4  10  22  39  58  82 113 148 192 236 279 342
#     4  10  19  33  55  85 112 140 187 243 283 323
#     4  10  20  35  57  81 114 151 184 224 278 339
#
# _framework density 20.303263000000001
#
# number of rings (size 3 to 8) (size 9 to 14) (size 15 to 20)
#    0.000    1.600    0.000    6.000    0.000    0.000 
#    0.000   11.000    0.000    2.400    0.000    0.000 
#    0.000    0.000    0.000    0.000    0.000    0.000 
#
# Total GULP energy -247887.683728 kJ/mol
# GULP energy per Si atom -12394.384186 kJ/mol
# Density = 2.025705 g / cm^3
# Si number density = 20.303263 Si / 1000 Ang^3
#
#
#
# Elastic Constant Matrix: (Units=GPa)
#
#
# Indices 1 2 3 4 5 6 
#
# 1 99.3449 17.9869 57.3374 0.0000 0.0000 0.0000
# 2 17.9869 93.0593 26.9269 0.0000 0.0000 0.0000
# 3 57.3374 26.9269 106.6297 0.0000 0.0000 0.0000
# 4 0.0000 0.0000 0.0000 33.4861 0.0000 0.0000
# 5 0.0000 0.0000 0.0000 0.0000 18.6412 0.0000
# 6 0.0000 0.0000 0.0000 0.0000 0.0000 22.7435
#
#
#
# Elastic Compliance Matrix: (Units=1/GPa)
#
#
# Indices 1 2 3 4 5 6 
#
# 1 0.014626 -0.000595 -0.007715 0.000000 0.000000 0.000000
# 2 -0.000595 0.011617 -0.002614 0.000000 0.000000 0.000000
# 3 -0.007715 -0.002614 0.014187 0.000000 0.000000 0.000000
# 4 0.000000 0.000000 0.000000 0.029863 0.000000 0.000000
# 5 0.000000 0.000000 0.000000 0.000000 0.053645 0.000000
# 6 0.000000 0.000000 0.000000 0.000000 0.000000 0.043969
#
#
# Mechanical properties :
#
#
# Convention : Reuss Voigt Hill
#
# Bulk Modulus (GPa) = 53.81123 55.94848 54.87985
# Shear Modulus (GPa) = 25.51707 28.09302 26.80504
#
# Velocity S-wave (km/s) = 3.54898 3.72381 3.63744
# Velocity P-wave (km/s) = 6.58445 6.79008 6.68805
#
# Compressibility (1/GPa) = 0.01858348
#
# Stress axis : x y z
#
# Youngs Moduli (GPa) = 68.37056 86.07995 70.48870
#
# Poissons Ratio (x) = 0.05120 0.54380
# Poissons Ratio (y) = 0.04066 0.18424
# Poissons Ratio (z) = 0.52746 0.22500
#
# Static dielectric constant tensor:
#      x y z
#    x 3.280900 0.000000 0.000000 
#    y 0.000000 3.986570 0.000000 
#    z 0.000000 0.000000 3.879410 
# 
# 
# High freq. dielectric constant tensor:
#      x y z
#    x 1.759450 0.000000 0.000000 
#    y 0.000000 1.813140 0.000000 
#    z 0.000000 0.000000 1.793730 
# 
# From -- ./inp_files/7613.got.cif
#   From: 2010.03.12/outbox.cif.g09.slc.cpg/sg17_4_cif.got.tgz:7613.got - 2010.04.10 18:46:23.
