data_PCOD8155228
_publ_section_title
;
Structure prediction by ZEFSAII (Michael W. Deem and Ramdas Pophale) SiO2 
 PCOD8155228
Probable space group: P 2 2 2
;
_chemical_formula_sum "Si O2"
_cell_formula_units_Z 30
_cell_length_a 14.488210
_cell_length_b 11.740618
_cell_length_c 9.668819
_cell_angle_alpha 90.000000
_cell_angle_beta 90.000000
_cell_angle_gamma 90.000000
_cell_volume 1644.671324
_symmetry_space_group_name_H-M "P 2 2 2"
_symmetry_group_IT_number 16
_symmetry_cell_setting 'orthorhombic'
loop_
_space_group_symop_operation_xyz
x,y,z
-x,-y,z
x,-y,-z
-x,y,-z
loop_
_atom_site_type_symbol
_atom_site_label
_atom_site_fract_x
_atom_site_fract_y
_atom_site_fract_z
Si Si1 0.817798 0.633128 0.839629
Si Si2 0.798776 1.000000 0.655314
Si Si3 1.000000 0.249731 0.844154
Si Si4 0.182201 0.633127 0.839628
Si Si5 0.000000 0.000000 0.249608
Si Si6 0.500000 0.127150 0.662854
Si Si7 0.695458 0.219724 0.664306
Si Si8 0.304542 0.780276 0.335693
O O1 0.834094 0.500000 0.821144
O O2 0.729983 0.669816 0.747621
O O3 0.907503 0.698330 0.776162
O O4 0.800026 0.665340 0.000000
O O5 0.756552 0.886193 0.722454
O O6 0.909398 0.999999 0.655729
O O7 0.761233 0.000000 0.500000
O O8 0.756553 0.113808 0.722453
O O9 0.907504 0.301672 0.776162
O O10 0.999999 0.112741 0.843551
O O11 0.000000 0.294657 0.000000
O O12 0.270017 0.669815 0.747620
O O13 0.500000 0.111591 0.500000
O O14 0.589923 0.197600 0.708410
O O15 0.410078 0.197601 0.708410
O O16 0.500000 0.000000 0.729326
O O17 0.706829 0.239785 0.500000
#
# Coordination Sequence:
#
# PCOD8155228 Si02
#       8
#     4   4   4   4   2   4   4   4
#     4  10  21  38  56  74 103 145 185 219 257 307
#     4  10  19  30  49  77 112 144 166 205 266 321
#     4  10  20  33  52  77 104 138 179 217 259 312
#     4  10  21  38  56  74 103 145 185 219 257 307
#     4  12  18  30  50  80 112 134 166 216 266 324
#     4   9  16  30  56  83 108 136 173 214 263 322
#     4  10  19  34  56  82 107 137 176 219 263 313
#     4  10  19  34  56  82 107 137 176 219 263 313
#
# _framework density 18.240725000000001
#
# number of rings (size 3 to 8) (size 9 to 14) (size 15 to 20)
#    0.000    2.000    4.000    0.800    0.000    2.133 
#    0.000    2.667    0.000    6.400    0.000    0.000 
#    0.000    0.000    0.000    0.000    0.000    0.000 
#
# Total GULP energy -371918.257856 kJ/mol
# GULP energy per Si atom -12397.275262 kJ/mol
# Density = 1.819921 g / cm^3
# Si number density = 18.240725 Si / 1000 Ang^3
#
#
#
# Elastic Constant Matrix: (Units=GPa)
#
#
# Indices 1 2 3 4 5 6 
#
# 1 153.8651 58.3228 33.8165 0.0000 0.0000 0.0000
# 2 58.3228 108.8101 32.1837 0.0000 0.0000 0.0000
# 3 33.8165 32.1837 44.8817 0.0000 0.0000 0.0000
# 4 0.0000 0.0000 0.0000 27.0318 0.0000 0.0000
# 5 0.0000 0.0000 0.0000 0.0000 21.6664 0.0000
# 6 0.0000 0.0000 0.0000 0.0000 0.0000 24.7534
#
#
#
# Elastic Compliance Matrix: (Units=1/GPa)
#
#
# Indices 1 2 3 4 5 6 
#
# 1 0.008708 -0.003461 -0.004079 0.000000 0.000000 0.000000
# 2 -0.003461 0.013040 -0.006743 0.000000 0.000000 0.000000
# 3 -0.004079 -0.006743 0.030189 0.000000 0.000000 0.000000
# 4 0.000000 0.000000 0.000000 0.036993 0.000000 0.000000
# 5 0.000000 0.000000 0.000000 0.000000 0.046155 0.000000
# 6 0.000000 0.000000 0.000000 0.000000 0.000000 0.040398
#
#
# Mechanical properties :
#
#
# Convention : Reuss Voigt Hill
#
# Bulk Modulus (GPa) = 42.78801 61.80031 52.29416
# Shear Modulus (GPa) = 23.60281 26.90591 25.25436
#
# Velocity S-wave (km/s) = 3.60107 3.84480 3.72493
# Velocity P-wave (km/s) = 6.38738 7.32557 6.87250
#
# Compressibility (1/GPa) = 0.02337103
#
# Stress axis : x y z
#
# Youngs Moduli (GPa) = 114.84331 76.68862 33.12414
#
# Poissons Ratio (x) = 0.26540 0.13512
# Poissons Ratio (y) = 0.39745 0.22336
# Poissons Ratio (z) = 0.46846 0.51711
#
# Static dielectric constant tensor:
#      x y z
#    x 3.521690 0.000000 0.000000 
#    y 0.000000 3.290080 0.000000 
#    z 0.000000 0.000000 2.932500 
# 
# 
# High freq. dielectric constant tensor:
#      x y z
#    x 1.716390 0.000000 0.000000 
#    y 0.000000 1.705900 0.000000 
#    z 0.000000 0.000000 1.664820 
# 
# From -- ./inp_files/7190.got.cif
#   From: 2010.03.12/outbox.cif.g09.slc.cpg/sg16_4_cif.got.tgz:7190.got - 2010.03.31 00:51:45.
