data_PCOD8155078
_publ_section_title
;
Structure prediction by ZEFSAII (Michael W. Deem and Ramdas Pophale) SiO2 
 PCOD8155078
Probable space group: C 2/C
;
_chemical_formula_sum "Si O2"
_cell_formula_units_Z 40
_cell_length_a 13.447972
_cell_length_b 13.946850
_cell_length_c 16.400277
_cell_angle_alpha 90.000000
_cell_angle_beta 148.103443
_cell_angle_gamma 90.000000
_cell_volume 1625.311075
_symmetry_space_group_name_H-M "C 2/C"
_symmetry_group_IT_number 15
_symmetry_cell_setting 'monoclinic'
loop_
_space_group_symop_operation_xyz
x,y,z
-x,y,1/2-z
-x,-y,-z
x,-y,1/2+z
1/2+x,1/2+y,z
1/2-x,1/2+y,1/2-z
1/2-x,1/2-y,-z
1/2+x,1/2-y,1/2+z
loop_
_atom_site_type_symbol
_atom_site_label
_atom_site_fract_x
_atom_site_fract_y
_atom_site_fract_z
Si Si1 0.708372 0.970551 0.874467
Si Si2 0.287241 0.320343 0.452064
Si Si3 0.454202 0.621015 0.809433
Si Si4 0.810289 0.535397 0.328278
Si Si5 0.807259 0.240249 0.271289
O O1 0.500000 0.933131 0.750000
O O2 0.720016 0.992526 0.786981
O O3 0.757337 0.069083 0.957128
O O4 0.853982 0.887466 0.003664
O O5 0.250000 0.250000 0.500000
O O6 0.146439 0.300478 0.278532
O O7 0.494979 0.301241 0.558083
O O8 0.500000 0.654177 0.750000
O O9 0.358702 0.515924 0.740841
O O10 0.307027 0.698463 0.742265
O O11 0.815699 0.649212 0.342605
O O12 0.000000 0.500000 0.500000
#
# Coordination Sequence:
#
# PCOD8155078 Si02
#       5
#     8   8   8   8   8
#     4  12  26  49  76 114 157 203 261 330 394 470
#     4  12  26  45  74 116 153 196 261 324 397 462
#     4  12  27  50  79 115 158 208 264 322 403 480
#     4  12  26  48  76 110 154 206 260 322 392 467
#     4  12  26  47  77 110 157 203 257 325 389 474
#
# _framework density 24.610673999999999
#
# number of rings (size 3 to 8) (size 9 to 14) (size 15 to 20)
#    0.000    0.000    4.000    6.000    5.600    0.800 
#    0.000    6.000    0.000    0.000    0.000    0.000 
#    0.000    0.000    0.000    0.000    0.000    0.000 
#
# Total GULP energy -248056.293474 kJ/mol
# GULP energy per Si atom -12402.814674 kJ/mol
# Density = 2.455466 g / cm^3
# Si number density = 24.610674 Si / 1000 Ang^3
#
#
#
# Elastic Constant Matrix: (Units=GPa)
#
#
# Indices 1 2 3 4 5 6 
#
# 1 109.5118 10.7157 19.2421 0.0031 -0.1760 -0.0004
# 2 10.7157 92.7948 5.2688 0.0057 11.1345 0.0004
# 3 19.2421 5.2688 134.8380 0.0080 17.1842 0.0008
# 4 0.0031 0.0057 0.0080 41.7604 0.0019 3.9282
# 5 -0.1760 11.1345 17.1842 0.0019 45.7782 -0.0005
# 6 -0.0004 0.0004 0.0008 3.9282 -0.0005 31.2803
#
#
#
# Elastic Compliance Matrix: (Units=1/GPa)
#
#
# Indices 1 2 3 4 5 6 
#
# 1 0.009491 -0.001116 -0.001418 0.000000 0.000840 0.000000
# 2 -0.001116 0.011233 0.000073 -0.000001 -0.002764 0.000000
# 3 -0.001418 0.000073 0.008002 -0.000001 -0.003027 0.000000
# 4 0.000000 -0.000001 -0.000001 0.024232 0.000000 -0.003043
# 5 0.000840 -0.002764 -0.003027 0.000000 0.023656 0.000001
# 6 0.000000 0.000000 0.000000 -0.003043 0.000001 0.032351
#
#
# Mechanical properties :
#
#
# Convention : Reuss Voigt Hill
#
# Bulk Modulus (GPa) = 42.01275 45.28864 43.65070
# Shear Modulus (GPa) = 41.04331 43.89166 42.46748
#
# Velocity S-wave (km/s) = 4.08818 4.22766 4.15851
# Velocity P-wave (km/s) = 6.27633 6.50175 6.39004
#
# Compressibility (1/GPa) = 0.02380230
#
# Stress axis : x y z
#
# Youngs Moduli (GPa) = 105.36128 89.02446 124.97589
#
# Poissons Ratio (x) = 0.09938 0.17720
# Poissons Ratio (y) = 0.11762 -0.00907
# Poissons Ratio (z) = 0.14939 -0.00646
#
# Static dielectric constant tensor:
#      x y z
#    x 4.313180 -0.000020 0.131750 
#    y -0.000020 4.559500 -0.000020 
#    z 0.131750 -0.000020 4.728050 
# 
# 
# High freq. dielectric constant tensor:
#      x y z
#    x 1.975240 0.000000 0.007180 
#    y 0.000000 1.981410 0.000000 
#    z 0.007180 0.000000 1.994800 
# 
# From -- ./inp_files/37984.got.cif
#   From: 2010.06.25/outbox.cif.g09.slc.cpg/sg15_19_cif.got.tgz:37984.got - 2010.06.28 07:06:18.
