data_PCOD8155994
_publ_section_title
;
Structure prediction by ZEFSAII (Michael W. Deem and Ramdas Pophale) SiO2 
 PCOD8155994
Probable space group: P 21 21 2
;
_chemical_formula_sum "Si O2"
_cell_formula_units_Z 30
_cell_length_a 18.883243
_cell_length_b 13.925639
_cell_length_c 5.308375
_cell_angle_alpha 90.000000
_cell_angle_beta 90.000000
_cell_angle_gamma 90.000000
_cell_volume 1395.896794
_symmetry_space_group_name_H-M "P 21 21 2"
_symmetry_group_IT_number 18
_symmetry_cell_setting 'orthorhombic'
loop_
_space_group_symop_operation_xyz
x,y,z
-x,-y,z
1/2+x,1/2-y,-z
1/2-x,1/2+y,-z
loop_
_atom_site_type_symbol
_atom_site_label
_atom_site_fract_x
_atom_site_fract_y
_atom_site_fract_z
Si Si1 0.668698 0.399714 0.877084
Si Si2 0.074246 0.267790 0.237656
Si Si3 0.609069 0.479205 0.357365
Si Si4 0.517497 0.652925 0.382837
Si Si5 0.320770 0.046196 0.097705
Si Si6 0.532964 0.845348 0.124003
Si Si7 0.500000 0.000000 0.509102
Si Si8 0.144542 0.447328 0.387252
O O1 0.625375 0.300872 0.930289
O O2 0.648660 0.437087 0.599601
O O3 0.753458 0.382742 0.878136
O O4 0.655476 0.476729 0.101890
O O5 0.128629 0.332568 0.403173
O O6 0.016436 0.201596 0.372986
O O7 0.026137 0.347541 0.095221
O O8 0.586246 0.587028 0.437768
O O9 0.542169 0.415827 0.268970
O O10 0.542782 0.733499 0.188792
O O11 0.390549 0.110910 0.062250
O O12 0.322324 0.979987 0.347729
O O13 0.308691 0.976729 0.855108
O O14 0.493909 0.903498 0.343254
O O15 0.428453 0.005997 0.668165
#
# Coordination Sequence:
#
# PCOD8155994 Si02
#       8
#     4   4   4   4   4   4   2   4
#     4  11  24  46  63  91 136 182 217 270 335 403
#     4  11  22  40  72  99 128 173 228 282 328 393
#     4  10  23  42  69  91 129 169 217 274 334 388
#     4  10  22  38  67 102 122 159 223 281 326 382
#     4  11  26  42  62  93 138 177 217 269 338 400
#     4  11  21  39  65 101 130 163 223 278 329 389
#     4  10  20  38  64  96 130 164 204 280 342 388
#     4  11  22  41  64  94 126 170 215 268 330 401
#
# _framework density 21.49156
#
# number of rings (size 3 to 8) (size 9 to 14) (size 15 to 20)
#    0.000    1.333    2.667    3.200    3.733    1.600 
#    4.800    0.000    0.000    0.000    0.000    0.000 
#    0.000    0.000    0.000    0.000    0.000    0.000 
#
# Total GULP energy -371687.027623 kJ/mol
# GULP energy per Si atom -12389.567587 kJ/mol
# Density = 2.144264 g / cm^3
# Si number density = 21.491560 Si / 1000 Ang^3
#
#
#
# Elastic Constant Matrix: (Units=GPa)
#
#
# Indices 1 2 3 4 5 6 
#
# 1 110.1072 37.6272 34.2218 0.0000 0.0000 0.0000
# 2 37.6272 107.9383 32.5899 0.0000 0.0000 0.0000
# 3 34.2218 32.5899 118.3419 0.0000 0.0000 0.0000
# 4 0.0000 0.0000 0.0000 33.3421 0.0000 0.0000
# 5 0.0000 0.0000 0.0000 0.0000 20.9000 0.0000
# 6 0.0000 0.0000 0.0000 0.0000 0.0000 25.4185
#
#
#
# Elastic Compliance Matrix: (Units=1/GPa)
#
#
# Indices 1 2 3 4 5 6 
#
# 1 0.010849 -0.003092 -0.002286 0.000000 0.000000 0.000000
# 2 -0.003092 0.010986 -0.002131 0.000000 0.000000 0.000000
# 3 -0.002286 -0.002131 0.009698 0.000000 0.000000 0.000000
# 4 0.000000 0.000000 0.000000 0.029992 0.000000 0.000000
# 5 0.000000 0.000000 0.000000 0.000000 0.047847 0.000000
# 6 0.000000 0.000000 0.000000 0.000000 0.000000 0.039341
#
#
# Mechanical properties :
#
#
# Convention : Reuss Voigt Hill
#
# Bulk Modulus (GPa) = 60.55078 60.58502 60.56790
# Shear Modulus (GPa) = 29.54450 31.39536 30.46993
#
# Velocity S-wave (km/s) = 3.71172 3.82622 3.76940
# Velocity P-wave (km/s) = 6.82675 6.91168 6.86934
#
# Compressibility (1/GPa) = 0.01651506
#
# Stress axis : x y z
#
# Youngs Moduli (GPa) = 92.17367 91.02613 103.11352
#
# Poissons Ratio (x) = 0.28144 0.23570
# Poissons Ratio (y) = 0.28498 0.21976
# Poissons Ratio (z) = 0.21070 0.19400
#
# Static dielectric constant tensor:
#      x y z
#    x 3.853010 0.000000 0.000000 
#    y 0.000000 4.009450 0.000000 
#    z 0.000000 0.000000 3.776750 
# 
# 
# High freq. dielectric constant tensor:
#      x y z
#    x 1.831650 0.000000 0.000000 
#    y 0.000000 1.840800 0.000000 
#    z 0.000000 0.000000 1.844560 
# 
# From -- ./inp_files/2004.got.cif
#   From: 2010.03.12/outbox.cif.g09.slc.cpg/sg18_2_cif.got.tgz:2004.got - 2010.04.10 18:53:55.
