data_PCOD8155756
_publ_section_title
;
Structure prediction by ZEFSAII (Michael W. Deem and Ramdas Pophale) SiO2 
 PCOD8155756
Probable space group: P 2 2 21
;
_chemical_formula_sum "Si O2"
_cell_formula_units_Z 22
_cell_length_a 6.337287
_cell_length_b 5.005314
_cell_length_c 28.073356
_cell_angle_alpha 90.000000
_cell_angle_beta 90.000000
_cell_angle_gamma 90.000000
_cell_volume 890.489978
_symmetry_space_group_name_H-M "P 2 2 21"
_symmetry_group_IT_number 17
_symmetry_cell_setting 'orthorhombic'
loop_
_space_group_symop_operation_xyz
x,y,z
-x,-y,1/2+z
x,-y,-z
-x,y,1/2-z
loop_
_atom_site_type_symbol
_atom_site_label
_atom_site_fract_x
_atom_site_fract_y
_atom_site_fract_z
Si Si1 0.380746 0.527617 0.596654
Si Si2 0.500000 0.768936 0.250000
Si Si3 0.891968 0.000000 0.500000
Si Si4 0.854665 0.492408 0.190624
Si Si5 0.347511 0.960138 0.095899
Si Si6 0.167330 0.500000 0.500000
Si Si7 0.134550 0.995843 0.190925
O O1 0.191569 0.530328 0.634429
O O2 0.560140 0.322096 0.613956
O O3 0.305732 0.418646 0.545454
O O4 0.467224 0.825243 0.591666
O O5 0.639056 0.566600 0.217911
O O6 0.357047 0.975375 0.219057
O O7 0.029317 0.750009 0.516501
O O8 0.753521 0.912618 0.455346
O O9 0.027334 0.714538 0.200352
O O10 0.967256 0.219684 0.208829
O O11 0.178248 0.053043 0.135209
#
# Coordination Sequence:
#
# PCOD8155756 Si02
#       7
#     4   2   2   4   4   2   4
#     4  12  24  46  73 107 148 196 245 306 373 449
#     4  12  30  54  76 116 152 202 262 326 384 458
#     4  12  24  42  70 108 148 192 248 298 364 456
#     4  12  28  51  78 110 151 199 253 315 386 452
#     4  12  24  46  73 107 148 196 245 306 373 449
#     4  12  24  42  70 108 148 192 248 298 364 456
#     4  12  28  51  78 110 151 199 253 315 386 452
#
# _framework density 24.705500000000001
#
# number of rings (size 3 to 8) (size 9 to 14) (size 15 to 20)
#    0.000    0.000    1.818    8.182    0.000    4.364 
#    0.000    0.000    0.000    0.000    0.000    0.000 
#    0.000    0.000    0.000    0.000    0.000    0.000 
#
# Total GULP energy -272956.994669 kJ/mol
# GULP energy per Si atom -12407.136121 kJ/mol
# Density = 2.464927 g / cm^3
# Si number density = 24.705500 Si / 1000 Ang^3
#
#
#
# Elastic Constant Matrix: (Units=GPa)
#
#
# Indices 1 2 3 4 5 6 
#
# 1 118.2419 32.0205 53.2122 0.0000 0.0000 0.0000
# 2 32.0205 113.8152 9.6126 0.0000 0.0000 0.0000
# 3 53.2122 9.6126 147.4614 0.0000 0.0000 0.0000
# 4 0.0000 0.0000 0.0000 61.2203 0.0000 0.0000
# 5 0.0000 0.0000 0.0000 0.0000 79.8661 0.0000
# 6 0.0000 0.0000 0.0000 0.0000 0.0000 48.1792
#
#
#
# Elastic Compliance Matrix: (Units=1/GPa)
#
#
# Indices 1 2 3 4 5 6 
#
# 1 0.010889 -0.002747 -0.003750 0.000000 0.000000 0.000000
# 2 -0.002747 0.009528 0.000370 0.000000 0.000000 0.000000
# 3 -0.003750 0.000370 0.008111 0.000000 0.000000 0.000000
# 4 0.000000 0.000000 0.000000 0.016334 0.000000 0.000000
# 5 0.000000 0.000000 0.000000 0.000000 0.012521 0.000000
# 6 0.000000 0.000000 0.000000 0.000000 0.000000 0.020756
#
#
# Mechanical properties :
#
#
# Convention : Reuss Voigt Hill
#
# Bulk Modulus (GPa) = 61.45009 63.24545 62.34777
# Shear Modulus (GPa) = 52.18313 56.83133 54.50723
#
# Velocity S-wave (km/s) = 4.60086 4.80140 4.70220
# Velocity P-wave (km/s) = 7.29047 7.50954 7.40082
#
# Compressibility (1/GPa) = 0.01627337
#
# Stress axis : x y z
#
# Youngs Moduli (GPa) = 91.83785 104.95750 123.29542
#
# Poissons Ratio (x) = 0.28828 0.46238
# Poissons Ratio (y) = 0.25225 -0.04563
# Poissons Ratio (z) = 0.34441 -0.03884
#
# Static dielectric constant tensor:
#      x y z
#    x 4.484640 0.000000 0.000000 
#    y 0.000000 4.296330 0.000000 
#    z 0.000000 0.000000 4.996310 
# 
# 
# High freq. dielectric constant tensor:
#      x y z
#    x 1.988080 0.000000 0.000000 
#    y 0.000000 1.989530 0.000000 
#    z 0.000000 0.000000 2.007000 
# 
# From -- ./inp_files/11097.got.cif
#   From: 2010.03.12/outbox.cif.g09.slc.cpg/sg17_6_cif.got.tgz:11097.got - 2010.04.10 18:46:23.
