data_PCOD8155033
_publ_section_title
;
Structure prediction by ZEFSAII (Michael W. Deem and Ramdas Pophale) SiO2 
 PCOD8155033
Probable space group: C 2/C
;
_chemical_formula_sum "Si O2"
_cell_formula_units_Z 36
_cell_length_a 15.642915
_cell_length_b 18.027605
_cell_length_c 9.878665
_cell_angle_alpha 90.000000
_cell_angle_beta 147.639290
_cell_angle_gamma 90.000000
_cell_volume 1491.106868
_symmetry_space_group_name_H-M "C 2/C"
_symmetry_group_IT_number 15
_symmetry_cell_setting 'monoclinic'
loop_
_space_group_symop_operation_xyz
x,y,z
-x,y,1/2-z
-x,-y,-z
x,-y,1/2+z
1/2+x,1/2+y,z
1/2-x,1/2+y,1/2-z
1/2-x,1/2-y,-z
1/2+x,1/2-y,1/2+z
loop_
_atom_site_type_symbol
_atom_site_label
_atom_site_fract_x
_atom_site_fract_y
_atom_site_fract_z
Si Si1 0.277363 0.512290 0.486012
Si Si2 0.285941 0.363184 0.783084
Si Si3 0.101082 0.919219 0.092061
Si Si4 0.825131 0.713510 0.971622
Si Si5 0.500000 0.932460 0.250000
O O1 0.285294 0.593012 0.425689
O O2 0.365055 0.452844 0.509288
O O3 0.375727 0.517870 0.759294
O O4 0.096955 0.486062 0.276968
O O5 0.320348 0.276502 0.849779
O O6 0.115970 0.378080 0.487025
O O7 0.423190 0.387433 0.862138
O O8 0.233359 0.857148 0.294209
O O9 0.750000 0.750000 0.000000
O O10 0.000000 0.687083 0.250000
#
# Coordination Sequence:
#
# PCOD8155033 Si02
#       5
#     8   8   8   8   4
#     4  12  26  47  74 114 147 200 248 316 372 449
#     4  12  26  49  73 110 150 200 248 308 377 445
#     4  12  28  47  82 109 155 196 254 310 379 448
#     4  12  25  47  79 110 144 199 256 308 368 450
#     4  12  30  44  74 112 156 194 252 314 384 446
#
# _framework density 24.143139999999999
#
# number of rings (size 3 to 8) (size 9 to 14) (size 15 to 20)
#    0.000    0.000    6.667    2.000    7.778    0.000 
#    0.000    4.444    0.000    0.000    0.000    0.000 
#    0.000    0.000    0.000    0.000    0.000    0.000 
#
# Total GULP energy -223289.531873 kJ/mol
# GULP energy per Si atom -12404.973993 kJ/mol
# Density = 2.408819 g / cm^3
# Si number density = 24.143140 Si / 1000 Ang^3
#
#
#
# Elastic Constant Matrix: (Units=GPa)
#
#
# Indices 1 2 3 4 5 6 
#
# 1 161.7017 45.5184 46.0194 0.0000 9.2849 0.0000
# 2 45.5184 107.5788 24.5257 0.0000 -2.4859 0.0000
# 3 46.0194 24.5257 142.1655 0.0000 14.9945 0.0000
# 4 0.0000 0.0000 0.0000 42.7827 0.0000 3.5370
# 5 9.2849 -2.4859 14.9945 0.0000 47.6834 0.0000
# 6 0.0000 0.0000 0.0000 3.5370 0.0000 31.1189
#
#
#
# Elastic Compliance Matrix: (Units=1/GPa)
#
#
# Indices 1 2 3 4 5 6 
#
# 1 0.007560 -0.002800 -0.001855 0.000000 -0.001035 0.000000
# 2 -0.002800 0.010765 -0.001104 0.000000 0.001454 0.000000
# 3 -0.001855 -0.001104 0.008060 0.000000 -0.002231 0.000000
# 4 0.000000 0.000000 0.000000 0.023596 0.000000 -0.002682
# 5 -0.001035 0.001454 -0.002231 0.000000 0.021950 0.000000
# 6 0.000000 0.000000 0.000000 -0.002682 0.000000 0.032440
#
#
# Mechanical properties :
#
#
# Convention : Reuss Voigt Hill
#
# Bulk Modulus (GPa) = 67.26008 71.50810 69.38409
# Shear Modulus (GPa) = 41.37540 44.00916 42.69228
#
# Velocity S-wave (km/s) = 4.14424 4.27411 4.20968
# Velocity P-wave (km/s) = 7.12875 7.35119 7.24082
#
# Compressibility (1/GPa) = 0.01486766
#
# Stress axis : x y z
#
# Youngs Moduli (GPa) = 132.28148 92.89001 124.06441
#
# Poissons Ratio (x) = 0.26006 0.23014
# Poissons Ratio (y) = 0.37034 0.13700
# Poissons Ratio (z) = 0.24538 0.10258
#
# Static dielectric constant tensor:
#      x y z
#    x 3.955140 0.000000 -0.048780 
#    y 0.000000 4.061150 0.000000 
#    z -0.048780 0.000000 4.250210 
# 
# 
# High freq. dielectric constant tensor:
#      x y z
#    x 1.974210 0.000000 0.012680 
#    y 0.000000 1.966130 0.000000 
#    z 0.012680 0.000000 1.971240 
# 
# From -- ./inp_files/41336.got.cif
#   From: 2010.06.25/outbox.cif.g09.slc.cpg/sg15_21_cif.got.tgz:41336.got - 2010.06.28 07:06:18.
