data_PCOD8155772
_publ_section_title
;
Structure prediction by ZEFSAII (Michael W. Deem and Ramdas Pophale) SiO2 
 PCOD8155772
Probable space group: P 2 2 21
;
_chemical_formula_sum "Si O2"
_cell_formula_units_Z 18
_cell_length_a 25.895996
_cell_length_b 5.311054
_cell_length_c 5.046246
_cell_angle_alpha 90.000000
_cell_angle_beta 90.000000
_cell_angle_gamma 90.000000
_cell_volume 694.035611
_symmetry_space_group_name_H-M "P 2 2 21"
_symmetry_group_IT_number 17
_symmetry_cell_setting 'orthorhombic'
loop_
_space_group_symop_operation_xyz
x,y,z
-x,-y,1/2+z
x,-y,-z
-x,y,1/2-z
loop_
_atom_site_type_symbol
_atom_site_label
_atom_site_fract_x
_atom_site_fract_y
_atom_site_fract_z
Si Si1 0.034582 0.500000 0.500000
Si Si2 0.532652 0.000000 0.000000
Si Si3 0.619272 0.663189 0.234312
Si Si4 0.303535 0.000000 0.000000
Si Si5 0.890887 0.248251 0.339272
Si Si6 0.226661 0.749181 0.663272
O O1 0.072203 0.735057 0.580414
O O2 0.000000 0.585902 0.250000
O O3 0.500000 0.892117 0.750000
O O4 0.565668 0.227160 0.875804
O O5 0.609746 0.500000 0.500000
O O6 0.659221 0.890556 0.274529
O O7 0.644524 0.500000 0.000000
O O8 0.267356 0.767554 0.903672
O O9 0.903903 0.500000 0.500000
O O10 0.831215 0.248996 0.267314
O O11 0.905652 0.000000 0.500000
O O12 0.238069 0.500000 0.500000
O O13 0.236606 0.000000 0.500000
#
# Coordination Sequence:
#
# PCOD8155772 Si02
#       6
#     2   2   4   2   4   4
#     4  12  28  56  86 128 170 228 284 368 444 526
#     4  12  27  54  84 122 164 218 293 362 430 508
#     4  12  29  52  82 119 171 224 281 355 432 519
#     4  12  31  48  76 120 174 220 289 344 436 516
#     4  12  27  54  83 121 171 221 286 357 431 520
#     4  12  29  48  82 123 166 225 286 353 428 515
#
# _framework density 25.935271
#
# number of rings (size 3 to 8) (size 9 to 14) (size 15 to 20)
#    0.000    0.000    3.333    4.667    7.778    1.778 
#    4.000    2.222    0.000    0.000    0.000    0.000 
#    0.000    0.000    0.000    0.000    0.000    0.000 
#
# Total GULP energy -223230.362631 kJ/mol
# GULP energy per Si atom -12401.686813 kJ/mol
# Density = 2.587624 g / cm^3
# Si number density = 25.935271 Si / 1000 Ang^3
#
#
#
# Elastic Constant Matrix: (Units=GPa)
#
#
# Indices 1 2 3 4 5 6 
#
# 1 191.2512 59.9183 89.0647 0.0000 0.0000 0.0000
# 2 59.9183 179.8082 80.3263 0.0000 0.0000 0.0000
# 3 89.0647 80.3263 188.1308 0.0000 0.0000 0.0000
# 4 0.0000 0.0000 0.0000 68.2512 0.0000 0.0000
# 5 0.0000 0.0000 0.0000 0.0000 34.1821 0.0000
# 6 0.0000 0.0000 0.0000 0.0000 0.0000 18.5401
#
#
#
# Elastic Compliance Matrix: (Units=1/GPa)
#
#
# Indices 1 2 3 4 5 6 
#
# 1 0.006859 -0.001032 -0.002807 0.000000 0.000000 0.000000
# 2 -0.001032 0.007028 -0.002512 0.000000 0.000000 0.000000
# 3 -0.002807 -0.002512 0.007717 0.000000 0.000000 0.000000
# 4 0.000000 0.000000 0.000000 0.014652 0.000000 0.000000
# 5 0.000000 0.000000 0.000000 0.000000 0.029255 0.000000
# 6 0.000000 0.000000 0.000000 0.000000 0.000000 0.053937
#
#
# Mechanical properties :
#
#
# Convention : Reuss Voigt Hill
#
# Bulk Modulus (GPa) = 112.33122 113.08987 112.71054
# Shear Modulus (GPa) = 37.00531 46.18673 41.59602
#
# Velocity S-wave (km/s) = 3.78144 4.22459 4.00914
# Velocity P-wave (km/s) = 7.90392 8.21556 8.06125
#
# Compressibility (1/GPa) = 0.00890224
#
# Stress axis : x y z
#
# Youngs Moduli (GPa) = 145.79315 142.29709 129.58845
#
# Poissons Ratio (x) = 0.14683 0.36371
# Poissons Ratio (y) = 0.15044 0.32553
# Poissons Ratio (z) = 0.40919 0.35746
#
# Static dielectric constant tensor:
#      x y z
#    x 5.401150 0.000000 0.000000 
#    y 0.000000 4.526880 0.000000 
#    z 0.000000 0.000000 5.130920 
# 
# 
# High freq. dielectric constant tensor:
#      x y z
#    x 2.061470 0.000000 0.000000 
#    y 0.000000 2.035400 0.000000 
#    z 0.000000 0.000000 2.055120 
# 
# From -- ./inp_files/3038.got.cif
#   From: 2010.03.12/outbox.cif.g09.slc.cpg/sg17_2_cif.got.tgz:3038.got - 2010.04.10 18:46:23.
