data_PCOD8155479
_publ_section_title
;
Structure prediction by ZEFSAII (Michael W. Deem and Ramdas Pophale) SiO2 
 PCOD8155479
Probable space group: P 2 2 21
;
_chemical_formula_sum "Si O2"
_cell_formula_units_Z 18
_cell_length_a 16.897868
_cell_length_b 9.941082
_cell_length_c 5.235392
_cell_angle_alpha 90.000000
_cell_angle_beta 90.000000
_cell_angle_gamma 90.000000
_cell_volume 879.457333
_symmetry_space_group_name_H-M "P 2 2 21"
_symmetry_group_IT_number 17
_symmetry_cell_setting 'orthorhombic'
loop_
_space_group_symop_operation_xyz
x,y,z
-x,-y,1/2+z
x,-y,-z
-x,y,1/2-z
loop_
_atom_site_type_symbol
_atom_site_label
_atom_site_fract_x
_atom_site_fract_y
_atom_site_fract_z
Si Si1 0.550064 0.156008 0.500298
Si Si2 0.196910 0.349999 0.513018
Si Si3 0.078057 0.864082 0.372258
Si Si4 0.802363 0.000000 0.500000
Si Si5 0.280561 0.259666 0.036836
O O1 0.500000 0.190561 0.750000
O O2 0.625894 0.253451 0.509101
O O3 0.576074 0.000000 0.500000
O O4 0.500000 0.191124 0.250000
O O5 0.161193 0.500000 0.500000
O O6 0.122580 0.248175 0.455023
O O7 0.260596 0.349466 0.283218
O O8 0.238217 0.316446 0.783005
O O9 0.145170 0.912987 0.185233
O O10 0.000000 0.795066 0.250000
O O11 0.044930 0.000000 0.500000
O O12 0.746797 0.110822 0.369249
#
# Coordination Sequence:
#
# PCOD8155479 Si02
#       5
#     4   4   4   2   4
#     4  10  20  34  57  95 132 158 196 257 324 372
#     4  11  25  42  63  91 125 170 215 255 309 375
#     4  11  21  38  62  92 126 158 208 260 319 372
#     4  10  20  34  58  94 116 160 202 256 304 362
#     4  11  21  39  65  88 128 162 211 256 309 369
#
# _framework density 20.467168000000001
#
# number of rings (size 3 to 8) (size 9 to 14) (size 15 to 20)
#    0.000    1.333    4.444    2.000    0.000    0.000 
#    0.000    5.556    0.000   13.333    0.000    0.000 
#    0.000    0.000    0.000    0.000    0.000    0.000 
#
# Total GULP energy -223041.946450 kJ/mol
# GULP energy per Si atom -12391.219247 kJ/mol
# Density = 2.042058 g / cm^3
# Si number density = 20.467168 Si / 1000 Ang^3
#
#
#
# Elastic Constant Matrix: (Units=GPa)
#
#
# Indices 1 2 3 4 5 6 
#
# 1 115.5907 43.7576 39.6858 0.0000 0.0000 0.0000
# 2 43.7576 103.4131 26.1580 0.0000 0.0000 0.0000
# 3 39.6858 26.1580 128.0009 0.0000 0.0000 0.0000
# 4 0.0000 0.0000 0.0000 -43.6314 0.0000 0.0000
# 5 0.0000 0.0000 0.0000 0.0000 18.3451 0.0000
# 6 0.0000 0.0000 0.0000 0.0000 0.0000 22.1031
#
#
#
# Elastic Compliance Matrix: (Units=1/GPa)
#
#
# Indices 1 2 3 4 5 6 
#
# 1 0.011071 -0.004024 -0.002610 0.000000 0.000000 0.000000
# 2 -0.004024 0.011660 -0.001135 0.000000 0.000000 0.000000
# 3 -0.002610 -0.001135 0.008854 0.000000 0.000000 0.000000
# 4 0.000000 0.000000 0.000000 -0.022919 0.000000 0.000000
# 5 0.000000 0.000000 0.000000 0.000000 0.054511 0.000000
# 6 0.000000 0.000000 0.000000 0.000000 0.000000 0.045243
#
#
# Mechanical properties :
#
#
# Convention : Reuss Voigt Hill
#
# Bulk Modulus (GPa) = 62.32261 62.91193 62.61727
# Shear Modulus (GPa) = 38.66823 15.19025 26.92924
#
# Velocity S-wave (km/s) = 4.35130 2.72725 3.63123
# Velocity P-wave (km/s) = 7.46735 6.38137 6.94561
#
# Compressibility (1/GPa) = 0.01604554
#
# Stress axis : x y z
#
# Youngs Moduli (GPa) = 90.32851 85.76443 112.94796
#
# Poissons Ratio (x) = 0.34513 0.29480
# Poissons Ratio (y) = 0.36350 0.12821
# Poissons Ratio (z) = 0.23576 0.09735
#
# Static dielectric constant tensor:
#      x y z
#    x 3.754270 0.000000 0.000000 
#    y 0.000000 4.051460 0.000000 
#    z 0.000000 0.000000 3.534250 
# 
# 
# High freq. dielectric constant tensor:
#      x y z
#    x 1.801740 0.000000 0.000000 
#    y 0.000000 1.784090 0.000000 
#    z 0.000000 0.000000 1.799610 
# 
# From -- ./inp_files/757.got.cif
#   From: 2010.03.12/outbox.cif.g09.slc.cpg/sg17_1_cif.got.tgz:757.got - 2010.04.10 18:46:23.
