data_PCOD8155125
_publ_section_title
;
Structure prediction by ZEFSAII (Michael W. Deem and Ramdas Pophale) SiO2 
 PCOD8155125
Probable space group: C 2/C
;
_chemical_formula_sum "Si O2"
_cell_formula_units_Z 36
_cell_length_a 25.946067
_cell_length_b 8.609872
_cell_length_c 15.355823
_cell_angle_alpha 90.000000
_cell_angle_beta 26.557589
_cell_angle_gamma 90.000000
_cell_volume 1533.709764
_symmetry_space_group_name_H-M "C 2/C"
_symmetry_group_IT_number 15
_symmetry_cell_setting 'monoclinic'
loop_
_space_group_symop_operation_xyz
x,y,z
-x,y,1/2-z
-x,-y,-z
x,-y,1/2+z
1/2+x,1/2+y,z
1/2-x,1/2+y,1/2-z
1/2-x,1/2-y,-z
1/2+x,1/2-y,1/2+z
loop_
_atom_site_type_symbol
_atom_site_label
_atom_site_fract_x
_atom_site_fract_y
_atom_site_fract_z
Si Si1 0.000000 0.765945 0.250000
Si Si2 0.826498 0.375285 0.146346
Si Si3 0.355104 0.300997 0.783037
Si Si4 0.140809 0.151346 0.691953
Si Si5 0.101271 0.276932 0.927525
O O1 0.062544 0.875277 0.225315
O O2 0.906301 0.662477 0.442596
O O3 0.853984 0.275125 0.189788
O O4 0.845887 0.555337 0.135774
O O5 0.692270 0.349889 0.325054
O O6 0.337632 0.484729 0.797687
O O7 0.472148 0.253106 0.659292
O O8 0.250000 0.250000 0.000000
O O9 0.250000 0.250000 0.500000
O O10 0.078903 0.256136 0.857928
#
# Coordination Sequence:
#
# PCOD8155125 Si02
#       5
#     4   8   8   8   8
#     4  12  28  46  80 104 150 196 258 306 396 438
#     4  12  28  48  79 114 148 206 254 319 388 462
#     4  12  29  48  78 111 156 203 256 314 387 460
#     4  12  26  49  76 111 153 200 254 319 382 457
#     4  12  27  49  78 110 158 196 262 314 387 457
#
# _framework density 23.472498000000002
#
# number of rings (size 3 to 8) (size 9 to 14) (size 15 to 20)
#    0.000    0.000    4.444    4.000    6.222    0.889 
#    0.000    0.000    0.000    0.000    0.000    0.000 
#    0.000    0.000    0.000    0.000    0.000    0.000 
#
# Total GULP energy -223152.740746 kJ/mol
# GULP energy per Si atom -12397.374486 kJ/mol
# Density = 2.341907 g / cm^3
# Si number density = 23.472498 Si / 1000 Ang^3
#
#
#
# Elastic Constant Matrix: (Units=GPa)
#
#
# Indices 1 2 3 4 5 6 
#
# 1 134.4074 49.2598 69.2053 0.0000 -17.2764 0.0000
# 2 49.2598 157.2168 61.9060 -0.0001 -4.4205 0.0000
# 3 69.2053 61.9060 175.9224 0.0000 -27.4000 0.0000
# 4 0.0000 -0.0001 0.0000 22.7517 0.0000 0.6700
# 5 -17.2764 -4.4205 -27.4000 0.0000 46.5993 0.0000
# 6 0.0000 0.0000 0.0000 0.6700 0.0000 38.6501
#
#
#
# Elastic Compliance Matrix: (Units=1/GPa)
#
#
# Indices 1 2 3 4 5 6 
#
# 1 0.009873 -0.001883 -0.002949 0.000000 0.001748 0.000000
# 2 -0.001883 0.007778 -0.002191 0.000000 -0.001248 0.000000
# 3 -0.002949 -0.002191 0.008160 0.000000 0.003497 0.000000
# 4 0.000000 0.000000 0.000000 0.043975 0.000000 -0.000762
# 5 0.001748 -0.001248 0.003497 0.000000 0.024045 0.000000
# 6 0.000000 0.000000 0.000000 -0.000762 0.000000 0.025886
#
#
# Mechanical properties :
#
#
# Convention : Reuss Voigt Hill
#
# Bulk Modulus (GPa) = 84.99428 92.03210 88.51319
# Shear Modulus (GPa) = 36.31441 40.74525 38.52983
#
# Velocity S-wave (km/s) = 3.93759 4.17090 4.05592
# Velocity P-wave (km/s) = 7.54729 7.90499 7.72821
#
# Compressibility (1/GPa) = 0.01176550
#
# Stress axis : x y z
#
# Youngs Moduli (GPa) = 101.28231 128.56427 122.54860
#
# Poissons Ratio (x) = 0.24211 0.36142
# Poissons Ratio (y) = 0.19073 0.26847
# Poissons Ratio (z) = 0.29870 0.28165
#
# Static dielectric constant tensor:
#      x y z
#    x 4.889310 0.000000 -0.073990 
#    y 0.000000 4.080020 0.000000 
#    z -0.073990 0.000000 4.562120 
# 
# 
# High freq. dielectric constant tensor:
#      x y z
#    x 1.945720 0.000000 -0.008030 
#    y 0.000000 1.925920 0.000000 
#    z -0.008030 0.000000 1.948820 
# 
# From -- ./inp_files/176815.got.cif
#   From: 2010.06.25/outbox.cif.g09.slc.cpg/sg15_89_cif.got.tgz:176815.got - 2010.06.28 07:06:18.
