data_PCOD8155685
_publ_section_title
;
Structure prediction by ZEFSAII (Michael W. Deem and Ramdas Pophale) SiO2 
 PCOD8155685
Probable space group: P 2 2 21
;
_chemical_formula_sum "Si O2"
_cell_formula_units_Z 18
_cell_length_a 7.331049
_cell_length_b 12.512603
_cell_length_c 8.543134
_cell_angle_alpha 90.000000
_cell_angle_beta 90.000000
_cell_angle_gamma 90.000000
_cell_volume 783.666002
_symmetry_space_group_name_H-M "P 2 2 21"
_symmetry_group_IT_number 17
_symmetry_cell_setting 'orthorhombic'
loop_
_space_group_symop_operation_xyz
x,y,z
-x,-y,1/2+z
x,-y,-z
-x,y,1/2-z
loop_
_atom_site_type_symbol
_atom_site_label
_atom_site_fract_x
_atom_site_fract_y
_atom_site_fract_z
Si Si1 0.299000 0.865705 0.758715
Si Si2 0.814338 0.219315 0.927525
Si Si3 0.339662 0.500000 0.000000
Si Si4 0.500000 0.341404 0.750000
Si Si5 0.000000 0.034955 0.750000
Si Si6 0.118321 0.685168 0.901166
O O1 0.500000 0.915867 0.750000
O O2 0.276719 0.807077 0.591987
O O3 0.277628 0.775623 0.895338
O O4 0.160748 0.958307 0.810674
O O5 0.671538 0.267406 0.800449
O O6 0.906344 0.107762 0.880282
O O7 0.984187 0.302642 0.948450
O O8 0.457160 0.418369 0.896476
O O9 0.208684 0.569324 0.889398
O O10 0.000000 0.708272 0.750000
#
# Coordination Sequence:
#
# PCOD8155685 Si02
#       6
#     4   4   2   2   2   4
#     4  11  24  46  74 107 146 196 245 310 370 457
#     4  11  25  49  69 107 150 192 249 311 375 457
#     4  12  28  44  74 110 140 208 238 322 380 448
#     4  12  30  46  76 112 150 194 260 322 370 470
#     4  12  24  46  70 108 144 202 236 298 380 440
#     4  10  24  45  73 101 149 192 247 308 376 453
#
# _framework density 22.968968
#
# number of rings (size 3 to 8) (size 9 to 14) (size 15 to 20)
#    0.000    0.889    3.333    3.333   12.444    0.000 
#    4.000    0.000    0.000    0.000    0.000    0.000 
#    0.000    0.000    0.000    0.000    0.000    0.000 
#
# Total GULP energy -223061.481189 kJ/mol
# GULP energy per Si atom -12392.304511 kJ/mol
# Density = 2.291669 g / cm^3
# Si number density = 22.968968 Si / 1000 Ang^3
#
#
#
# Elastic Constant Matrix: (Units=GPa)
#
#
# Indices 1 2 3 4 5 6 
#
# 1 168.8348 69.9784 36.5538 0.0000 0.0000 0.0000
# 2 69.9784 139.4760 29.3633 0.0000 0.0000 0.0000
# 3 36.5538 29.3633 66.1853 0.0000 0.0000 0.0000
# 4 0.0000 0.0000 0.0000 42.2119 0.0000 0.0000
# 5 0.0000 0.0000 0.0000 0.0000 28.8423 0.0000
# 6 0.0000 0.0000 0.0000 0.0000 0.0000 24.5134
#
#
#
# Elastic Compliance Matrix: (Units=1/GPa)
#
#
# Indices 1 2 3 4 5 6 
#
# 1 0.007950 -0.003380 -0.002891 0.000000 0.000000 0.000000
# 2 -0.003380 0.009345 -0.002279 0.000000 0.000000 0.000000
# 3 -0.002891 -0.002279 0.017717 0.000000 0.000000 0.000000
# 4 0.000000 0.000000 0.000000 0.023690 0.000000 0.000000
# 5 0.000000 0.000000 0.000000 0.000000 0.034671 0.000000
# 6 0.000000 0.000000 0.000000 0.000000 0.000000 0.040794
#
#
# Mechanical properties :
#
#
# Convention : Reuss Voigt Hill
#
# Bulk Modulus (GPa) = 55.83034 71.80967 63.82000
# Shear Modulus (GPa) = 31.79874 35.02022 33.40948
#
# Velocity S-wave (km/s) = 3.72482 3.90895 3.81799
# Velocity P-wave (km/s) = 6.54665 7.19060 6.87617
#
# Compressibility (1/GPa) = 0.01791141
#
# Stress axis : x y z
#
# Youngs Moduli (GPa) = 125.78911 107.00501 56.44265
#
# Poissons Ratio (x) = 0.36167 0.16318
# Poissons Ratio (y) = 0.42516 0.12865
# Poissons Ratio (z) = 0.36367 0.24390
#
# Static dielectric constant tensor:
#      x y z
#    x 4.443820 0.000000 0.000000 
#    y 0.000000 4.092710 0.000000 
#    z 0.000000 0.000000 4.042310 
# 
# 
# High freq. dielectric constant tensor:
#      x y z
#    x 1.919080 0.000000 0.000000 
#    y 0.000000 1.912190 0.000000 
#    z 0.000000 0.000000 1.899240 
# 
# From -- ./inp_files/3961.got.cif
#   From: 2010.03.12/outbox.cif.g09.slc.cpg/sg17_2_cif.got.tgz:3961.got - 2010.04.10 18:46:23.
