data_PCOD8155674
_publ_section_title
;
Structure prediction by ZEFSAII (Michael W. Deem and Ramdas Pophale) SiO2 
 PCOD8155674
Probable space group: P 2 2 21
;
_chemical_formula_sum "Si O2"
_cell_formula_units_Z 24
_cell_length_a 9.715662
_cell_length_b 5.044445
_cell_length_c 24.035204
_cell_angle_alpha 90.000000
_cell_angle_beta 90.000000
_cell_angle_gamma 90.000000
_cell_volume 1177.968295
_symmetry_space_group_name_H-M "P 2 2 21"
_symmetry_group_IT_number 17
_symmetry_cell_setting 'orthorhombic'
loop_
_space_group_symop_operation_xyz
x,y,z
-x,-y,1/2+z
x,-y,-z
-x,y,1/2-z
loop_
_atom_site_type_symbol
_atom_site_label
_atom_site_fract_x
_atom_site_fract_y
_atom_site_fract_z
Si Si1 0.286613 0.243464 0.463447
Si Si2 0.396992 0.282106 0.703177
Si Si3 0.024734 0.758201 0.962135
Si Si4 0.796050 0.205070 0.352673
Si Si5 0.145052 0.705406 0.220992
Si Si6 0.526627 0.788681 0.860878
O O1 0.279454 0.500000 0.500000
O O2 0.396137 0.304178 0.415917
O O3 0.131739 0.189351 0.440952
O O4 0.340760 0.000000 0.500000
O O5 0.500000 0.178337 0.750000
O O6 0.245065 0.256789 0.726853
O O7 0.432467 0.583204 0.687366
O O8 0.416857 0.082695 0.651801
O O9 0.117999 0.733771 0.907778
O O10 0.038873 0.500000 0.000000
O O11 0.076764 0.000000 0.000000
O O12 0.834143 0.920065 0.327522
O O13 0.831340 0.419504 0.305869
O O14 0.636476 0.212537 0.369660
O O15 0.000000 0.730715 0.250000
#
# Coordination Sequence:
#
# PCOD8155674 Si02
#       6
#     4   4   4   4   4   4
#     4  10  23  42  63  92 124 159 209 256 309 373
#     4  12  23  43  63  91 132 165 203 251 313 367
#     4  10  23  42  63  89 124 164 203 257 313 365
#     4  12  24  43  64  95 127 163 212 254 311 370
#     4  12  27  41  63  95 128 167 209 258 302 373
#     4  12  24  40  68  94 123 169 204 257 312 370
#
# _framework density 20.374061999999999
#
# number of rings (size 3 to 8) (size 9 to 14) (size 15 to 20)
#    0.000    0.667    3.333    4.000    4.667    1.333 
#    0.000    0.000    0.000    0.000    0.000    0.000 
#    0.000    0.000    0.000    0.000    0.000    0.000 
#
# Total GULP energy -297723.585729 kJ/mol
# GULP energy per Si atom -12405.149405 kJ/mol
# Density = 2.032769 g / cm^3
# Si number density = 20.374062 Si / 1000 Ang^3
#
#
#
# Elastic Constant Matrix: (Units=GPa)
#
#
# Indices 1 2 3 4 5 6 
#
# 1 162.3815 14.4089 62.2004 0.0000 0.0000 0.0000
# 2 14.4089 92.5055 9.9257 0.0000 0.0000 0.0000
# 3 62.2004 9.9257 82.6666 0.0000 0.0000 0.0000
# 4 0.0000 0.0000 0.0000 28.0981 0.0000 0.0000
# 5 0.0000 0.0000 0.0000 0.0000 110.1273 0.0000
# 6 0.0000 0.0000 0.0000 0.0000 0.0000 40.1528
#
#
#
# Elastic Compliance Matrix: (Units=1/GPa)
#
#
# Indices 1 2 3 4 5 6 
#
# 1 0.008692 -0.000661 -0.006461 0.000000 0.000000 0.000000
# 2 -0.000661 0.011001 -0.000824 0.000000 0.000000 0.000000
# 3 -0.006461 -0.000824 0.017057 0.000000 0.000000 0.000000
# 4 0.000000 0.000000 0.000000 0.035590 0.000000 0.000000
# 5 0.000000 0.000000 0.000000 0.000000 0.009080 0.000000
# 6 0.000000 0.000000 0.000000 0.000000 0.000000 0.024905
#
#
# Mechanical properties :
#
#
# Convention : Reuss Voigt Hill
#
# Bulk Modulus (GPa) = 47.93889 56.73595 52.33742
# Shear Modulus (GPa) = 38.70924 52.41020 45.55972
#
# Velocity S-wave (km/s) = 4.36354 5.07738 4.73394
# Velocity P-wave (km/s) = 6.99770 7.89181 7.45817
#
# Compressibility (1/GPa) = 0.02085989
#
# Stress axis : x y z
#
# Youngs Moduli (GPa) = 115.05276 90.89693 58.62778
#
# Poissons Ratio (x) = 0.06005 0.37877
# Poissons Ratio (y) = 0.07601 0.04830
# Poissons Ratio (z) = 0.74330 0.07489
#
# Static dielectric constant tensor:
#      x y z
#    x 3.860140 0.000000 0.000000 
#    y 0.000000 3.799320 0.000000 
#    z 0.000000 0.000000 3.422460 
# 
# 
# High freq. dielectric constant tensor:
#      x y z
#    x 1.806190 0.000000 0.000000 
#    y 0.000000 1.816850 0.000000 
#    z 0.000000 0.000000 1.795290 
# 
# From -- ./inp_files/10542.got.cif
#   From: 2010.03.12/outbox.cif.g09.slc.cpg/sg17_6_cif.got.tgz:10542.got - 2010.04.10 18:46:23.
