data_PCOD8155108
_publ_section_title
;
Structure prediction by ZEFSAII (Michael W. Deem and Ramdas Pophale) SiO2 
 PCOD8155108
Probable space group: C 2/C
;
_chemical_formula_sum "Si O2"
_cell_formula_units_Z 48
_cell_length_a 27.356717
_cell_length_b 13.741521
_cell_length_c 13.971276
_cell_angle_alpha 90.000000
_cell_angle_beta 23.465801
_cell_angle_gamma 90.000000
_cell_volume 2091.403722
_symmetry_space_group_name_H-M "C 2/C"
_symmetry_group_IT_number 15
_symmetry_cell_setting 'monoclinic'
loop_
_space_group_symop_operation_xyz
x,y,z
-x,y,1/2-z
-x,-y,-z
x,-y,1/2+z
1/2+x,1/2+y,z
1/2-x,1/2+y,1/2-z
1/2-x,1/2-y,-z
1/2+x,1/2-y,1/2+z
loop_
_atom_site_type_symbol
_atom_site_label
_atom_site_fract_x
_atom_site_fract_y
_atom_site_fract_z
Si Si1 0.251784 0.383925 0.847520
Si Si2 0.615657 0.680764 0.109106
Si Si3 0.748170 0.053564 0.981086
Si Si4 0.306904 0.984549 0.224066
Si Si5 0.503886 0.342809 0.018789
Si Si6 0.029132 0.341388 0.802971
O O1 0.227675 0.440936 0.989807
O O2 0.195337 0.445870 0.863254
O O3 0.400021 0.378819 0.572591
O O4 0.198663 0.276393 0.951227
O O5 0.500000 0.696062 0.250000
O O6 0.571966 0.664584 0.295326
O O7 0.692292 0.588924 0.933087
O O8 0.889998 0.083984 0.716509
O O9 0.667718 0.117624 0.052403
O O10 0.700396 0.060996 0.175245
O O11 0.434650 0.927117 0.997882
O O12 0.463481 0.236923 0.126122
O O13 0.000000 0.297719 0.750000
#
# Coordination Sequence:
#
# PCOD8155108 Si02
#       6
#     8   8   8   8   8   8
#     4  12  26  48  75 109 146 198 245 294 371 434
#     4  12  28  47  77 108 149 195 247 305 365 436
#     4  12  27  46  77 108 148 196 244 305 365 440
#     4  12  27  48  77 109 151 193 248 304 365 440
#     4  12  27  49  76 108 153 191 249 302 368 433
#     4  12  27  49  73 105 153 194 248 305 365 434
#
# _framework density 22.951091999999999
#
# number of rings (size 3 to 8) (size 9 to 14) (size 15 to 20)
#    0.000    0.000    5.000    4.000    9.333    0.000 
#    0.000    0.000    0.000    0.000    0.000    0.000 
#    0.000    0.000    0.000    0.000    0.000    0.000 
#
# Total GULP energy -297630.283377 kJ/mol
# GULP energy per Si atom -12401.261807 kJ/mol
# Density = 2.289885 g / cm^3
# Si number density = 22.951092 Si / 1000 Ang^3
#
#
#
# Elastic Constant Matrix: (Units=GPa)
#
#
# Indices 1 2 3 4 5 6 
#
# 1 95.2344 21.7980 25.6848 0.0000 -3.3543 0.0000
# 2 21.7980 66.6365 0.2567 0.0000 11.0016 0.0000
# 3 25.6848 0.2567 77.8170 0.0000 0.9004 0.0000
# 4 0.0000 0.0000 0.0000 32.9106 0.0000 5.1502
# 5 -3.3543 11.0016 0.9004 0.0000 46.8807 0.0000
# 6 0.0000 0.0000 0.0000 5.1502 0.0000 34.1361
#
#
#
# Elastic Compliance Matrix: (Units=1/GPa)
#
#
# Indices 1 2 3 4 5 6 
#
# 1 0.012736 -0.004487 -0.004212 0.000000 0.002045 0.000000
# 2 -0.004487 0.017193 0.001475 0.000000 -0.004384 0.000000
# 3 -0.004212 0.001475 0.014247 0.000000 -0.000921 0.000000
# 4 0.000000 0.000000 0.000000 0.031120 0.000000 -0.004695
# 5 0.002045 -0.004384 -0.000921 0.000000 0.022524 0.000000
# 6 0.000000 0.000000 0.000000 -0.004695 0.000000 0.030003
#
#
# Mechanical properties :
#
#
# Convention : Reuss Voigt Hill
#
# Bulk Modulus (GPa) = 33.64083 37.24076 35.44080
# Shear Modulus (GPa) = 32.85580 35.58204 34.21892
#
# Velocity S-wave (km/s) = 3.78770 3.94171 3.86547
# Velocity P-wave (km/s) = 5.81535 6.08091 5.94961
#
# Compressibility (1/GPa) = 0.02972578
#
# Stress axis : x y z
#
# Youngs Moduli (GPa) = 78.51954 58.16370 70.19098
#
# Poissons Ratio (x) = 0.26101 0.29568
# Poissons Ratio (y) = 0.35236 -0.10354
# Poissons Ratio (z) = 0.33076 -0.08580
#
# Static dielectric constant tensor:
#      x y z
#    x 4.301880 0.000000 -0.147800 
#    y 0.000000 4.210960 0.000000 
#    z -0.147800 0.000000 4.259590 
# 
# 
# High freq. dielectric constant tensor:
#      x y z
#    x 1.923870 0.000000 -0.009740 
#    y 0.000000 1.913570 0.000000 
#    z -0.009740 0.000000 1.912670 
# 
# From -- ./inp_files/182459.got.cif
#   From: 2010.06.25/outbox.cif.g09.slc.cpg/sg15_92_cif.got.tgz:182459.got - 2010.06.28 07:06:18.
