data_PCOD8155151
_publ_section_title
;
Structure prediction by ZEFSAII (Michael W. Deem and Ramdas Pophale) SiO2 
 PCOD8155151
Probable space group: C 2/C
;
_chemical_formula_sum "Si O2"
_cell_formula_units_Z 40
_cell_length_a 17.663872
_cell_length_b 8.838423
_cell_length_c 21.973052
_cell_angle_alpha 90.000000
_cell_angle_beta 30.620292
_cell_angle_gamma 90.000000
_cell_volume 1747.286687
_symmetry_space_group_name_H-M "C 2/C"
_symmetry_group_IT_number 15
_symmetry_cell_setting 'monoclinic'
loop_
_space_group_symop_operation_xyz
x,y,z
-x,y,1/2-z
-x,-y,-z
x,-y,1/2+z
1/2+x,1/2+y,z
1/2-x,1/2+y,1/2-z
1/2-x,1/2-y,-z
1/2+x,1/2-y,1/2+z
loop_
_atom_site_type_symbol
_atom_site_label
_atom_site_fract_x
_atom_site_fract_y
_atom_site_fract_z
Si Si1 0.914172 0.961817 0.750549
Si Si2 0.335885 0.565972 0.116088
Si Si3 0.587235 0.976084 0.501781
Si Si4 0.365274 0.314716 0.469680
Si Si5 0.627354 0.194505 0.809181
O O1 0.864078 0.814196 0.749837
O O2 0.000000 0.904683 0.750000
O O3 0.763269 0.044749 0.873908
O O4 0.017623 0.072090 0.640749
O O5 0.333005 0.725694 0.154135
O O6 0.238268 0.443908 0.219535
O O7 0.500000 0.500000 0.000000
O O8 0.282306 0.599502 0.083529
O O9 0.539082 0.122591 0.574673
O O10 0.500000 0.000000 0.500000
O O11 0.535758 0.822701 0.571421
O O12 0.250000 0.250000 0.500000
#
# Coordination Sequence:
#
# PCOD8155151 Si02
#       5
#     8   8   8   8   8
#     4  12  28  50  74 113 162 207 266 326 396 473
#     4  12  27  49  79 115 155 208 270 326 398 469
#     4  12  27  46  78 113 152 206 264 323 394 464
#     4  12  28  50  80 112 157 211 267 323 395 472
#     4  12  28  45  79 111 156 207 266 328 394 477
#
# _framework density 22.892636
#
# number of rings (size 3 to 8) (size 9 to 14) (size 15 to 20)
#    0.000    0.000    6.000    2.400    5.600    2.400 
#    0.000    0.000    0.000    0.000    0.000    0.000 
#    0.000    0.000    0.000    0.000    0.000    0.000 
#
# Total GULP energy -247992.204704 kJ/mol
# GULP energy per Si atom -12399.610235 kJ/mol
# Density = 2.284053 g / cm^3
# Si number density = 22.892636 Si / 1000 Ang^3
#
#
#
# Elastic Constant Matrix: (Units=GPa)
#
#
# Indices 1 2 3 4 5 6 
#
# 1 129.8589 28.1047 36.6507 -0.0013 7.8259 0.0008
# 2 28.1047 135.3582 55.1412 0.0022 8.6458 -0.0012
# 3 36.6507 55.1412 124.8546 0.0051 7.8654 -0.0034
# 4 -0.0013 0.0022 0.0051 38.5804 -0.0017 -2.2291
# 5 7.8259 8.6458 7.8654 -0.0017 34.1642 0.0008
# 6 0.0008 -0.0012 -0.0034 -2.2291 0.0008 42.9691
#
#
#
# Elastic Compliance Matrix: (Units=1/GPa)
#
#
# Indices 1 2 3 4 5 6 
#
# 1 0.008541 -0.000858 -0.002048 0.000001 -0.001268 0.000000
# 2 -0.000858 0.009160 -0.003714 0.000000 -0.001266 0.000000
# 3 -0.002048 -0.003714 0.010312 -0.000001 -0.000965 0.000001
# 4 0.000001 0.000000 -0.000001 0.025998 0.000001 0.001349
# 5 -0.001268 -0.001266 -0.000965 0.000001 0.030103 -0.000001
# 6 0.000000 0.000000 0.000001 0.001349 -0.000001 0.023342
#
#
# Mechanical properties :
#
#
# Convention : Reuss Voigt Hill
#
# Bulk Modulus (GPa) = 67.69529 69.98500 68.84015
# Shear Modulus (GPa) = 39.80263 41.15443 40.47853
#
# Velocity S-wave (km/s) = 4.17425 4.24455 4.20955
# Velocity P-wave (km/s) = 7.27100 7.39317 7.33234
#
# Compressibility (1/GPa) = 0.01477208
#
# Stress axis : x y z
#
# Youngs Moduli (GPa) = 117.08409 109.17411 96.97891
#
# Poissons Ratio (x) = 0.09366 0.19865
# Poissons Ratio (y) = 0.10045 0.36015
# Poissons Ratio (z) = 0.23983 0.40544
#
# Static dielectric constant tensor:
#      x y z
#    x 4.372410 0.000000 0.223460 
#    y 0.000000 4.610670 0.000000 
#    z 0.223460 0.000000 4.556950 
# 
# 
# High freq. dielectric constant tensor:
#      x y z
#    x 1.903650 0.000000 0.019020 
#    y 0.000000 1.926600 0.000000 
#    z 0.019020 0.000000 1.912980 
# 
# From -- ./inp_files/276705.got.cif
#   From: 2010.06.25/outbox.cif.g09.slc.cpg/sg15_139_cif.got.tgz:276705.got - 2010.06.28 07:06:18.
