data_PCOD8155946
_publ_section_title
;
Structure prediction by ZEFSAII (Michael W. Deem and Ramdas Pophale) SiO2 
 PCOD8155946
Probable space group: P 21 21 2
;
_chemical_formula_sum "Si O2"
_cell_formula_units_Z 26
_cell_length_a 6.313046
_cell_length_b 17.891170
_cell_length_c 11.793787
_cell_angle_alpha 90.000000
_cell_angle_beta 90.000000
_cell_angle_gamma 90.000000
_cell_volume 1332.082050
_symmetry_space_group_name_H-M "P 21 21 2"
_symmetry_group_IT_number 18
_symmetry_cell_setting 'orthorhombic'
loop_
_space_group_symop_operation_xyz
x,y,z
-x,-y,z
1/2+x,1/2-y,-z
1/2-x,1/2+y,-z
loop_
_atom_site_type_symbol
_atom_site_label
_atom_site_fract_x
_atom_site_fract_y
_atom_site_fract_z
Si Si1 0.000000 0.500000 0.615865
Si Si2 0.626399 0.425720 0.494868
Si Si3 0.905813 0.418260 0.050289
Si Si4 0.588716 0.335220 0.902737
Si Si5 0.921945 0.915338 0.752637
Si Si6 0.287492 0.315378 0.104658
Si Si7 0.386295 0.421869 0.706753
O O1 0.860386 0.445857 0.537527
O O2 0.861527 0.557766 0.691723
O O3 0.500000 0.500000 0.466402
O O4 0.639942 0.384552 0.373284
O O5 0.491412 0.383447 0.593678
O O6 0.785321 0.410170 0.169609
O O7 0.000000 0.500000 0.030495
O O8 0.093908 0.359461 0.049430
O O9 0.746748 0.400402 0.945995
O O10 0.716470 0.265680 0.848674
O O11 0.422482 0.367261 0.811787
O O12 0.460608 0.301744 0.007829
O O13 0.111803 0.862115 0.792996
O O14 0.000000 0.000000 0.757226
O O15 0.500000 0.500000 0.729650
#
# Coordination Sequence:
#
# PCOD8155946 Si02
#       7
#     2   4   4   4   4   4   4
#     4   8  16  34  54  92 122 152 186 244 316 336
#     4   8  17  33  57  91 121 146 192 247 294 354
#     4  11  23  37  59  88 115 156 202 246 298 347
#     4  11  24  41  58  85 123 160 201 246 297 367
#     4  10  20  35  62  93 119 148 202 250 290 360
#     4  11  23  40  58  84 121 161 195 242 306 349
#     4   9  20  36  59  90 118 150 202 245 291 359
#
# _framework density 19.518317
#
# number of rings (size 3 to 8) (size 9 to 14) (size 15 to 20)
#    0.000    2.462    3.077    0.000    3.231    3.692 
#    1.385    0.000    3.385    0.000    0.000    0.000 
#    0.000    0.000    0.000    0.000    0.000    0.000 
#
# Total GULP energy -322263.315920 kJ/mol
# GULP energy per Si atom -12394.742920 kJ/mol
# Density = 1.947389 g / cm^3
# Si number density = 19.518317 Si / 1000 Ang^3
#
#
#
# Elastic Constant Matrix: (Units=GPa)
#
#
# Indices 1 2 3 4 5 6 
#
# 1 124.0472 39.7801 46.0820 0.0000 0.0000 0.0000
# 2 39.7801 86.4670 49.1947 0.0000 0.0000 0.0000
# 3 46.0820 49.1947 115.1645 0.0000 0.0000 0.0000
# 4 0.0000 0.0000 0.0000 9.2463 0.0000 0.0000
# 5 0.0000 0.0000 0.0000 0.0000 22.2631 0.0000
# 6 0.0000 0.0000 0.0000 0.0000 0.0000 31.2883
#
#
#
# Elastic Compliance Matrix: (Units=1/GPa)
#
#
# Indices 1 2 3 4 5 6 
#
# 1 0.010056 -0.003088 -0.002705 0.000000 0.000000 0.000000
# 2 -0.003088 0.016226 -0.005696 0.000000 0.000000 0.000000
# 3 -0.002705 -0.005696 0.012199 0.000000 0.000000 0.000000
# 4 0.000000 0.000000 0.000000 0.108152 0.000000 0.000000
# 5 0.000000 0.000000 0.000000 0.000000 0.044917 0.000000
# 6 0.000000 0.000000 0.000000 0.000000 0.000000 0.031961
#
#
# Mechanical properties :
#
#
# Convention : Reuss Voigt Hill
#
# Bulk Modulus (GPa) = 64.49793 66.19917 65.34855
# Shear Modulus (GPa) = 19.86834 25.26764 22.56799
#
# Velocity S-wave (km/s) = 3.19397 3.60190 3.40405
# Velocity P-wave (km/s) = 6.83509 7.16159 7.00024
#
# Compressibility (1/GPa) = 0.01550437
#
# Stress axis : x y z
#
# Youngs Moduli (GPa) = 99.43824 61.62875 81.97553
#
# Poissons Ratio (x) = 0.19028 0.22175
# Poissons Ratio (y) = 0.30702 0.46692
# Poissons Ratio (z) = 0.26899 0.35103
#
# Static dielectric constant tensor:
#      x y z
#    x 3.816900 0.000000 0.000000 
#    y 0.000000 3.297910 0.000000 
#    z 0.000000 0.000000 3.860920 
# 
# 
# High freq. dielectric constant tensor:
#      x y z
#    x 1.774720 0.000000 0.000000 
#    y 0.000000 1.727210 0.000000 
#    z 0.000000 0.000000 1.758180 
# 
# From -- ./inp_files/5162.got.cif
#   From: 2010.03.12/outbox.cif.g09.slc.cpg/sg18_3_cif.got.tgz:5162.got - 2010.04.10 18:53:55.
