data_PCOD8155333
_publ_section_title
;
Structure prediction by ZEFSAII (Michael W. Deem and Ramdas Pophale) SiO2 
 PCOD8155333
Probable space group: P 2 2 2
;
_chemical_formula_sum "Si O2"
_cell_formula_units_Z 14
_cell_length_a 5.599537
_cell_length_b 5.162315
_cell_length_c 19.282689
_cell_angle_alpha 90.000000
_cell_angle_beta 90.000000
_cell_angle_gamma 90.000000
_cell_volume 557.396474
_symmetry_space_group_name_H-M "P 2 2 2"
_symmetry_group_IT_number 16
_symmetry_cell_setting 'orthorhombic'
loop_
_space_group_symop_operation_xyz
x,y,z
-x,-y,z
x,-y,-z
-x,y,-z
loop_
_atom_site_type_symbol
_atom_site_label
_atom_site_fract_x
_atom_site_fract_y
_atom_site_fract_z
Si Si1 0.249590 0.347866 0.751380
Si Si2 0.500000 0.000000 0.500000
Si Si3 0.154654 0.761009 0.398911
Si Si4 0.651941 0.240998 0.102061
Si Si5 0.000000 0.500000 0.000000
O O1 0.500000 0.500000 0.749782
O O2 0.245741 0.189372 0.679817
O O3 0.249372 0.169757 0.820800
O O4 0.000000 0.500000 0.755293
O O5 0.371660 0.784491 0.451929
O O6 0.000000 0.500000 0.407401
O O7 0.000000 0.000000 0.422592
O O8 0.500000 0.500000 0.107470
O O9 0.500000 0.000000 0.073677
O O10 0.857621 0.298617 0.047440
#
# Coordination Sequence:
#
# PCOD8155333 Si02
#       5
#     4   1   4   4   1
#     4  10  24  51  82 121 156 212 276 341 405 494
#     4  12  30  50  80 116 164 226 260 358 406 506
#     4  11  29  51  78 115 159 208 274 334 413 490
#     4  11  27  48  80 115 158 210 272 333 413 490
#     4  12  26  54  76 120 164 222 260 358 406 510
#
# _framework density 25.116772000000001
#
# number of rings (size 3 to 8) (size 9 to 14) (size 15 to 20)
#    0.000    1.143    1.429    0.857   10.000   12.571 
#    0.000    0.000    0.000    0.000    0.000    0.000 
#    0.000    0.000    0.000    0.000    0.000    0.000 
#
# Total GULP energy -173445.141353 kJ/mol
# GULP energy per Si atom -12388.938668 kJ/mol
# Density = 2.505960 g / cm^3
# Si number density = 25.116772 Si / 1000 Ang^3
#
#
#
# Elastic Constant Matrix: (Units=GPa)
#
#
# Indices 1 2 3 4 5 6 
#
# 1 165.3939 56.8517 79.1465 0.0000 0.0000 0.0000
# 2 56.8517 147.2878 53.6670 0.0000 0.0000 0.0000
# 3 79.1465 53.6670 236.4038 0.0000 0.0000 0.0000
# 4 0.0000 0.0000 0.0000 -3.5656 0.0000 0.0000
# 5 0.0000 0.0000 0.0000 0.0000 72.4101 0.0000
# 6 0.0000 0.0000 0.0000 0.0000 0.0000 36.3740
#
#
#
# Elastic Compliance Matrix: (Units=1/GPa)
#
#
# Indices 1 2 3 4 5 6 
#
# 1 0.007831 -0.002254 -0.002110 0.000000 0.000000 0.000000
# 2 -0.002254 0.008050 -0.001073 0.000000 0.000000 0.000000
# 3 -0.002110 -0.001073 0.005180 0.000000 0.000000 0.000000
# 4 0.000000 0.000000 0.000000 -0.280457 0.000000 0.000000
# 5 0.000000 0.000000 0.000000 0.000000 0.013810 0.000000
# 6 0.000000 0.000000 0.000000 0.000000 0.000000 0.027492
#
#
# Mechanical properties :
#
#
# Convention : Reuss Voigt Hill
#
# Bulk Modulus (GPa) = 98.15956 103.15733 100.65845
# Shear Modulus (GPa) = -24.53096 45.00505 10.23704
#
# Velocity S-wave (km/s) = -3.12857 4.23760 2.02105
# Velocity P-wave (km/s) = 5.11033 8.06866 6.75347
#
# Compressibility (1/GPa) = 0.01018749
#
# Stress axis : x y z
#
# Youngs Moduli (GPa) = 127.70489 124.21888 193.04828
#
# Poissons Ratio (x) = 0.27995 0.40733
# Poissons Ratio (y) = 0.28781 0.20714
# Poissons Ratio (z) = 0.26946 0.13329
#
# Static dielectric constant tensor:
#      x y z
#    x 4.775190 0.000000 0.000000 
#    y 0.000000 3.956990 0.000000 
#    z 0.000000 0.000000 5.623170 
# 
# 
# High freq. dielectric constant tensor:
#      x y z
#    x 2.018080 0.000000 0.000000 
#    y 0.000000 1.974520 0.000000 
#    z 0.000000 0.000000 2.044320 
# 
# From -- ./inp_files/9136.got.cif
#   From: 2010.03.12/outbox.cif.g09.slc.cpg/sg16_5_cif.got.tgz:9136.got - 2010.03.31 00:51:45.
