data_PCOD8155390
_publ_section_title
;
Structure prediction by ZEFSAII (Michael W. Deem and Ramdas Pophale) SiO2 
 PCOD8155390
Probable space group: P 2 2 21
;
_chemical_formula_sum "Si O2"
_cell_formula_units_Z 32
_cell_length_a 15.934795
_cell_length_b 9.151873
_cell_length_c 11.435857
_cell_angle_alpha 90.000000
_cell_angle_beta 90.000000
_cell_angle_gamma 90.000000
_cell_volume 1667.727851
_symmetry_space_group_name_H-M "P 2 2 21"
_symmetry_group_IT_number 17
_symmetry_cell_setting 'orthorhombic'
loop_
_space_group_symop_operation_xyz
x,y,z
-x,-y,1/2+z
x,-y,-z
-x,y,1/2-z
loop_
_atom_site_type_symbol
_atom_site_label
_atom_site_fract_x
_atom_site_fract_y
_atom_site_fract_z
Si Si1 0.781010 0.663979 0.639337
Si Si2 0.867850 0.343684 0.016182
Si Si3 0.407831 0.373902 0.724003
Si Si4 0.806253 0.858951 0.173966
Si Si5 0.367653 0.852159 0.453088
Si Si6 0.744204 0.664382 0.377788
Si Si7 0.093055 0.151252 0.276552
Si Si8 0.309550 0.638186 0.634414
O O1 0.749089 0.715359 0.512256
O O2 0.794396 0.488041 0.640881
O O3 0.866253 0.750829 0.672527
O O4 0.709472 0.701441 0.735581
O O5 0.918637 0.248658 0.108512
O O6 0.776540 0.384160 0.066047
O O7 0.914478 0.500000 0.000000
O O8 0.865493 0.254726 0.894836
O O9 0.500000 0.437219 0.750000
O O10 0.419421 0.222548 0.652299
O O11 0.354173 0.352983 0.842923
O O12 0.356148 0.482324 0.639759
O O13 0.725188 0.888820 0.094377
O O14 0.785454 0.789284 0.299083
O O15 0.849700 0.012823 0.195470
O O16 0.368329 0.750277 0.567060
O O17 0.411263 0.000000 0.500000
O O18 0.000000 0.094839 0.250000
#
# Coordination Sequence:
#
# PCOD8155390 Si02
#       8
#     4   4   4   4   4   4   4   4
#     4   9  18  37  58  78 116 153 195 229 275 355
#     4  10  18  36  63  82 107 142 193 238 279 346
#     4  10  20  35  56  86 122 142 189 248 289 323
#     4  10  19  35  59  86 110 148 189 229 287 342
#     4  10  18  33  59  80 108 149 191 228 279 343
#     4   9  19  37  60  82 108 162 198 223 279 356
#     4  11  23  38  54  86 120 146 190 248 294 333
#     4   9  17  33  58  87 107 144 188 232 282 338
#
# _framework density 19.187783
#
# number of rings (size 3 to 8) (size 9 to 14) (size 15 to 20)
#    0.000    2.250    0.000    6.750    0.000    0.500 
#   15.750    1.875    5.500    0.000    0.000    0.000 
#    0.000    0.000    0.000    0.000    0.000    0.000 
#
# Total GULP energy -396698.958317 kJ/mol
# GULP energy per Si atom -12396.842447 kJ/mol
# Density = 1.914411 g / cm^3
# Si number density = 19.187783 Si / 1000 Ang^3
#
#
#
# Elastic Constant Matrix: (Units=GPa)
#
#
# Indices 1 2 3 4 5 6 
#
# 1 65.4085 22.7492 21.8383 0.0000 0.0000 0.0000
# 2 22.7492 97.9197 44.3154 0.0000 0.0000 0.0000
# 3 21.8383 44.3154 131.1457 0.0000 0.0000 0.0000
# 4 0.0000 0.0000 0.0000 29.8093 0.0000 0.0000
# 5 0.0000 0.0000 0.0000 0.0000 8.7080 0.0000
# 6 0.0000 0.0000 0.0000 0.0000 0.0000 13.7916
#
#
#
# Elastic Compliance Matrix: (Units=1/GPa)
#
#
# Indices 1 2 3 4 5 6 
#
# 1 0.016971 -0.003145 -0.001763 0.000000 0.000000 0.000000
# 2 -0.003145 0.012639 -0.003747 0.000000 0.000000 0.000000
# 3 -0.001763 -0.003747 0.009185 0.000000 0.000000 0.000000
# 4 0.000000 0.000000 0.000000 0.033547 0.000000 0.000000
# 5 0.000000 0.000000 0.000000 0.000000 0.114837 0.000000
# 6 0.000000 0.000000 0.000000 0.000000 0.000000 0.072508
#
#
# Mechanical properties :
#
#
# Convention : Reuss Voigt Hill
#
# Bulk Modulus (GPa) = 46.54552 52.47553 49.51052
# Shear Modulus (GPa) = 17.59581 24.16651 20.88116
#
# Velocity S-wave (km/s) = 3.03154 3.55276 3.30245
# Velocity P-wave (km/s) = 6.04683 6.65111 6.35615
#
# Compressibility (1/GPa) = 0.02148435
#
# Stress axis : x y z
#
# Youngs Moduli (GPa) = 58.92394 79.12081 108.87392
#
# Poissons Ratio (x) = 0.24882 0.19198
# Poissons Ratio (y) = 0.18530 0.40797
# Poissons Ratio (z) = 0.10390 0.29648
#
# Static dielectric constant tensor:
#      x y z
#    x 3.038580 0.000000 0.000000 
#    y 0.000000 3.594950 0.000000 
#    z 0.000000 0.000000 3.733000 
# 
# 
# High freq. dielectric constant tensor:
#      x y z
#    x 1.694880 0.000000 0.000000 
#    y 0.000000 1.752650 0.000000 
#    z 0.000000 0.000000 1.758020 
# 
# From -- ./inp_files/7311.got.cif
#   From: 2010.03.12/outbox.cif.g09.slc.cpg/sg17_4_cif.got.tgz:7311.got - 2010.04.10 18:46:23.
