data_PCOD8155794
_publ_section_title
;
Structure prediction by ZEFSAII (Michael W. Deem and Ramdas Pophale) SiO2 
 PCOD8155794
Probable space group: P 21 21 2
;
_chemical_formula_sum "Si O2"
_cell_formula_units_Z 22
_cell_length_a 4.993524
_cell_length_b 18.268767
_cell_length_c 13.201933
_cell_angle_alpha 90.000000
_cell_angle_beta 90.000000
_cell_angle_gamma 90.000000
_cell_volume 1204.353288
_symmetry_space_group_name_H-M "P 21 21 2"
_symmetry_group_IT_number 18
_symmetry_cell_setting 'orthorhombic'
loop_
_space_group_symop_operation_xyz
x,y,z
-x,-y,z
1/2+x,1/2-y,-z
1/2-x,1/2+y,-z
loop_
_atom_site_type_symbol
_atom_site_label
_atom_site_fract_x
_atom_site_fract_y
_atom_site_fract_z
Si Si1 0.349399 0.210465 0.464592
Si Si2 0.771577 0.713560 0.045272
Si Si3 0.235441 0.289369 0.278739
Si Si4 0.261959 0.953539 0.942717
Si Si5 0.765531 0.872016 0.646301
Si Si6 0.000000 0.500000 0.252291
O O1 0.162062 0.272802 0.517390
O O2 0.286276 0.214169 0.344007
O O3 0.273776 0.135221 0.523667
O O4 0.573075 0.761885 0.977786
O O5 0.707111 0.728359 0.162415
O O6 0.736330 0.628331 0.014890
O O7 0.932669 0.316347 0.294937
O O8 0.433675 0.352440 0.321169
O O9 0.500000 0.000000 0.996357
O O10 0.325565 0.946593 0.821571
O O11 0.000000 0.000000 0.964080
O O12 0.702420 0.954858 0.677542
#
# Coordination Sequence:
#
# PCOD8155794 Si02
#       6
#     4   4   4   4   4   2
#     4   8  16  28  47  69  96 131 160 190 246 313
#     4  12  23  34  52  82 110 140 187 236 268 311
#     4  10  18  34  47  69 109 136 164 213 258 314
#     4  10  20  35  52  74 105 144 170 217 283 330
#     4  10  18  29  50  77 101 131 164 200 260 328
#     4  10  20  28  54  74 108 130 166 210 280 318
#
# _framework density 18.267066
#
# number of rings (size 3 to 8) (size 9 to 14) (size 15 to 20)
#    0.545    1.455    1.818    3.273    0.000    0.000 
#    0.000    0.000    0.000    0.000    7.091    0.000 
#    0.000    0.000    0.000    0.000    0.000    0.000 
#
# Total GULP energy -272617.967041 kJ/mol
# GULP energy per Si atom -12391.725775 kJ/mol
# Density = 1.822549 g / cm^3
# Si number density = 18.267066 Si / 1000 Ang^3
#
#
#
# Elastic Constant Matrix: (Units=GPa)
#
#
# Indices 1 2 3 4 5 6 
#
# 1 81.9699 10.0742 5.0177 0.0000 0.0000 0.0000
# 2 10.0742 70.2797 23.9638 0.0000 0.0000 0.0000
# 3 5.0177 23.9638 65.5822 0.0000 0.0000 0.0000
# 4 0.0000 0.0000 0.0000 25.1408 0.0000 0.0000
# 5 0.0000 0.0000 0.0000 0.0000 21.4246 0.0000
# 6 0.0000 0.0000 0.0000 0.0000 0.0000 27.6030
#
#
#
# Elastic Compliance Matrix: (Units=1/GPa)
#
#
# Indices 1 2 3 4 5 6 
#
# 1 0.012425 -0.001664 -0.000343 0.000000 0.000000 0.000000
# 2 -0.001664 0.016477 -0.005893 0.000000 0.000000 0.000000
# 3 -0.000343 -0.005893 0.017428 0.000000 0.000000 0.000000
# 4 0.000000 0.000000 0.000000 0.039776 0.000000 0.000000
# 5 0.000000 0.000000 0.000000 0.000000 0.046675 0.000000
# 6 0.000000 0.000000 0.000000 0.000000 0.000000 0.036228
#
#
# Mechanical properties :
#
#
# Convention : Reuss Voigt Hill
#
# Bulk Modulus (GPa) = 32.75528 32.88257 32.81893
# Shear Modulus (GPa) = 25.64292 26.75210 26.19751
#
# Velocity S-wave (km/s) = 3.75077 3.83103 3.79111
# Velocity P-wave (km/s) = 6.06036 6.13263 6.09660
#
# Compressibility (1/GPa) = 0.03052943
#
# Stress axis : x y z
#
# Youngs Moduli (GPa) = 80.48222 60.69090 57.37994
#
# Poissons Ratio (x) = 0.10101 0.01965
# Poissons Ratio (y) = 0.13394 0.33816
# Poissons Ratio (z) = 0.02757 0.35767
#
# Static dielectric constant tensor:
#      x y z
#    x 3.445200 0.000000 0.000000 
#    y 0.000000 3.123840 0.000000 
#    z 0.000000 0.000000 3.320890 
# 
# 
# High freq. dielectric constant tensor:
#      x y z
#    x 1.732290 0.000000 0.000000 
#    y 0.000000 1.671130 0.000000 
#    z 0.000000 0.000000 1.680930 
# 
# From -- ./inp_files/5177.got.cif
#   From: 2010.03.12/outbox.cif.g09.slc.cpg/sg18_3_cif.got.tgz:5177.got - 2010.04.10 18:53:55.
