data_PCOD8155568
_publ_section_title
;
Structure prediction by ZEFSAII (Michael W. Deem and Ramdas Pophale) SiO2 
 PCOD8155568
Probable space group: P 2 2 21
;
_chemical_formula_sum "Si O2"
_cell_formula_units_Z 20
_cell_length_a 9.151381
_cell_length_b 9.332972
_cell_length_c 11.272643
_cell_angle_alpha 90.000000
_cell_angle_beta 90.000000
_cell_angle_gamma 90.000000
_cell_volume 962.791734
_symmetry_space_group_name_H-M "P 2 2 21"
_symmetry_group_IT_number 17
_symmetry_cell_setting 'orthorhombic'
loop_
_space_group_symop_operation_xyz
x,y,z
-x,-y,1/2+z
x,-y,-z
-x,y,1/2-z
loop_
_atom_site_type_symbol
_atom_site_label
_atom_site_fract_x
_atom_site_fract_y
_atom_site_fract_z
Si Si1 0.837441 0.217581 0.295349
Si Si2 0.327868 0.947451 0.274260
Si Si3 0.690078 0.155496 0.532282
Si Si4 0.388123 0.288576 0.558760
Si Si5 0.354664 0.575080 0.684507
O O1 0.817824 0.194027 0.437508
O O2 0.781649 0.378811 0.267346
O O3 0.000000 0.196448 0.250000
O O4 0.739446 0.105751 0.218492
O O5 0.500000 0.957796 0.250000
O O6 0.247593 0.860464 0.166351
O O7 0.309308 0.857203 0.396157
O O8 0.560919 0.271790 0.532129
O O9 0.621335 0.000000 0.500000
O O10 0.365293 0.405623 0.662976
O O11 0.319227 0.342810 0.437783
O O12 0.500000 0.631206 0.750000
#
# Coordination Sequence:
#
# PCOD8155568 Si02
#       5
#     4   4   4   4   4
#     4  11  23  39  60  90 129 170 203 245 313 385
#     4   9  19  38  63  92 120 154 211 263 306 359
#     4   9  18  36  63  90 119 157 204 260 309 360
#     4  10  21  36  64  94 116 149 211 266 312 363
#     4  11  21  37  63  90 121 159 209 259 313 366
#
# _framework density 20.772922999999999
#
# number of rings (size 3 to 8) (size 9 to 14) (size 15 to 20)
#    0.000    2.000    2.000    2.400    5.600    0.000 
#   10.800    1.000   13.200    0.000    0.000    0.000 
#    0.000    0.000    0.000    0.000    0.000    0.000 
#
# Total GULP energy -247814.174810 kJ/mol
# GULP energy per Si atom -12390.708740 kJ/mol
# Density = 2.072564 g / cm^3
# Si number density = 20.772923 Si / 1000 Ang^3
#
#
#
# Elastic Constant Matrix: (Units=GPa)
#
#
# Indices 1 2 3 4 5 6 
#
# 1 76.1700 31.0671 29.1327 0.0000 0.0000 0.0000
# 2 31.0671 77.3839 24.7810 0.0000 0.0000 0.0000
# 3 29.1327 24.7810 82.4512 0.0000 0.0000 0.0000
# 4 0.0000 0.0000 0.0000 37.6651 0.0000 0.0000
# 5 0.0000 0.0000 0.0000 0.0000 29.1114 0.0000
# 6 0.0000 0.0000 0.0000 0.0000 0.0000 9.2314
#
#
#
# Elastic Compliance Matrix: (Units=1/GPa)
#
#
# Indices 1 2 3 4 5 6 
#
# 1 0.017019 -0.005429 -0.004381 0.000000 0.000000 0.000000
# 2 -0.005429 0.016031 -0.002900 0.000000 0.000000 0.000000
# 3 -0.004381 -0.002900 0.014548 0.000000 0.000000 0.000000
# 4 0.000000 0.000000 0.000000 0.026550 0.000000 0.000000
# 5 0.000000 0.000000 0.000000 0.000000 0.034351 0.000000
# 6 0.000000 0.000000 0.000000 0.000000 0.000000 0.108327
#
#
# Mechanical properties :
#
#
# Convention : Reuss Voigt Hill
#
# Bulk Modulus (GPa) = 45.09285 45.10744 45.10014
# Shear Modulus (GPa) = 20.02898 25.26985 22.64942
#
# Velocity S-wave (km/s) = 3.10850 3.49159 3.30560
# Velocity P-wave (km/s) = 5.88544 6.16576 6.02723
#
# Compressibility (1/GPa) = 0.02217647
#
# Stress axis : x y z
#
# Youngs Moduli (GPa) = 58.75865 62.37951 68.73781
#
# Poissons Ratio (x) = 0.33868 0.30117
# Poissons Ratio (y) = 0.31902 0.19932
# Poissons Ratio (z) = 0.25745 0.18089
#
# Static dielectric constant tensor:
#      x y z
#    x 3.138300 0.000000 0.000000 
#    y 0.000000 3.839360 0.000000 
#    z 0.000000 0.000000 4.172660 
# 
# 
# High freq. dielectric constant tensor:
#      x y z
#    x 1.745380 0.000000 0.000000 
#    y 0.000000 1.813950 0.000000 
#    z 0.000000 0.000000 1.832700 
# 
# From -- ./inp_files/6390.got.cif
#   From: 2010.03.12/outbox.cif.g09.slc.cpg/sg17_4_cif.got.tgz:6390.got - 2010.04.10 18:46:23.
