data_PCOD8155460
_publ_section_title
;
Structure prediction by ZEFSAII (Michael W. Deem and Ramdas Pophale) SiO2 
 PCOD8155460
Probable space group: P 2 2 21
;
_chemical_formula_sum "Si O2"
_cell_formula_units_Z 24
_cell_length_a 9.268182
_cell_length_b 7.563105
_cell_length_c 17.740785
_cell_angle_alpha 90.000000
_cell_angle_beta 90.000000
_cell_angle_gamma 90.000000
_cell_volume 1243.562210
_symmetry_space_group_name_H-M "P 2 2 21"
_symmetry_group_IT_number 17
_symmetry_cell_setting 'orthorhombic'
loop_
_space_group_symop_operation_xyz
x,y,z
-x,-y,1/2+z
x,-y,-z
-x,y,1/2-z
loop_
_atom_site_type_symbol
_atom_site_label
_atom_site_fract_x
_atom_site_fract_y
_atom_site_fract_z
Si Si1 0.307614 0.019183 0.587501
Si Si2 0.345897 0.657367 0.174963
Si Si3 0.171863 0.338931 0.169009
Si Si4 0.656805 0.606159 0.148254
Si Si5 0.587396 0.949368 0.671223
Si Si6 0.856439 0.293411 0.154491
O O1 0.273590 0.217827 0.613671
O O2 0.470520 0.958208 0.604804
O O3 0.275694 0.000000 0.500000
O O4 0.197694 0.900190 0.634616
O O5 0.215406 0.538155 0.142979
O O6 0.487281 0.597410 0.126822
O O7 0.351462 0.607988 0.262212
O O8 0.321867 0.867995 0.171167
O O9 0.144230 0.323073 0.257111
O O10 0.021989 0.303818 0.125065
O O11 0.301696 0.204548 0.149701
O O12 0.750640 0.441293 0.117138
O O13 0.500000 0.919695 0.750000
#
# Coordination Sequence:
#
# PCOD8155460 Si02
#       6
#     4   4   4   4   4   4
#     4  11  22  36  56  80 109 148 187 223 271 331
#     4   9  16  30  53  83 103 135 174 225 276 311
#     4  10  20  31  56  83 108 137 176 233 276 322
#     4   9  17  32  54  75 105 137 177 222 267 321
#     4  11  18  34  58  82 111 142 182 231 275 316
#     4  10  20  34  51  82 111 140 179 221 280 326
#
# _framework density 19.299396999999999
#
# number of rings (size 3 to 8) (size 9 to 14) (size 15 to 20)
#    0.000    2.000    5.000    1.000    2.333    2.000 
#    0.000    4.167    0.000    4.000    0.000    0.000 
#    0.000    0.000    0.000    0.000    0.000    0.000 
#
# Total GULP energy -297374.630133 kJ/mol
# GULP energy per Si atom -12390.609589 kJ/mol
# Density = 1.925547 g / cm^3
# Si number density = 19.299397 Si / 1000 Ang^3
#
#
#
# Elastic Constant Matrix: (Units=GPa)
#
#
# Indices 1 2 3 4 5 6 
#
# 1 83.8486 40.7246 10.9295 0.0000 0.0000 0.0000
# 2 40.7246 93.5632 15.9269 0.0000 0.0000 0.0000
# 3 10.9295 15.9269 17.1448 0.0000 0.0000 0.0000
# 4 0.0000 0.0000 0.0000 3.9606 0.0000 0.0000
# 5 0.0000 0.0000 0.0000 0.0000 7.5150 0.0000
# 6 0.0000 0.0000 0.0000 0.0000 0.0000 -62.4073
#
#
#
# Elastic Compliance Matrix: (Units=1/GPa)
#
#
# Indices 1 2 3 4 5 6 
#
# 1 0.015381 -0.005970 -0.004259 0.000000 0.000000 0.000000
# 2 -0.005970 0.015013 -0.010141 0.000000 0.000000 0.000000
# 3 -0.004259 -0.010141 0.070462 0.000000 0.000000 0.000000
# 4 0.000000 0.000000 0.000000 0.252488 0.000000 0.000000
# 5 0.000000 0.000000 0.000000 0.000000 0.133067 0.000000
# 6 0.000000 0.000000 0.000000 0.000000 0.000000 -0.016024
#
#
# Mechanical properties :
#
#
# Convention : Reuss Voigt Hill
#
# Bulk Modulus (GPa) = 16.63445 36.63543 26.63494
# Shear Modulus (GPa) = 9.41328 -1.72130 3.84599
#
# Velocity S-wave (km/s) = 2.21090 -0.94543 1.41320
# Velocity P-wave (km/s) = 3.89298 4.22281 4.06125
#
# Compressibility (1/GPa) = 0.06011621
#
# Stress axis : x y z
#
# Youngs Moduli (GPa) = 65.01576 66.61104 14.19203
#
# Poissons Ratio (x) = 0.39765 0.06045
# Poissons Ratio (y) = 0.38812 0.14391
# Poissons Ratio (z) = 0.27693 0.67547
#
# Static dielectric constant tensor:
#      x y z
#    x 2.929720 0.000000 0.000000 
#    y 0.000000 3.784390 0.000000 
#    z 0.000000 0.000000 2.978640 
# 
# 
# High freq. dielectric constant tensor:
#      x y z
#    x 1.748740 0.000000 0.000000 
#    y 0.000000 1.766220 0.000000 
#    z 0.000000 0.000000 1.690830 
# 
# From -- ./inp_files/10007.got.cif
#   From: 2010.03.12/outbox.cif.g09.slc.cpg/sg17_6_cif.got.tgz:10007.got - 2010.04.10 18:46:23.
