data_PCOD8155280
_publ_section_title
;
Structure prediction by ZEFSAII (Michael W. Deem and Ramdas Pophale) SiO2 
 PCOD8155280
Probable space group: P 2 2 2
;
_chemical_formula_sum "Si O2"
_cell_formula_units_Z 32
_cell_length_a 11.349790
_cell_length_b 12.577172
_cell_length_c 10.668728
_cell_angle_alpha 90.000000
_cell_angle_beta 90.000000
_cell_angle_gamma 90.000000
_cell_volume 1522.942369
_symmetry_space_group_name_H-M "P 2 2 2"
_symmetry_group_IT_number 16
_symmetry_cell_setting 'orthorhombic'
loop_
_space_group_symop_operation_xyz
x,y,z
-x,-y,z
x,-y,-z
-x,y,-z
loop_
_atom_site_type_symbol
_atom_site_label
_atom_site_fract_x
_atom_site_fract_y
_atom_site_fract_z
Si Si1 0.600431 0.191116 0.811121
Si Si2 0.765132 0.630210 0.271122
Si Si3 0.783807 0.568154 0.876772
Si Si4 0.139055 0.255481 0.487055
Si Si5 0.348175 0.222305 0.905496
Si Si6 0.156231 0.147803 0.731210
Si Si7 0.746479 0.943925 0.373940
Si Si8 0.995888 0.712363 0.142937
O O1 0.648508 0.301121 0.753892
O O2 0.459285 0.198494 0.815529
O O3 0.642980 0.092065 0.723290
O O4 0.640470 0.176937 0.954649
O O5 0.740559 0.507588 0.237362
O O6 0.805264 0.641637 0.417085
O O7 0.868235 0.670737 0.178607
O O8 0.679536 0.651504 0.907044
O O9 0.904416 0.623283 0.831350
O O10 0.811040 0.500000 0.000000
O O11 0.196616 0.231872 0.622293
O O12 0.169556 0.155387 0.399339
O O13 0.000000 0.270306 0.500000
O O14 0.240318 0.158405 0.849461
O O15 0.025079 0.182416 0.774525
O O16 0.161792 0.027318 0.686013
O O17 0.691762 0.000000 0.500000
O O18 0.000000 0.747377 0.000000
#
# Coordination Sequence:
#
# PCOD8155280 Si02
#       8
#     4   4   4   4   4   4   4   4
#     4  10  21  40  61  91 125 161 207 265 319 375
#     4  11  20  35  58  91 123 160 210 261 311 381
#     4  11  20  35  60  91 124 160 211 254 314 398
#     4  10  20  39  62  87 123 167 210 262 314 383
#     4  10  22  39  61  88 128 166 202 266 328 371
#     4  10  21  39  58  87 122 162 207 261 316 377
#     4   9  21  39  64  91 119 164 217 257 313 389
#     4  11  20  33  57  87 123 161 196 253 320 373
#
# _framework density 21.011956999999999
#
# number of rings (size 3 to 8) (size 9 to 14) (size 15 to 20)
#    0.000    1.750    3.750    1.125    0.000    3.750 
#    0.000   11.250    0.000    0.000    0.000   10.500 
#    0.000    0.000    0.000    0.000    0.000    0.000 
#
# Total GULP energy -396608.045278 kJ/mol
# GULP energy per Si atom -12394.001415 kJ/mol
# Density = 2.096413 g / cm^3
# Si number density = 21.011957 Si / 1000 Ang^3
#
#
#
# Elastic Constant Matrix: (Units=GPa)
#
#
# Indices 1 2 3 4 5 6 
#
# 1 47.4513 5.6144 11.9779 0.0000 0.0000 0.0000
# 2 5.6144 80.5053 30.6398 0.0000 0.0000 0.0000
# 3 11.9779 30.6398 85.7792 0.0000 0.0000 0.0000
# 4 0.0000 0.0000 0.0000 38.1762 0.0000 0.0000
# 5 0.0000 0.0000 0.0000 0.0000 34.0925 0.0000
# 6 0.0000 0.0000 0.0000 0.0000 0.0000 19.6157
#
#
#
# Elastic Compliance Matrix: (Units=1/GPa)
#
#
# Indices 1 2 3 4 5 6 
#
# 1 0.021856 -0.000420 -0.002902 0.000000 0.000000 0.000000
# 2 -0.000420 0.014384 -0.005079 0.000000 0.000000 0.000000
# 3 -0.002902 -0.005079 0.013877 0.000000 0.000000 0.000000
# 4 0.000000 0.000000 0.000000 0.026194 0.000000 0.000000
# 5 0.000000 0.000000 0.000000 0.000000 0.029332 0.000000
# 6 0.000000 0.000000 0.000000 0.000000 0.000000 0.050979
#
#
# Mechanical properties :
#
#
# Convention : Reuss Voigt Hill
#
# Bulk Modulus (GPa) = 30.01589 34.46665 32.24127
# Shear Modulus (GPa) = 27.09575 29.41046 28.25311
#
# Velocity S-wave (km/s) = 3.59491 3.74532 3.67088
# Velocity P-wave (km/s) = 5.61670 5.92808 5.77449
#
# Compressibility (1/GPa) = 0.03331569
#
# Stress axis : x y z
#
# Youngs Moduli (GPa) = 45.75311 69.52201 72.05992
#
# Poissons Ratio (x) = 0.02918 0.20912
# Poissons Ratio (y) = 0.01921 0.36601
# Poissons Ratio (z) = 0.13278 0.35312
#
# Static dielectric constant tensor:
#      x y z
#    x 3.659150 0.000000 0.000000 
#    y 0.000000 3.937920 0.000000 
#    z 0.000000 0.000000 4.156740 
# 
# 
# High freq. dielectric constant tensor:
#      x y z
#    x 1.801250 0.000000 0.000000 
#    y 0.000000 1.811420 0.000000 
#    z 0.000000 0.000000 1.836030 
# 
# From -- ./inp_files/6947.got.cif
#   From: 2010.03.12/outbox.cif.g09.slc.cpg/sg16_4_cif.got.tgz:6947.got - 2010.03.31 00:51:45.
