data_PCOD8155037
_publ_section_title
;
Structure prediction by ZEFSAII (Michael W. Deem and Ramdas Pophale) SiO2 
 PCOD8155037
Probable space group: C 2/C
;
_chemical_formula_sum "Si O2"
_cell_formula_units_Z 40
_cell_length_a 27.503747
_cell_length_b 7.597072
_cell_length_c 14.628787
_cell_angle_alpha 90.000000
_cell_angle_beta 145.421299
_cell_angle_gamma 90.000000
_cell_volume 1734.766994
_symmetry_space_group_name_H-M "C 2/C"
_symmetry_group_IT_number 15
_symmetry_cell_setting 'monoclinic'
loop_
_space_group_symop_operation_xyz
x,y,z
-x,y,1/2-z
-x,-y,-z
x,-y,1/2+z
1/2+x,1/2+y,z
1/2-x,1/2+y,1/2-z
1/2-x,1/2-y,-z
1/2+x,1/2-y,1/2+z
loop_
_atom_site_type_symbol
_atom_site_label
_atom_site_fract_x
_atom_site_fract_y
_atom_site_fract_z
Si Si1 0.122180 0.804539 0.552710
Si Si2 0.260722 0.205527 0.410521
Si Si3 0.687524 0.841062 0.974663
Si Si4 0.988528 0.483704 0.875950
Si Si5 0.429536 0.662208 0.077007
O O1 0.181528 0.727969 0.725883
O O2 0.166050 0.800918 0.520000
O O3 0.041546 0.677929 0.418377
O O4 0.094980 0.007126 0.532662
O O5 0.250000 0.250000 0.500000
O O6 0.347277 0.288424 0.507961
O O7 0.260719 0.996048 0.395447
O O8 0.608825 0.940795 0.802360
O O9 0.750000 0.750000 0.000000
O O10 0.024469 0.666736 0.892966
O O11 0.000000 0.500000 0.000000
O O12 0.500000 0.569731 0.250000
#
# Coordination Sequence:
#
# PCOD8155037 Si02
#       5
#     8   8   8   8   8
#     4  12  27  47  76 108 148 198 249 305 377 444
#     4  12  26  47  74 111 149 196 250 311 376 442
#     4  12  26  49  76 110 153 195 252 311 375 451
#     4  12  27  49  77 108 153 200 245 311 377 444
#     4  12  25  48  74 103 153 195 248 308 373 444
#
# _framework density 23.057853000000001
#
# number of rings (size 3 to 8) (size 9 to 14) (size 15 to 20)
#    0.000    0.000    4.000    5.400    5.600    0.800 
#    0.000    0.000    0.000    0.000    0.000    0.000 
#    0.000    0.000    0.000    0.000    0.000    0.000 
#
# Total GULP energy -247957.530241 kJ/mol
# GULP energy per Si atom -12397.876512 kJ/mol
# Density = 2.300537 g / cm^3
# Si number density = 23.057853 Si / 1000 Ang^3
#
#
#
# Elastic Constant Matrix: (Units=GPa)
#
#
# Indices 1 2 3 4 5 6 
#
# 1 113.8508 43.2099 52.0546 0.0000 -6.4648 0.0000
# 2 43.2099 140.9044 35.1270 0.0000 9.8152 0.0000
# 3 52.0546 35.1270 131.6275 0.0000 -6.1959 0.0000
# 4 0.0000 0.0000 0.0000 33.9542 0.0000 -4.2670
# 5 -6.4648 9.8152 -6.1959 0.0000 39.3254 0.0000
# 6 0.0000 0.0000 0.0000 -4.2670 0.0000 25.0958
#
#
#
# Elastic Compliance Matrix: (Units=1/GPa)
#
#
# Indices 1 2 3 4 5 6 
#
# 1 0.011683 -0.002780 -0.003783 0.000000 0.002018 0.000000
# 2 -0.002780 0.008464 -0.001290 0.000000 -0.002773 0.000000
# 3 -0.003783 -0.001290 0.009494 0.000000 0.001196 0.000000
# 4 0.000000 0.000000 0.000000 0.030094 0.000000 0.005117
# 5 0.002018 -0.002773 0.001196 0.000000 0.026641 0.000000
# 6 0.000000 0.000000 0.000000 0.005117 0.000000 0.040717
#
#
# Mechanical properties :
#
#
# Convention : Reuss Voigt Hill
#
# Bulk Modulus (GPa) = 71.76460 71.90732 71.83596
# Shear Modulus (GPa) = 33.91079 36.74116 35.32598
#
# Velocity S-wave (km/s) = 3.83911 3.99611 3.91840
# Velocity P-wave (km/s) = 7.13042 7.24881 7.18986
#
# Compressibility (1/GPa) = 0.01393445
#
# Stress axis : x y z
#
# Youngs Moduli (GPa) = 85.59453 118.14335 105.33069
#
# Poissons Ratio (x) = 0.32846 0.39850
# Poissons Ratio (y) = 0.23797 0.13587
# Poissons Ratio (z) = 0.32383 0.15239
#
# Static dielectric constant tensor:
#      x y z
#    x 3.810760 0.000000 0.649400 
#    y 0.000000 4.433080 0.000000 
#    z 0.649400 0.000000 3.737920 
# 
# 
# High freq. dielectric constant tensor:
#      x y z
#    x 1.911620 0.000000 0.005300 
#    y 0.000000 1.926900 0.000000 
#    z 0.005300 0.000000 1.929430 
# 
# From -- ./inp_files/181264.got.cif
#   From: 2010.06.25/outbox.cif.g09.slc.cpg/sg15_91_cif.got.tgz:181264.got - 2010.06.28 07:06:18.
