data_PCOD8155657
_publ_section_title
;
Structure prediction by ZEFSAII (Michael W. Deem and Ramdas Pophale) SiO2 
 PCOD8155657
Probable space group: P 2 2 21
;
_chemical_formula_sum "Si O2"
_cell_formula_units_Z 20
_cell_length_a 6.222820
_cell_length_b 6.222814
_cell_length_c 23.091951
_cell_angle_alpha 90.000000
_cell_angle_beta 90.000000
_cell_angle_gamma 90.000000
_cell_volume 894.200043
_symmetry_space_group_name_H-M "P 2 2 21"
_symmetry_group_IT_number 17
_symmetry_cell_setting 'orthorhombic'
loop_
_space_group_symop_operation_xyz
x,y,z
-x,-y,1/2+z
x,-y,-z
-x,y,1/2-z
loop_
_atom_site_type_symbol
_atom_site_label
_atom_site_fract_x
_atom_site_fract_y
_atom_site_fract_z
Si Si1 0.435448 0.376364 0.056718
Si Si2 0.098359 0.281909 0.898446
Si Si3 0.781909 0.598357 0.851553
Si Si4 0.187566 0.000000 0.000000
Si Si5 0.500000 0.312437 0.250000
Si Si6 0.876365 0.935446 0.693283
O O1 0.267798 0.528963 0.090186
O O2 0.630320 0.310467 0.098150
O O3 0.521841 0.500000 0.000000
O O4 0.331162 0.149733 0.040811
O O5 0.189534 0.130318 0.848150
O O6 0.875063 0.375061 0.875000
O O7 0.046306 0.150501 0.957598
O O8 0.650498 0.546302 0.792403
O O9 0.971036 0.767797 0.840186
O O10 0.350266 0.168841 0.209189
O O11 0.000000 0.021841 0.750000
#
# Coordination Sequence:
#
# PCOD8155657 Si02
#       6
#     4   4   4   2   2   4
#     4  10  24  42  64  94 129 168 209 259 316 376
#     4  11  23  41  65  95 127 166 213 262 316 376
#     4  11  23  41  65  95 127 166 213 262 316 376
#     4  10  22  44  64  90 132 168 206 260 320 378
#     4  10  22  44  64  90 132 168 206 260 320 378
#     4  10  24  42  64  94 129 168 209 259 316 376
#
# _framework density 22.366361000000001
#
# number of rings (size 3 to 8) (size 9 to 14) (size 15 to 20)
#    0.000    1.600    0.000    3.600    0.000   14.400 
#    0.000    4.000    0.000    0.000    0.000    0.000 
#    0.000    0.000    0.000    0.000    0.000    0.000 
#
# Total GULP energy -248019.461855 kJ/mol
# GULP energy per Si atom -12400.973093 kJ/mol
# Density = 2.231545 g / cm^3
# Si number density = 22.366361 Si / 1000 Ang^3
#
#
#
# Elastic Constant Matrix: (Units=GPa)
#
#
# Indices 1 2 3 4 5 6 
#
# 1 122.2931 66.2166 79.9125 0.0000 0.0000 0.0000
# 2 66.2166 122.2911 79.9109 0.0000 0.0000 0.0000
# 3 79.9125 79.9109 157.1691 0.0000 0.0000 0.0000
# 4 0.0000 0.0000 0.0000 54.6718 0.0000 0.0000
# 5 0.0000 0.0000 0.0000 0.0000 54.6722 0.0000
# 6 0.0000 0.0000 0.0000 0.0000 0.0000 14.2418
#
#
#
# Elastic Compliance Matrix: (Units=1/GPa)
#
#
# Indices 1 2 3 4 5 6 
#
# 1 0.013579 -0.004254 -0.004741 0.000000 0.000000 0.000000
# 2 -0.004254 0.013579 -0.004741 0.000000 0.000000 0.000000
# 3 -0.004741 -0.004741 0.011183 0.000000 0.000000 0.000000
# 4 0.000000 0.000000 0.000000 0.018291 0.000000 0.000000
# 5 0.000000 0.000000 0.000000 0.000000 0.018291 0.000000
# 6 0.000000 0.000000 0.000000 0.000000 0.000000 0.070216
#
#
# Mechanical properties :
#
#
# Convention : Reuss Voigt Hill
#
# Bulk Modulus (GPa) = 92.00858 94.87035 93.43947
# Shear Modulus (GPa) = 28.37147 36.43140 32.40143
#
# Velocity S-wave (km/s) = 3.56545 4.04028 3.81027
# Velocity P-wave (km/s) = 7.62733 8.01709 7.82464
#
# Compressibility (1/GPa) = 0.01086855
#
# Stress axis : x y z
#
# Youngs Moduli (GPa) = 73.64514 73.64483 89.41752
#
# Poissons Ratio (x) = 0.31332 0.42392
# Poissons Ratio (y) = 0.31332 0.42391
# Poissons Ratio (z) = 0.34915 0.34913
#
# Static dielectric constant tensor:
#      x y z
#    x 3.914150 0.000000 0.000000 
#    y 0.000000 3.914140 0.000000 
#    z 0.000000 0.000000 4.471980 
# 
# 
# High freq. dielectric constant tensor:
#      x y z
#    x 1.870520 0.000000 0.000000 
#    y 0.000000 1.870520 0.000000 
#    z 0.000000 0.000000 1.912330 
# 
# From -- ./inp_files/10775.got.cif
#   From: 2010.03.12/outbox.cif.g09.slc.cpg/sg17_6_cif.got.tgz:10775.got - 2010.04.10 18:46:23.
