data_PCOD8155739
_publ_section_title
;
Structure prediction by ZEFSAII (Michael W. Deem and Ramdas Pophale) SiO2 
 PCOD8155739
Probable space group: P 2 2 21
;
_chemical_formula_sum "Si O2"
_cell_formula_units_Z 18
_cell_length_a 4.963490
_cell_length_b 30.175298
_cell_length_c 5.008867
_cell_angle_alpha 90.000000
_cell_angle_beta 90.000000
_cell_angle_gamma 90.000000
_cell_volume 750.202002
_symmetry_space_group_name_H-M "P 2 2 21"
_symmetry_group_IT_number 17
_symmetry_cell_setting 'orthorhombic'
loop_
_space_group_symop_operation_xyz
x,y,z
-x,-y,1/2+z
x,-y,-z
-x,y,1/2-z
loop_
_atom_site_type_symbol
_atom_site_label
_atom_site_fract_x
_atom_site_fract_y
_atom_site_fract_z
Si Si1 0.500000 0.029600 0.250000
Si Si2 0.000000 0.910585 0.750000
Si Si3 0.000000 0.148555 0.750000
Si Si4 0.000000 0.471234 0.250000
Si Si5 0.500000 0.586566 0.750000
Si Si6 0.263918 0.664416 0.073847
Si Si7 0.500000 0.266960 0.250000
Si Si8 0.500000 0.791881 0.250000
O O1 0.750010 0.059508 0.340257
O O2 0.410075 0.000000 0.500000
O O3 0.090412 0.881042 0.499811
O O4 0.249635 0.178476 0.841846
O O5 0.746587 0.442813 0.139387
O O6 0.896881 0.500000 0.500000
O O7 0.638549 0.616194 0.521317
O O8 0.500000 0.685804 0.250000
O O9 0.000000 0.658895 0.250000
O O10 0.246949 0.700133 0.831062
O O11 0.405216 0.236855 0.496236
#
# Coordination Sequence:
#
# PCOD8155739 Si02
#       8
#     2   2   2   2   2   4   2   2
#     4  12  24  42  70 105 136 178 224 293 366 422
#     4  12  24  45  68  97 144 178 238 287 346 437
#     4  12  26  45  68  99 132 198 234 289 348 415
#     4  12  28  48  74 106 144 188 236 292 352 418
#     4  11  26  46  74 108 144 188 238 292 352 444
#     4  11  25  45  75 105 144 185 235 288 374 424
#     4  11  26  47  70 106 142 186 232 312 354 425
#     4  12  26  45  70  99 142 182 250 291 352 417
#
# _framework density 23.993538000000001
#
# number of rings (size 3 to 8) (size 9 to 14) (size 15 to 20)
#    0.000    0.444    1.111    6.667    6.222    4.444 
#    0.000    0.000    0.000    0.000    0.000    0.000 
#    0.000    0.000    0.000    0.000    0.000    0.000 
#
# Total GULP energy -223238.164173 kJ/mol
# GULP energy per Si atom -12402.120232 kJ/mol
# Density = 2.393893 g / cm^3
# Si number density = 23.993538 Si / 1000 Ang^3
#
#
#
# Elastic Constant Matrix: (Units=GPa)
#
#
# Indices 1 2 3 4 5 6 
#
# 1 163.4897 54.4042 31.1670 0.0000 0.0000 0.0000
# 2 54.4042 129.0804 56.3971 0.0000 0.0000 0.0000
# 3 31.1670 56.3971 144.2377 0.0000 0.0000 0.0000
# 4 0.0000 0.0000 0.0000 30.6457 0.0000 0.0000
# 5 0.0000 0.0000 0.0000 0.0000 43.0782 0.0000
# 6 0.0000 0.0000 0.0000 0.0000 0.0000 19.2232
#
#
#
# Elastic Compliance Matrix: (Units=1/GPa)
#
#
# Indices 1 2 3 4 5 6 
#
# 1 0.007138 -0.002815 -0.000441 0.000000 0.000000 0.000000
# 2 -0.002815 0.010454 -0.003479 0.000000 0.000000 0.000000
# 3 -0.000441 -0.003479 0.008389 0.000000 0.000000 0.000000
# 4 0.000000 0.000000 0.000000 0.032631 0.000000 0.000000
# 5 0.000000 0.000000 0.000000 0.000000 0.023214 0.000000
# 6 0.000000 0.000000 0.000000 0.000000 0.000000 0.052021
#
#
# Mechanical properties :
#
#
# Convention : Reuss Voigt Hill
#
# Bulk Modulus (GPa) = 79.94775 80.08270 80.01523
# Shear Modulus (GPa) = 33.00620 38.24539 35.62580
#
# Velocity S-wave (km/s) = 3.71297 3.99681 3.85750
# Velocity P-wave (km/s) = 7.19544 7.39923 7.29805
#
# Compressibility (1/GPa) = 0.01250817
#
# Stress axis : x y z
#
# Youngs Moduli (GPa) = 140.10215 95.65880 119.20769
#
# Poissons Ratio (x) = 0.26932 0.05263
# Poissons Ratio (y) = 0.39445 0.41473
# Poissons Ratio (z) = 0.06185 0.33281
#
# Static dielectric constant tensor:
#      x y z
#    x 4.181710 0.000000 0.000000 
#    y 0.000000 4.570700 0.000000 
#    z 0.000000 0.000000 4.301660 
# 
# 
# High freq. dielectric constant tensor:
#      x y z
#    x 1.947580 0.000000 0.000000 
#    y 0.000000 1.970880 0.000000 
#    z 0.000000 0.000000 1.960470 
# 
# From -- ./inp_files/382.got.cif
#   From: 2010.03.12/outbox.cif.g09.slc.cpg/sg17_1_cif.got.tgz:382.got - 2010.04.10 18:46:23.
