data_PCOD8155829
_publ_section_title
;
Structure prediction by ZEFSAII (Michael W. Deem and Ramdas Pophale) SiO2 
 PCOD8155829
Probable space group: P 21 21 2
;
_chemical_formula_sum "Si O2"
_cell_formula_units_Z 22
_cell_length_a 7.942487
_cell_length_b 12.422334
_cell_length_c 8.745403
_cell_angle_alpha 90.000000
_cell_angle_beta 90.000000
_cell_angle_gamma 90.000000
_cell_volume 862.858421
_symmetry_space_group_name_H-M "P 21 21 2"
_symmetry_group_IT_number 18
_symmetry_cell_setting 'orthorhombic'
loop_
_space_group_symop_operation_xyz
x,y,z
-x,-y,z
1/2+x,1/2-y,-z
1/2-x,1/2+y,-z
loop_
_atom_site_type_symbol
_atom_site_label
_atom_site_fract_x
_atom_site_fract_y
_atom_site_fract_z
Si Si1 0.043644 0.764787 0.011607
Si Si2 0.832941 0.057799 0.236944
Si Si3 0.252305 0.085162 0.965589
Si Si4 0.000000 0.000000 0.728673
Si Si5 0.150067 0.789008 0.671339
Si Si6 0.433082 0.884543 0.492772
O O1 0.146181 0.770332 0.851409
O O2 0.855876 0.803247 0.978632
O O3 0.121907 0.837668 0.142168
O O4 0.062866 0.638312 0.067896
O O5 0.709559 0.092466 0.368961
O O6 0.000000 0.000000 0.303182
O O7 0.737047 0.975789 0.125134
O O8 0.167523 0.012095 0.835211
O O9 0.966978 0.106240 0.628003
O O10 0.343907 0.814940 0.626208
O O11 0.085224 0.685272 0.577398
O O12 0.500000 0.000000 0.554499
#
# Coordination Sequence:
#
# PCOD8155829 Si02
#       6
#     4   4   4   2   4   4
#     4  10  20  39  66 100 130 171 225 286 341 411
#     4  10  20  40  68 101 131 175 227 283 352 416
#     4  10  18  38  66  97 133 172 219 280 352 399
#     4  10  20  44  72 100 142 178 228 294 348 406
#     4  11  26  48  69 102 143 189 236 289 350 422
#     4  12  29  47  69 103 143 194 236 289 355 421
#
# _framework density 25.496652000000001
#
# number of rings (size 3 to 8) (size 9 to 14) (size 15 to 20)
#    0.000    1.455    4.545    3.273    3.818    2.909 
#    3.273    0.909    0.000    0.000    0.000    0.000 
#    0.000    0.000    0.000    0.000    0.000    0.000 
#
# Total GULP energy -272619.459916 kJ/mol
# GULP energy per Si atom -12391.793633 kJ/mol
# Density = 2.543862 g / cm^3
# Si number density = 25.496652 Si / 1000 Ang^3
#
#
#
# Elastic Constant Matrix: (Units=GPa)
#
#
# Indices 1 2 3 4 5 6 
#
# 1 52.7278 11.9491 16.4039 0.0000 0.0000 0.0000
# 2 11.9491 105.4252 -3.3598 0.0000 0.0000 0.0000
# 3 16.4039 -3.3598 44.6237 0.0000 0.0000 0.0000
# 4 0.0000 0.0000 0.0000 27.4676 0.0000 0.0000
# 5 0.0000 0.0000 0.0000 0.0000 29.1206 0.0000
# 6 0.0000 0.0000 0.0000 0.0000 0.0000 65.7542
#
#
#
# Elastic Compliance Matrix: (Units=1/GPa)
#
#
# Indices 1 2 3 4 5 6 
#
# 1 0.022200 -0.002783 -0.008370 0.000000 0.000000 0.000000
# 2 -0.002783 0.009857 0.001765 0.000000 0.000000 0.000000
# 3 -0.008370 0.001765 0.025620 0.000000 0.000000 0.000000
# 4 0.000000 0.000000 0.000000 0.036407 0.000000 0.000000
# 5 0.000000 0.000000 0.000000 0.000000 0.034340 0.000000
# 6 0.000000 0.000000 0.000000 0.000000 0.000000 0.015208
#
#
# Mechanical properties :
#
#
# Convention : Reuss Voigt Hill
#
# Bulk Modulus (GPa) = 25.70672 28.08480 26.89576
# Shear Modulus (GPa) = 28.51042 36.32072 32.41557
#
# Velocity S-wave (km/s) = 3.34758 3.77839 3.56949
# Velocity P-wave (km/s) = 5.00460 5.48397 5.24976
#
# Compressibility (1/GPa) = 0.03890034
#
# Stress axis : x y z
#
# Youngs Moduli (GPa) = 45.04490 101.44991 39.03271
#
# Poissons Ratio (x) = 0.28233 0.32672
# Poissons Ratio (y) = 0.12536 -0.06890
# Poissons Ratio (z) = 0.37704 -0.17908
#
# Static dielectric constant tensor:
#      x y z
#    x 4.332990 0.000000 0.000000 
#    y 0.000000 5.078730 0.000000 
#    z 0.000000 0.000000 4.388030 
# 
# 
# High freq. dielectric constant tensor:
#      x y z
#    x 2.006230 0.000000 0.000000 
#    y 0.000000 2.040180 0.000000 
#    z 0.000000 0.000000 2.002510 
# 
# From -- ./inp_files/3174.got.cif
#   From: 2010.03.12/outbox.cif.g09.slc.cpg/sg18_2_cif.got.tgz:3174.got - 2010.04.10 18:53:55.
