data_PCOD8155514
_publ_section_title
;
Structure prediction by ZEFSAII (Michael W. Deem and Ramdas Pophale) SiO2 
 PCOD8155514
Probable space group: P 2 2 21
;
_chemical_formula_sum "Si O2"
_cell_formula_units_Z 24
_cell_length_a 9.036944
_cell_length_b 8.556144
_cell_length_c 15.638181
_cell_angle_alpha 90.000000
_cell_angle_beta 90.000000
_cell_angle_gamma 90.000000
_cell_volume 1209.165957
_symmetry_space_group_name_H-M "P 2 2 21"
_symmetry_group_IT_number 17
_symmetry_cell_setting 'orthorhombic'
loop_
_space_group_symop_operation_xyz
x,y,z
-x,-y,1/2+z
x,-y,-z
-x,y,1/2-z
loop_
_atom_site_type_symbol
_atom_site_label
_atom_site_fract_x
_atom_site_fract_y
_atom_site_fract_z
Si Si1 0.069081 0.787554 0.843383
Si Si2 0.888480 0.184091 0.994542
Si Si3 0.440006 0.182705 0.509786
Si Si4 0.596932 0.297935 0.669897
Si Si5 0.087428 0.150714 0.836192
Si Si6 0.656073 0.600855 0.584692
O O1 0.207522 0.679890 0.866616
O O2 0.000000 0.748929 0.750000
O O3 0.120884 0.967578 0.850564
O O4 0.947341 0.749725 0.915505
O O5 0.997624 0.226013 0.915924
O O6 0.724686 0.257149 0.981994
O O7 0.874126 0.000000 0.000000
O O8 0.529966 0.197366 0.595239
O O9 0.531755 0.269006 0.435073
O O10 0.426539 0.000000 0.500000
O O11 0.500000 0.251389 0.750000
O O12 0.765746 0.248207 0.678557
O O13 0.584119 0.482394 0.652264
O O14 0.000000 0.175457 0.750000
O O15 0.703146 0.500000 0.500000
#
# Coordination Sequence:
#
# PCOD8155514 Si02
#       6
#     4   4   4   4   4   4
#     4  10  21  38  60  86 113 149 199 246 288 341
#     4   9  18  34  58  87 114 141 185 244 292 334
#     4  10  20  38  63  86 111 150 195 239 290 342
#     4  11  23  38  56  84 121 155 190 234 289 352
#     4  10  20  37  62  88 115 150 196 244 288 340
#     4  10  22  39  56  81 118 157 191 233 293 351
#
# _framework density 19.848392
#
# number of rings (size 3 to 8) (size 9 to 14) (size 15 to 20)
#    0.000    2.000    0.000    4.000    0.000    4.667 
#    0.000   10.833    0.000    0.000    0.000    0.000 
#    0.000    0.000    0.000    0.000    0.000    0.000 
#
# Total GULP energy -297503.125431 kJ/mol
# GULP energy per Si atom -12395.963560 kJ/mol
# Density = 1.980322 g / cm^3
# Si number density = 19.848392 Si / 1000 Ang^3
#
#
#
# Elastic Constant Matrix: (Units=GPa)
#
#
# Indices 1 2 3 4 5 6 
#
# 1 134.0791 43.0946 51.0546 0.0000 0.0000 0.0000
# 2 43.0946 64.4423 26.8264 0.0000 0.0000 0.0000
# 3 51.0546 26.8264 98.0112 0.0000 0.0000 0.0000
# 4 0.0000 0.0000 0.0000 45.2219 0.0000 0.0000
# 5 0.0000 0.0000 0.0000 0.0000 36.7667 0.0000
# 6 0.0000 0.0000 0.0000 0.0000 0.0000 6.4453
#
#
#
# Elastic Compliance Matrix: (Units=1/GPa)
#
#
# Indices 1 2 3 4 5 6 
#
# 1 0.010795 -0.005506 -0.004116 0.000000 0.000000 0.000000
# 2 -0.005506 0.020321 -0.002694 0.000000 0.000000 0.000000
# 3 -0.004116 -0.002694 0.013085 0.000000 0.000000 0.000000
# 4 0.000000 0.000000 0.000000 0.022113 0.000000 0.000000
# 5 0.000000 0.000000 0.000000 0.000000 0.027198 0.000000
# 6 0.000000 0.000000 0.000000 0.000000 0.000000 0.155152
#
#
# Mechanical properties :
#
#
# Convention : Reuss Voigt Hill
#
# Bulk Modulus (GPa) = 51.10205 59.83153 55.46679
# Shear Modulus (GPa) = 17.86865 29.39059 23.62962
#
# Velocity S-wave (km/s) = 3.00368 3.85223 3.45411
# Velocity P-wave (km/s) = 6.15074 7.07078 6.62675
#
# Compressibility (1/GPa) = 0.01956868
#
# Stress axis : x y z
#
# Youngs Moduli (GPa) = 92.63304 49.21009 76.42581
#
# Poissons Ratio (x) = 0.27093 0.31460
# Poissons Ratio (y) = 0.51000 0.20590
# Poissons Ratio (z) = 0.38132 0.13258
#
# Static dielectric constant tensor:
#      x y z
#    x 3.673320 0.000000 0.000000 
#    y 0.000000 3.580540 0.000000 
#    z 0.000000 0.000000 3.726260 
# 
# 
# High freq. dielectric constant tensor:
#      x y z
#    x 1.784230 0.000000 0.000000 
#    y 0.000000 1.763650 0.000000 
#    z 0.000000 0.000000 1.779950 
# 
# From -- ./inp_files/8078.got.cif
#   From: 2010.03.12/outbox.cif.g09.slc.cpg/sg17_5_cif.got.tgz:8078.got - 2010.04.10 18:46:23.
