data_PCOD8155247
_publ_section_title
;
Structure prediction by ZEFSAII (Michael W. Deem and Ramdas Pophale) SiO2 
 PCOD8155247
Probable space group: P 2 2 2
;
_chemical_formula_sum "Si O2"
_cell_formula_units_Z 32
_cell_length_a 11.867646
_cell_length_b 15.057852
_cell_length_c 8.417370
_cell_angle_alpha 90.000000
_cell_angle_beta 90.000000
_cell_angle_gamma 90.000000
_cell_volume 1504.194600
_symmetry_space_group_name_H-M "P 2 2 2"
_symmetry_group_IT_number 16
_symmetry_cell_setting 'orthorhombic'
loop_
_space_group_symop_operation_xyz
x,y,z
-x,-y,z
x,-y,-z
-x,y,-z
loop_
_atom_site_type_symbol
_atom_site_label
_atom_site_fract_x
_atom_site_fract_y
_atom_site_fract_z
Si Si1 0.139275 0.683509 0.817377
Si Si2 0.253403 0.829464 0.316026
Si Si3 0.761109 0.506108 0.820857
Si Si4 0.550632 0.584593 0.677527
Si Si5 0.494952 0.779263 0.310742
Si Si6 0.883228 0.323846 0.181973
Si Si7 0.733351 0.846549 0.317427
Si Si8 0.125307 0.007351 0.815223
O O1 0.199755 0.591439 0.766365
O O2 0.201799 0.757529 0.718950
O O3 0.010488 0.689591 0.761914
O O4 0.144524 0.707771 0.003021
O O5 0.382315 0.829391 0.251547
O O6 0.198892 0.731577 0.298762
O O7 0.260607 0.861710 0.495840
O O8 0.176908 0.896892 0.219018
O O9 0.682505 0.560041 0.694716
O O10 0.869573 0.569851 0.819637
O O11 0.710093 0.500000 0.000000
O O12 0.500000 0.500000 0.773367
O O13 0.500000 0.583869 0.500000
O O14 0.514344 0.678041 0.757608
O O15 0.500000 0.771560 0.500000
O O16 0.605031 0.832874 0.252264
O O17 0.788776 0.932118 0.240027
O O18 0.000000 0.000000 0.735812
O O19 0.109171 0.000000 0.000000
#
# Coordination Sequence:
#
# PCOD8155247 Si02
#       8
#     4   4   4   4   4   4   4   4
#     4  10  21  37  59  88 126 165 207 256 311 365
#     4  11  22  40  67  90 125 161 206 256 307 372
#     4  10  20  36  59  89 121 163 218 259 301 365
#     4  10  19  34  58  83 119 166 210 250 304 362
#     4   9  20  38  59  89 122 165 199 244 312 363
#     4  10  20  38  60  86 124 168 205 255 315 364
#     4  11  23  40  63  94 125 157 209 255 304 374
#     4  11  25  45  67  91 122 161 202 250 316 378
#
# _framework density 21.273841999999998
#
# number of rings (size 3 to 8) (size 9 to 14) (size 15 to 20)
#    0.000    1.750    1.250    3.000    0.000    7.750 
#    0.000    5.000    0.000    1.500    0.000    0.000 
#    0.000    0.000    0.000    0.000    0.000    0.250 
#
# Total GULP energy -396506.915768 kJ/mol
# GULP energy per Si atom -12390.841118 kJ/mol
# Density = 2.122542 g / cm^3
# Si number density = 21.273842 Si / 1000 Ang^3
#
#
#
# Elastic Constant Matrix: (Units=GPa)
#
#
# Indices 1 2 3 4 5 6 
#
# 1 144.9779 44.7891 28.2481 0.0000 0.0000 0.0000
# 2 44.7891 121.5581 15.4522 0.0000 0.0000 0.0000
# 3 28.2481 15.4522 40.5287 0.0000 0.0000 0.0000
# 4 0.0000 0.0000 0.0000 23.3431 0.0000 0.0000
# 5 0.0000 0.0000 0.0000 0.0000 25.1554 0.0000
# 6 0.0000 0.0000 0.0000 0.0000 0.0000 33.3063
#
#
#
# Elastic Compliance Matrix: (Units=1/GPa)
#
#
# Indices 1 2 3 4 5 6 
#
# 1 0.008674 -0.002551 -0.005073 0.000000 0.000000 0.000000
# 2 -0.002551 0.009396 -0.001804 0.000000 0.000000 0.000000
# 3 -0.005073 -0.001804 0.028898 0.000000 0.000000 0.000000
# 4 0.000000 0.000000 0.000000 0.042839 0.000000 0.000000
# 5 0.000000 0.000000 0.000000 0.000000 0.039753 0.000000
# 6 0.000000 0.000000 0.000000 0.000000 0.000000 0.030024
#
#
# Mechanical properties :
#
#
# Convention : Reuss Voigt Hill
#
# Bulk Modulus (GPa) = 35.57361 53.78264 44.67813
# Shear Modulus (GPa) = 26.62243 30.93264 28.77753
#
# Velocity S-wave (km/s) = 3.54137 3.81730 3.68192
# Velocity P-wave (km/s) = 5.78618 6.69067 6.25479
#
# Compressibility (1/GPa) = 0.02811073
#
# Stress axis : x y z
#
# Youngs Moduli (GPa) = 115.28381 106.42969 34.60481
#
# Poissons Ratio (x) = 0.27152 0.17556
# Poissons Ratio (y) = 0.29411 0.06243
# Poissons Ratio (z) = 0.58486 0.19202
#
# Static dielectric constant tensor:
#      x y z
#    x 4.200730 0.000000 0.000000 
#    y 0.000000 3.991800 0.000000 
#    z 0.000000 0.000000 3.541680 
# 
# 
# High freq. dielectric constant tensor:
#      x y z
#    x 1.848220 0.000000 0.000000 
#    y 0.000000 1.844860 0.000000 
#    z 0.000000 0.000000 1.802290 
# 
# From -- ./inp_files/4873.got.cif
#   From: 2010.03.12/outbox.cif.g09.slc.cpg/sg16_3_cif.got.tgz:4873.got - 2010.03.31 00:51:45.
