data_PCOD8155601
_publ_section_title
;
Structure prediction by ZEFSAII (Michael W. Deem and Ramdas Pophale) SiO2 
 PCOD8155601
Probable space group: P 2 2 21
;
_chemical_formula_sum "Si O2"
_cell_formula_units_Z 20
_cell_length_a 13.608109
_cell_length_b 7.790690
_cell_length_c 8.453682
_cell_angle_alpha 90.000000
_cell_angle_beta 90.000000
_cell_angle_gamma 90.000000
_cell_volume 896.230274
_symmetry_space_group_name_H-M "P 2 2 21"
_symmetry_group_IT_number 17
_symmetry_cell_setting 'orthorhombic'
loop_
_space_group_symop_operation_xyz
x,y,z
-x,-y,1/2+z
x,-y,-z
-x,y,1/2-z
loop_
_atom_site_type_symbol
_atom_site_label
_atom_site_fract_x
_atom_site_fract_y
_atom_site_fract_z
Si Si1 0.437305 0.858727 0.390922
Si Si2 0.107880 0.002789 0.312578
Si Si3 0.233330 0.317234 0.291500
Si Si4 0.756413 0.302193 0.833932
Si Si5 0.573038 0.644390 0.617474
O O1 0.500000 0.945592 0.250000
O O2 0.359574 0.732339 0.304408
O O3 0.512196 0.775759 0.513405
O O4 0.380325 0.000000 0.500000
O O5 0.148667 0.182668 0.239293
O O6 0.000000 0.968959 0.250000
O O7 0.104529 0.000000 0.500000
O O8 0.177194 0.845983 0.255542
O O9 0.210124 0.517935 0.253872
O O10 0.239193 0.303086 0.478277
O O11 0.334646 0.264700 0.204826
O O12 0.614608 0.500000 0.500000
O O13 0.500000 0.563416 0.750000
#
# Coordination Sequence:
#
# PCOD8155601 Si02
#       5
#     4   4   4   4   4
#     4  12  25  39  61  96 136 183 227 272 335 400
#     4  10  23  45  70  95 130 171 221 285 350 405
#     4  10  21  41  67  94 131 177 221 270 334 403
#     4  10  21  41  68  93 132 181 219 266 337 407
#     4  12  23  39  62  96 137 182 229 277 328 400
#
# _framework density 22.315695000000002
#
# number of rings (size 3 to 8) (size 9 to 14) (size 15 to 20)
#    0.000    1.200    2.000    5.400    2.800    0.800 
#    7.200    0.000    0.000    0.000    0.000    0.000 
#    0.000    0.000    0.000    0.000    0.000    0.000 
#
# Total GULP energy -247868.941910 kJ/mol
# GULP energy per Si atom -12393.447095 kJ/mol
# Density = 2.226490 g / cm^3
# Si number density = 22.315695 Si / 1000 Ang^3
#
#
#
# Elastic Constant Matrix: (Units=GPa)
#
#
# Indices 1 2 3 4 5 6 
#
# 1 137.0251 72.8938 35.3281 0.0000 0.0000 0.0000
# 2 72.8938 155.9849 31.7948 0.0000 0.0000 0.0000
# 3 35.3281 31.7948 52.8343 0.0000 0.0000 0.0000
# 4 0.0000 0.0000 0.0000 22.7126 0.0000 0.0000
# 5 0.0000 0.0000 0.0000 0.0000 37.3941 0.0000
# 6 0.0000 0.0000 0.0000 0.0000 0.0000 32.6809
#
#
#
# Elastic Compliance Matrix: (Units=1/GPa)
#
#
# Indices 1 2 3 4 5 6 
#
# 1 0.010647 -0.004017 -0.004702 0.000000 0.000000 0.000000
# 2 -0.004017 0.008823 -0.002623 0.000000 0.000000 0.000000
# 3 -0.004702 -0.002623 0.023650 0.000000 0.000000 0.000000
# 4 0.000000 0.000000 0.000000 0.044028 0.000000 0.000000
# 5 0.000000 0.000000 0.000000 0.000000 0.026742 0.000000
# 6 0.000000 0.000000 0.000000 0.000000 0.000000 0.030599
#
#
# Mechanical properties :
#
#
# Convention : Reuss Voigt Hill
#
# Bulk Modulus (GPa) = 48.93557 69.54197 59.23877
# Shear Modulus (GPa) = 28.73798 32.27937 30.50867
#
# Velocity S-wave (km/s) = 3.59248 3.80740 3.70150
# Velocity P-wave (km/s) = 6.25973 7.11047 6.69862
#
# Compressibility (1/GPa) = 0.02043503
#
# Stress axis : x y z
#
# Youngs Moduli (GPa) = 93.92125 113.34157 42.28379
#
# Poissons Ratio (x) = 0.45532 0.19881
# Poissons Ratio (y) = 0.37730 0.11092
# Poissons Ratio (z) = 0.44160 0.29733
#
# Static dielectric constant tensor:
#      x y z
#    x 3.998370 0.000000 0.000000 
#    y 0.000000 4.681600 0.000000 
#    z 0.000000 0.000000 4.119730 
# 
# 
# High freq. dielectric constant tensor:
#      x y z
#    x 1.856640 0.000000 0.000000 
#    y 0.000000 1.888830 0.000000 
#    z 0.000000 0.000000 1.870430 
# 
# From -- ./inp_files/5025.got.cif
#   From: 2010.03.12/outbox.cif.g09.slc.cpg/sg17_3_cif.got.tgz:5025.got - 2010.04.10 18:46:23.
