data_PCOD8155448
_publ_section_title
;
Structure prediction by ZEFSAII (Michael W. Deem and Ramdas Pophale) SiO2 
 PCOD8155448
Probable space group: P 2 2 21
;
_chemical_formula_sum "Si O2"
_cell_formula_units_Z 32
_cell_length_a 9.099754
_cell_length_b 11.751443
_cell_length_c 14.142016
_cell_angle_alpha 90.000000
_cell_angle_beta 90.000000
_cell_angle_gamma 90.000000
_cell_volume 1512.279881
_symmetry_space_group_name_H-M "P 2 2 21"
_symmetry_group_IT_number 17
_symmetry_cell_setting 'orthorhombic'
loop_
_space_group_symop_operation_xyz
x,y,z
-x,-y,1/2+z
x,-y,-z
-x,y,1/2-z
loop_
_atom_site_type_symbol
_atom_site_label
_atom_site_fract_x
_atom_site_fract_y
_atom_site_fract_z
Si Si1 0.519955 0.742735 0.959556
Si Si2 0.722366 0.676173 0.423895
Si Si3 0.227601 0.684252 0.676188
Si Si4 0.667202 0.121391 0.713005
Si Si5 0.030149 0.635261 0.507363
Si Si6 0.335686 0.461579 0.745324
Si Si7 0.265206 0.744623 0.381350
Si Si8 0.648037 0.867107 0.691924
O O1 0.620820 0.682463 0.882512
O O2 0.401481 0.829522 0.913185
O O3 0.419001 0.648738 0.010958
O O4 0.628257 0.799202 0.038037
O O5 0.699738 0.801950 0.378799
O O6 0.731746 0.583033 0.342923
O O7 0.861375 0.667076 0.493239
O O8 0.085745 0.689292 0.607336
O O9 0.221198 0.561713 0.724726
O O10 0.233402 0.784543 0.755175
O O11 0.500000 0.135347 0.750000
O O12 0.768407 0.160509 0.801819
O O13 0.714412 0.993527 0.686430
O O14 0.060959 0.500000 0.500000
O O15 0.113313 0.700348 0.423433
O O16 0.500000 0.511679 0.750000
O O17 0.345220 0.362668 0.667412
O O18 0.500000 0.871397 0.750000
#
# Coordination Sequence:
#
# PCOD8155448 Si02
#       8
#     4   4   4   4   4   4   4   4
#     4  10  19  38  62  95 123 157 214 264 308 373
#     4  11  23  38  62  96 120 164 219 260 308 378
#     4  10  22  41  60  88 130 169 204 252 329 390
#     4  10  19  39  66  96 126 154 211 271 325 361
#     4  11  24  41  59  90 129 170 211 256 312 383
#     4  11  19  35  63  95 126 161 208 265 326 368
#     4  10  19  38  63  92 123 165 207 260 317 379
#     4   9  20  38  62  95 125 163 207 264 329 374
#
# _framework density 21.160104
#
# number of rings (size 3 to 8) (size 9 to 14) (size 15 to 20)
#    0.000    1.750    3.750    1.875    0.000    4.500 
#    4.500    3.750    8.250    0.000    0.000    0.000 
#    0.000    0.000    0.000    0.000    0.000    0.000 
#
# Total GULP energy -396605.561312 kJ/mol
# GULP energy per Si atom -12393.923791 kJ/mol
# Density = 2.111194 g / cm^3
# Si number density = 21.160104 Si / 1000 Ang^3
#
#
#
# Elastic Constant Matrix: (Units=GPa)
#
#
# Indices 1 2 3 4 5 6 
#
# 1 82.6848 17.7906 31.0907 0.0000 0.0000 0.0000
# 2 17.7906 120.5537 43.8769 0.0000 0.0000 0.0000
# 3 31.0907 43.8769 75.4058 0.0000 0.0000 0.0000
# 4 0.0000 0.0000 0.0000 19.4639 0.0000 0.0000
# 5 0.0000 0.0000 0.0000 0.0000 32.3580 0.0000
# 6 0.0000 0.0000 0.0000 0.0000 0.0000 17.0562
#
#
#
# Elastic Compliance Matrix: (Units=1/GPa)
#
#
# Indices 1 2 3 4 5 6 
#
# 1 0.014313 0.000045 -0.005928 0.000000 0.000000 0.000000
# 2 0.000045 0.010524 -0.006142 0.000000 0.000000 0.000000
# 3 -0.005928 -0.006142 0.019280 0.000000 0.000000 0.000000
# 4 0.000000 0.000000 0.000000 0.051377 0.000000 0.000000
# 5 0.000000 0.000000 0.000000 0.000000 0.030904 0.000000
# 6 0.000000 0.000000 0.000000 0.000000 0.000000 0.058630
#
#
# Mechanical properties :
#
#
# Convention : Reuss Voigt Hill
#
# Bulk Modulus (GPa) = 49.83259 51.57342 50.70300
# Shear Modulus (GPa) = 23.17312 26.16802 24.67057
#
# Velocity S-wave (km/s) = 3.31287 3.52044 3.41823
# Velocity P-wave (km/s) = 6.18343 6.39926 6.29227
#
# Compressibility (1/GPa) = 0.02006719
#
# Stress axis : x y z
#
# Youngs Moduli (GPa) = 69.86483 95.02140 51.86781
#
# Poissons Ratio (x) = -0.00430 0.30747
# Poissons Ratio (y) = -0.00316 0.31859
# Poissons Ratio (z) = 0.41415 0.58365
#
# Static dielectric constant tensor:
#      x y z
#    x 3.515060 0.000000 0.000000 
#    y 0.000000 3.780860 0.000000 
#    z 0.000000 0.000000 4.185230 
# 
# 
# High freq. dielectric constant tensor:
#      x y z
#    x 1.803940 0.000000 0.000000 
#    y 0.000000 1.806870 0.000000 
#    z 0.000000 0.000000 1.847320 
# 
# From -- ./inp_files/8279.got.cif
#   From: 2010.03.12/outbox.cif.g09.slc.cpg/sg17_5_cif.got.tgz:8279.got - 2010.04.10 18:46:23.
