data_PCOD8155660
_publ_section_title
;
Structure prediction by ZEFSAII (Michael W. Deem and Ramdas Pophale) SiO2 
 PCOD8155660
Probable space group: P 2 2 21
;
_chemical_formula_sum "Si O2"
_cell_formula_units_Z 18
_cell_length_a 8.717421
_cell_length_b 4.947443
_cell_length_c 18.386944
_cell_angle_alpha 90.000000
_cell_angle_beta 90.000000
_cell_angle_gamma 90.000000
_cell_volume 793.009469
_symmetry_space_group_name_H-M "P 2 2 21"
_symmetry_group_IT_number 17
_symmetry_cell_setting 'orthorhombic'
loop_
_space_group_symop_operation_xyz
x,y,z
-x,-y,1/2+z
x,-y,-z
-x,y,1/2-z
loop_
_atom_site_type_symbol
_atom_site_label
_atom_site_fract_x
_atom_site_fract_y
_atom_site_fract_z
Si Si1 0.271860 0.801984 0.785109
Si Si2 0.713139 0.000000 0.000000
Si Si3 0.230160 0.862524 0.345480
Si Si4 0.425685 0.323146 0.851513
Si Si5 0.000000 0.507673 0.250000
Si Si6 0.500638 0.500000 0.000000
O O1 0.393701 0.566304 0.796585
O O2 0.103041 0.680595 0.803894
O O3 0.260985 0.862674 0.699017
O O4 0.319020 0.067410 0.830728
O O5 0.817462 0.074051 0.929350
O O6 0.606276 0.249115 0.024493
O O7 0.393885 0.717917 0.346413
O O8 0.101809 0.690633 0.303739
O O9 0.388323 0.412509 0.934103
#
# Coordination Sequence:
#
# PCOD8155660 Si02
#       6
#     4   2   4   4   2   2
#     4  12  26  43  72 109 141 190 240 303 353 432
#     4  10  24  42  76 102 146 188 248 290 368 436
#     4  11  26  46  74 109 143 193 243 307 354 441
#     4  11  25  42  78 106 144 187 248 298 363 418
#     4  12  28  46  70 110 154 188 242 304 366 428
#     4  10  22  44  68 116 146 182 238 318 354 424
#
# _framework density 22.698340999999999
#
# number of rings (size 3 to 8) (size 9 to 14) (size 15 to 20)
#    0.000    0.889    2.222    4.000   12.444    0.000 
#    0.000    0.000    9.778    0.000    0.000    0.000 
#    0.000    0.000    0.000    0.000    0.000    0.000 
#
# Total GULP energy -223052.850296 kJ/mol
# GULP energy per Si atom -12391.825016 kJ/mol
# Density = 2.264668 g / cm^3
# Si number density = 22.698341 Si / 1000 Ang^3
#
#
#
# Elastic Constant Matrix: (Units=GPa)
#
#
# Indices 1 2 3 4 5 6 
#
# 1 99.8935 57.0228 91.4088 0.0000 0.0000 0.0000
# 2 57.0228 159.4583 74.4000 0.0000 0.0000 0.0000
# 3 91.4088 74.4000 184.8373 0.0000 0.0000 0.0000
# 4 0.0000 0.0000 0.0000 37.6703 0.0000 0.0000
# 5 0.0000 0.0000 0.0000 0.0000 7.4868 0.0000
# 6 0.0000 0.0000 0.0000 0.0000 0.0000 176.7332
#
#
#
# Elastic Compliance Matrix: (Units=1/GPa)
#
#
# Indices 1 2 3 4 5 6 
#
# 1 0.019407 -0.003031 -0.008377 0.000000 0.000000 0.000000
# 2 -0.003031 0.008195 -0.001799 0.000000 0.000000 0.000000
# 3 -0.008377 -0.001799 0.010277 0.000000 0.000000 0.000000
# 4 0.000000 0.000000 0.000000 0.026546 0.000000 0.000000
# 5 0.000000 0.000000 0.000000 0.000000 0.133569 0.000000
# 6 0.000000 0.000000 0.000000 0.000000 0.000000 0.005658
#
#
# Mechanical properties :
#
#
# Convention : Reuss Voigt Hill
#
# Bulk Modulus (GPa) = 87.23757 98.87247 93.05502
# Shear Modulus (GPa) = 21.37771 59.13523 40.25647
#
# Velocity S-wave (km/s) = 3.07223 5.10972 4.21591
# Velocity P-wave (km/s) = 7.14855 8.85811 8.04885
#
# Compressibility (1/GPa) = 0.01146295
#
# Stress axis : x y z
#
# Youngs Moduli (GPa) = 51.52876 122.02828 97.30188
#
# Poissons Ratio (x) = 0.36990 0.81511
# Poissons Ratio (y) = 0.15620 0.17509
# Poissons Ratio (z) = 0.43166 0.21959
#
# Static dielectric constant tensor:
#      x y z
#    x 4.019900 0.000000 0.000000 
#    y 0.000000 4.724360 0.000000 
#    z 0.000000 0.000000 4.040680 
# 
# 
# High freq. dielectric constant tensor:
#      x y z
#    x 1.868640 0.000000 0.000000 
#    y 0.000000 1.924480 0.000000 
#    z 0.000000 0.000000 1.894490 
# 
# From -- ./inp_files/9232.got.cif
#   From: 2010.03.12/outbox.cif.g09.slc.cpg/sg17_5_cif.got.tgz:9232.got - 2010.04.10 18:46:23.
