data_PCOD8155466
_publ_section_title
;
Structure prediction by ZEFSAII (Michael W. Deem and Ramdas Pophale) SiO2 
 PCOD8155466
Probable space group: P 2 2 21
;
_chemical_formula_sum "Si O2"
_cell_formula_units_Z 20
_cell_length_a 9.550214
_cell_length_b 11.506925
_cell_length_c 8.507851
_cell_angle_alpha 90.000000
_cell_angle_beta 90.000000
_cell_angle_gamma 90.000000
_cell_volume 934.958343
_symmetry_space_group_name_H-M "P 2 2 21"
_symmetry_group_IT_number 17
_symmetry_cell_setting 'orthorhombic'
loop_
_space_group_symop_operation_xyz
x,y,z
-x,-y,1/2+z
x,-y,-z
-x,y,1/2-z
loop_
_atom_site_type_symbol
_atom_site_label
_atom_site_fract_x
_atom_site_fract_y
_atom_site_fract_z
Si Si1 0.313167 0.000000 0.500000
Si Si2 0.960898 0.130070 0.432746
Si Si3 0.500000 0.032332 0.750000
Si Si4 0.693406 0.781762 0.409663
Si Si5 0.535462 0.627022 0.932659
Si Si6 0.792554 0.240657 0.923999
O O1 0.409006 0.052067 0.359257
O O2 0.225069 0.898231 0.428115
O O3 0.800628 0.168093 0.460759
O O4 0.000000 0.125549 0.250000
O O5 0.048486 0.239136 0.511522
O O6 0.987178 0.000000 0.500000
O O7 0.406507 0.113862 0.860059
O O8 0.597077 0.681547 0.479869
O O9 0.774553 0.724955 0.258897
O O10 0.500000 0.624039 0.750000
O O11 0.559179 0.500000 0.000000
O O12 0.682018 0.693713 0.965408
#
# Coordination Sequence:
#
# PCOD8155466 Si02
#       6
#     2   4   2   4   4   4
#     4  10  20  32  60  86 134 162 212 262 322 398
#     4  12  26  40  63  98 141 186 223 270 341 415
#     4  10  22  36  60  92 130 170 222 270 334 384
#     4  11  22  43  63  94 131 174 223 281 332 401
#     4  12  25  44  71  98 130 176 232 288 340 398
#     4  11  22  42  62  96 135 174 221 273 336 405
#
# _framework density 21.391328999999999
#
# number of rings (size 3 to 8) (size 9 to 14) (size 15 to 20)
#    0.000    0.800    5.000    4.200    5.600    0.000 
#    0.000    1.000    0.000    0.000    0.000    0.000 
#    0.000    0.000    0.000    0.000    0.000    0.000 
#
# Total GULP energy -247765.244263 kJ/mol
# GULP energy per Si atom -12388.262213 kJ/mol
# Density = 2.134264 g / cm^3
# Si number density = 21.391329 Si / 1000 Ang^3
#
#
#
# Elastic Constant Matrix: (Units=GPa)
#
#
# Indices 1 2 3 4 5 6 
#
# 1 123.2381 42.9900 28.3412 0.0000 0.0000 0.0000
# 2 42.9900 69.3337 22.3701 0.0000 0.0000 0.0000
# 3 28.3412 22.3701 104.4258 0.0000 0.0000 0.0000
# 4 0.0000 0.0000 0.0000 33.2865 0.0000 0.0000
# 5 0.0000 0.0000 0.0000 0.0000 39.9612 0.0000
# 6 0.0000 0.0000 0.0000 0.0000 0.0000 5.4387
#
#
#
# Elastic Compliance Matrix: (Units=1/GPa)
#
#
# Indices 1 2 3 4 5 6 
#
# 1 0.010590 -0.006058 -0.001576 0.000000 0.000000 0.000000
# 2 -0.006058 0.018959 -0.002417 0.000000 0.000000 0.000000
# 3 -0.001576 -0.002417 0.010522 0.000000 0.000000 0.000000
# 4 0.000000 0.000000 0.000000 0.030042 0.000000 0.000000
# 5 0.000000 0.000000 0.000000 0.000000 0.025024 0.000000
# 6 0.000000 0.000000 0.000000 0.000000 0.000000 0.183867
#
#
# Mechanical properties :
#
#
# Convention : Reuss Voigt Hill
#
# Bulk Modulus (GPa) = 50.08027 53.82223 51.95125
# Shear Modulus (GPa) = 16.35253 29.29037 22.82145
#
# Velocity S-wave (km/s) = 2.76786 3.70437 3.26982
# Velocity P-wave (km/s) = 5.80319 6.59635 6.21244
#
# Compressibility (1/GPa) = 0.01996794
#
# Stress axis : x y z
#
# Youngs Moduli (GPa) = 94.42830 52.74548 95.04005
#
# Poissons Ratio (x) = 0.31951 0.14983
# Poissons Ratio (y) = 0.57201 0.22975
# Poissons Ratio (z) = 0.14886 0.12750
#
# Static dielectric constant tensor:
#      x y z
#    x 4.459080 0.000000 0.000000 
#    y 0.000000 3.562820 0.000000 
#    z 0.000000 0.000000 4.206460 
# 
# 
# High freq. dielectric constant tensor:
#      x y z
#    x 1.856990 0.000000 0.000000 
#    y 0.000000 1.796790 0.000000 
#    z 0.000000 0.000000 1.860360 
# 
# From -- ./inp_files/4085.got.cif
#   From: 2010.03.12/outbox.cif.g09.slc.cpg/sg17_3_cif.got.tgz:4085.got - 2010.04.10 18:46:23.
