data_PCOD8155292
_publ_section_title
;
Structure prediction by ZEFSAII (Michael W. Deem and Ramdas Pophale) SiO2 
 PCOD8155292
Probable space group: P 2 2 2
;
_chemical_formula_sum "Si O2"
_cell_formula_units_Z 32
_cell_length_a 14.234012
_cell_length_b 12.623635
_cell_length_c 9.229207
_cell_angle_alpha 90.000000
_cell_angle_beta 90.000000
_cell_angle_gamma 90.000000
_cell_volume 1658.349802
_symmetry_space_group_name_H-M "P 2 2 2"
_symmetry_group_IT_number 16
_symmetry_cell_setting 'orthorhombic'
loop_
_space_group_symop_operation_xyz
x,y,z
-x,-y,z
x,-y,-z
-x,y,-z
loop_
_atom_site_type_symbol
_atom_site_label
_atom_site_fract_x
_atom_site_fract_y
_atom_site_fract_z
Si Si1 0.382336 0.812425 0.162741
Si Si2 0.109579 0.291214 0.356929
Si Si3 0.273640 0.385352 0.172007
Si Si4 0.063345 0.393680 0.664151
Si Si5 0.096254 0.957642 0.658954
Si Si6 0.748718 0.382310 0.156702
Si Si7 0.599165 0.197281 0.828655
Si Si8 0.699734 0.991640 0.326785
O O1 0.315771 0.714566 0.212652
O O2 0.489655 0.791394 0.203927
O O3 0.355195 0.913766 0.253966
O O4 0.375948 0.838514 0.992277
O O5 0.196405 0.349140 0.285247
O O6 0.102212 0.347497 0.513131
O O7 0.117283 0.166057 0.358069
O O8 0.012135 0.310866 0.270497
O O9 0.304945 0.507598 0.191189
O O10 0.365848 0.316227 0.197919
O O11 0.231564 0.366490 0.012543
O O12 0.149762 0.397379 0.772137
O O13 0.000000 0.500000 0.646266
O O14 0.086158 0.000000 0.500000
O O15 0.192236 0.001144 0.731429
O O16 0.000000 0.000000 0.740858
O O17 0.650420 0.117581 0.719377
O O18 0.695553 0.000000 0.500000
#
# Coordination Sequence:
#
# PCOD8155292 Si02
#       8
#     4   4   4   4   4   4   4   4
#     4  10  23  39  65  86 116 161 199 248 305 363
#     4  11  21  36  60  84 116 157 200 241 286 353
#     4  10  21  40  59  87 120 155 194 250 302 344
#     4  11  22  35  57  88 116 155 199 238 287 358
#     4  10  21  36  56  86 118 158 193 237 293 352
#     4  10  23  38  59  88 122 151 197 250 298 354
#     4  10  21  43  62  86 117 158 204 245 304 368
#     4  11  23  37  63  93 121 153 199 254 300 352
#
# _framework density 19.296291
#
# number of rings (size 3 to 8) (size 9 to 14) (size 15 to 20)
#    0.000    1.625    2.500    3.000    5.250    3.000 
#    0.000    2.500    0.000    1.500    0.000    3.500 
#    0.000    0.000    0.000    0.000    0.000    0.000 
#
# Total GULP energy -396421.461963 kJ/mol
# GULP energy per Si atom -12388.170686 kJ/mol
# Density = 1.925237 g / cm^3
# Si number density = 19.296291 Si / 1000 Ang^3
#
#
#
# Elastic Constant Matrix: (Units=GPa)
#
#
# Indices 1 2 3 4 5 6 
#
# 1 129.8065 32.3539 33.2258 0.0000 0.0000 0.0000
# 2 32.3539 93.6675 28.1064 0.0000 0.0000 0.0000
# 3 33.2258 28.1064 41.0123 0.0000 0.0000 0.0000
# 4 0.0000 0.0000 0.0000 21.1789 0.0000 0.0000
# 5 0.0000 0.0000 0.0000 0.0000 25.6800 0.0000
# 6 0.0000 0.0000 0.0000 0.0000 0.0000 38.4491
#
#
#
# Elastic Compliance Matrix: (Units=1/GPa)
#
#
# Indices 1 2 3 4 5 6 
#
# 1 0.009837 -0.001267 -0.007101 0.000000 0.000000 0.000000
# 2 -0.001267 0.013603 -0.008296 0.000000 0.000000 0.000000
# 3 -0.007101 -0.008296 0.035821 0.000000 0.000000 0.000000
# 4 0.000000 0.000000 0.000000 0.047217 0.000000 0.000000
# 5 0.000000 0.000000 0.000000 0.000000 0.038941 0.000000
# 6 0.000000 0.000000 0.000000 0.000000 0.000000 0.026008
#
#
# Mechanical properties :
#
#
# Convention : Reuss Voigt Hill
#
# Bulk Modulus (GPa) = 38.56064 50.20650 44.38357
# Shear Modulus (GPa) = 23.43015 28.44828 25.93922
#
# Velocity S-wave (km/s) = 3.48836 3.84381 3.67039
# Velocity P-wave (km/s) = 6.02094 6.76573 6.40417
#
# Compressibility (1/GPa) = 0.02593318
#
# Stress axis : x y z
#
# Youngs Moduli (GPa) = 101.65444 73.51299 27.91638
#
# Poissons Ratio (x) = 0.09315 0.19824
# Poissons Ratio (y) = 0.12880 0.23159
# Poissons Ratio (z) = 0.72187 0.60986
#
# Static dielectric constant tensor:
#      x y z
#    x 4.024560 0.000000 0.000000 
#    y 0.000000 3.910810 0.000000 
#    z 0.000000 0.000000 3.382310 
# 
# 
# High freq. dielectric constant tensor:
#      x y z
#    x 1.764360 0.000000 0.000000 
#    y 0.000000 1.769650 0.000000 
#    z 0.000000 0.000000 1.725240 
# 
# From -- ./inp_files/5243.got.cif
#   From: 2010.03.12/outbox.cif.g09.slc.cpg/sg16_3_cif.got.tgz:5243.got - 2010.03.31 00:51:45.
