data_PCOD8155361
_publ_section_title
;
Structure prediction by ZEFSAII (Michael W. Deem and Ramdas Pophale) SiO2 
 PCOD8155361
Probable space group: P 2 2 21
;
_chemical_formula_sum "Si O2"
_cell_formula_units_Z 32
_cell_length_a 17.428812
_cell_length_b 10.041115
_cell_length_c 10.310276
_cell_angle_alpha 90.000000
_cell_angle_beta 90.000000
_cell_angle_gamma 90.000000
_cell_volume 1804.346816
_symmetry_space_group_name_H-M "P 2 2 21"
_symmetry_group_IT_number 17
_symmetry_cell_setting 'orthorhombic'
loop_
_space_group_symop_operation_xyz
x,y,z
-x,-y,1/2+z
x,-y,-z
-x,y,1/2-z
loop_
_atom_site_type_symbol
_atom_site_label
_atom_site_fract_x
_atom_site_fract_y
_atom_site_fract_z
Si Si1 0.665695 0.758296 0.849291
Si Si2 0.824976 0.663564 0.245633
Si Si3 0.430082 0.012517 0.651455
Si Si4 0.919754 0.657947 0.999005
Si Si5 0.908555 0.341907 0.496295
Si Si6 0.563328 0.488025 0.145343
Si Si7 0.330966 0.733633 0.356082
Si Si8 0.180159 0.346693 0.256791
O O1 0.635533 0.905093 0.816609
O O2 0.593951 0.659910 0.828287
O O3 0.736163 0.720789 0.756595
O O4 0.696346 0.750507 0.996097
O O5 0.864386 0.711321 0.377687
O O6 0.744084 0.740687 0.234149
O O7 0.810426 0.505566 0.240418
O O8 0.880610 0.709570 0.130088
O O9 0.500000 0.991129 0.750000
O O10 0.456719 0.000000 0.500000
O O11 0.393522 0.155941 0.681632
O O12 0.870199 0.705892 0.876768
O O13 0.924841 0.500000 0.000000
O O14 0.005580 0.718138 0.990797
O O15 0.913545 0.500000 0.500000
O O16 0.861752 0.294515 0.371439
O O17 0.500000 0.525434 0.250000
O O18 0.633585 0.588233 0.161864
O O19 0.528207 0.500000 0.000000
#
# Coordination Sequence:
#
# PCOD8155361 Si02
#       8
#     4   4   4   4   4   4   4   4
#     4  10  19  34  55  75 100 136 169 207 251 304
#     4  10  17  29  48  73 106 137 172 210 253 297
#     4  10  22  40  58  76 101 131 174 214 251 307
#     4   9  16  26  48  69 102 145 175 201 251 307
#     4   9  18  28  40  75 112 137 167 213 255 295
#     4  10  20  34  52  76 101 127 164 202 257 311
#     4  10  19  34  55  75 100 136 169 207 251 304
#     4  10  17  29  48  73 106 137 172 210 253 297
#
# _framework density 17.734950000000001
#
# number of rings (size 3 to 8) (size 9 to 14) (size 15 to 20)
#    0.000    2.250    2.500    1.500    0.000    3.000 
#    4.500    0.000    0.000    0.000    0.000    5.250 
#    0.000    0.000    0.000    0.000    0.000    0.000 
#
# Total GULP energy -396815.149022 kJ/mol
# GULP energy per Si atom -12400.473407 kJ/mol
# Density = 1.769458 g / cm^3
# Si number density = 17.734950 Si / 1000 Ang^3
#
#
#
# Elastic Constant Matrix: (Units=GPa)
#
#
# Indices 1 2 3 4 5 6 
#
# 1 108.3632 7.8799 69.8729 0.0000 0.0000 0.0000
# 2 7.8799 39.9297 12.5592 0.0000 0.0000 0.0000
# 3 69.8729 12.5592 131.0108 0.0000 0.0000 0.0000
# 4 0.0000 0.0000 0.0000 13.0029 0.0000 0.0000
# 5 0.0000 0.0000 0.0000 0.0000 24.4248 0.0000
# 6 0.0000 0.0000 0.0000 0.0000 0.0000 17.6799
#
#
#
# Elastic Compliance Matrix: (Units=1/GPa)
#
#
# Indices 1 2 3 4 5 6 
#
# 1 0.014072 -0.000429 -0.007464 0.000000 0.000000 0.000000
# 2 -0.000429 0.025836 -0.002248 0.000000 0.000000 0.000000
# 3 -0.007464 -0.002248 0.011829 0.000000 0.000000 0.000000
# 4 0.000000 0.000000 0.000000 0.076906 0.000000 0.000000
# 5 0.000000 0.000000 0.000000 0.000000 0.040942 0.000000
# 6 0.000000 0.000000 0.000000 0.000000 0.000000 0.056561
#
#
# Mechanical properties :
#
#
# Convention : Reuss Voigt Hill
#
# Bulk Modulus (GPa) = 31.79152 51.10310 41.44731
# Shear Modulus (GPa) = 19.46178 23.62098 21.54138
#
# Velocity S-wave (km/s) = 3.31625 3.65346 3.48893
# Velocity P-wave (km/s) = 5.71211 6.83188 6.29693
#
# Compressibility (1/GPa) = 0.03145493
#
# Stress axis : x y z
#
# Youngs Moduli (GPa) = 71.06132 38.70610 84.53559
#
# Poissons Ratio (x) = 0.01662 0.63099
# Poissons Ratio (y) = 0.03051 0.19001
# Poissons Ratio (z) = 0.53041 0.08700
#
# Static dielectric constant tensor:
#      x y z
#    x 3.261520 0.000000 0.000000 
#    y 0.000000 2.912570 0.000000 
#    z 0.000000 0.000000 3.370010 
# 
# 
# High freq. dielectric constant tensor:
#      x y z
#    x 1.693990 0.000000 0.000000 
#    y 0.000000 1.641090 0.000000 
#    z 0.000000 0.000000 1.684440 
# 
# From -- ./inp_files/5509.got.cif
#   From: 2010.03.12/outbox.cif.g09.slc.cpg/sg17_3_cif.got.tgz:5509.got - 2010.04.10 18:46:23.
