data_PCOD8155298
_publ_section_title
;
Structure prediction by ZEFSAII (Michael W. Deem and Ramdas Pophale) SiO2 
 PCOD8155298
Probable space group: P 2 2 2
;
_chemical_formula_sum "Si O2"
_cell_formula_units_Z 32
_cell_length_a 15.314932
_cell_length_b 11.966652
_cell_length_c 8.876533
_cell_angle_alpha 90.000000
_cell_angle_beta 90.000000
_cell_angle_gamma 90.000000
_cell_volume 1626.788548
_symmetry_space_group_name_H-M "P 2 2 2"
_symmetry_group_IT_number 16
_symmetry_cell_setting 'orthorhombic'
loop_
_space_group_symop_operation_xyz
x,y,z
-x,-y,z
x,-y,-z
-x,y,-z
loop_
_atom_site_type_symbol
_atom_site_label
_atom_site_fract_x
_atom_site_fract_y
_atom_site_fract_z
Si Si1 0.649973 0.270377 0.324971
Si Si2 1.000000 0.126770 0.822367
Si Si3 0.649972 0.729623 0.324971
Si Si4 0.500000 0.130832 0.824135
Si Si5 0.602887 0.500000 0.175313
Si Si6 0.153059 0.738118 0.325689
Si Si7 0.902329 0.500000 0.678571
Si Si8 0.153059 0.738118 0.674311
O O1 0.625800 0.281450 0.500000
O O2 0.586193 0.182926 0.247204
O O3 0.643877 0.391731 0.251725
O O4 0.747510 0.222207 0.302484
O O5 0.911793 0.183221 0.764544
O O6 0.088207 0.183222 0.764544
O O7 0.000000 0.000000 0.764475
O O8 0.000000 0.134271 0.000000
O O9 0.586193 0.817074 0.247205
O O10 0.643877 0.608269 0.251725
O O11 0.747510 0.777792 0.302484
O O12 0.500000 0.000000 0.790666
O O13 0.500000 0.158916 0.000000
O O14 0.500000 0.500000 0.202328
O O15 0.626534 0.500000 0.000000
O O16 0.146185 0.611108 0.263421
O O17 0.125214 0.743080 0.500000
O O18 0.903174 0.500000 0.500000
O O19 0.853815 0.388891 0.736580
O O20 0.000000 0.500000 0.744207
#
# Coordination Sequence:
#
# PCOD8155298 Si02
#       8
#     4   4   4   4   4   4   4   4
#     4  11  23  39  64  94 123 156 201 255 305 356
#     4  11  25  42  59  84 120 161 204 249 296 351
#     4  11  23  39  64  94 123 156 201 255 305 356
#     4  11  25  44  63  84 117 161 205 251 306 367
#     4  11  22  37  61  92 128 166 200 237 298 371
#     4  10  21  39  63  91 120 154 196 244 299 356
#     4   9  15  30  60  89 116 148 183 229 287 348
#     4  10  21  39  63  91 120 154 196 244 299 356
#
# _framework density 19.670656000000001
#
# number of rings (size 3 to 8) (size 9 to 14) (size 15 to 20)
#    0.000    1.500    2.500    2.625    0.000    7.500 
#    0.000    6.250    0.000    0.000    0.000    0.000 
#    0.000    0.000    0.000    0.000    0.000    0.000 
#
# Total GULP energy -396884.422495 kJ/mol
# GULP energy per Si atom -12402.638203 kJ/mol
# Density = 1.962588 g / cm^3
# Si number density = 19.670656 Si / 1000 Ang^3
#
#
#
# Elastic Constant Matrix: (Units=GPa)
#
#
# Indices 1 2 3 4 5 6 
#
# 1 132.5865 71.1956 55.4760 0.0000 0.0000 0.0000
# 2 71.1956 143.6074 68.4496 0.0000 0.0000 0.0000
# 3 55.4760 68.4496 99.7110 0.0000 0.0000 0.0000
# 4 0.0000 0.0000 0.0000 37.3938 0.0000 0.0000
# 5 0.0000 0.0000 0.0000 0.0000 17.1821 0.0000
# 6 0.0000 0.0000 0.0000 0.0000 0.0000 1.8695
#
#
#
# Elastic Compliance Matrix: (Units=1/GPa)
#
#
# Indices 1 2 3 4 5 6 
#
# 1 0.011065 -0.003792 -0.003553 0.000000 0.000000 0.000000
# 2 -0.003792 0.011650 -0.005887 0.000000 0.000000 0.000000
# 3 -0.003553 -0.005887 0.016047 0.000000 0.000000 0.000000
# 4 0.000000 0.000000 0.000000 0.026742 0.000000 0.000000
# 5 0.000000 0.000000 0.000000 0.000000 0.058200 0.000000
# 6 0.000000 0.000000 0.000000 0.000000 0.000000 0.534912
#
#
# Mechanical properties :
#
#
# Convention : Reuss Voigt Hill
#
# Bulk Modulus (GPa) = 81.32116 85.12750 83.22433
# Shear Modulus (GPa) = 7.25498 23.34132 15.29815
#
# Velocity S-wave (km/s) = 1.92256 3.44845 2.79178
# Velocity P-wave (km/s) = 6.80878 7.69585 7.26586
#
# Compressibility (1/GPa) = 0.01229692
#
# Stress axis : x y z
#
# Youngs Moduli (GPa) = 90.37331 85.83927 62.31547
#
# Poissons Ratio (x) = 0.32552 0.22141
# Poissons Ratio (y) = 0.34271 0.36688
# Poissons Ratio (z) = 0.32110 0.50537
#
# Static dielectric constant tensor:
#      x y z
#    x 3.680730 0.000000 0.000000 
#    y 0.000000 3.664730 0.000000 
#    z 0.000000 0.000000 3.536970 
# 
# 
# High freq. dielectric constant tensor:
#      x y z
#    x 1.782190 0.000000 0.000000 
#    y 0.000000 1.767910 0.000000 
#    z 0.000000 0.000000 1.759820 
# 
# From -- ./inp_files/5212.got.cif
#   From: 2010.03.12/outbox.cif.g09.slc.cpg/sg16_3_cif.got.tgz:5212.got - 2010.03.31 00:51:45.
