data_PCOD8155383
_publ_section_title
;
Structure prediction by ZEFSAII (Michael W. Deem and Ramdas Pophale) SiO2 
 PCOD8155383
Probable space group: P 2 2 21
;
_chemical_formula_sum "Si O2"
_cell_formula_units_Z 22
_cell_length_a 16.307437
_cell_length_b 15.385656
_cell_length_c 5.218411
_cell_angle_alpha 90.000000
_cell_angle_beta 90.000000
_cell_angle_gamma 90.000000
_cell_volume 1309.302534
_symmetry_space_group_name_H-M "P 2 2 21"
_symmetry_group_IT_number 17
_symmetry_cell_setting 'orthorhombic'
loop_
_space_group_symop_operation_xyz
x,y,z
-x,-y,1/2+z
x,-y,-z
-x,y,1/2-z
loop_
_atom_site_type_symbol
_atom_site_label
_atom_site_fract_x
_atom_site_fract_y
_atom_site_fract_z
Si Si1 0.903827 0.246879 0.199823
Si Si2 0.404899 0.587980 0.749572
Si Si3 0.335253 0.603014 0.249590
Si Si4 0.849459 0.657316 0.312914
Si Si5 0.045781 0.500000 0.000000
Si Si6 0.902756 0.047592 0.247333
O O1 0.849848 0.292769 0.417906
O O2 0.876305 0.147295 0.222940
O O3 0.000000 0.258519 0.250000
O O4 0.885156 0.284139 0.917218
O O5 0.500000 0.562408 0.750000
O O6 0.380200 0.643430 0.499139
O O7 0.350085 0.500705 0.750545
O O8 0.379559 0.643618 0.999175
O O9 0.240645 0.626337 0.259251
O O10 0.903294 0.572016 0.349327
O O11 0.000000 0.542782 0.750000
O O12 0.000000 0.039053 0.250000
O O13 0.866557 0.000000 0.500000
O O14 0.865442 0.000000 0.000000
#
# Coordination Sequence:
#
# PCOD8155383 Si02
#       6
#     4   4   4   4   2   4
#     4  11  22  36  51  69  95 127 166 209 253 294
#     4  10  18  32  50  68  86 113 160 204 242 285
#     4  10  19  30  45  65  88 115 150 195 237 282
#     4  12  23  35  47  66  95 130 169 210 249 279
#     4  12  24  36  48  60  84 130 188 228 244 264
#     4   9  17  31  52  74  91 111 148 200 252 304
#
# _framework density 16.802838000000001
#
# number of rings (size 3 to 8) (size 9 to 14) (size 15 to 20)
#    0.000    1.455    0.000    9.273    0.000    5.818 
#    0.000    0.000    0.000    0.000    0.000    0.000 
#    0.000    0.000    0.000    0.000    0.000  374.545 
#
# Total GULP energy -272619.839536 kJ/mol
# GULP energy per Si atom -12391.810888 kJ/mol
# Density = 1.676459 g / cm^3
# Si number density = 16.802838 Si / 1000 Ang^3
#
#
#
# Elastic Constant Matrix: (Units=GPa)
#
#
# Indices 1 2 3 4 5 6 
#
# 1 82.5319 24.1556 30.9223 0.0000 0.0000 0.0000
# 2 24.1556 79.1535 35.1107 0.0000 0.0000 0.0000
# 3 30.9223 35.1107 167.5639 0.0000 0.0000 0.0000
# 4 0.0000 0.0000 0.0000 29.4409 0.0000 0.0000
# 5 0.0000 0.0000 0.0000 0.0000 25.6158 0.0000
# 6 0.0000 0.0000 0.0000 0.0000 0.0000 6.6839
#
#
#
# Elastic Compliance Matrix: (Units=1/GPa)
#
#
# Indices 1 2 3 4 5 6 
#
# 1 0.013798 -0.003397 -0.001834 0.000000 0.000000 0.000000
# 2 -0.003397 0.014765 -0.002467 0.000000 0.000000 0.000000
# 3 -0.001834 -0.002467 0.006823 0.000000 0.000000 0.000000
# 4 0.000000 0.000000 0.000000 0.033966 0.000000 0.000000
# 5 0.000000 0.000000 0.000000 0.000000 0.039038 0.000000
# 6 0.000000 0.000000 0.000000 0.000000 0.000000 0.149612
#
#
# Mechanical properties :
#
#
# Convention : Reuss Voigt Hill
#
# Bulk Modulus (GPa) = 50.02696 56.62515 53.32605
# Shear Modulus (GPa) = 17.85313 28.28552 23.06932
#
# Velocity S-wave (km/s) = 3.26315 4.10735 3.70934
# Velocity P-wave (km/s) = 6.63589 7.50111 7.08173
#
# Compressibility (1/GPa) = 0.01998922
#
# Stress axis : x y z
#
# Youngs Moduli (GPa) = 72.47355 67.72955 146.55665
#
# Poissons Ratio (x) = 0.23008 0.26886
# Poissons Ratio (y) = 0.24620 0.36153
# Poissons Ratio (z) = 0.13295 0.16708
#
# Static dielectric constant tensor:
#      x y z
#    x 2.902130 0.000000 0.000000 
#    y 0.000000 2.929210 0.000000 
#    z 0.000000 0.000000 5.408310 
# 
# 
# High freq. dielectric constant tensor:
#      x y z
#    x 1.615740 0.000000 0.000000 
#    y 0.000000 1.600800 0.000000 
#    z 0.000000 0.000000 1.692650 
# 
# From -- ./inp_files/2139.got.cif
#   From: 2010.03.12/outbox.cif.g09.slc.cpg/sg17_2_cif.got.tgz:2139.got - 2010.04.10 18:46:23.
