data_PCOD8155887
_publ_section_title
;
Structure prediction by ZEFSAII (Michael W. Deem and Ramdas Pophale) SiO2 
 PCOD8155887
Probable space group: P 21 21 2
;
_chemical_formula_sum "Si O2"
_cell_formula_units_Z 32
_cell_length_a 33.535188
_cell_length_b 4.996283
_cell_length_c 9.784714
_cell_angle_alpha 90.000000
_cell_angle_beta 90.000000
_cell_angle_gamma 90.000000
_cell_volume 1639.441450
_symmetry_space_group_name_H-M "P 21 21 2"
_symmetry_group_IT_number 18
_symmetry_cell_setting 'orthorhombic'
loop_
_space_group_symop_operation_xyz
x,y,z
-x,-y,z
1/2+x,1/2-y,-z
1/2-x,1/2+y,-z
loop_
_atom_site_type_symbol
_atom_site_label
_atom_site_fract_x
_atom_site_fract_y
_atom_site_fract_z
Si Si1 0.776109 0.269776 0.520715
Si Si2 0.026700 0.243663 0.205393
Si Si3 0.836042 0.388537 0.742391
Si Si4 0.400359 0.742349 0.600515
Si Si5 0.139368 0.611558 0.035494
Si Si6 0.411866 0.610717 0.011987
Si Si7 0.612623 0.387320 0.305409
Si Si8 0.150470 0.743604 0.330330
O O1 0.754427 0.528514 0.460162
O O2 0.793866 0.335613 0.670231
O O3 0.810407 0.181234 0.415330
O O4 0.059598 0.313963 0.318937
O O5 0.046127 0.162821 0.060407
O O6 0.000000 0.500000 0.179212
O O7 0.000000 0.000000 0.260225
O O8 0.849834 0.688187 0.708126
O O9 0.869589 0.185285 0.686526
O O10 0.830918 0.354164 0.906449
O O11 0.411556 0.668035 0.444387
O O12 0.379025 0.495454 0.675190
O O13 0.371161 0.995512 0.597433
O O14 0.121692 0.313359 0.044797
O O15 0.163031 0.670590 0.175161
O O16 0.101781 0.809801 0.020168
O O17 0.416826 0.648705 0.175885
#
# Coordination Sequence:
#
# PCOD8155887 Si02
#       8
#     4   4   4   4   4   4   4   4
#     4  12  24  38  56  88 125 159 190 240 312 358
#     4  12  24  38  56  88 125 155 184 236 304 356
#     4  10  20  36  59  85 116 148 192 248 285 340
#     4  12  21  38  62  88 116 151 205 242 286 342
#     4  10  19  36  61  87 108 143 204 247 272 325
#     4  10  20  36  59  85 113 147 194 236 287 340
#     4  10  19  36  61  87 108 147 201 248 277 326
#     4  12  21  38  62  88 113 154 204 245 279 357
#
# _framework density 19.518843
#
# number of rings (size 3 to 8) (size 9 to 14) (size 15 to 20)
#    0.000    1.000    5.000    3.000    0.000    0.000 
#    0.000    2.500    0.000    0.000    0.000    0.000 
#    0.000    0.000    0.000    0.000    0.000    0.000 
#
# Total GULP energy -396930.365786 kJ/mol
# GULP energy per Si atom -12404.073931 kJ/mol
# Density = 1.947442 g / cm^3
# Si number density = 19.518843 Si / 1000 Ang^3
#
#
#
# Elastic Constant Matrix: (Units=GPa)
#
#
# Indices 1 2 3 4 5 6 
#
# 1 54.6690 0.3563 30.7849 0.0000 0.0000 0.0000
# 2 0.3563 66.8141 -11.6858 0.0000 0.0000 0.0000
# 3 30.7849 -11.6858 104.2979 0.0000 0.0000 0.0000
# 4 0.0000 0.0000 0.0000 27.5622 0.0000 0.0000
# 5 0.0000 0.0000 0.0000 0.0000 24.9467 0.0000
# 6 0.0000 0.0000 0.0000 0.0000 0.0000 23.7308
#
#
#
# Elastic Compliance Matrix: (Units=1/GPa)
#
#
# Indices 1 2 3 4 5 6 
#
# 1 0.022045 -0.001281 -0.006650 0.000000 0.000000 0.000000
# 2 -0.001281 0.015340 0.002097 0.000000 0.000000 0.000000
# 3 -0.006650 0.002097 0.011786 0.000000 0.000000 0.000000
# 4 0.000000 0.000000 0.000000 0.036282 0.000000 0.000000
# 5 0.000000 0.000000 0.000000 0.000000 0.040085 0.000000
# 6 0.000000 0.000000 0.000000 0.000000 0.000000 0.042139
#
#
# Mechanical properties :
#
#
# Convention : Reuss Voigt Hill
#
# Bulk Modulus (GPa) = 26.66468 29.41021 28.03744
# Shear Modulus (GPa) = 26.06237 29.00298 27.53268
#
# Velocity S-wave (km/s) = 3.65806 3.85891 3.75983
# Velocity P-wave (km/s) = 5.61538 5.91230 5.76575
#
# Compressibility (1/GPa) = 0.03750280
#
# Stress axis : x y z
#
# Youngs Moduli (GPa) = 45.36130 65.18712 84.84773
#
# Poissons Ratio (x) = 0.08349 0.56427
# Poissons Ratio (y) = 0.05809 -0.17791
# Poissons Ratio (z) = 0.30167 -0.13668
#
# Static dielectric constant tensor:
#      x y z
#    x 3.205030 0.000000 0.000000 
#    y 0.000000 3.763160 0.000000 
#    z 0.000000 0.000000 3.846520 
# 
# 
# High freq. dielectric constant tensor:
#      x y z
#    x 1.712720 0.000000 0.000000 
#    y 0.000000 1.784350 0.000000 
#    z 0.000000 0.000000 1.777130 
# 
# From -- ./inp_files/4864.got.cif
#   From: 2010.03.12/outbox.cif.g09.slc.cpg/sg18_3_cif.got.tgz:4864.got - 2010.04.10 18:53:55.
