data_PCOD8155984
_publ_section_title
;
Structure prediction by ZEFSAII (Michael W. Deem and Ramdas Pophale) SiO2 
 PCOD8155984
Probable space group: P 21 21 2
;
_chemical_formula_sum "Si O2"
_cell_formula_units_Z 32
_cell_length_a 9.721370
_cell_length_b 14.068785
_cell_length_c 11.850819
_cell_angle_alpha 90.000000
_cell_angle_beta 90.000000
_cell_angle_gamma 90.000000
_cell_volume 1620.811206
_symmetry_space_group_name_H-M "P 21 21 2"
_symmetry_group_IT_number 18
_symmetry_cell_setting 'orthorhombic'
loop_
_space_group_symop_operation_xyz
x,y,z
-x,-y,z
1/2+x,1/2-y,-z
1/2-x,1/2+y,-z
loop_
_atom_site_type_symbol
_atom_site_label
_atom_site_fract_x
_atom_site_fract_y
_atom_site_fract_z
Si Si1 0.206695 0.230632 0.847280
Si Si2 0.408028 0.867398 0.967062
Si Si3 0.617071 0.222431 0.392185
Si Si4 0.149465 0.492246 0.618570
Si Si5 0.128454 0.667827 0.469663
Si Si6 0.789765 0.433834 0.010447
Si Si7 0.874113 0.929397 0.214828
Si Si8 0.494938 0.236005 0.757598
O O1 0.109598 0.244640 0.738375
O O2 0.223556 0.119260 0.880589
O O3 0.356842 0.272917 0.819302
O O4 0.147802 0.284822 0.954118
O O5 0.557258 0.895594 0.014152
O O6 0.416383 0.831820 0.838478
O O7 0.299402 0.953865 0.966626
O O8 0.718679 0.290042 0.462402
O O9 0.461119 0.226676 0.438272
O O10 0.678935 0.116970 0.411476
O O11 0.144519 0.557632 0.505932
O O12 0.263552 0.524839 0.704120
O O13 0.000000 0.500000 0.679383
O O14 0.046358 0.674875 0.351979
O O15 0.692747 0.410153 0.905831
O O16 0.919377 0.830254 0.271983
O O17 0.000000 0.000000 0.199939
#
# Coordination Sequence:
#
# PCOD8155984 Si02
#       8
#     4   4   4   4   4   4   4   4
#     4  10  20  40  61  88 124 159 201 260 306 363
#     4  10  20  38  59  90 125 164 210 250 311 383
#     4  10  21  40  62  90 121 160 205 258 305 359
#     4  10  23  39  63  91 115 162 208 256 304 366
#     4  10  21  40  62  90 121 157 210 251 308 362
#     4  10  22  35  60  92 121 165 202 249 317 377
#     4  12  22  37  63  95 128 160 211 258 312 369
#     4  10  21  38  60  89 125 167 202 261 313 368
#
# _framework density 19.743200999999999
#
# number of rings (size 3 to 8) (size 9 to 14) (size 15 to 20)
#    0.000    1.750    1.250    3.750    5.250    0.000 
#   20.250    0.000    0.000    0.000    0.000    0.000 
#    0.000    0.000    0.000    0.000    0.000    0.000 
#
# Total GULP energy -396767.983877 kJ/mol
# GULP energy per Si atom -12398.999496 kJ/mol
# Density = 1.969826 g / cm^3
# Si number density = 19.743201 Si / 1000 Ang^3
#
#
#
# Elastic Constant Matrix: (Units=GPa)
#
#
# Indices 1 2 3 4 5 6 
#
# 1 46.3298 22.7383 22.4037 0.0000 0.0000 0.0000
# 2 22.7383 79.5707 40.4444 0.0000 0.0000 0.0000
# 3 22.4037 40.4444 97.0195 0.0000 0.0000 0.0000
# 4 0.0000 0.0000 0.0000 -20.7418 0.0000 0.0000
# 5 0.0000 0.0000 0.0000 0.0000 35.3020 0.0000
# 6 0.0000 0.0000 0.0000 0.0000 0.0000 28.4033
#
#
#
# Elastic Compliance Matrix: (Units=1/GPa)
#
#
# Indices 1 2 3 4 5 6 
#
# 1 0.026114 -0.005580 -0.003704 0.000000 0.000000 0.000000
# 2 -0.005580 0.017138 -0.005856 0.000000 0.000000 0.000000
# 3 -0.003704 -0.005856 0.013604 0.000000 0.000000 0.000000
# 4 0.000000 0.000000 0.000000 -0.048212 0.000000 0.000000
# 5 0.000000 0.000000 0.000000 0.000000 0.028327 0.000000
# 6 0.000000 0.000000 0.000000 0.000000 0.000000 0.035207
#
#
# Mechanical properties :
#
#
# Convention : Reuss Voigt Hill
#
# Bulk Modulus (GPa) = 37.62732 43.78810 40.70771
# Shear Modulus (GPa) = 44.91671 17.74828 31.33250
#
# Velocity S-wave (km/s) = 4.77492 3.00151 3.98804
# Velocity P-wave (km/s) = 7.03559 5.85142 6.47065
#
# Compressibility (1/GPa) = 0.02657643
#
# Stress axis : x y z
#
# Youngs Moduli (GPa) = 38.29354 58.34858 73.50887
#
# Poissons Ratio (x) = 0.32556 0.27230
# Poissons Ratio (y) = 0.21366 0.43047
# Poissons Ratio (z) = 0.14185 0.34169
#
# Static dielectric constant tensor:
#      x y z
#    x 3.834960 0.000000 0.000000 
#    y 0.000000 3.691180 0.000000 
#    z 0.000000 0.000000 3.645200 
# 
# 
# High freq. dielectric constant tensor:
#      x y z
#    x 1.770250 0.000000 0.000000 
#    y 0.000000 1.771840 0.000000 
#    z 0.000000 0.000000 1.765110 
# 
# From -- ./inp_files/5664.got.cif
#   From: 2010.03.12/outbox.cif.g09.slc.cpg/sg18_3_cif.got.tgz:5664.got - 2010.04.10 18:53:55.
