data_PCOD8155944
_publ_section_title
;
Structure prediction by ZEFSAII (Michael W. Deem and Ramdas Pophale) SiO2 
 PCOD8155944
Probable space group: P 21 21 2
;
_chemical_formula_sum "Si O2"
_cell_formula_units_Z 30
_cell_length_a 13.037900
_cell_length_b 11.173957
_cell_length_c 10.162997
_cell_angle_alpha 90.000000
_cell_angle_beta 90.000000
_cell_angle_gamma 90.000000
_cell_volume 1480.595547
_symmetry_space_group_name_H-M "P 21 21 2"
_symmetry_group_IT_number 18
_symmetry_cell_setting 'orthorhombic'
loop_
_space_group_symop_operation_xyz
x,y,z
-x,-y,z
1/2+x,1/2-y,-z
1/2-x,1/2+y,-z
loop_
_atom_site_type_symbol
_atom_site_label
_atom_site_fract_x
_atom_site_fract_y
_atom_site_fract_z
Si Si1 0.688370 0.321836 0.753152
Si Si2 0.000000 0.000000 0.683956
Si Si3 0.669227 0.622953 0.149818
Si Si4 0.561675 0.109370 0.503534
Si Si5 0.891174 0.054275 0.130168
Si Si6 0.324965 0.041461 0.719515
Si Si7 0.836994 0.830808 0.556852
Si Si8 0.026786 0.730735 0.267947
O O1 0.789170 0.251574 0.801657
O O2 0.687148 0.452002 0.821589
O O3 0.689791 0.340014 0.596816
O O4 0.585888 0.248444 0.796436
O O5 0.935935 0.092138 0.774501
O O6 0.075054 0.073912 0.590024
O O7 0.752720 0.519556 0.174136
O O8 0.652797 0.626681 0.993948
O O9 0.627325 0.193650 0.406059
O O10 0.482668 0.201444 0.575500
O O11 0.500000 0.000000 0.432426
O O12 0.634428 0.058215 0.618590
O O13 0.906906 0.149153 0.248421
O O14 0.000000 0.000000 0.087845
O O15 0.263717 0.143712 0.640098
O O16 0.416917 0.113073 0.793381
#
# Coordination Sequence:
#
# PCOD8155944 Si02
#       8
#     4   2   4   4   4   4   4   4
#     4  10  22  37  59  90 115 151 210 245 296 351
#     4  10  24  38  60  84 122 166 192 244 318 358
#     4  11  21  40  56  86 122 155 198 244 304 361
#     4   9  18  36  54  84 115 150 194 243 289 352
#     4  10  22  38  59  85 118 157 200 252 291 361
#     4  10  20  35  59  84 118 149 197 240 308 352
#     4  10  21  36  58  87 118 158 198 248 294 369
#     4   9  19  36  58  84 110 151 195 248 292 342
#
# _framework density 20.262117
#
# number of rings (size 3 to 8) (size 9 to 14) (size 15 to 20)
#    0.000    2.133    3.333    0.000    6.533    4.267 
#    0.000    0.000    0.000    0.000    0.000    0.000 
#    0.000    0.000    0.000    0.000    0.000    0.000 
#
# Total GULP energy -371788.276455 kJ/mol
# GULP energy per Si atom -12392.942549 kJ/mol
# Density = 2.021600 g / cm^3
# Si number density = 20.262117 Si / 1000 Ang^3
#
#
#
# Elastic Constant Matrix: (Units=GPa)
#
#
# Indices 1 2 3 4 5 6 
#
# 1 64.5396 38.9628 16.5890 0.0000 0.0000 0.0000
# 2 38.9628 120.6420 39.6093 0.0000 0.0000 0.0000
# 3 16.5890 39.6093 57.3157 0.0000 0.0000 0.0000
# 4 0.0000 0.0000 0.0000 25.0706 0.0000 0.0000
# 5 0.0000 0.0000 0.0000 0.0000 16.2615 0.0000
# 6 0.0000 0.0000 0.0000 0.0000 0.0000 50.6971
#
#
#
# Elastic Compliance Matrix: (Units=1/GPa)
#
#
# Indices 1 2 3 4 5 6 
#
# 1 0.019368 -0.005710 -0.001660 0.000000 0.000000 0.000000
# 2 -0.005710 0.012405 -0.006920 0.000000 0.000000 0.000000
# 3 -0.001660 -0.006920 0.022710 0.000000 0.000000 0.000000
# 4 0.000000 0.000000 0.000000 0.039887 0.000000 0.000000
# 5 0.000000 0.000000 0.000000 0.000000 0.061495 0.000000
# 6 0.000000 0.000000 0.000000 0.000000 0.000000 0.019725
#
#
# Mechanical properties :
#
#
# Convention : Reuss Voigt Hill
#
# Bulk Modulus (GPa) = 38.60510 48.09107 43.34808
# Shear Modulus (GPa) = 23.49564 28.22825 25.86194
#
# Velocity S-wave (km/s) = 3.40896 3.73655 3.57651
# Velocity P-wave (km/s) = 5.88123 6.51166 6.20446
#
# Compressibility (1/GPa) = 0.02590331
#
# Stress axis : x y z
#
# Youngs Moduli (GPa) = 51.63082 80.61096 44.03367
#
# Poissons Ratio (x) = 0.46032 0.07307
# Poissons Ratio (y) = 0.29483 0.30472
# Poissons Ratio (z) = 0.08568 0.55784
#
# Static dielectric constant tensor:
#      x y z
#    x 3.891050 0.000000 0.000000 
#    y 0.000000 3.961630 0.000000 
#    z 0.000000 0.000000 3.195410 
# 
# 
# High freq. dielectric constant tensor:
#      x y z
#    x 1.795020 0.000000 0.000000 
#    y 0.000000 1.805950 0.000000 
#    z 0.000000 0.000000 1.739710 
# 
# From -- ./inp_files/4275.got.cif
#   From: 2010.03.12/outbox.cif.g09.slc.cpg/sg18_3_cif.got.tgz:4275.got - 2010.04.10 18:53:55.
