data_PCOD8155437
_publ_section_title
;
Structure prediction by ZEFSAII (Michael W. Deem and Ramdas Pophale) SiO2 
 PCOD8155437
Probable space group: P 2 2 21
;
_chemical_formula_sum "Si O2"
_cell_formula_units_Z 18
_cell_length_a 7.760719
_cell_length_b 8.133084
_cell_length_c 14.372662
_cell_angle_alpha 90.000000
_cell_angle_beta 90.000000
_cell_angle_gamma 90.000000
_cell_volume 907.182009
_symmetry_space_group_name_H-M "P 2 2 21"
_symmetry_group_IT_number 17
_symmetry_cell_setting 'orthorhombic'
loop_
_space_group_symop_operation_xyz
x,y,z
-x,-y,1/2+z
x,-y,-z
-x,y,1/2-z
loop_
_atom_site_type_symbol
_atom_site_label
_atom_site_fract_x
_atom_site_fract_y
_atom_site_fract_z
Si Si1 0.500000 0.950907 0.750000
Si Si2 0.347149 0.636508 0.939806
Si Si3 0.706038 0.468415 0.899990
Si Si4 0.545558 0.865714 0.068598
Si Si5 0.190941 0.715428 0.750036
O O1 0.335860 0.843468 0.716362
O O2 0.545959 0.056855 0.659371
O O3 0.520507 0.555531 0.898976
O O4 0.222437 0.680592 0.857367
O O5 0.246671 0.500000 0.000000
O O6 0.393195 0.790797 0.005047
O O7 0.681212 0.270519 0.892812
O O8 0.809244 0.548965 0.813669
O O9 0.798364 0.500000 0.000000
O O10 0.637686 0.000000 0.000000
O O11 0.000000 0.793445 0.750000
#
# Coordination Sequence:
#
# PCOD8155437 Si02
#       5
#     2   4   4   4   4
#     4  12  22  38  66  88 132 162 212 256 330 374
#     4   9  19  37  63  88 119 162 213 254 317 372
#     4   9  19  37  65  89 115 161 216 252 306 377
#     4  10  19  35  66  92 118 167 200 264 324 375
#     4  12  23  39  64  92 128 169 211 264 312 383
#
# _framework density 19.841664000000002
#
# number of rings (size 3 to 8) (size 9 to 14) (size 15 to 20)
#    0.000    2.222    4.444    1.333    6.222    0.889 
#    0.000    1.111   24.444    0.000    0.000    0.000 
#    0.000    0.000    0.000    0.000    0.000    0.000 
#
# Total GULP energy -222993.082069 kJ/mol
# GULP energy per Si atom -12388.504559 kJ/mol
# Density = 1.979650 g / cm^3
# Si number density = 19.841664 Si / 1000 Ang^3
#
#
#
# Elastic Constant Matrix: (Units=GPa)
#
#
# Indices 1 2 3 4 5 6 
#
# 1 80.4555 29.4070 28.4784 0.0000 0.0000 0.0000
# 2 29.4070 120.3577 55.9888 0.0000 0.0000 0.0000
# 3 28.4784 55.9888 137.3401 0.0000 0.0000 0.0000
# 4 0.0000 0.0000 0.0000 44.9250 0.0000 0.0000
# 5 0.0000 0.0000 0.0000 0.0000 16.3479 0.0000
# 6 0.0000 0.0000 0.0000 0.0000 0.0000 1.3624
#
#
#
# Elastic Compliance Matrix: (Units=1/GPa)
#
#
# Indices 1 2 3 4 5 6 
#
# 1 0.014025 -0.002559 -0.001865 0.000000 0.000000 0.000000
# 2 -0.002559 0.010720 -0.003839 0.000000 0.000000 0.000000
# 3 -0.001865 -0.003839 0.009233 0.000000 0.000000 0.000000
# 4 0.000000 0.000000 0.000000 0.022259 0.000000 0.000000
# 5 0.000000 0.000000 0.000000 0.000000 0.061170 0.000000
# 6 0.000000 0.000000 0.000000 0.000000 0.000000 0.733984
#
#
# Mechanical properties :
#
#
# Convention : Reuss Voigt Hill
#
# Bulk Modulus (GPa) = 57.30404 62.87796 60.09100
# Shear Modulus (GPa) = 5.72256 27.47903 16.60079
#
# Velocity S-wave (km/s) = 1.70011 3.72548 2.89565
# Velocity P-wave (km/s) = 5.72688 7.08973 6.44443
#
# Compressibility (1/GPa) = 0.01745078
#
# Stress axis : x y z
#
# Youngs Moduli (GPa) = 71.30278 93.28435 108.30603
#
# Poissons Ratio (x) = 0.23873 0.20197
# Poissons Ratio (y) = 0.18247 0.41584
# Poissons Ratio (z) = 0.13297 0.35816
#
# Static dielectric constant tensor:
#      x y z
#    x 3.032450 0.000000 0.000000 
#    y 0.000000 3.935940 0.000000 
#    z 0.000000 0.000000 3.964370 
# 
# 
# High freq. dielectric constant tensor:
#      x y z
#    x 1.707660 0.000000 0.000000 
#    y 0.000000 1.779380 0.000000 
#    z 0.000000 0.000000 1.799670 
# 
# From -- ./inp_files/7926.got.cif
#   From: 2010.03.12/outbox.cif.g09.slc.cpg/sg17_4_cif.got.tgz:7926.got - 2010.04.10 18:46:23.
