data_PCOD8155959
_publ_section_title
;
Structure prediction by ZEFSAII (Michael W. Deem and Ramdas Pophale) SiO2 
 PCOD8155959
Probable space group: P 21 21 2
;
_chemical_formula_sum "Si O2"
_cell_formula_units_Z 20
_cell_length_a 8.532457
_cell_length_b 8.387856
_cell_length_c 12.080475
_cell_angle_alpha 90.000000
_cell_angle_beta 90.000000
_cell_angle_gamma 90.000000
_cell_volume 864.587765
_symmetry_space_group_name_H-M "P 21 21 2"
_symmetry_group_IT_number 18
_symmetry_cell_setting 'orthorhombic'
loop_
_space_group_symop_operation_xyz
x,y,z
-x,-y,z
1/2+x,1/2-y,-z
1/2-x,1/2+y,-z
loop_
_atom_site_type_symbol
_atom_site_label
_atom_site_fract_x
_atom_site_fract_y
_atom_site_fract_z
Si Si1 0.839356 0.087695 0.541765
Si Si2 0.685775 0.486436 0.227984
Si Si3 0.702310 0.308957 0.865296
Si Si4 0.598369 0.844175 0.922739
Si Si5 0.164673 0.565846 0.646485
O O1 0.860391 0.271976 0.576177
O O2 0.757827 0.995883 0.644883
O O3 0.731921 0.071267 0.433683
O O4 0.000000 0.000000 0.510992
O O5 0.500000 0.500000 0.225944
O O6 0.749005 0.629494 0.155307
O O7 0.761682 0.329310 0.170205
O O8 0.519691 0.308202 0.908741
O O9 0.722484 0.410863 0.752784
O O10 0.821301 0.369089 0.958741
O O11 0.500000 0.000000 0.895780
O O12 0.000000 0.500000 0.691386
#
# Coordination Sequence:
#
# PCOD8155959 Si02
#       5
#     4   4   4   4   4
#     4  10  22  40  62  91 126 170 219 269 336 405
#     4   9  19  36  58  84 119 165 214 266 329 394
#     4  10  21  37  59  89 123 167 218 269 334 401
#     4  10  20  36  60  87 124 166 214 275 336 399
#     4  11  23  41  65  93 131 172 223 285 339 405
#
# _framework density 23.132411000000001
#
# number of rings (size 3 to 8) (size 9 to 14) (size 15 to 20)
#    0.000    2.000    0.000    3.000    0.000    5.600 
#    0.000   11.000    0.000    0.000    0.000    0.000 
#    0.000    0.000    0.000    0.000    0.000    0.000 
#
# Total GULP energy -247822.776688 kJ/mol
# GULP energy per Si atom -12391.138834 kJ/mol
# Density = 2.307976 g / cm^3
# Si number density = 23.132411 Si / 1000 Ang^3
#
#
#
# Elastic Constant Matrix: (Units=GPa)
#
#
# Indices 1 2 3 4 5 6 
#
# 1 91.4557 28.4051 42.3709 0.0000 0.0000 0.0000
# 2 28.4051 47.0386 32.1916 0.0000 0.0000 0.0000
# 3 42.3709 32.1916 120.4465 0.0000 0.0000 0.0000
# 4 0.0000 0.0000 0.0000 29.8204 0.0000 0.0000
# 5 0.0000 0.0000 0.0000 0.0000 36.3099 0.0000
# 6 0.0000 0.0000 0.0000 0.0000 0.0000 28.1912
#
#
#
# Elastic Compliance Matrix: (Units=1/GPa)
#
#
# Indices 1 2 3 4 5 6 
#
# 1 0.014501 -0.006444 -0.003379 0.000000 0.000000 0.000000
# 2 -0.006444 0.028882 -0.005452 0.000000 0.000000 0.000000
# 3 -0.003379 -0.005452 0.010948 0.000000 0.000000 0.000000
# 4 0.000000 0.000000 0.000000 0.033534 0.000000 0.000000
# 5 0.000000 0.000000 0.000000 0.000000 0.027541 0.000000
# 6 0.000000 0.000000 0.000000 0.000000 0.000000 0.035472
#
#
# Mechanical properties :
#
#
# Convention : Reuss Voigt Hill
#
# Bulk Modulus (GPa) = 42.05132 51.65289 46.85211
# Shear Modulus (GPa) = 26.40523 29.26251 27.83387
#
# Velocity S-wave (km/s) = 3.38225 3.56054 3.47254
# Velocity P-wave (km/s) = 5.78539 6.26746 6.03124
#
# Compressibility (1/GPa) = 0.02378046
#
# Stress axis : x y z
#
# Youngs Moduli (GPa) = 68.95961 34.62352 91.33859
#
# Poissons Ratio (x) = 0.22313 0.30862
# Poissons Ratio (y) = 0.44441 0.49800
# Poissons Ratio (z) = 0.23301 0.18878
#
# Static dielectric constant tensor:
#      x y z
#    x -3.523160 0.000000 0.000000 
#    y 0.000000 4.048340 0.000000 
#    z 0.000000 0.000000 4.239820 
# 
# 
# High freq. dielectric constant tensor:
#      x y z
#    x 1.919650 0.000000 0.000000 
#    y 0.000000 1.892130 0.000000 
#    z 0.000000 0.000000 1.923840 
# 
# From -- ./inp_files/5395.got.cif
#   From: 2010.03.12/outbox.cif.g09.slc.cpg/sg18_3_cif.got.tgz:5395.got - 2010.04.10 18:53:55.
