data_PCOD8155351
_publ_section_title
;
Structure prediction by ZEFSAII (Michael W. Deem and Ramdas Pophale) SiO2 
 PCOD8155351
Probable space group: P 2 2 2
;
_chemical_formula_sum "Si O2"
_cell_formula_units_Z 17
_cell_length_a 7.356585
_cell_length_b 16.412439
_cell_length_c 6.742156
_cell_angle_alpha 90.000000
_cell_angle_beta 90.000000
_cell_angle_gamma 90.000000
_cell_volume 814.044562
_symmetry_space_group_name_H-M "P 2 2 2"
_symmetry_group_IT_number 16
_symmetry_cell_setting 'orthorhombic'
loop_
_space_group_symop_operation_xyz
x,y,z
-x,-y,z
x,-y,-z
-x,y,-z
loop_
_atom_site_type_symbol
_atom_site_label
_atom_site_fract_x
_atom_site_fract_y
_atom_site_fract_z
Si Si1 0.161509 0.414610 0.614686
Si Si2 0.668243 0.751805 0.132520
Si Si3 0.178549 0.925331 0.877326
Si Si4 0.500000 0.681181 0.500000
Si Si5 0.000000 0.000000 0.500000
Si Si6 0.000000 0.640383 0.000000
O O1 0.181825 0.500000 0.500000
O O2 0.357598 0.373535 0.620862
O O3 0.091108 0.420319 0.840318
O O4 0.000000 0.364867 0.500000
O O5 0.691551 0.848252 0.111159
O O6 0.617089 0.737895 0.359295
O O7 0.500000 0.722333 0.000000
O O8 0.846209 0.699771 0.086038
O O9 0.128382 0.946308 0.647049
O O10 0.000000 0.902047 0.000000
O O11 0.272178 0.000000 0.000000
#
# Coordination Sequence:
#
# PCOD8155351 Si02
#       6
#     4   4   4   2   1   2
#     4  11  25  45  72 101 138 175 226 283 347 413
#     4  12  25  42  69 101 139 183 228 290 348 399
#     4   9  20  39  65  97 135 179 236 283 338 401
#     4  12  25  44  68 107 140 174 234 288 339 422
#     4   8  18  36  64  96 128 180 234 280 332 400
#     4  12  24  47  73 100 134 180 234 278 345 426
#
# _framework density 20.883376999999999
#
# number of rings (size 3 to 8) (size 9 to 14) (size 15 to 20)
#    0.000    1.412    5.882    0.353    0.000    8.000 
#    0.000    0.000    0.000    0.000    0.000    0.000 
#    0.000    0.000    0.000    0.000    0.000    0.000 
#
# Total GULP energy -210629.278340 kJ/mol
# GULP energy per Si atom -12389.957549 kJ/mol
# Density = 2.083585 g / cm^3
# Si number density = 20.883377 Si / 1000 Ang^3
#
#
#
# Elastic Constant Matrix: (Units=GPa)
#
#
# Indices 1 2 3 4 5 6 
#
# 1 111.5980 44.6714 47.4679 0.0000 0.0000 0.0000
# 2 44.6714 120.2593 57.8219 0.0000 0.0000 0.0000
# 3 47.4679 57.8219 162.4299 0.0000 0.0000 0.0000
# 4 0.0000 0.0000 0.0000 7.7026 0.0000 0.0000
# 5 0.0000 0.0000 0.0000 0.0000 38.0069 0.0000
# 6 0.0000 0.0000 0.0000 0.0000 0.0000 30.1193
#
#
#
# Elastic Compliance Matrix: (Units=1/GPa)
#
#
# Indices 1 2 3 4 5 6 
#
# 1 0.011113 -0.003096 -0.002145 0.000000 0.000000 0.000000
# 2 -0.003096 0.010895 -0.002974 0.000000 0.000000 0.000000
# 3 -0.002145 -0.002974 0.007842 0.000000 0.000000 0.000000
# 4 0.000000 0.000000 0.000000 0.129827 0.000000 0.000000
# 5 0.000000 0.000000 0.000000 0.000000 0.026311 0.000000
# 6 0.000000 0.000000 0.000000 0.000000 0.000000 0.033201
#
#
# Mechanical properties :
#
#
# Convention : Reuss Voigt Hill
#
# Bulk Modulus (GPa) = 74.51941 77.13440 75.82690
# Shear Modulus (GPa) = 20.82527 31.45417 26.13972
#
# Velocity S-wave (km/s) = 3.16130 3.88517 3.54178
# Velocity P-wave (km/s) = 7.00615 7.55923 7.28794
#
# Compressibility (1/GPa) = 0.01341932
#
# Stress axis : x y z
#
# Youngs Moduli (GPa) = 89.98727 91.78256 127.51885
#
# Poissons Ratio (x) = 0.28420 0.27356
# Poissons Ratio (y) = 0.27864 0.37919
# Poissons Ratio (z) = 0.19305 0.27293
#
# Static dielectric constant tensor:
#      x y z
#    x 4.180500 0.000000 0.000000 
#    y 0.000000 3.602690 0.000000 
#    z 0.000000 0.000000 3.950630 
# 
# 
# High freq. dielectric constant tensor:
#      x y z
#    x 1.823350 0.000000 0.000000 
#    y 0.000000 1.804470 0.000000 
#    z 0.000000 0.000000 1.830850 
# 
# From -- ./inp_files/780.got.cif
#   From: 2010.03.12/outbox.cif.g09.slc.cpg/sg16_1_cif.got.tgz:780.got - 2010.03.31 00:51:45.
