data_PCOD8155484
_publ_section_title
;
Structure prediction by ZEFSAII (Michael W. Deem and Ramdas Pophale) SiO2 
 PCOD8155484
Probable space group: P 2 2 21
;
_chemical_formula_sum "Si O2"
_cell_formula_units_Z 18
_cell_length_a 5.627430
_cell_length_b 8.948841
_cell_length_c 16.725087
_cell_angle_alpha 90.000000
_cell_angle_beta 90.000000
_cell_angle_gamma 90.000000
_cell_volume 842.258260
_symmetry_space_group_name_H-M "P 2 2 21"
_symmetry_group_IT_number 17
_symmetry_cell_setting 'orthorhombic'
loop_
_space_group_symop_operation_xyz
x,y,z
-x,-y,1/2+z
x,-y,-z
-x,y,1/2-z
loop_
_atom_site_type_symbol
_atom_site_label
_atom_site_fract_x
_atom_site_fract_y
_atom_site_fract_z
Si Si1 0.503723 0.750847 0.581211
Si Si2 0.500000 0.872081 0.750000
Si Si3 0.257147 0.162783 0.716198
Si Si4 0.220272 0.000000 0.000000
Si Si5 0.116516 0.246173 0.549107
Si Si6 0.810383 0.500000 0.500000
O O1 0.497804 0.755147 0.676738
O O2 0.620926 0.908961 0.561260
O O3 0.251008 0.747315 0.536145
O O4 0.651723 0.606359 0.555149
O O5 0.274183 0.983645 0.734406
O O6 0.500000 0.240165 0.750000
O O7 0.286208 0.213566 0.623738
O O8 0.000000 0.219820 0.750000
O O9 0.066033 0.889885 0.053451
O O10 0.974281 0.401249 0.558857
#
# Coordination Sequence:
#
# PCOD8155484 Si02
#       6
#     4   2   4   2   4   2
#     4  11  22  42  66  99 136 179 231 286 346 419
#     4  10  22  38  70 106 136 170 230 302 350 402
#     4  10  23  40  68 110 137 170 224 297 352 404
#     4  10  20  34  70  98 126 174 218 284 342 414
#     4  11  22  42  66  96 135 185 226 282 347 418
#     4  10  26  42  66  90 138 190 236 272 342 422
#
# _framework density 21.371117999999999
#
# number of rings (size 3 to 8) (size 9 to 14) (size 15 to 20)
#    0.667    0.889    0.000    5.333    6.222    1.778 
#    0.000    4.444    0.000    0.000    0.000    0.000 
#    0.000    0.000    0.000    0.000    0.000    0.000 
#
# Total GULP energy -223013.348372 kJ/mol
# GULP energy per Si atom -12389.630465 kJ/mol
# Density = 2.132248 g / cm^3
# Si number density = 21.371118 Si / 1000 Ang^3
#
#
#
# Elastic Constant Matrix: (Units=GPa)
#
#
# Indices 1 2 3 4 5 6 
#
# 1 118.5339 40.9474 38.5644 0.0000 0.0000 0.0000
# 2 40.9474 117.7644 38.7129 0.0000 0.0000 0.0000
# 3 38.5644 38.7129 150.1789 0.0000 0.0000 0.0000
# 4 0.0000 0.0000 0.0000 21.4518 0.0000 0.0000
# 5 0.0000 0.0000 0.0000 0.0000 33.9969 0.0000
# 6 0.0000 0.0000 0.0000 0.0000 0.0000 70.2290
#
#
#
# Elastic Compliance Matrix: (Units=1/GPa)
#
#
# Indices 1 2 3 4 5 6 
#
# 1 0.010029 -0.002885 -0.001832 0.000000 0.000000 0.000000
# 2 -0.002885 0.010108 -0.001865 0.000000 0.000000 0.000000
# 3 -0.001832 -0.001865 0.007610 0.000000 0.000000 0.000000
# 4 0.000000 0.000000 0.000000 0.046616 0.000000 0.000000
# 5 0.000000 0.000000 0.000000 0.000000 0.029414 0.000000
# 6 0.000000 0.000000 0.000000 0.000000 0.000000 0.014239
#
#
# Mechanical properties :
#
#
# Convention : Reuss Voigt Hill
#
# Bulk Modulus (GPa) = 68.56987 69.21406 68.89196
# Shear Modulus (GPa) = 36.75391 43.01904 39.88648
#
# Velocity S-wave (km/s) = 4.15154 4.49146 4.32484
# Velocity P-wave (km/s) = 7.42532 7.70420 7.56604
#
# Compressibility (1/GPa) = 0.01458366
#
# Stress axis : x y z
#
# Youngs Moduli (GPa) = 99.71143 98.93499 131.41045
#
# Poissons Ratio (x) = 0.28543 0.24070
# Poissons Ratio (y) = 0.28767 0.24504
# Poissons Ratio (z) = 0.18263 0.18448
#
# Static dielectric constant tensor:
#      x y z
#    x 3.916250 0.000000 0.000000 
#    y 0.000000 3.796690 0.000000 
#    z 0.000000 0.000000 3.769150 
# 
# 
# High freq. dielectric constant tensor:
#      x y z
#    x 1.844660 0.000000 0.000000 
#    y 0.000000 1.825510 0.000000 
#    z 0.000000 0.000000 1.829490 
# 
# From -- ./inp_files/8908.got.cif
#   From: 2010.03.12/outbox.cif.g09.slc.cpg/sg17_5_cif.got.tgz:8908.got - 2010.04.10 18:46:23.
