data_PCOD8155232
_publ_section_title
;
Structure prediction by ZEFSAII (Michael W. Deem and Ramdas Pophale) SiO2 
 PCOD8155232
Probable space group: P 2 2 2
;
_chemical_formula_sum "Si O2"
_cell_formula_units_Z 24
_cell_length_a 5.224470
_cell_length_b 27.135829
_cell_length_c 8.670173
_cell_angle_alpha 90.000000
_cell_angle_beta 90.000000
_cell_angle_gamma 90.000000
_cell_volume 1229.173240
_symmetry_space_group_name_H-M "P 2 2 2"
_symmetry_group_IT_number 16
_symmetry_cell_setting 'orthorhombic'
loop_
_space_group_symop_operation_xyz
x,y,z
-x,-y,z
x,-y,-z
-x,y,-z
loop_
_atom_site_type_symbol
_atom_site_label
_atom_site_fract_x
_atom_site_fract_y
_atom_site_fract_z
Si Si1 0.000001 0.555665 0.316091
Si Si2 0.999995 0.887759 0.816778
Si Si3 0.499999 0.611640 0.684005
Si Si4 0.500004 0.722777 0.683511
Si Si5 0.500005 0.944545 0.183551
Si Si6 0.000004 0.779441 0.683244
O O1 0.749979 0.583632 0.252784
O O2 0.000000 0.500000 0.252341
O O3 0.000000 0.555490 0.500000
O O4 0.250024 0.583632 0.252784
O O5 0.249258 0.916442 0.755012
O O6 0.750722 0.916439 0.755013
O O7 0.000001 0.833659 0.749549
O O8 0.000000 0.884749 0.000000
O O9 0.500000 0.611957 0.500000
O O10 0.499999 0.667245 0.748705
O O11 0.500000 0.721508 0.500000
O O12 0.750701 0.750826 0.745328
O O13 0.249314 0.750828 0.745327
O O14 0.500000 0.000000 0.249888
O O15 0.500000 0.946050 0.000000
O O16 0.000000 0.782135 0.500000
#
# Coordination Sequence:
#
# PCOD8155232 Si02
#       6
#     4   4   4   4   4   4
#     4   9  15  21  30  46  69  98 133 174 216 253
#     4  10  19  31  49  71  92 115 145 179 217 258
#     4   9  15  23  34  48  69  98 137 178 208 245
#     4   9  17  28  42  59  79 110 150 185 214 251
#     4   9  17  30  49  71  92 115 145 179 212 253
#     4  10  19  31  46  64  88 116 148 183 217 254
#
# _framework density 19.525317999999999
#
# number of rings (size 3 to 8) (size 9 to 14) (size 15 to 20)
#    0.000    2.667    0.000    3.000    0.000    8.000 
#    0.000    0.000    0.000    3.000    0.000    0.000 
#    0.000    0.000    0.000    0.000    0.000   58.333 
#
# Total GULP energy -297601.256000 kJ/mol
# GULP energy per Si atom -12400.052333 kJ/mol
# Density = 1.948088 g / cm^3
# Si number density = 19.525318 Si / 1000 Ang^3
#
#
#
# Elastic Constant Matrix: (Units=GPa)
#
#
# Indices 1 2 3 4 5 6 
#
# 1 233.1682 130.2099 10.2506 0.0000 0.0000 0.0000
# 2 130.2099 232.4534 9.9758 0.0000 0.0000 0.0000
# 3 10.2506 9.9758 4.4278 0.0000 0.0000 0.0000
# 4 0.0000 0.0000 0.0000 -379.5634 0.0000 0.0000
# 5 0.0000 0.0000 0.0000 0.0000 4.4937 0.0000
# 6 0.0000 0.0000 0.0000 0.0000 0.0000 49.6354
#
#
#
# Elastic Compliance Matrix: (Units=1/GPa)
#
#
# Indices 1 2 3 4 5 6 
#
# 1 0.006460 -0.003295 -0.007531 0.000000 0.000000 0.000000
# 2 -0.003295 0.006444 -0.006888 0.000000 0.000000 0.000000
# 3 -0.007531 -0.006888 0.258800 0.000000 0.000000 0.000000
# 4 0.000000 0.000000 0.000000 -0.002635 0.000000 0.000000
# 5 0.000000 0.000000 0.000000 0.000000 0.222532 0.000000
# 6 0.000000 0.000000 0.000000 0.000000 0.000000 0.020147
#
#
# Mechanical properties :
#
#
# Convention : Reuss Voigt Hill
#
# Bulk Modulus (GPa) = 4.23235 85.65799 44.94517
# Shear Modulus (GPa) = 7.98804 -43.77931 -17.89563
#
# Velocity S-wave (km/s) = 2.02485 -4.74031 -3.03072
# Velocity P-wave (km/s) = 2.76387 3.74230 3.28967
#
# Compressibility (1/GPa) = 0.23627514
#
# Stress axis : x y z
#
# Youngs Moduli (GPa) = 154.79507 155.19447 3.86398
#
# Poissons Ratio (x) = 0.51144 0.02910
# Poissons Ratio (y) = 0.51013 0.02662
# Poissons Ratio (z) = 1.16575 1.06898
#
# Static dielectric constant tensor:
#      x y z
#    x 4.016770 0.000000 0.000000 
#    y 0.000000 3.767530 0.000000 
#    z 0.000000 0.000000 2.747220 
# 
# 
# High freq. dielectric constant tensor:
#      x y z
#    x 1.783750 0.000000 0.000000 
#    y 0.000000 1.781810 0.000000 
#    z 0.000000 0.000000 1.675580 
# 
# From -- ./inp_files/1622.got.cif
#   From: 2010.03.12/outbox.cif.g09.slc.cpg/sg16_1_cif.got.tgz:1622.got - 2010.03.31 00:51:45.
