data_PCOD8155473
_publ_section_title
;
Structure prediction by ZEFSAII (Michael W. Deem and Ramdas Pophale) SiO2 
 PCOD8155473
Probable space group: P 2 2 21
;
_chemical_formula_sum "Si O2"
_cell_formula_units_Z 32
_cell_length_a 12.321699
_cell_length_b 15.392794
_cell_length_c 9.873943
_cell_angle_alpha 90.000000
_cell_angle_beta 90.000000
_cell_angle_gamma 90.000000
_cell_volume 1872.745096
_symmetry_space_group_name_H-M "P 2 2 21"
_symmetry_group_IT_number 17
_symmetry_cell_setting 'orthorhombic'
loop_
_space_group_symop_operation_xyz
x,y,z
-x,-y,1/2+z
x,-y,-z
-x,y,1/2-z
loop_
_atom_site_type_symbol
_atom_site_label
_atom_site_fract_x
_atom_site_fract_y
_atom_site_fract_z
Si Si1 0.908138 0.601567 0.475819
Si Si2 0.764516 0.345625 0.291705
Si Si3 0.402698 0.503438 0.846243
Si Si4 0.738387 0.653177 0.261771
Si Si5 0.597696 0.001854 0.349423
Si Si6 0.393181 0.809285 0.842692
Si Si7 0.393512 0.187241 0.843296
Si Si8 0.157211 0.397980 0.498070
O O1 0.888352 0.500000 0.500000
O O2 0.860939 0.658398 0.599139
O O3 0.848975 0.628132 0.337848
O O4 0.034292 0.622963 0.460594
O O5 0.691045 0.426361 0.333831
O O6 0.697582 0.256931 0.292470
O O7 0.818370 0.358254 0.147092
O O8 0.500000 0.532929 0.750000
O O9 0.360207 0.409238 0.803535
O O10 0.445499 0.500000 0.000000
O O11 0.702524 0.750344 0.295814
O O12 0.760987 0.647102 0.102516
O O13 0.500000 0.003670 0.250000
O O14 0.659536 0.910015 0.326632
O O15 0.548429 0.000000 0.500000
O O16 0.660775 0.093486 0.327422
O O17 0.500000 0.798157 0.750000
O O18 0.424785 0.792472 0.000091
O O19 0.500000 0.199269 0.750000
O O20 0.180337 0.500000 0.500000
#
# Coordination Sequence:
#
# PCOD8155473 Si02
#       8
#     4   4   4   4   4   4   4   4
#     4  11  20  40  58  75 102 137 181 230 273 303
#     4  12  21  37  53  79 108 138 176 217 265 318
#     4  12  24  36  51  73 108 144 173 207 255 316
#     4  12  21  37  53  79 108 138 176 217 265 318
#     4   8  16  32  52  78 105 137 176 214 255 303
#     4  10  20  34  55  80 111 143 175 214 258 315
#     4  10  20  34  55  80 111 143 175 214 258 315
#     4  11  24  36  58  79 100 139 183 232 267 307
#
# _framework density 17.087216999999999
#
# number of rings (size 3 to 8) (size 9 to 14) (size 15 to 20)
#    0.000    1.250    5.000    1.500    3.500    2.000 
#    0.000    0.000    0.000    0.000    0.000    5.250 
#    0.000    0.000    0.000    0.000    0.000    0.000 
#
# Total GULP energy -396687.334492 kJ/mol
# GULP energy per Si atom -12396.479203 kJ/mol
# Density = 1.704833 g / cm^3
# Si number density = 17.087217 Si / 1000 Ang^3
#
#
#
# Elastic Constant Matrix: (Units=GPa)
#
#
# Indices 1 2 3 4 5 6 
#
# 1 56.5084 31.2120 21.0000 0.0000 0.0000 0.0000
# 2 31.2120 104.8727 6.0507 0.0000 0.0000 0.0000
# 3 21.0000 6.0507 73.3708 0.0000 0.0000 0.0000
# 4 0.0000 0.0000 0.0000 20.6083 0.0000 0.0000
# 5 0.0000 0.0000 0.0000 0.0000 24.6031 0.0000
# 6 0.0000 0.0000 0.0000 0.0000 0.0000 14.6466
#
#
#
# Elastic Compliance Matrix: (Units=1/GPa)
#
#
# Indices 1 2 3 4 5 6 
#
# 1 0.023713 -0.006698 -0.006235 0.000000 0.000000 0.000000
# 2 -0.006698 0.011473 0.000971 0.000000 0.000000 0.000000
# 3 -0.006235 0.000971 0.015334 0.000000 0.000000 0.000000
# 4 0.000000 0.000000 0.000000 0.048524 0.000000 0.000000
# 5 0.000000 0.000000 0.000000 0.000000 0.040645 0.000000
# 6 0.000000 0.000000 0.000000 0.000000 0.000000 0.068275
#
#
# Mechanical properties :
#
#
# Convention : Reuss Voigt Hill
#
# Bulk Modulus (GPa) = 37.59907 39.03080 38.31493
# Shear Modulus (GPa) = 20.76824 23.73756 22.25290
#
# Velocity S-wave (km/s) = 3.49008 3.73124 3.61267
# Velocity P-wave (km/s) = 6.18812 6.43852 6.31456
#
# Compressibility (1/GPa) = 0.02659641
#
# Stress axis : x y z
#
# Youngs Moduli (GPa) = 42.17123 87.16341 65.21534
#
# Poissons Ratio (x) = 0.58379 0.40660
# Poissons Ratio (y) = 0.28245 -0.06331
# Poissons Ratio (z) = 0.26292 -0.08462
#
# Static dielectric constant tensor:
#      x y z
#    x 2.993120 0.000000 0.000000 
#    y 0.000000 3.742200 0.000000 
#    z 0.000000 0.000000 3.469800 
# 
# 
# High freq. dielectric constant tensor:
#      x y z
#    x 1.629360 0.000000 0.000000 
#    y 0.000000 1.657210 0.000000 
#    z 0.000000 0.000000 1.682870 
# 
# From -- ./inp_files/4952.got.cif
#   From: 2010.03.12/outbox.cif.g09.slc.cpg/sg17_3_cif.got.tgz:4952.got - 2010.04.10 18:46:23.
