data_PCOD8155309
_publ_section_title
;
Structure prediction by ZEFSAII (Michael W. Deem and Ramdas Pophale) SiO2 
 PCOD8155309
Probable space group: P 2 2 2
;
_chemical_formula_sum "Si O2"
_cell_formula_units_Z 19
_cell_length_a 5.426060
_cell_length_b 19.261456
_cell_length_c 8.389085
_cell_angle_alpha 90.000000
_cell_angle_beta 90.000000
_cell_angle_gamma 90.000000
_cell_volume 876.775286
_symmetry_space_group_name_H-M "P 2 2 2"
_symmetry_group_IT_number 16
_symmetry_cell_setting 'orthorhombic'
loop_
_space_group_symop_operation_xyz
x,y,z
-x,-y,z
x,-y,-z
-x,y,-z
loop_
_atom_site_type_symbol
_atom_site_label
_atom_site_fract_x
_atom_site_fract_y
_atom_site_fract_z
Si Si1 0.105315 0.304225 0.323127
Si Si2 0.164861 0.433868 0.744951
Si Si3 0.500000 0.500000 0.000000
Si Si4 0.994344 0.848524 0.309803
Si Si5 0.500000 0.368908 0.500000
Si Si6 0.497966 0.921135 0.310324
O O1 0.395283 0.319502 0.356536
O O2 0.000000 0.307702 0.500000
O O3 0.996481 0.365458 0.212560
O O4 0.041117 0.230059 0.245340
O O5 0.304849 0.420341 0.579590
O O6 0.000000 0.500000 0.711809
O O7 0.339238 0.448203 0.894119
O O8 0.251137 0.881849 0.245199
O O9 0.000000 0.850313 0.500000
O O10 0.752668 0.888500 0.244599
O O11 0.500000 0.917901 0.500000
O O12 0.500000 0.000000 0.248890
#
# Coordination Sequence:
#
# PCOD8155309 Si02
#       6
#     4   4   1   4   2   4
#     4   9  20  32  51  76 105 138 189 236 289 329
#     4  11  24  40  57  83 108 143 194 232 296 349
#     4  12  26  42  60  74 112 150 184 236 296 348
#     4   9  17  26  43  64  99 138 186 234 276 326
#     4  10  22  37  60  82 111 144 188 250 289 344
#     4   9  16  25  39  62  96 140 186 228 273 328
#
# _framework density 21.670318999999999
#
# number of rings (size 3 to 8) (size 9 to 14) (size 15 to 20)
#    0.000    2.316    0.000    2.211   10.316   12.632 
#    0.000    0.000    0.000    0.000    0.000    0.000 
#    0.000    0.000    0.000    0.947   10.526    4.211 
#
# Total GULP energy -235434.458683 kJ/mol
# GULP energy per Si atom -12391.287299 kJ/mol
# Density = 2.162100 g / cm^3
# Si number density = 21.670319 Si / 1000 Ang^3
#
#
#
# Elastic Constant Matrix: (Units=GPa)
#
#
# Indices 1 2 3 4 5 6 
#
# 1 185.2559 108.8057 19.5933 0.0000 0.0000 0.0000
# 2 108.8057 227.5584 24.8499 0.0000 0.0000 0.0000
# 3 19.5933 24.8499 22.8046 0.0000 0.0000 0.0000
# 4 0.0000 0.0000 0.0000 -6.7269 0.0000 0.0000
# 5 0.0000 0.0000 0.0000 0.0000 14.7981 0.0000
# 6 0.0000 0.0000 0.0000 0.0000 0.0000 15.5207
#
#
#
# Elastic Compliance Matrix: (Units=1/GPa)
#
#
# Indices 1 2 3 4 5 6 
#
# 1 0.007676 -0.003349 -0.002946 0.000000 0.000000 0.000000
# 2 -0.003349 0.006449 -0.004150 0.000000 0.000000 0.000000
# 3 -0.002946 -0.004150 0.050905 0.000000 0.000000 0.000000
# 4 0.000000 0.000000 0.000000 -0.148656 0.000000 0.000000
# 5 0.000000 0.000000 0.000000 0.000000 0.067576 0.000000
# 6 0.000000 0.000000 0.000000 0.000000 0.000000 0.064430
#
#
# Mechanical properties :
#
#
# Convention : Reuss Voigt Hill
#
# Bulk Modulus (GPa) = 22.65546 82.45740 52.55643
# Shear Modulus (GPa) = 59.53558 23.54305 41.53932
#
# Velocity S-wave (km/s) = 5.24719 3.29966 4.38296
# Velocity P-wave (km/s) = 6.86935 7.25607 7.06535
#
# Compressibility (1/GPa) = 0.04413947
#
# Stress axis : x y z
#
# Youngs Moduli (GPa) = 130.27130 155.06763 19.64460
#
# Poissons Ratio (x) = 0.51926 0.05788
# Poissons Ratio (y) = 0.43623 0.08153
# Poissons Ratio (z) = 0.38383 0.64355
#
# Static dielectric constant tensor:
#      x y z
#    x 7.359300 0.000000 0.000000 
#    y 0.000000 4.417070 0.000000 
#    z 0.000000 0.000000 3.180380 
# 
# 
# High freq. dielectric constant tensor:
#      x y z
#    x 1.873800 0.000000 0.000000 
#    y 0.000000 1.862520 0.000000 
#    z 0.000000 0.000000 1.769270 
# 
# From -- ./inp_files/3158.got.cif
#   From: 2010.03.12/outbox.cif.g09.slc.cpg/sg16_2_cif.got.tgz:3158.got - 2010.03.31 00:51:45.
