data_PCOD8155093
_publ_section_title
;
Structure prediction by ZEFSAII (Michael W. Deem and Ramdas Pophale) SiO2 
 PCOD8155093
Probable space group: C 2/C
;
_chemical_formula_sum "Si O2"
_cell_formula_units_Z 32
_cell_length_a 9.206938
_cell_length_b 17.668064
_cell_length_c 13.012255
_cell_angle_alpha 90.000000
_cell_angle_beta 139.753686
_cell_angle_gamma 90.000000
_cell_volume 1367.538626
_symmetry_space_group_name_H-M "C 2/C"
_symmetry_group_IT_number 15
_symmetry_cell_setting 'monoclinic'
loop_
_space_group_symop_operation_xyz
x,y,z
-x,y,1/2-z
-x,-y,-z
x,-y,1/2+z
1/2+x,1/2+y,z
1/2-x,1/2+y,1/2-z
1/2-x,1/2-y,-z
1/2+x,1/2-y,1/2+z
loop_
_atom_site_type_symbol
_atom_site_label
_atom_site_fract_x
_atom_site_fract_y
_atom_site_fract_z
Si Si1 0.000000 0.559863 0.750000
Si Si2 0.163695 0.185524 0.625332
Si Si3 0.646632 0.342566 0.737585
Si Si4 0.926948 0.445339 0.546978
Si Si5 0.000000 0.147321 0.750000
O O1 0.831256 0.613752 0.722276
O O2 0.138185 0.501753 0.895566
O O3 0.287068 0.264146 0.670257
O O4 0.988028 0.171098 0.439936
O O5 0.055111 0.197511 0.679664
O O6 0.500000 0.383429 0.750000
O O7 0.865142 0.388848 0.819845
O O8 0.000000 0.500000 0.500000
O O9 0.707157 0.402429 0.395804
#
# Coordination Sequence:
#
# PCOD8155093 Si02
#       5
#     4   8   8   8   4
#     4  12  26  47  75 114 148 200 254 308 380 443
#     4  12  27  47  79 112 153 196 255 314 374 455
#     4  12  27  48  79 111 151 202 254 311 380 449
#     4  12  27  45  74 109 151 196 246 310 375 446
#     4  12  28  49  73 114 154 196 250 312 386 445
#
# _framework density 23.399705000000001
#
# number of rings (size 3 to 8) (size 9 to 14) (size 15 to 20)
#    0.000    0.000    3.750    5.250    5.250    7.000 
#    0.000    0.000    0.000    0.000    0.000    0.000 
#    0.000    0.000    0.000    0.000    0.000    0.000 
#
# Total GULP energy -198338.295549 kJ/mol
# GULP energy per Si atom -12396.143472 kJ/mol
# Density = 2.334645 g / cm^3
# Si number density = 23.399705 Si / 1000 Ang^3
#
#
#
# Elastic Constant Matrix: (Units=GPa)
#
#
# Indices 1 2 3 4 5 6 
#
# 1 110.0922 15.7218 23.1384 -0.0004 -7.0012 -0.0002
# 2 15.7218 98.1516 27.3718 -0.0001 11.0270 0.0000
# 3 23.1384 27.3718 130.2345 -0.0006 2.7933 -0.0004
# 4 -0.0004 -0.0001 -0.0006 166.9613 -0.0004 47.8268
# 5 -7.0012 11.0270 2.7933 -0.0004 49.0519 -0.0002
# 6 -0.0002 0.0000 -0.0004 47.8268 -0.0002 62.0001
#
#
#
# Elastic Compliance Matrix: (Units=1/GPa)
#
#
# Indices 1 2 3 4 5 6 
#
# 1 0.009698 -0.001340 -0.001479 0.000000 0.001770 0.000000
# 2 -0.001340 0.011275 -0.002076 0.000000 -0.002608 0.000000
# 3 -0.001479 -0.002076 0.008382 0.000000 -0.000222 0.000000
# 4 0.000000 0.000000 0.000000 0.007688 0.000000 -0.005931
# 5 0.001770 -0.002608 -0.000222 0.000000 0.021238 0.000000
# 6 0.000000 0.000000 0.000000 -0.005931 0.000000 0.020704
#
#
# Mechanical properties :
#
#
# Convention : Reuss Voigt Hill
#
# Bulk Modulus (GPa) = 51.11030 52.32694 51.71862
# Shear Modulus (GPa) = 52.46766 73.75240 63.11003
#
# Velocity S-wave (km/s) = 4.74036 5.62023 5.19894
# Velocity P-wave (km/s) = 7.20077 8.03285 7.62816
#
# Compressibility (1/GPa) = 0.01956553
#
# Stress axis : x y z
#
# Youngs Moduli (GPa) = 103.11318 88.69401 119.29878
#
# Poissons Ratio (x) = 0.11882 0.17649
# Poissons Ratio (y) = 0.13814 0.24763
# Poissons Ratio (z) = 0.15255 0.18410
#
# Static dielectric constant tensor:
#      x y z
#    x 4.565280 0.000000 -0.008090 
#    y 0.000000 2.589200 -0.000010 
#    z -0.008090 -0.000010 4.273170 
# 
# 
# High freq. dielectric constant tensor:
#      x y z
#    x 1.938170 0.000000 -0.007260 
#    y 0.000000 1.930670 0.000000 
#    z -0.007260 0.000000 1.942080 
# 
# From -- ./inp_files/78052.got.cif
#   From: 2010.06.25/outbox.cif.g09.slc.cpg/sg15_40_cif.got.tgz:78052.got - 2010.06.28 07:06:18.
