data_PCOD8155995
_publ_section_title
;
Structure prediction by ZEFSAII (Michael W. Deem and Ramdas Pophale) SiO2 
 PCOD8155995
Probable space group: P 21 21 2
;
_chemical_formula_sum "Si O2"
_cell_formula_units_Z 32
_cell_length_a 10.933372
_cell_length_b 15.347913
_cell_length_c 8.741463
_cell_angle_alpha 90.000000
_cell_angle_beta 90.000000
_cell_angle_gamma 90.000000
_cell_volume 1466.856323
_symmetry_space_group_name_H-M "P 21 21 2"
_symmetry_group_IT_number 18
_symmetry_cell_setting 'orthorhombic'
loop_
_space_group_symop_operation_xyz
x,y,z
-x,-y,z
1/2+x,1/2-y,-z
1/2-x,1/2+y,-z
loop_
_atom_site_type_symbol
_atom_site_label
_atom_site_fract_x
_atom_site_fract_y
_atom_site_fract_z
Si Si1 0.869921 0.547951 0.614494
Si Si2 0.951135 0.118919 0.653244
Si Si3 0.310470 0.547151 0.416713
Si Si4 0.942166 0.742424 0.170976
Si Si5 0.540087 0.598706 0.008245
Si Si6 0.301834 0.847320 0.083462
Si Si7 0.700604 0.805372 0.729414
Si Si8 0.775759 0.709485 0.440055
O O1 0.766538 0.475519 0.570750
O O2 0.850385 0.589993 0.781489
O O3 0.854437 0.624337 0.488697
O O4 0.000000 0.500000 0.605088
O O5 0.869808 0.196234 0.586949
O O6 0.066891 0.103370 0.540681
O O7 0.859245 0.038091 0.667160
O O8 0.999993 0.134559 0.825186
O O9 0.230398 0.591786 0.279664
O O10 0.829299 0.751262 0.286782
O O11 0.971874 0.838964 0.111752
O O12 0.055779 0.705255 0.266688
O O13 0.908886 0.671779 0.038848
O O14 0.500000 0.500000 0.976687
O O15 0.686674 0.604846 0.992331
O O16 0.259967 0.750550 0.135204
O O17 0.772187 0.778292 0.574980
#
# Coordination Sequence:
#
# PCOD8155995 Si02
#       8
#     4   4   4   4   4   4   4   4
#     4  10  22  44  63  96 134 175 223 281 332 406
#     4  10  20  39  65  92 128 174 218 280 326 399
#     4  10  20  38  66  93 126 170 232 263 334 390
#     4  11  23  43  67  98 134 180 217 282 345 401
#     4  11  22  42  65  99 134 173 226 272 337 413
#     4  10  23  44  62  95 142 170 220 280 342 406
#     4  10  23  40  65  99 128 174 227 273 329 409
#     4  10  22  41  67  92 133 172 223 283 335 392
#
# _framework density 21.815362
#
# number of rings (size 3 to 8) (size 9 to 14) (size 15 to 20)
#    0.000    1.750    2.500    1.500    1.750    1.000 
#   13.500    0.625    0.000    0.000    0.000    0.000 
#    0.000    0.000    0.000    0.000    0.000    0.000 
#
# Total GULP energy -396556.194074 kJ/mol
# GULP energy per Si atom -12392.381065 kJ/mol
# Density = 2.176571 g / cm^3
# Si number density = 21.815362 Si / 1000 Ang^3
#
#
#
# Elastic Constant Matrix: (Units=GPa)
#
#
# Indices 1 2 3 4 5 6 
#
# 1 112.9492 41.3897 38.1697 0.0000 0.0000 0.0000
# 2 41.3897 72.5956 24.0318 0.0000 0.0000 0.0000
# 3 38.1697 24.0318 89.1123 0.0000 0.0000 0.0000
# 4 0.0000 0.0000 0.0000 26.6074 0.0000 0.0000
# 5 0.0000 0.0000 0.0000 0.0000 31.5865 0.0000
# 6 0.0000 0.0000 0.0000 0.0000 0.0000 37.7189
#
#
#
# Elastic Compliance Matrix: (Units=1/GPa)
#
#
# Indices 1 2 3 4 5 6 
#
# 1 0.012199 -0.005738 -0.003678 0.000000 0.000000 0.000000
# 2 -0.005738 0.017824 -0.002349 0.000000 0.000000 0.000000
# 3 -0.003678 -0.002349 0.013431 0.000000 0.000000 0.000000
# 4 0.000000 0.000000 0.000000 0.037584 0.000000 0.000000
# 5 0.000000 0.000000 0.000000 0.000000 0.031659 0.000000
# 6 0.000000 0.000000 0.000000 0.000000 0.000000 0.026512
#
#
# Mechanical properties :
#
#
# Convention : Reuss Voigt Hill
#
# Bulk Modulus (GPa) = 50.19021 53.53774 51.86397
# Shear Modulus (GPa) = 29.51964 30.58693 30.05329
#
# Velocity S-wave (km/s) = 3.68252 3.74850 3.71566
# Velocity P-wave (km/s) = 6.41390 6.58252 6.49876
#
# Compressibility (1/GPa) = 0.01992420
#
# Stress axis : x y z
#
# Youngs Moduli (GPa) = 81.97431 56.10463 74.45644
#
# Poissons Ratio (x) = 0.32191 0.27384
# Poissons Ratio (y) = 0.47034 0.17491
# Poissons Ratio (z) = 0.30149 0.13180
#
# Static dielectric constant tensor:
#      x y z
#    x 4.097260 0.000000 0.000000 
#    y 0.000000 4.053030 0.000000 
#    z 0.000000 0.000000 3.819020 
# 
# 
# High freq. dielectric constant tensor:
#      x y z
#    x 1.868710 0.000000 0.000000 
#    y 0.000000 1.855420 0.000000 
#    z 0.000000 0.000000 1.844460 
# 
# From -- ./inp_files/3940.got.cif
#   From: 2010.03.12/outbox.cif.g09.slc.cpg/sg18_2_cif.got.tgz:3940.got - 2010.04.10 18:53:55.
