data_PCOD8155003
_publ_section_title
;
Structure prediction by ZEFSAII (Michael W. Deem and Ramdas Pophale) SiO2 
 PCOD8155003
Probable space group: C 2/C
;
_chemical_formula_sum "Si O2"
_cell_formula_units_Z 32
_cell_length_a 11.353952
_cell_length_b 8.469407
_cell_length_c 14.716599
_cell_angle_alpha 90.000000
_cell_angle_beta 95.031270
_cell_angle_gamma 90.000000
_cell_volume 1409.713757
_symmetry_space_group_name_H-M "C 2/C"
_symmetry_group_IT_number 15
_symmetry_cell_setting 'monoclinic'
loop_
_space_group_symop_operation_xyz
x,y,z
-x,y,1/2-z
-x,-y,-z
x,-y,1/2+z
1/2+x,1/2+y,z
1/2-x,1/2+y,1/2-z
1/2-x,1/2-y,-z
1/2+x,1/2-y,1/2+z
loop_
_atom_site_type_symbol
_atom_site_label
_atom_site_fract_x
_atom_site_fract_y
_atom_site_fract_z
Si Si1 0.131257 0.437538 0.004808
Si Si2 0.023948 0.869559 0.427058
Si Si3 0.264833 0.634436 0.861878
Si Si4 0.207471 0.021445 0.323825
O O1 0.119309 0.256839 0.970821
O O2 0.211063 0.543890 0.943918
O O3 0.189339 0.445594 0.107658
O O4 0.000000 0.500000 0.000000
O O5 0.896763 0.799280 0.391347
O O6 0.081580 0.946702 0.341673
O O7 0.000000 0.000000 0.500000
O O8 0.191035 0.790840 0.834709
O O9 0.261780 0.513563 0.778181
#
# Coordination Sequence:
#
# PCOD8155003 Si02
#       4
#     8   8   8   8
#     4  12  25  48  75 100 144 189 232 291 353 417
#     4  12  25  46  75 101 140 186 237 290 355 419
#     4  12  27  48  70 106 145 182 239 296 349 425
#     4  12  26  47  73 105 143 186 236 290 357 419
#
# _framework density 22.699643999999999
#
# number of rings (size 3 to 8) (size 9 to 14) (size 15 to 20)
#    0.000    0.000    5.000    5.250    3.500    1.000 
#    4.500    0.000    0.000    0.000    0.000    0.000 
#    0.000    0.000    0.000    0.000    0.000    0.000 
#
# Total GULP energy -198487.160251 kJ/mol
# GULP energy per Si atom -12405.447516 kJ/mol
# Density = 2.264798 g / cm^3
# Si number density = 22.699644 Si / 1000 Ang^3
#
#
#
# Elastic Constant Matrix: (Units=GPa)
#
#
# Indices 1 2 3 4 5 6 
#
# 1 115.3308 5.5047 19.8663 0.0000 -7.7077 0.0000
# 2 5.5047 110.6250 -4.7045 0.0000 2.6705 0.0000
# 3 19.8663 -4.7045 89.7414 0.0000 6.4939 0.0000
# 4 0.0000 0.0000 0.0000 36.6744 0.0000 -3.6528
# 5 -7.7077 2.6705 6.4939 0.0000 29.0380 0.0000
# 6 0.0000 0.0000 0.0000 -3.6528 0.0000 37.4442
#
#
#
# Elastic Compliance Matrix: (Units=1/GPa)
#
#
# Indices 1 2 3 4 5 6 
#
# 1 0.009303 -0.000635 -0.002313 0.000000 0.003045 0.000000
# 2 -0.000635 0.009129 0.000703 0.000000 -0.001165 0.000000
# 3 -0.002313 0.000703 0.011934 0.000000 -0.003348 0.000000
# 4 0.000000 0.000000 0.000000 0.027534 0.000000 0.002686
# 5 0.003045 -0.001165 -0.003348 0.000000 0.036102 0.000000
# 6 0.000000 0.000000 0.000000 0.002686 0.000000 0.026968
#
#
# Mechanical properties :
#
#
# Convention : Reuss Voigt Hill
#
# Bulk Modulus (GPa) = 38.64342 39.67002 39.15672
# Shear Modulus (GPa) = 37.28959 40.30004 38.79481
#
# Velocity S-wave (km/s) = 4.05747 4.21807 4.13855
# Velocity P-wave (km/s) = 6.24592 6.42159 6.33436
#
# Compressibility (1/GPa) = 0.02587763
#
# Stress axis : x y z
#
# Youngs Moduli (GPa) = 107.49297 109.53887 83.79222
#
# Poissons Ratio (x) = 0.06953 0.19381
# Poissons Ratio (y) = 0.06823 -0.05894
# Poissons Ratio (z) = 0.24863 -0.07705
#
# Static dielectric constant tensor:
#      x y z
#    x 4.603710 0.000000 0.041310 
#    y 0.000000 4.343690 0.000000 
#    z 0.041310 0.000000 4.041680 
# 
# 
# High freq. dielectric constant tensor:
#      x y z
#    x 1.910050 0.000000 -0.003310 
#    y 0.000000 1.909100 0.000000 
#    z -0.003310 0.000000 1.896970 
# 
# From -- ./inp_files/140521.got.cif
#   From: 2010.06.25/outbox.cif.g09.slc.cpg/sg15_71_cif.got.tgz:140521.got - 2010.06.28 07:06:18.
