data_PCOD8155839
_publ_section_title
;
Structure prediction by ZEFSAII (Michael W. Deem and Ramdas Pophale) SiO2 
 PCOD8155839
Probable space group: P 21 21 2
;
_chemical_formula_sum "Si O2"
_cell_formula_units_Z 24
_cell_length_a 5.097088
_cell_length_b 12.626089
_cell_length_c 21.227604
_cell_angle_alpha 90.000000
_cell_angle_beta 90.000000
_cell_angle_gamma 90.000000
_cell_volume 1366.129770
_symmetry_space_group_name_H-M "P 21 21 2"
_symmetry_group_IT_number 18
_symmetry_cell_setting 'orthorhombic'
loop_
_space_group_symop_operation_xyz
x,y,z
-x,-y,z
1/2+x,1/2-y,-z
1/2-x,1/2+y,-z
loop_
_atom_site_type_symbol
_atom_site_label
_atom_site_fract_x
_atom_site_fract_y
_atom_site_fract_z
Si Si1 0.521448 0.244977 0.417393
Si Si2 0.522536 0.374239 0.541891
Si Si3 0.978183 0.878349 0.706866
Si Si4 0.940590 0.115746 0.990138
Si Si5 0.477965 0.878734 0.788188
Si Si6 0.060329 0.690888 0.076571
O O1 0.508363 0.336759 0.469709
O O2 0.296670 0.158302 0.427345
O O3 0.478024 0.301075 0.351178
O O4 0.794541 0.182280 0.418324
O O5 0.500000 0.500000 0.544341
O O6 0.194237 0.853906 0.759694
O O7 0.693812 0.854166 0.735408
O O8 0.000000 0.000000 0.683962
O O9 0.655774 0.118496 0.958025
O O10 0.151249 0.145956 0.936707
O O11 0.964919 0.190150 0.050886
O O12 0.000000 0.000000 0.016517
O O13 0.516569 0.804660 0.848749
O O14 0.500000 0.000000 0.811024
#
# Coordination Sequence:
#
# PCOD8155839 Si02
#       6
#     4   4   4   4   4   4
#     4  10  20  34  53  77 103 132 165 205 251 294
#     4  10  20  34  54  77 102 132 166 207 250 294
#     4  10  20  33  51  75 102 131 162 201 248 296
#     4  10  19  32  51  73 100 130 161 203 248 292
#     4  10  19  31  49  72 101 133 162 200 246 293
#     4  10  20  32  50  76 100 128 164 202 247 295
#
# _framework density 17.567875999999998
#
# number of rings (size 3 to 8) (size 9 to 14) (size 15 to 20)
#    0.000    2.000    0.000    4.500    0.000    1.333 
#    0.000    5.000    0.000    6.000    0.000    0.000 
#    0.000    0.000    0.000    0.000    0.000    0.000 
#
# Total GULP energy -297700.193570 kJ/mol
# GULP energy per Si atom -12404.174732 kJ/mol
# Density = 1.752789 g / cm^3
# Si number density = 17.567876 Si / 1000 Ang^3
#
#
#
# Elastic Constant Matrix: (Units=GPa)
#
#
# Indices 1 2 3 4 5 6 
#
# 1 67.3541 4.4465 1.8981 0.0000 0.0000 0.0000
# 2 4.4465 89.3843 36.9789 0.0000 0.0000 0.0000
# 3 1.8981 36.9789 82.1624 0.0000 0.0000 0.0000
# 4 0.0000 0.0000 0.0000 17.9834 0.0000 0.0000
# 5 0.0000 0.0000 0.0000 0.0000 11.6571 0.0000
# 6 0.0000 0.0000 0.0000 0.0000 0.0000 17.6608
#
#
#
# Elastic Compliance Matrix: (Units=1/GPa)
#
#
# Indices 1 2 3 4 5 6 
#
# 1 0.014896 -0.000736 -0.000013 0.000000 0.000000 0.000000
# 2 -0.000736 0.013784 -0.006187 0.000000 0.000000 0.000000
# 3 -0.000013 -0.006187 0.014956 0.000000 0.000000 0.000000
# 4 0.000000 0.000000 0.000000 0.055607 0.000000 0.000000
# 5 0.000000 0.000000 0.000000 0.000000 0.085784 0.000000
# 6 0.000000 0.000000 0.000000 0.000000 0.000000 0.056623
#
#
# Mechanical properties :
#
#
# Convention : Reuss Voigt Hill
#
# Bulk Modulus (GPa) = 33.59687 36.17198 34.88442
# Shear Modulus (GPa) = 18.83657 22.49876 20.66767
#
# Velocity S-wave (km/s) = 3.27802 3.58254 3.43366
# Velocity P-wave (km/s) = 5.78730 6.14388 5.96825
#
# Compressibility (1/GPa) = 0.02976468
#
# Stress axis : x y z
#
# Youngs Moduli (GPa) = 67.13289 72.54944 66.86390
#
# Poissons Ratio (x) = 0.05337 0.00087
# Poissons Ratio (y) = 0.04938 0.41366
# Poissons Ratio (z) = 0.00088 0.44884
#
# Static dielectric constant tensor:
#      x y z
#    x 3.537790 0.000000 0.000000 
#    y 0.000000 3.152630 0.000000 
#    z 0.000000 0.000000 3.036010 
# 
# 
# High freq. dielectric constant tensor:
#      x y z
#    x 1.704260 0.000000 0.000000 
#    y 0.000000 1.665210 0.000000 
#    z 0.000000 0.000000 1.666280 
# 
# From -- ./inp_files/7145.got.cif
#   From: 2010.03.12/outbox.cif.g09.slc.cpg/sg18_4_cif.got.tgz:7145.got - 2010.04.10 18:53:55.
