data_PCOD8155799
_publ_section_title
;
Structure prediction by ZEFSAII (Michael W. Deem and Ramdas Pophale) SiO2 
 PCOD8155799
Probable space group: P 21 21 2
;
_chemical_formula_sum "Si O2"
_cell_formula_units_Z 24
_cell_length_a 27.182847
_cell_length_b 5.322449
_cell_length_c 7.720796
_cell_angle_alpha 90.000000
_cell_angle_beta 90.000000
_cell_angle_gamma 90.000000
_cell_volume 1117.039491
_symmetry_space_group_name_H-M "P 21 21 2"
_symmetry_group_IT_number 18
_symmetry_cell_setting 'orthorhombic'
loop_
_space_group_symop_operation_xyz
x,y,z
-x,-y,z
1/2+x,1/2-y,-z
1/2-x,1/2+y,-z
loop_
_atom_site_type_symbol
_atom_site_label
_atom_site_fract_x
_atom_site_fract_y
_atom_site_fract_z
Si Si1 0.692613 0.977602 0.818350
Si Si2 0.807385 0.977602 0.818364
Si Si3 0.848252 0.477663 0.799792
Si Si4 0.055118 0.483672 0.609408
Si Si5 0.944882 0.016328 0.390602
Si Si6 0.151748 0.022336 0.200224
O O1 0.749998 0.990852 0.861151
O O2 0.678695 0.722398 0.715380
O O3 0.675215 0.225345 0.713218
O O4 0.661884 0.966892 0.996156
O O5 0.821304 0.722395 0.715399
O O6 0.824784 0.225345 0.713237
O O7 0.838111 0.966892 0.996175
O O8 0.906545 0.488350 0.766494
O O9 0.063656 0.711513 0.475978
O O10 0.000000 0.500000 0.686750
O O11 0.063656 0.211513 0.524033
O O12 0.906545 0.988350 0.233515
O O13 0.000000 0.000000 0.313261
#
# Coordination Sequence:
#
# PCOD8155799 Si02
#       6
#     4   4   4   4   4   4
#     4  10  19  33  55  78 105 136 164 206 259 306
#     4  10  19  33  55  78 105 136 164 206 259 306
#     4  10  18  32  54  78 100 134 174 206 250 306
#     4  10  21  37  55  74 101 138 174 210 253 300
#     4  10  21  37  55  74 101 138 174 210 253 300
#     4  10  18  32  54  78 100 134 174 206 250 306
#
# _framework density 21.485364000000001
#
# number of rings (size 3 to 8) (size 9 to 14) (size 15 to 20)
#    0.000    2.000    0.000    7.000    0.000    0.000 
#    0.000    6.667    0.000   34.000    0.000    0.000 
#    0.000    0.000    0.000    0.000    0.000    0.000 
#
# Total GULP energy -297394.338966 kJ/mol
# GULP energy per Si atom -12391.430790 kJ/mol
# Density = 2.143646 g / cm^3
# Si number density = 21.485364 Si / 1000 Ang^3
#
#
#
# Elastic Constant Matrix: (Units=GPa)
#
#
# Indices 1 2 3 4 5 6 
#
# 1 188.8838 38.1154 44.2702 0.0000 0.0000 0.0000
# 2 38.1154 212.7325 -3.6064 0.0000 0.0000 0.0000
# 3 44.2702 -3.6064 18.9105 0.0000 0.0000 0.0000
# 4 0.0000 0.0000 0.0000 6.1159 0.0000 0.0000
# 5 0.0000 0.0000 0.0000 0.0000 9.5745 0.0000
# 6 0.0000 0.0000 0.0000 0.0000 0.0000 34.6977
#
#
#
# Elastic Compliance Matrix: (Units=1/GPa)
#
#
# Indices 1 2 3 4 5 6 
#
# 1 0.013329 -0.002927 -0.031763 0.000000 0.000000 0.000000
# 2 -0.002927 0.005359 0.007873 0.000000 0.000000 0.000000
# 3 -0.031763 0.007873 0.128740 0.000000 0.000000 0.000000
# 4 0.000000 0.000000 0.000000 0.163508 0.000000 0.000000
# 5 0.000000 0.000000 0.000000 0.000000 0.104444 0.000000
# 6 0.000000 0.000000 0.000000 0.000000 0.000000 0.028820
#
#
# Mechanical properties :
#
#
# Convention : Reuss Voigt Hill
#
# Bulk Modulus (GPa) = 10.66143 64.23167 37.44655
# Shear Modulus (GPa) = 9.45006 32.86080 21.15543
#
# Velocity S-wave (km/s) = 2.09950 3.91506 3.14131
# Velocity P-wave (km/s) = 3.29396 7.09911 5.53388
#
# Compressibility (1/GPa) = 0.09379605
#
# Stress axis : x y z
#
# Youngs Moduli (GPa) = 75.02284 186.61616 7.76761
#
# Poissons Ratio (x) = 0.54617 0.24672
# Poissons Ratio (y) = 0.21957 -0.06116
# Poissons Ratio (z) = 2.38292 -1.46931
#
# Static dielectric constant tensor:
#      x y z
#    x 3.964850 0.000000 0.000000 
#    y 0.000000 6.910310 0.000000 
#    z 0.000000 0.000000 3.020470 
# 
# 
# High freq. dielectric constant tensor:
#      x y z
#    x 1.850430 0.000000 0.000000 
#    y 0.000000 1.896330 0.000000 
#    z 0.000000 0.000000 1.767720 
# 
# From -- ./inp_files/2561.got.cif
#   From: 2010.03.12/outbox.cif.g09.slc.cpg/sg18_2_cif.got.tgz:2561.got - 2010.04.10 18:53:55.
