data_PCOD8155495
_publ_section_title
;
Structure prediction by ZEFSAII (Michael W. Deem and Ramdas Pophale) SiO2 
 PCOD8155495
Probable space group: P 2 2 21
;
_chemical_formula_sum "Si O2"
_cell_formula_units_Z 32
_cell_length_a 10.087416
_cell_length_b 13.270201
_cell_length_c 11.740661
_cell_angle_alpha 90.000000
_cell_angle_beta 90.000000
_cell_angle_gamma 90.000000
_cell_volume 1571.628808
_symmetry_space_group_name_H-M "P 2 2 21"
_symmetry_group_IT_number 17
_symmetry_cell_setting 'orthorhombic'
loop_
_space_group_symop_operation_xyz
x,y,z
-x,-y,1/2+z
x,-y,-z
-x,y,1/2-z
loop_
_atom_site_type_symbol
_atom_site_label
_atom_site_fract_x
_atom_site_fract_y
_atom_site_fract_z
Si Si1 0.234065 0.608278 0.041675
Si Si2 0.307658 0.234372 0.297438
Si Si3 0.571002 0.208968 0.865798
Si Si4 0.796034 0.885291 0.998347
Si Si5 0.250227 0.385998 0.699477
Si Si6 0.039796 0.300110 0.549402
Si Si7 0.562696 0.265731 0.421317
Si Si8 0.125378 0.590416 0.671028
O O1 0.290540 0.608969 0.168599
O O2 0.117932 0.691284 0.049567
O O3 0.178766 0.500000 0.000000
O O4 0.348323 0.637158 0.951662
O O5 0.263928 0.139169 0.373269
O O6 0.419771 0.296503 0.369108
O O7 0.362855 0.197701 0.174733
O O8 0.189112 0.311391 0.270099
O O9 0.500000 0.173848 0.750000
O O10 0.688171 0.132357 0.901329
O O11 0.631084 0.323146 0.860711
O O12 0.457901 0.203202 0.962721
O O13 0.923603 0.814595 0.017823
O O14 0.844060 0.000000 0.000000
O O15 0.110384 0.330195 0.668976
O O16 0.233503 0.501467 0.660741
O O17 0.090022 0.380872 0.457172
O O18 0.000000 0.557438 0.750000
#
# Coordination Sequence:
#
# PCOD8155495 Si02
#       8
#     4   4   4   4   4   4   4   4
#     4  12  22  33  55  87 122 165 208 245 292 362
#     4   9  20  37  58  85 121 155 197 256 305 356
#     4  10  20  39  56  84 120 157 193 244 303 360
#     4   9  20  40  66  87 109 153 197 252 316 372
#     4  11  21  34  55  80 121 160 205 246 294 366
#     4  10  21  35  57  82 116 153 197 259 306 358
#     4  10  20  36  55  81 122 159 198 240 301 355
#     4  11  20  35  56  84 118 159 213 246 297 361
#
# _framework density 20.361042000000001
#
# number of rings (size 3 to 8) (size 9 to 14) (size 15 to 20)
#    0.000    1.750    1.250    5.250    0.000    1.000 
#    6.750    0.000    0.000   21.000    0.000    0.000 
#    0.000    0.000    0.000    0.000    0.000    0.000 
#
# Total GULP energy -396538.273056 kJ/mol
# GULP energy per Si atom -12391.821033 kJ/mol
# Density = 2.031470 g / cm^3
# Si number density = 20.361042 Si / 1000 Ang^3
#
#
#
# Elastic Constant Matrix: (Units=GPa)
#
#
# Indices 1 2 3 4 5 6 
#
# 1 61.3533 21.9898 14.4443 0.0000 0.0000 0.0000
# 2 21.9898 105.3049 27.4164 0.0000 0.0000 0.0000
# 3 14.4443 27.4164 105.2056 0.0000 0.0000 0.0000
# 4 0.0000 0.0000 0.0000 14.8227 0.0000 0.0000
# 5 0.0000 0.0000 0.0000 0.0000 24.4682 0.0000
# 6 0.0000 0.0000 0.0000 0.0000 0.0000 17.2326
#
#
#
# Elastic Compliance Matrix: (Units=1/GPa)
#
#
# Indices 1 2 3 4 5 6 
#
# 1 0.017862 -0.003316 -0.001588 0.000000 0.000000 0.000000
# 2 -0.003316 0.010803 -0.002360 0.000000 0.000000 0.000000
# 3 -0.001588 -0.002360 0.010338 0.000000 0.000000 0.000000
# 4 0.000000 0.000000 0.000000 0.067464 0.000000 0.000000
# 5 0.000000 0.000000 0.000000 0.000000 0.040869 0.000000
# 6 0.000000 0.000000 0.000000 0.000000 0.000000 0.058030
#
#
# Mechanical properties :
#
#
# Convention : Reuss Voigt Hill
#
# Bulk Modulus (GPa) = 40.85948 44.39607 42.62778
# Shear Modulus (GPa) = 21.92472 25.17224 23.54848
#
# Velocity S-wave (km/s) = 3.28502 3.51991 3.40449
# Velocity P-wave (km/s) = 5.87363 6.19447 6.03618
#
# Compressibility (1/GPa) = 0.02447412
#
# Stress axis : x y z
#
# Youngs Moduli (GPa) = 55.98621 92.56527 96.72830
#
# Poissons Ratio (x) = 0.30698 0.15361
# Poissons Ratio (y) = 0.18567 0.22828
# Poissons Ratio (z) = 0.08891 0.21845
#
# Static dielectric constant tensor:
#      x y z
#    x 3.706470 0.000000 0.000000 
#    y 0.000000 3.169240 0.000000 
#    z 0.000000 0.000000 3.970910 
# 
# 
# High freq. dielectric constant tensor:
#      x y z
#    x 1.791500 0.000000 0.000000 
#    y 0.000000 1.740740 0.000000 
#    z 0.000000 0.000000 1.815500 
# 
# From -- ./inp_files/7083.got.cif
#   From: 2010.03.12/outbox.cif.g09.slc.cpg/sg17_4_cif.got.tgz:7083.got - 2010.04.10 18:46:23.
