data_PCOD8155464
_publ_section_title
;
Structure prediction by ZEFSAII (Michael W. Deem and Ramdas Pophale) SiO2 
 PCOD8155464
Probable space group: P 2 2 21
;
_chemical_formula_sum "Si O2"
_cell_formula_units_Z 18
_cell_length_a 11.373728
_cell_length_b 8.712892
_cell_length_c 9.043399
_cell_angle_alpha 90.000000
_cell_angle_beta 90.000000
_cell_angle_gamma 90.000000
_cell_volume 896.183330
_symmetry_space_group_name_H-M "P 2 2 21"
_symmetry_group_IT_number 17
_symmetry_cell_setting 'orthorhombic'
loop_
_space_group_symop_operation_xyz
x,y,z
-x,-y,1/2+z
x,-y,-z
-x,y,1/2-z
loop_
_atom_site_type_symbol
_atom_site_label
_atom_site_fract_x
_atom_site_fract_y
_atom_site_fract_z
Si Si1 0.685136 0.701970 0.889975
Si Si2 0.716281 0.909966 0.356952
Si Si3 0.500000 0.917131 0.750000
Si Si4 0.637854 0.614053 0.224761
Si Si5 0.111820 0.927221 0.652376
O O1 0.578296 0.816741 0.859581
O O2 0.678915 0.563152 0.769798
O O3 0.813718 0.772850 0.868028
O O4 0.670632 0.662853 0.059997
O O5 0.702633 0.722733 0.349048
O O6 0.769199 0.000000 0.500000
O O7 0.585266 0.974590 0.342541
O O8 0.803986 0.945655 0.224100
O O9 0.500000 0.622704 0.250000
O O10 0.000000 0.884620 0.750000
O O11 0.066246 0.000000 0.500000
#
# Coordination Sequence:
#
# PCOD8155464 Si02
#       5
#     4   4   2   4   4
#     4  10  22  38  60  96 135 179 219 282 343 413
#     4  11  22  36  62  95 127 170 229 276 337 412
#     4  10  20  32  54  92 130 170 216 274 328 406
#     4  11  20  37  63  95 139 180 213 272 357 423
#     4  11  23  44  68  89 125 175 236 297 339 393
#
# _framework density 20.085177000000002
#
# number of rings (size 3 to 8) (size 9 to 14) (size 15 to 20)
#    0.000    1.333    4.444    2.000    0.000    0.000 
#    0.000    1.111    4.889    0.000    0.000    0.000 
#    0.000    0.000    0.000    0.000    0.000    0.000 
#
# Total GULP energy -223018.721496 kJ/mol
# GULP energy per Si atom -12389.928972 kJ/mol
# Density = 2.003946 g / cm^3
# Si number density = 20.085177 Si / 1000 Ang^3
#
#
#
# Elastic Constant Matrix: (Units=GPa)
#
#
# Indices 1 2 3 4 5 6 
#
# 1 118.9037 39.1074 35.1857 0.0000 0.0000 0.0000
# 2 39.1074 114.5586 29.6486 0.0000 0.0000 0.0000
# 3 35.1857 29.6486 84.6620 0.0000 0.0000 0.0000
# 4 0.0000 0.0000 0.0000 30.3678 0.0000 0.0000
# 5 0.0000 0.0000 0.0000 0.0000 35.4956 0.0000
# 6 0.0000 0.0000 0.0000 0.0000 0.0000 10.4681
#
#
#
# Elastic Compliance Matrix: (Units=1/GPa)
#
#
# Indices 1 2 3 4 5 6 
#
# 1 0.010268 -0.002640 -0.003343 0.000000 0.000000 0.000000
# 2 -0.002640 0.010278 -0.002502 0.000000 0.000000 0.000000
# 3 -0.003343 -0.002502 0.014077 0.000000 0.000000 0.000000
# 4 0.000000 0.000000 0.000000 0.032930 0.000000 0.000000
# 5 0.000000 0.000000 0.000000 0.000000 0.028172 0.000000
# 6 0.000000 0.000000 0.000000 0.000000 0.000000 0.095528
#
#
# Mechanical properties :
#
#
# Convention : Reuss Voigt Hill
#
# Bulk Modulus (GPa) = 56.64750 58.44529 57.54640
# Shear Modulus (GPa) = 23.35280 29.54515 26.44897
#
# Velocity S-wave (km/s) = 3.41352 3.83951 3.63277
# Velocity P-wave (km/s) = 6.61823 6.98697 6.80510
#
# Compressibility (1/GPa) = 0.01765303
#
# Stress axis : x y z
#
# Youngs Moduli (GPa) = 97.39347 97.29554 71.03703
#
# Poissons Ratio (x) = 0.25686 0.23746
# Poissons Ratio (y) = 0.25712 0.17775
# Poissons Ratio (z) = 0.32556 0.24345
#
# Static dielectric constant tensor:
#      x y z
#    x 3.594700 0.000000 0.000000 
#    y 0.000000 4.118450 0.000000 
#    z 0.000000 0.000000 3.912350 
# 
# 
# High freq. dielectric constant tensor:
#      x y z
#    x 1.770770 0.000000 0.000000 
#    y 0.000000 1.788240 0.000000 
#    z 0.000000 0.000000 1.781790 
# 
# From -- ./inp_files/3914.got.cif
#   From: 2010.03.12/outbox.cif.g09.slc.cpg/sg17_2_cif.got.tgz:3914.got - 2010.04.10 18:46:23.
