data_PCOD8155234
_publ_section_title
;
Structure prediction by ZEFSAII (Michael W. Deem and Ramdas Pophale) SiO2 
 PCOD8155234
Probable space group: P 2 2 2
;
_chemical_formula_sum "Si O2"
_cell_formula_units_Z 21
_cell_length_a 15.583785
_cell_length_b 14.045075
_cell_length_c 5.209988
_cell_angle_alpha 90.000000
_cell_angle_beta 90.000000
_cell_angle_gamma 90.000000
_cell_volume 1140.338359
_symmetry_space_group_name_H-M "P 2 2 2"
_symmetry_group_IT_number 16
_symmetry_cell_setting 'orthorhombic'
loop_
_space_group_symop_operation_xyz
x,y,z
-x,-y,z
x,-y,-z
-x,y,-z
loop_
_atom_site_type_symbol
_atom_site_label
_atom_site_fract_x
_atom_site_fract_y
_atom_site_fract_z
Si Si1 0.397914 0.892928 0.503280
Si Si2 0.397936 0.782723 0.002453
Si Si3 0.648710 0.585389 0.188582
Si Si4 0.815382 0.393740 0.514798
Si Si5 0.902333 0.613673 0.991419
Si Si6 0.500000 0.500000 0.500000
O O1 0.500000 0.896291 0.500000
O O2 0.363679 0.834087 0.258538
O O3 0.360810 0.000000 0.500000
O O4 0.364022 0.841989 0.758819
O O5 0.500000 0.776998 0.000000
O O6 0.358338 0.677359 0.991888
O O7 0.713150 0.601507 0.428631
O O8 0.556594 0.566494 0.316334
O O9 0.680435 0.500000 0.000000
O O10 0.853309 0.500000 0.500000
O O11 0.846761 0.344724 0.249570
O O12 0.858584 0.341006 0.756634
O O13 0.896550 0.500000 0.000000
O O14 0.000000 0.649464 0.000000
#
# Coordination Sequence:
#
# PCOD8155234 Si02
#       6
#     4   4   4   4   4   1
#     4   9  18  33  52  72  90 112 156 223 290 335
#     4  10  21  33  51  69  93 128 172 222 276 313
#     4  12  25  37  48  70 102 143 197 229 268 299
#     4  10  19  32  48  66  93 125 162 217 260 300
#     4   9  17  30  49  70  88 113 155 209 269 317
#     4  12  26  36  52  58 100 156 202 240 270 288
#
# _framework density 18.415589000000001
#
# number of rings (size 3 to 8) (size 9 to 14) (size 15 to 20)
#    0.000    1.905    0.952    4.286    6.667    4.571 
#    0.000    0.000    0.000    0.000    0.000    0.000 
#    0.000    0.000    0.000    0.000    0.000   26.667 
#
# Total GULP energy -260310.341894 kJ/mol
# GULP energy per Si atom -12395.730566 kJ/mol
# Density = 1.837367 g / cm^3
# Si number density = 18.415589 Si / 1000 Ang^3
#
#
#
# Elastic Constant Matrix: (Units=GPa)
#
#
# Indices 1 2 3 4 5 6 
#
# 1 90.1332 11.8425 47.1795 0.0000 0.0000 0.0000
# 2 11.8425 103.2376 50.6268 0.0000 0.0000 0.0000
# 3 47.1795 50.6268 170.8528 0.0000 0.0000 0.0000
# 4 0.0000 0.0000 0.0000 24.1693 0.0000 0.0000
# 5 0.0000 0.0000 0.0000 0.0000 29.1494 0.0000
# 6 0.0000 0.0000 0.0000 0.0000 0.0000 1.3958
#
#
#
# Elastic Compliance Matrix: (Units=1/GPa)
#
#
# Indices 1 2 3 4 5 6 
#
# 1 0.012978 0.000314 -0.003677 0.000000 0.000000 0.000000
# 2 0.000314 0.011341 -0.003447 0.000000 0.000000 0.000000
# 3 -0.003677 -0.003447 0.007890 0.000000 0.000000 0.000000
# 4 0.000000 0.000000 0.000000 0.041375 0.000000 0.000000
# 5 0.000000 0.000000 0.000000 0.000000 0.034306 0.000000
# 6 0.000000 0.000000 0.000000 0.000000 0.000000 0.716447
#
#
# Mechanical properties :
#
#
# Convention : Reuss Voigt Hill
#
# Bulk Modulus (GPa) = 53.79507 64.83566 59.31536
# Shear Modulus (GPa) = 5.92310 27.91455 16.91883
#
# Velocity S-wave (km/s) = 1.79536 3.89757 3.03433
# Velocity P-wave (km/s) = 5.79421 7.45239 6.67499
#
# Compressibility (1/GPa) = 0.01858907
#
# Stress axis : x y z
#
# Youngs Moduli (GPa) = 77.05318 88.17671 126.74512
#
# Poissons Ratio (x) = -0.02772 0.46603
# Poissons Ratio (y) = -0.02423 0.43693
# Poissons Ratio (z) = 0.28332 0.30397
#
# Static dielectric constant tensor:
#      x y z
#    x 3.115900 0.000000 0.000000 
#    y 0.000000 3.041570 0.000000 
#    z 0.000000 0.000000 3.878060 
# 
# 
# High freq. dielectric constant tensor:
#      x y z
#    x 1.676550 0.000000 0.000000 
#    y 0.000000 1.651100 0.000000 
#    z 0.000000 0.000000 1.746310 
# 
# From -- ./inp_files/1926.got.cif
#   From: 2010.03.12/outbox.cif.g09.slc.cpg/sg16_1_cif.got.tgz:1926.got - 2010.03.31 00:51:45.
