data_PCOD8155192
_publ_section_title
;
Structure prediction by ZEFSAII (Michael W. Deem and Ramdas Pophale) SiO2 
 PCOD8155192
Probable space group: C 2/C
;
_chemical_formula_sum "Si O2"
_cell_formula_units_Z 48
_cell_length_a 12.477115
_cell_length_b 18.850736
_cell_length_c 15.431668
_cell_angle_alpha 90.000000
_cell_angle_beta 40.982258
_cell_angle_gamma 90.000000
_cell_volume 2380.364831
_symmetry_space_group_name_H-M "C 2/C"
_symmetry_group_IT_number 15
_symmetry_cell_setting 'monoclinic'
loop_
_space_group_symop_operation_xyz
x,y,z
-x,y,1/2-z
-x,-y,-z
x,-y,1/2+z
1/2+x,1/2+y,z
1/2-x,1/2+y,1/2-z
1/2-x,1/2-y,-z
1/2+x,1/2-y,1/2+z
loop_
_atom_site_type_symbol
_atom_site_label
_atom_site_fract_x
_atom_site_fract_y
_atom_site_fract_z
Si Si1 0.123478 0.223076 0.859398
Si Si2 0.305480 0.489012 0.863403
Si Si3 0.161730 0.164593 0.203058
Si Si4 0.823027 0.936740 0.181772
Si Si5 0.706376 0.681763 0.365853
Si Si6 0.709114 0.540310 0.445068
O O1 0.207899 0.270864 0.883350
O O2 0.210802 0.146667 0.806673
O O3 0.155460 0.260904 0.746099
O O4 0.929658 0.219459 0.991460
O O5 0.500000 0.492317 0.750000
O O6 0.254598 0.406727 0.884868
O O7 0.243012 0.534981 0.820012
O O8 0.224533 0.520452 0.000076
O O9 0.117097 0.152077 0.332437
O O10 0.000000 0.185939 0.250000
O O11 0.015266 0.950514 0.064923
O O12 0.739881 0.978053 0.152378
O O13 0.787219 0.615394 0.367211
#
# Coordination Sequence:
#
# PCOD8155192 Si02
#       6
#     8   8   8   8   8   8
#     4   9  19  30  50  69 103 133 159 201 256 292
#     4   9  16  27  48  74  96 128 167 212 246 282
#     4   9  18  30  46  73 105 125 160 203 255 294
#     4   9  15  28  45  72  97 124 167 206 248 285
#     4   9  18  34  46  72 101 133 159 203 247 298
#     4   9  16  27  48  68  99 128 166 209 244 280
#
# _framework density 20.164974999999998
#
# number of rings (size 3 to 8) (size 9 to 14) (size 15 to 20)
#    1.000    2.000    1.667    0.000    7.000    0.667 
#    0.000    0.833    0.000    4.000    0.000    2.333 
#    0.000    0.000    0.000    0.000    0.000    0.000 
#
# Total GULP energy -297410.547197 kJ/mol
# GULP energy per Si atom -12392.106133 kJ/mol
# Density = 2.011908 g / cm^3
# Si number density = 20.164975 Si / 1000 Ang^3
#
#
#
# Elastic Constant Matrix: (Units=GPa)
#
#
# Indices 1 2 3 4 5 6 
#
# 1 14.7585 22.5848 24.2519 0.0002 12.4291 0.0000
# 2 22.5848 172.5333 77.5147 0.0010 14.0870 -0.0002
# 3 24.2519 77.5147 120.7375 -0.0016 27.5108 0.0004
# 4 0.0002 0.0010 -0.0016 40.6733 0.0014 4.3039
# 5 12.4291 14.0870 27.5108 0.0014 26.4949 -0.0004
# 6 0.0000 -0.0002 0.0004 4.3039 -0.0004 23.0617
#
#
#
# Elastic Compliance Matrix: (Units=1/GPa)
#
#
# Indices 1 2 3 4 5 6 
#
# 1 0.143350 -0.009665 -0.011052 0.000001 -0.050633 -0.000001
# 2 -0.009665 0.008839 -0.004841 -0.000001 0.004861 0.000000
# 3 -0.011052 -0.004841 0.015513 0.000001 -0.008349 -0.000001
# 4 0.000001 -0.000001 0.000001 0.025081 -0.000003 -0.004681
# 5 -0.050633 0.004861 -0.008349 -0.000003 0.067580 0.000002
# 6 -0.000001 0.000000 -0.000001 -0.004681 0.000002 0.044236
#
#
# Mechanical properties :
#
#
# Convention : Reuss Voigt Hill
#
# Bulk Modulus (GPa) = 8.57737 61.85912 35.21824
# Shear Modulus (GPa) = 12.67177 30.29115 21.48146
#
# Velocity S-wave (km/s) = 2.50952 3.87998 3.26741
# Velocity P-wave (km/s) = 3.55805 7.12850 5.63361
#
# Compressibility (1/GPa) = 0.11658587
#
# Stress axis : x y z
#
# Youngs Moduli (GPa) = 6.97593 113.13137 64.46298
#
# Poissons Ratio (x) = 1.09346 0.71242
# Poissons Ratio (y) = 0.06743 0.31207
# Poissons Ratio (z) = 0.07710 0.54768
#
# Static dielectric constant tensor:
#      x y z
#    x 2.993220 0.000000 0.368650 
#    y 0.000000 3.808270 0.000000 
#    z 0.368650 0.000000 3.707940 
# 
# 
# High freq. dielectric constant tensor:
#      x y z
#    x 1.723760 0.000000 0.025900 
#    y 0.000000 1.800700 0.000000 
#    z 0.025900 0.000000 1.779500 
# 
# From -- ./inp_files/88340.got.cif
#   From: 2010.06.25/outbox.cif.g09.slc.cpg/sg15_45_cif.got.tgz:88340.got - 2010.06.28 07:06:18.
