data_PCOD8155249
_publ_section_title
;
Structure prediction by ZEFSAII (Michael W. Deem and Ramdas Pophale) SiO2 
 PCOD8155249
Probable space group: P 2 2 2
;
_chemical_formula_sum "Si O2"
_cell_formula_units_Z 32
_cell_length_a 9.412171
_cell_length_b 11.405626
_cell_length_c 16.022833
_cell_angle_alpha 90.000000
_cell_angle_beta 90.000000
_cell_angle_gamma 90.000000
_cell_volume 1720.078398
_symmetry_space_group_name_H-M "P 2 2 2"
_symmetry_group_IT_number 16
_symmetry_cell_setting 'orthorhombic'
loop_
_space_group_symop_operation_xyz
x,y,z
-x,-y,z
x,-y,-z
-x,y,-z
loop_
_atom_site_type_symbol
_atom_site_label
_atom_site_fract_x
_atom_site_fract_y
_atom_site_fract_z
Si Si1 0.339579 0.138616 0.001067
Si Si2 0.166278 0.137224 0.839554
Si Si3 0.524775 0.364160 0.402208
Si Si4 0.781766 0.235365 0.332596
Si Si5 0.727454 0.765321 0.332905
Si Si6 0.167040 0.137507 0.163044
Si Si7 0.969987 0.369747 0.597251
Si Si8 0.157967 0.998673 0.597025
O O1 0.254778 0.180308 0.082644
O O2 0.500000 0.191259 0.000000
O O3 0.250452 0.180114 0.920970
O O4 0.348147 0.000000 0.000000
O O5 0.231132 0.218325 0.766632
O O6 0.999199 0.160470 0.852818
O O7 0.193555 0.000187 0.817779
O O8 0.500000 0.500000 0.381948
O O9 0.500000 0.337510 0.500000
O O10 0.684445 0.335194 0.373771
O O11 0.434150 0.277009 0.343042
O O12 0.942117 0.273749 0.351796
O O13 0.751476 0.110868 0.375604
O O14 0.773117 0.781338 0.237139
O O15 0.808517 0.660712 0.381302
O O16 0.750255 0.886732 0.379882
O O17 0.000000 0.500000 0.629298
O O18 0.000000 0.356353 0.500000
O O19 0.133631 0.000000 0.500000
O O20 0.000000 0.000000 0.640612
#
# Coordination Sequence:
#
# PCOD8155249 Si02
#       8
#     4   4   4   4   4   4   4   4
#     4   9  19  33  55  83 120 159 192 227 278 350
#     4  10  19  35  56  87 122 154 188 233 292 360
#     4  11  26  45  59  78 115 163 214 259 294 338
#     4  12  22  37  59  86 118 157 196 246 300 354
#     4  12  22  37  59  86 118 157 196 246 300 354
#     4  10  19  35  56  87 122 154 188 233 292 360
#     4  11  22  37  59  84 111 155 212 255 286 330
#     4  11  20  33  55  86 121 152 188 236 298 363
#
# _framework density 18.603802999999999
#
# number of rings (size 3 to 8) (size 9 to 14) (size 15 to 20)
#    0.000    1.250    3.750    3.375    1.750    4.000 
#    0.000    1.250    0.000    0.000    0.000    5.250 
#    0.000    0.000    0.000    0.000    0.000    0.000 
#
# Total GULP energy -396825.676672 kJ/mol
# GULP energy per Si atom -12400.802396 kJ/mol
# Density = 1.856146 g / cm^3
# Si number density = 18.603803 Si / 1000 Ang^3
#
#
#
# Elastic Constant Matrix: (Units=GPa)
#
#
# Indices 1 2 3 4 5 6 
#
# 1 82.4505 19.4995 40.7724 0.0000 0.0000 0.0000
# 2 19.4995 85.7948 29.6287 0.0000 0.0000 0.0000
# 3 40.7724 29.6287 124.5437 0.0000 0.0000 0.0000
# 4 0.0000 0.0000 0.0000 -33.9474 0.0000 0.0000
# 5 0.0000 0.0000 0.0000 0.0000 35.4173 0.0000
# 6 0.0000 0.0000 0.0000 0.0000 0.0000 36.2505
#
#
#
# Elastic Compliance Matrix: (Units=1/GPa)
#
#
# Indices 1 2 3 4 5 6 
#
# 1 0.014731 -0.001833 -0.004386 0.000000 0.000000 0.000000
# 2 -0.001833 0.012927 -0.002475 0.000000 0.000000 0.000000
# 3 -0.004386 -0.002475 0.010054 0.000000 0.000000 0.000000
# 4 0.000000 0.000000 0.000000 -0.029457 0.000000 0.000000
# 5 0.000000 0.000000 0.000000 0.000000 0.028235 0.000000
# 6 0.000000 0.000000 0.000000 0.000000 0.000000 0.027586
#
#
# Mechanical properties :
#
#
# Convention : Reuss Voigt Hill
#
# Bulk Modulus (GPa) = 49.20612 52.51003 50.85807
# Shear Modulus (GPa) = 56.66367 21.06997 38.86682
#
# Velocity S-wave (km/s) = 5.52487 3.36901 4.57572
# Velocity P-wave (km/s) = 8.19792 6.58941 7.43728
#
# Compressibility (1/GPa) = 0.02032268
#
# Stress axis : x y z
#
# Youngs Moduli (GPa) = 67.88309 77.35639 99.46113
#
# Poissons Ratio (x) = 0.14181 0.43629
# Poissons Ratio (y) = 0.12445 0.24619
# Poissons Ratio (z) = 0.29777 0.19147
#
# Static dielectric constant tensor:
#      x y z
#    x 3.645690 0.000000 0.000000 
#    y 0.000000 3.171200 0.000000 
#    z 0.000000 0.000000 3.430930 
# 
# 
# High freq. dielectric constant tensor:
#      x y z
#    x 1.727890 0.000000 0.000000 
#    y 0.000000 1.694260 0.000000 
#    z 0.000000 0.000000 1.722700 
# 
# From -- ./inp_files/7966.got.cif
#   From: 2010.03.12/outbox.cif.g09.slc.cpg/sg16_4_cif.got.tgz:7966.got - 2010.03.31 00:51:45.
