data_PCOD8155358
_publ_section_title
;
Structure prediction by ZEFSAII (Michael W. Deem and Ramdas Pophale) SiO2 
 PCOD8155358
Probable space group: P 2 2 21
;
_chemical_formula_sum "Si O2"
_cell_formula_units_Z 22
_cell_length_a 8.807111
_cell_length_b 7.790712
_cell_length_c 17.101144
_cell_angle_alpha 90.000000
_cell_angle_beta 90.000000
_cell_angle_gamma 90.000000
_cell_volume 1173.372172
_symmetry_space_group_name_H-M "P 2 2 21"
_symmetry_group_IT_number 17
_symmetry_cell_setting 'orthorhombic'
loop_
_space_group_symop_operation_xyz
x,y,z
-x,-y,1/2+z
x,-y,-z
-x,y,1/2-z
loop_
_atom_site_type_symbol
_atom_site_label
_atom_site_fract_x
_atom_site_fract_y
_atom_site_fract_z
Si Si1 0.374079 0.000000 0.000000
Si Si2 0.531526 0.341717 0.059774
Si Si3 0.247019 0.734653 0.680860
Si Si4 0.255244 0.137973 0.847451
Si Si5 0.500000 0.970577 0.750000
Si Si6 0.000000 0.952286 0.750000
Si Si7 0.358640 0.510388 0.197532
O O1 0.481461 0.162556 0.020436
O O2 0.255157 0.941082 0.066256
O O3 0.705994 0.329725 0.093559
O O4 0.417396 0.378895 0.131655
O O5 0.526913 0.500000 0.000000
O O6 0.384855 0.858406 0.701284
O O7 0.240309 0.583661 0.744925
O O8 0.088029 0.835611 0.685930
O O9 0.259390 0.344064 0.845538
O O10 0.416080 0.088039 0.811750
O O11 0.112740 0.071030 0.798700
O O12 0.500000 0.579212 0.250000
#
# Coordination Sequence:
#
# PCOD8155358 Si02
#       7
#     2   4   4   4   2   2   4
#     4  12  22  36  64  94 130 158 202 268 324 360
#     4  11  20  34  60  99 118 154 196 266 311 354
#     4  10  19  38  59  86 118 159 201 254 298 358
#     4  11  21  36  61  91 119 165 203 254 308 375
#     4  10  16  32  60  86 108 150 210 238 286 350
#     4  10  24  40  62  80 126 168 210 236 310 390
#     4  10  19  35  63  93 118 149 213 264 296 352
#
# _framework density 18.749379999999999
#
# number of rings (size 3 to 8) (size 9 to 14) (size 15 to 20)
#    0.000    1.455    7.273    1.091    0.000    0.727 
#    0.000    0.909    4.000    0.000    0.000    0.000 
#    0.000    0.000    0.000    0.000    0.000    0.000 
#
# Total GULP energy -272660.462443 kJ/mol
# GULP energy per Si atom -12393.657384 kJ/mol
# Density = 1.870671 g / cm^3
# Si number density = 18.749380 Si / 1000 Ang^3
#
#
#
# Elastic Constant Matrix: (Units=GPa)
#
#
# Indices 1 2 3 4 5 6 
#
# 1 77.8572 37.9581 27.2391 0.0000 0.0000 0.0000
# 2 37.9581 124.4070 44.4771 0.0000 0.0000 0.0000
# 3 27.2391 44.4771 102.9718 0.0000 0.0000 0.0000
# 4 0.0000 0.0000 0.0000 35.5645 0.0000 0.0000
# 5 0.0000 0.0000 0.0000 0.0000 21.3137 0.0000
# 6 0.0000 0.0000 0.0000 0.0000 0.0000 22.3812
#
#
#
# Elastic Compliance Matrix: (Units=1/GPa)
#
#
# Indices 1 2 3 4 5 6 
#
# 1 0.015593 -0.003883 -0.002448 0.000000 0.000000 0.000000
# 2 -0.003883 0.010473 -0.003497 0.000000 0.000000 0.000000
# 3 -0.002448 -0.003497 0.011869 0.000000 0.000000 0.000000
# 4 0.000000 0.000000 0.000000 0.028118 0.000000 0.000000
# 5 0.000000 0.000000 0.000000 0.000000 0.046918 0.000000
# 6 0.000000 0.000000 0.000000 0.000000 0.000000 0.044680
#
#
# Mechanical properties :
#
#
# Convention : Reuss Voigt Hill
#
# Bulk Modulus (GPa) = 54.70040 58.28719 56.49379
# Shear Modulus (GPa) = 27.26289 28.88933 28.07611
#
# Velocity S-wave (km/s) = 3.81736 3.92958 3.87388
# Velocity P-wave (km/s) = 6.97621 7.19332 7.08560
#
# Compressibility (1/GPa) = 0.01828140
#
# Stress axis : x y z
#
# Youngs Moduli (GPa) = 64.12998 95.48543 84.25163
#
# Poissons Ratio (x) = 0.37073 0.20624
# Poissons Ratio (y) = 0.24899 0.29459
# Poissons Ratio (z) = 0.15698 0.33387
#
# Static dielectric constant tensor:
#      x y z
#    x 3.059720 0.000000 0.000000 
#    y 0.000000 3.631680 0.000000 
#    z 0.000000 0.000000 3.559630 
# 
# 
# High freq. dielectric constant tensor:
#      x y z
#    x 1.693990 0.000000 0.000000 
#    y 0.000000 1.744780 0.000000 
#    z 0.000000 0.000000 1.727260 
# 
# From -- ./inp_files/8051.got.cif
#   From: 2010.03.12/outbox.cif.g09.slc.cpg/sg17_5_cif.got.tgz:8051.got - 2010.04.10 18:46:23.
