data_PCOD8155907
_publ_section_title
;
Structure prediction by ZEFSAII (Michael W. Deem and Ramdas Pophale) SiO2 
 PCOD8155907
Probable space group: P 21 21 2
;
_chemical_formula_sum "Si O2"
_cell_formula_units_Z 24
_cell_length_a 16.875634
_cell_length_b 9.479802
_cell_length_c 7.492186
_cell_angle_alpha 90.000000
_cell_angle_beta 90.000000
_cell_angle_gamma 90.000000
_cell_volume 1198.582452
_symmetry_space_group_name_H-M "P 21 21 2"
_symmetry_group_IT_number 18
_symmetry_cell_setting 'orthorhombic'
loop_
_space_group_symop_operation_xyz
x,y,z
-x,-y,z
1/2+x,1/2-y,-z
1/2-x,1/2+y,-z
loop_
_atom_site_type_symbol
_atom_site_label
_atom_site_fract_x
_atom_site_fract_y
_atom_site_fract_z
Si Si1 0.349709 0.457966 0.064345
Si Si2 0.664878 0.015461 0.909782
Si Si3 0.047639 0.869964 0.249034
Si Si4 0.080621 0.585181 0.426144
Si Si5 0.088433 0.677458 0.802260
Si Si6 0.933527 0.763271 0.946483
O O1 0.257760 0.492949 0.063369
O O2 0.371458 0.332321 0.200893
O O3 0.395729 0.595988 0.136838
O O4 0.375446 0.425442 0.859883
O O5 0.645205 0.988212 0.701515
O O6 0.636681 0.166030 0.981232
O O7 0.619863 0.894809 0.018492
O O8 0.070900 0.752876 0.392605
O O9 0.000000 0.000000 0.341759
O O10 0.990250 0.797922 0.108709
O O11 0.112050 0.583343 0.630302
O O12 0.000000 0.500000 0.398869
O O13 0.991665 0.687339 0.802950
#
# Coordination Sequence:
#
# PCOD8155907 Si02
#       6
#     4   4   4   4   4   4
#     4  10  22  39  64  89 123 168 202 259 314 363
#     4  12  21  40  63  91 125 159 202 259 318 361
#     4   9  19  37  60  86 117 162 211 250 302 367
#     4  12  22  39  64  94 122 162 206 258 308 370
#     4  11  23  41  62  91 121 160 215 250 301 372
#     4  10  19  38  65  85 118 165 213 247 304 366
#
# _framework density 20.023654000000001
#
# number of rings (size 3 to 8) (size 9 to 14) (size 15 to 20)
#    0.000    1.333    5.000    4.000    0.000    1.333 
#    3.000    1.667    0.000    0.000    0.000    0.000 
#    0.000    0.000    0.000    0.000    0.000    0.000 
#
# Total GULP energy -297569.121318 kJ/mol
# GULP energy per Si atom -12398.713388 kJ/mol
# Density = 1.997808 g / cm^3
# Si number density = 20.023654 Si / 1000 Ang^3
#
#
#
# Elastic Constant Matrix: (Units=GPa)
#
#
# Indices 1 2 3 4 5 6 
#
# 1 112.6034 21.3097 19.9774 0.0000 0.0000 0.0000
# 2 21.3097 83.7037 18.4789 0.0000 0.0000 0.0000
# 3 19.9774 18.4789 72.4782 0.0000 0.0000 0.0000
# 4 0.0000 0.0000 0.0000 20.9096 0.0000 0.0000
# 5 0.0000 0.0000 0.0000 0.0000 9.0757 0.0000
# 6 0.0000 0.0000 0.0000 0.0000 0.0000 27.4330
#
#
#
# Elastic Compliance Matrix: (Units=1/GPa)
#
#
# Indices 1 2 3 4 5 6 
#
# 1 0.009637 -0.001978 -0.002152 0.000000 0.000000 0.000000
# 2 -0.001978 0.013066 -0.002786 0.000000 0.000000 0.000000
# 3 -0.002152 -0.002786 0.015101 0.000000 0.000000 0.000000
# 4 0.000000 0.000000 0.000000 0.047825 0.000000 0.000000
# 5 0.000000 0.000000 0.000000 0.000000 0.110185 0.000000
# 6 0.000000 0.000000 0.000000 0.000000 0.000000 0.036452
#
#
# Mechanical properties :
#
#
# Convention : Reuss Voigt Hill
#
# Bulk Modulus (GPa) = 41.71712 43.14637 42.43174
# Shear Modulus (GPa) = 19.67824 25.41828 22.54826
#
# Velocity S-wave (km/s) = 3.13829 3.56675 3.35935
# Velocity P-wave (km/s) = 5.83189 6.20941 6.02361
#
# Compressibility (1/GPa) = 0.02397098
#
# Stress axis : x y z
#
# Youngs Moduli (GPa) = 103.76797 76.53696 66.22227
#
# Poissons Ratio (x) = 0.15142 0.14250
# Poissons Ratio (y) = 0.20529 0.18449
# Poissons Ratio (z) = 0.22329 0.21322
#
# Static dielectric constant tensor:
#      x y z
#    x 3.637750 0.000000 0.000000 
#    y 0.000000 4.224380 0.000000 
#    z 0.000000 0.000000 3.463990 
# 
# 
# High freq. dielectric constant tensor:
#      x y z
#    x 1.770090 0.000000 0.000000 
#    y 0.000000 1.803640 0.000000 
#    z 0.000000 0.000000 1.752780 
# 
# From -- ./inp_files/4475.got.cif
#   From: 2010.03.12/outbox.cif.g09.slc.cpg/sg18_3_cif.got.tgz:4475.got - 2010.04.10 18:53:55.
