data_PCOD8155610
_publ_section_title
;
Structure prediction by ZEFSAII (Michael W. Deem and Ramdas Pophale) SiO2 
 PCOD8155610
Probable space group: P 2 2 21
;
_chemical_formula_sum "Si O2"
_cell_formula_units_Z 20
_cell_length_a 11.278646
_cell_length_b 5.295272
_cell_length_c 14.892941
_cell_angle_alpha 90.000000
_cell_angle_beta 90.000000
_cell_angle_gamma 90.000000
_cell_volume 889.458537
_symmetry_space_group_name_H-M "P 2 2 21"
_symmetry_group_IT_number 17
_symmetry_cell_setting 'orthorhombic'
loop_
_space_group_symop_operation_xyz
x,y,z
-x,-y,1/2+z
x,-y,-z
-x,y,1/2-z
loop_
_atom_site_type_symbol
_atom_site_label
_atom_site_fract_x
_atom_site_fract_y
_atom_site_fract_z
Si Si1 0.454243 0.500000 0.000000
Si Si2 0.733802 0.184573 0.574298
Si Si3 0.940630 0.500000 0.500000
Si Si4 0.133015 0.543939 0.647090
Si Si5 0.661483 0.813424 0.924842
Si Si6 0.212100 0.971914 0.271247
O O1 0.367829 0.399817 0.920257
O O2 0.531747 0.714999 0.950789
O O3 0.860009 0.272989 0.535719
O O4 0.747584 0.052302 0.669457
O O5 0.679395 0.000000 0.500000
O O6 0.018949 0.581197 0.584800
O O7 0.250964 0.572310 0.585235
O O8 0.137891 0.275795 0.698021
O O9 0.129288 0.777636 0.718476
O O10 0.669303 0.979337 0.832247
O O11 0.713125 0.000000 0.000000
#
# Coordination Sequence:
#
# PCOD8155610 Si02
#       6
#     2   4   2   4   4   4
#     4  11  23  44  72 102 147 197 246 292 380 431
#     4  11  28  48  66 102 157 200 233 299 372 451
#     4  11  25  44  74 106 147 197 236 296 372 439
#     4  10  24  44  76 110 140 183 249 305 349 431
#     4  10  21  42  77 106 139 184 247 311 357 422
#     4  10  25  46  74 105 146 183 250 299 363 422
#
# _framework density 22.485589999999998
#
# number of rings (size 3 to 8) (size 9 to 14) (size 15 to 20)
#    1.200    0.400    0.000    3.600    8.400    0.800 
#    0.000   15.000    0.000    0.000    0.000    0.000 
#    0.000    0.000    0.000    0.000    0.000    0.000 
#
# Total GULP energy -247790.819802 kJ/mol
# GULP energy per Si atom -12389.540990 kJ/mol
# Density = 2.243441 g / cm^3
# Si number density = 22.485590 Si / 1000 Ang^3
#
#
#
# Elastic Constant Matrix: (Units=GPa)
#
#
# Indices 1 2 3 4 5 6 
#
# 1 108.8324 28.2934 44.3361 0.0000 0.0000 0.0000
# 2 28.2934 129.6561 51.8172 0.0000 0.0000 0.0000
# 3 44.3361 51.8172 168.7622 0.0000 0.0000 0.0000
# 4 0.0000 0.0000 0.0000 42.4792 0.0000 0.0000
# 5 0.0000 0.0000 0.0000 0.0000 13.3501 0.0000
# 6 0.0000 0.0000 0.0000 0.0000 0.0000 15.3532
#
#
#
# Elastic Compliance Matrix: (Units=1/GPa)
#
#
# Indices 1 2 3 4 5 6 
#
# 1 0.010494 -0.001354 -0.002341 0.000000 0.000000 0.000000
# 2 -0.001354 0.008966 -0.002397 0.000000 0.000000 0.000000
# 3 -0.002341 -0.002397 0.007277 0.000000 0.000000 0.000000
# 4 0.000000 0.000000 0.000000 0.023541 0.000000 0.000000
# 5 0.000000 0.000000 0.000000 0.000000 0.074906 0.000000
# 6 0.000000 0.000000 0.000000 0.000000 0.000000 0.065133
#
#
# Mechanical properties :
#
#
# Convention : Reuss Voigt Hill
#
# Bulk Modulus (GPa) = 68.72065 72.90491 70.81278
# Shear Modulus (GPa) = 24.11346 33.09010 28.60178
#
# Velocity S-wave (km/s) = 3.27830 3.84032 3.57039
# Velocity P-wave (km/s) = 6.70508 7.22201 6.96834
#
# Compressibility (1/GPa) = 0.01455167
#
# Stress axis : x y z
#
# Youngs Moduli (GPa) = 95.29003 111.52846 137.42700
#
# Poissons Ratio (x) = 0.15106 0.32173
# Poissons Ratio (y) = 0.12906 0.32944
# Poissons Ratio (z) = 0.22309 0.26736
#
# Static dielectric constant tensor:
#      x y z
#    x 3.788140 0.000000 0.000000 
#    y 0.000000 4.237040 0.000000 
#    z 0.000000 0.000000 3.880930 
# 
# 
# High freq. dielectric constant tensor:
#      x y z
#    x 1.875510 0.000000 0.000000 
#    y 0.000000 1.897040 0.000000 
#    z 0.000000 0.000000 1.881360 
# 
# From -- ./inp_files/8372.got.cif
#   From: 2010.03.12/outbox.cif.g09.slc.cpg/sg17_5_cif.got.tgz:8372.got - 2010.04.10 18:46:23.
