data_PCOD8155312
_publ_section_title
;
Structure prediction by ZEFSAII (Michael W. Deem and Ramdas Pophale) SiO2 
 PCOD8155312
Probable space group: P 2 2 2
;
_chemical_formula_sum "Si O2"
_cell_formula_units_Z 22
_cell_length_a 11.335417
_cell_length_b 13.812051
_cell_length_c 6.090464
_cell_angle_alpha 90.000000
_cell_angle_beta 90.000000
_cell_angle_gamma 90.000000
_cell_volume 953.555675
_symmetry_space_group_name_H-M "P 2 2 2"
_symmetry_group_IT_number 16
_symmetry_cell_setting 'orthorhombic'
loop_
_space_group_symop_operation_xyz
x,y,z
-x,-y,z
x,-y,-z
-x,y,-z
loop_
_atom_site_type_symbol
_atom_site_label
_atom_site_fract_x
_atom_site_fract_y
_atom_site_fract_z
Si Si1 0.874441 0.842180 0.956897
Si Si2 0.325205 0.911594 0.338160
Si Si3 0.635980 0.386084 0.999752
Si Si4 0.500000 0.000000 0.000000
Si Si5 0.000000 0.500000 0.500000
Si Si6 0.152213 0.659776 0.294176
Si Si7 0.737256 0.241077 0.662129
O O1 0.802874 0.902671 0.775430
O O2 0.907641 0.732998 0.877812
O O3 0.791491 0.837801 0.171459
O O4 0.000000 0.894633 0.000000
O O5 0.348524 0.816102 0.489458
O O6 0.324482 0.000000 0.500000
O O7 0.424367 0.926652 0.151458
O O8 0.711969 0.353431 0.211000
O O9 0.654908 0.500000 0.000000
O O10 0.500000 0.357246 0.000000
O O11 0.676692 0.331666 0.780287
O O12 0.920541 0.438708 0.328804
O O13 0.154717 0.711080 0.530545
#
# Coordination Sequence:
#
# PCOD8155312 Si02
#       7
#     4   4   4   1   1   4   4
#     4  10  22  44  69  98 142 177 225 284 345 423
#     4  11  25  48  71 102 139 181 227 294 356 430
#     4  10  22  42  64  95 141 185 238 294 353 425
#     4  12  26  52  70 102 140 178 234 302 364 430
#     4  12  20  36  70  98 138 190 244 298 354 416
#     4  10  22  38  61 100 134 183 235 288 352 410
#     4  10  22  45  66 101 137 183 238 283 357 416
#
# _framework density 23.071543999999999
#
# number of rings (size 3 to 8) (size 9 to 14) (size 15 to 20)
#    0.000    1.636    0.000    3.545    0.000    4.364 
#   39.273   12.273    0.000    0.000    0.000    0.000 
#    0.000    0.000    0.000    0.000    0.000    0.000 
#
# Total GULP energy -272614.454540 kJ/mol
# GULP energy per Si atom -12391.566115 kJ/mol
# Density = 2.301903 g / cm^3
# Si number density = 23.071544 Si / 1000 Ang^3
#
#
#
# Elastic Constant Matrix: (Units=GPa)
#
#
# Indices 1 2 3 4 5 6 
#
# 1 125.4217 39.6822 58.3175 0.0000 0.0000 0.0000
# 2 39.6822 96.9077 52.1195 0.0000 0.0000 0.0000
# 3 58.3175 52.1195 137.1419 0.0000 0.0000 0.0000
# 4 0.0000 0.0000 0.0000 36.7597 0.0000 0.0000
# 5 0.0000 0.0000 0.0000 0.0000 26.5980 0.0000
# 6 0.0000 0.0000 0.0000 0.0000 0.0000 26.7001
#
#
#
# Elastic Compliance Matrix: (Units=1/GPa)
#
#
# Indices 1 2 3 4 5 6 
#
# 1 0.010347 -0.002351 -0.003507 0.000000 0.000000 0.000000
# 2 -0.002351 0.013504 -0.004132 0.000000 0.000000 0.000000
# 3 -0.003507 -0.004132 0.010353 0.000000 0.000000 0.000000
# 4 0.000000 0.000000 0.000000 0.027204 0.000000 0.000000
# 5 0.000000 0.000000 0.000000 0.000000 0.037597 0.000000
# 6 0.000000 0.000000 0.000000 0.000000 0.000000 0.037453
#
#
# Mechanical properties :
#
#
# Convention : Reuss Voigt Hill
#
# Bulk Modulus (GPa) = 70.29959 73.30109 71.80034
# Shear Modulus (GPa) = 31.02109 31.96836 31.49472
#
# Velocity S-wave (km/s) = 3.67080 3.72643 3.69872
# Velocity P-wave (km/s) = 6.96440 7.09614 7.03058
#
# Compressibility (1/GPa) = 0.01422483
#
# Stress axis : x y z
#
# Youngs Moduli (GPa) = 96.64226 74.04994 96.58753
#
# Poissons Ratio (x) = 0.17411 0.33869
# Poissons Ratio (y) = 0.22723 0.39914
# Poissons Ratio (z) = 0.33888 0.30600
#
# Static dielectric constant tensor:
#      x y z
#    x 4.070570 0.000000 0.000000 
#    y 0.000000 4.328190 0.000000 
#    z 0.000000 0.000000 4.434960 
# 
# 
# High freq. dielectric constant tensor:
#      x y z
#    x 1.902430 0.000000 0.000000 
#    y 0.000000 1.914720 0.000000 
#    z 0.000000 0.000000 1.926270 
# 
# From -- ./inp_files/1466.got.cif
#   From: 2010.03.12/outbox.cif.g09.slc.cpg/sg16_1_cif.got.tgz:1466.got - 2010.03.31 00:51:45.
