data_PCOD8155023
_publ_section_title
;
Structure prediction by ZEFSAII (Michael W. Deem and Ramdas Pophale) SiO2 
 PCOD8155023
Probable space group: C 2/C
;
_chemical_formula_sum "Si O2"
_cell_formula_units_Z 48
_cell_length_a 18.646723
_cell_length_b 13.498668
_cell_length_c 17.694751
_cell_angle_alpha 90.000000
_cell_angle_beta 29.137569
_cell_angle_gamma 90.000000
_cell_volume 2168.627642
_symmetry_space_group_name_H-M "C 2/C"
_symmetry_group_IT_number 15
_symmetry_cell_setting 'monoclinic'
loop_
_space_group_symop_operation_xyz
x,y,z
-x,y,1/2-z
-x,-y,-z
x,-y,1/2+z
1/2+x,1/2+y,z
1/2-x,1/2+y,1/2-z
1/2-x,1/2-y,-z
1/2+x,1/2-y,1/2+z
loop_
_atom_site_type_symbol
_atom_site_label
_atom_site_fract_x
_atom_site_fract_y
_atom_site_fract_z
Si Si1 0.856235 0.958153 0.540259
Si Si2 0.154259 0.686203 0.144392
Si Si3 0.640045 0.668793 0.795051
Si Si4 0.170352 0.492323 0.860703
Si Si5 0.241135 0.283683 0.850054
Si Si6 0.456965 0.660327 0.376588
O O1 0.745935 0.911417 0.580617
O O2 0.764621 0.988692 0.697515
O O3 0.981669 0.882254 0.452213
O O4 0.933655 0.050640 0.429812
O O5 0.121372 0.748979 0.249033
O O6 0.000000 0.652984 0.250000
O O7 0.250000 0.750000 0.000000
O O8 0.766875 0.589658 0.654074
O O9 0.686327 0.722766 0.828835
O O10 0.188207 0.397222 0.897250
O O11 0.000000 0.500000 0.000000
O O12 0.416790 0.284501 0.691609
O O13 0.184509 0.229704 0.978555
O O14 0.500000 0.652811 0.250000
#
# Coordination Sequence:
#
# PCOD8155023 Si02
#       6
#     8   8   8   8   8   8
#     4  12  26  49  74 108 152 195 246 310 380 450
#     4  12  28  46  74 111 151 193 240 306 386 451
#     4  12  25  47  77 106 147 193 253 309 374 444
#     4  12  26  43  73 113 141 193 256 314 362 432
#     4  12  25  47  76 105 145 194 257 310 360 444
#     4  12  28  50  74 109 151 204 247 305 380 448
#
# _framework density 22.133813
#
# number of rings (size 3 to 8) (size 9 to 14) (size 15 to 20)
#    0.000    0.000    6.667    3.000    7.000    0.000 
#    0.000    0.833    0.000    0.000    0.000    0.000 
#    0.000    0.000    0.000    0.000    0.000    0.000 
#
# Total GULP energy -297715.462930 kJ/mol
# GULP energy per Si atom -12404.810955 kJ/mol
# Density = 2.208344 g / cm^3
# Si number density = 22.133813 Si / 1000 Ang^3
#
#
#
# Elastic Constant Matrix: (Units=GPa)
#
#
# Indices 1 2 3 4 5 6 
#
# 1 114.7414 48.8455 54.8015 0.0002 -10.7625 0.0002
# 2 48.8455 120.3256 47.2457 -0.0003 -3.5143 0.0006
# 3 54.8015 47.2457 122.7114 0.0004 -11.3417 0.0006
# 4 0.0002 -0.0003 0.0004 42.3526 -0.0004 -9.0748
# 5 -10.7625 -3.5143 -11.3417 -0.0004 59.0642 -0.0002
# 6 0.0002 0.0006 0.0006 -9.0748 -0.0002 32.0928
#
#
#
# Elastic Compliance Matrix: (Units=1/GPa)
#
#
# Indices 1 2 3 4 5 6 
#
# 1 0.012177 -0.003318 -0.004045 0.000000 0.001245 0.000000
# 2 -0.003318 0.010696 -0.002681 0.000000 -0.000483 0.000000
# 3 -0.004045 -0.002681 0.011102 0.000000 0.001235 0.000000
# 4 0.000000 0.000000 0.000000 0.025134 0.000000 0.007107
# 5 0.001245 -0.000483 0.001235 0.000000 0.017366 0.000000
# 6 0.000000 0.000000 0.000000 0.007107 0.000000 0.033169
#
#
# Mechanical properties :
#
#
# Convention : Reuss Voigt Hill
#
# Bulk Modulus (GPa) = 72.01502 73.28487 72.64995
# Shear Modulus (GPa) = 37.21273 40.49430 38.85351
#
# Velocity S-wave (km/s) = 4.10477 4.28193 4.19428
# Velocity P-wave (km/s) = 7.42107 7.59134 7.50669
#
# Compressibility (1/GPa) = 0.01388599
#
# Stress axis : x y z
#
# Youngs Moduli (GPa) = 82.12418 93.48928 90.07231
#
# Poissons Ratio (x) = 0.31023 0.36437
# Poissons Ratio (y) = 0.27251 0.24148
# Poissons Ratio (z) = 0.33222 0.25064
#
# Static dielectric constant tensor:
#      x y z
#    x 4.189120 0.000000 -0.324460 
#    y 0.000000 3.725960 0.000010 
#    z -0.324460 0.000010 4.076270 
# 
# 
# High freq. dielectric constant tensor:
#      x y z
#    x 1.873810 0.000000 -0.011410 
#    y 0.000000 1.885120 0.000000 
#    z -0.011410 0.000000 1.885560 
# 
# From -- ./inp_files/66488.got.cif
#   From: 2010.06.25/outbox.cif.g09.slc.cpg/sg15_34_cif.got.tgz:66488.got - 2010.06.28 07:06:18.
