data_PCOD8155400
_publ_section_title
;
Structure prediction by ZEFSAII (Michael W. Deem and Ramdas Pophale) SiO2 
 PCOD8155400
Probable space group: P 2 2 21
;
_chemical_formula_sum "Si O2"
_cell_formula_units_Z 22
_cell_length_a 7.883335
_cell_length_b 8.976065
_cell_length_c 15.300808
_cell_angle_alpha 90.000000
_cell_angle_beta 90.000000
_cell_angle_gamma 90.000000
_cell_volume 1082.705484
_symmetry_space_group_name_H-M "P 2 2 21"
_symmetry_group_IT_number 17
_symmetry_cell_setting 'orthorhombic'
loop_
_space_group_symop_operation_xyz
x,y,z
-x,-y,1/2+z
x,-y,-z
-x,y,1/2-z
loop_
_atom_site_type_symbol
_atom_site_label
_atom_site_fract_x
_atom_site_fract_y
_atom_site_fract_z
Si Si1 0.534572 0.410887 0.089441
Si Si2 0.181745 0.335222 0.029780
Si Si3 0.500000 0.625624 0.250000
Si Si4 0.858298 0.266740 0.142331
Si Si5 0.192426 0.240160 0.842375
Si Si6 0.000000 0.013544 0.250000
Si Si7 0.000000 0.514688 0.250000
O O1 0.347109 0.336751 0.092994
O O2 0.557142 0.524240 0.169214
O O3 0.678500 0.281273 0.092262
O O4 0.556788 0.500000 0.000000
O O5 0.020764 0.265217 0.078420
O O6 0.132551 0.500000 0.000000
O O7 0.232190 0.235874 0.945397
O O8 0.645981 0.738385 0.280578
O O9 0.859000 0.408065 0.207552
O O10 0.864673 0.114429 0.197407
O O11 0.073217 0.383874 0.827207
O O12 0.102085 0.086582 0.818444
#
# Coordination Sequence:
#
# PCOD8155400 Si02
#       7
#     4   4   2   4   4   2   2
#     4  11  23  37  68 113 123 163 232 290 339 384
#     4  11  21  40  68 101 132 167 220 292 339 382
#     4  12  20  40  68  98 136 166 222 298 328 390
#     4  11  22  41  65  97 133 173 218 278 329 397
#     4  11  22  42  64  95 134 176 220 269 337 401
#     4  10  28  44  62  96 136 190 220 254 350 418
#     4  10  18  34  66  92 122 168 222 270 320 382
#
# _framework density 20.319467
#
# number of rings (size 3 to 8) (size 9 to 14) (size 15 to 20)
#    0.000    1.091    7.273    0.545    2.545    0.727 
#    3.273    0.000    0.000    0.000    0.000    0.000 
#    0.000    0.000    0.000    0.000    0.000    0.000 
#
# Total GULP energy -272770.121817 kJ/mol
# GULP energy per Si atom -12398.641901 kJ/mol
# Density = 2.027322 g / cm^3
# Si number density = 20.319467 Si / 1000 Ang^3
#
#
#
# Elastic Constant Matrix: (Units=GPa)
#
#
# Indices 1 2 3 4 5 6 
#
# 1 86.4410 29.1057 19.2645 0.0000 0.0000 0.0000
# 2 29.1057 100.5088 28.9312 0.0000 0.0000 0.0000
# 3 19.2645 28.9312 98.9226 0.0000 0.0000 0.0000
# 4 0.0000 0.0000 0.0000 19.0229 0.0000 0.0000
# 5 0.0000 0.0000 0.0000 0.0000 35.3248 0.0000
# 6 0.0000 0.0000 0.0000 0.0000 0.0000 24.5146
#
#
#
# Elastic Compliance Matrix: (Units=1/GPa)
#
#
# Indices 1 2 3 4 5 6 
#
# 1 0.013037 -0.003324 -0.001567 0.000000 0.000000 0.000000
# 2 -0.003324 0.011712 -0.002778 0.000000 0.000000 0.000000
# 3 -0.001567 -0.002778 0.011226 0.000000 0.000000 0.000000
# 4 0.000000 0.000000 0.000000 0.052568 0.000000 0.000000
# 5 0.000000 0.000000 0.000000 0.000000 0.028309 0.000000
# 6 0.000000 0.000000 0.000000 0.000000 0.000000 0.040792
#
#
# Mechanical properties :
#
#
# Convention : Reuss Voigt Hill
#
# Bulk Modulus (GPa) = 48.45549 48.94169 48.69859
# Shear Modulus (GPa) = 27.79926 29.67720 28.73823
#
# Velocity S-wave (km/s) = 3.70281 3.82583 3.76482
# Velocity P-wave (km/s) = 6.49459 6.60715 6.55111
#
# Compressibility (1/GPa) = 0.02063750
#
# Stress axis : x y z
#
# Youngs Moduli (GPa) = 76.70427 85.38505 89.07566
#
# Poissons Ratio (x) = 0.28385 0.13955
# Poissons Ratio (y) = 0.25499 0.24744
# Poissons Ratio (z) = 0.12017 0.23718
#
# Static dielectric constant tensor:
#      x y z
#    x 3.859970 0.000000 0.000000 
#    y 0.000000 3.410000 0.000000 
#    z 0.000000 0.000000 3.025270 
# 
# 
# High freq. dielectric constant tensor:
#      x y z
#    x 1.796120 0.000000 0.000000 
#    y 0.000000 1.764100 0.000000 
#    z 0.000000 0.000000 1.806260 
# 
# From -- ./inp_files/8053.got.cif
#   From: 2010.03.12/outbox.cif.g09.slc.cpg/sg17_5_cif.got.tgz:8053.got - 2010.04.10 18:46:23.
