data_PCOD8155346
_publ_section_title
;
Structure prediction by ZEFSAII (Michael W. Deem and Ramdas Pophale) SiO2 
 PCOD8155346
Probable space group: P 2 2 2
;
_chemical_formula_sum "Si O2"
_cell_formula_units_Z 20
_cell_length_a 7.963752
_cell_length_b 12.050177
_cell_length_c 8.811440
_cell_angle_alpha 90.000000
_cell_angle_beta 90.000000
_cell_angle_gamma 90.000000
_cell_volume 845.586502
_symmetry_space_group_name_H-M "P 2 2 2"
_symmetry_group_IT_number 16
_symmetry_cell_setting 'orthorhombic'
loop_
_space_group_symop_operation_xyz
x,y,z
-x,-y,z
x,-y,-z
-x,y,-z
loop_
_atom_site_type_symbol
_atom_site_label
_atom_site_fract_x
_atom_site_fract_y
_atom_site_fract_z
Si Si1 0.821654 0.444075 0.795755
Si Si2 0.319872 0.648685 0.079898
Si Si3 0.672829 0.177459 0.319929
Si Si4 0.808031 0.973350 0.171966
Si Si5 0.287656 0.231408 0.354144
O O1 0.678507 0.539984 0.810613
O O2 0.771251 0.358569 0.663521
O O3 0.000000 0.500000 0.760708
O O4 0.822080 0.373781 0.952796
O O5 0.253391 0.752852 0.178121
O O6 0.500000 0.670038 0.000000
O O7 0.688205 0.047738 0.279651
O O8 0.486304 0.221504 0.341408
O O9 0.773329 0.195844 0.477529
O O10 0.785926 0.845608 0.219876
O O11 0.000000 0.000000 0.201630
O O12 0.754082 0.000000 0.000000
#
# Coordination Sequence:
#
# PCOD8155346 Si02
#       5
#     4   4   4   4   4
#     4  11  24  42  68 102 141 183 234 295 348 414
#     4  11  22  42  69 101 134 186 242 292 342 410
#     4  11  25  44  73 103 141 184 233 290 355 428
#     4  11  26  46  72 105 138 181 233 289 355 432
#     4  11  25  46  69 104 144 183 230 292 357 426
#
# _framework density 23.652221000000001
#
# number of rings (size 3 to 8) (size 9 to 14) (size 15 to 20)
#    0.000    1.000    2.000    4.800    2.800    4.800 
#    3.600    4.000    0.000    0.000    0.000    0.000 
#    0.000    0.000    0.000    0.000    0.000    0.000 
#
# Total GULP energy -247939.693939 kJ/mol
# GULP energy per Si atom -12396.984697 kJ/mol
# Density = 2.359839 g / cm^3
# Si number density = 23.652221 Si / 1000 Ang^3
#
#
#
# Elastic Constant Matrix: (Units=GPa)
#
#
# Indices 1 2 3 4 5 6 
#
# 1 75.7240 21.0956 21.4860 0.0000 0.0000 0.0000
# 2 21.0956 109.8771 35.8929 0.0000 0.0000 0.0000
# 3 21.4860 35.8929 109.7317 0.0000 0.0000 0.0000
# 4 0.0000 0.0000 0.0000 42.9777 0.0000 0.0000
# 5 0.0000 0.0000 0.0000 0.0000 17.7668 0.0000
# 6 0.0000 0.0000 0.0000 0.0000 0.0000 37.6919
#
#
#
# Elastic Compliance Matrix: (Units=1/GPa)
#
#
# Indices 1 2 3 4 5 6 
#
# 1 0.014388 -0.002063 -0.002143 0.000000 0.000000 0.000000
# 2 -0.002063 0.010486 -0.003026 0.000000 0.000000 0.000000
# 3 -0.002143 -0.003026 0.010522 0.000000 0.000000 0.000000
# 4 0.000000 0.000000 0.000000 0.023268 0.000000 0.000000
# 5 0.000000 0.000000 0.000000 0.000000 0.056285 0.000000
# 6 0.000000 0.000000 0.000000 0.000000 0.000000 0.026531
#
#
# Mechanical properties :
#
#
# Convention : Reuss Voigt Hill
#
# Bulk Modulus (GPa) = 47.76890 50.25354 49.01122
# Shear Modulus (GPa) = 30.68983 34.14448 32.41716
#
# Velocity S-wave (km/s) = 3.60605 3.80360 3.70614
# Velocity P-wave (km/s) = 6.13012 6.37047 6.25145
#
# Compressibility (1/GPa) = 0.02093412
#
# Stress axis : x y z
#
# Youngs Moduli (GPa) = 69.50035 95.36949 95.03486
#
# Poissons Ratio (x) = 0.19670 0.20363
# Poissons Ratio (y) = 0.14335 0.28757
# Poissons Ratio (z) = 0.14892 0.28858
#
# Static dielectric constant tensor:
#      x y z
#    x 3.974590 0.000000 0.000000 
#    y 0.000000 4.469860 0.000000 
#    z 0.000000 0.000000 4.778820 
# 
# 
# High freq. dielectric constant tensor:
#      x y z
#    x 1.918150 0.000000 0.000000 
#    y 0.000000 1.947790 0.000000 
#    z 0.000000 0.000000 1.936270 
# 
# From -- ./inp_files/3795.got.cif
#   From: 2010.03.12/outbox.cif.g09.slc.cpg/sg16_2_cif.got.tgz:3795.got - 2010.03.31 00:51:45.
