data_PCOD8155692
_publ_section_title
;
Structure prediction by ZEFSAII (Michael W. Deem and Ramdas Pophale) SiO2 
 PCOD8155692
Probable space group: P 2 2 21
;
_chemical_formula_sum "Si O2"
_cell_formula_units_Z 18
_cell_length_a 5.374107
_cell_length_b 5.173730
_cell_length_c 25.666122
_cell_angle_alpha 90.000000
_cell_angle_beta 90.000000
_cell_angle_gamma 90.000000
_cell_volume 713.625440
_symmetry_space_group_name_H-M "P 2 2 21"
_symmetry_group_IT_number 17
_symmetry_cell_setting 'orthorhombic'
loop_
_space_group_symop_operation_xyz
x,y,z
-x,-y,1/2+z
x,-y,-z
-x,y,1/2-z
loop_
_atom_site_type_symbol
_atom_site_label
_atom_site_fract_x
_atom_site_fract_y
_atom_site_fract_z
Si Si1 0.871273 0.228262 0.397904
Si Si2 0.000000 0.846028 0.250000
Si Si3 0.768957 0.493535 0.167345
Si Si4 0.751192 0.000000 0.500000
Si Si5 0.500000 0.813682 0.750000
Si Si6 0.417147 0.751515 0.096029
O O1 0.759666 0.511253 0.394149
O O2 0.113771 0.241858 0.361385
O O3 0.926330 0.157195 0.458994
O O4 0.690217 0.006831 0.374698
O O5 0.033578 0.654146 0.298789
O O6 0.248900 0.018406 0.241619
O O7 0.540947 0.380226 0.201277
O O8 0.681608 0.689067 0.121601
O O9 0.569777 0.810110 0.466310
#
# Coordination Sequence:
#
# PCOD8155692 Si02
#       6
#     4   2   4   2   2   4
#     4  10  25  47  84 117 169 220 276 350 419 509
#     4  12  32  52  84 122 178 226 290 360 422 518
#     4  12  30  50  81 126 168 225 288 344 440 502
#     4   8  22  52  80 124 172 208 284 344 428 494
#     4  12  32  52  84 122 178 226 290 360 422 518
#     4  10  25  47  84 117 169 220 276 350 419 509
#
# _framework density 25.223319
#
# number of rings (size 3 to 8) (size 9 to 14) (size 15 to 20)
#    1.333    0.000    0.000    2.000   15.556    0.000 
#    0.000    6.667    9.778    0.000    0.000    0.000 
#    0.000    0.000    0.000    0.000    0.000    0.000 
#
# Total GULP energy -223011.967595 kJ/mol
# GULP energy per Si atom -12389.553755 kJ/mol
# Density = 2.516591 g / cm^3
# Si number density = 25.223319 Si / 1000 Ang^3
#
#
#
# Elastic Constant Matrix: (Units=GPa)
#
#
# Indices 1 2 3 4 5 6 
#
# 1 112.9771 40.5910 39.1027 0.0000 0.0000 0.0000
# 2 40.5910 121.8578 28.1999 0.0000 0.0000 0.0000
# 3 39.1027 28.1999 120.7227 0.0000 0.0000 0.0000
# 4 0.0000 0.0000 0.0000 24.3190 0.0000 0.0000
# 5 0.0000 0.0000 0.0000 0.0000 17.4879 0.0000
# 6 0.0000 0.0000 0.0000 0.0000 0.0000 46.6706
#
#
#
# Elastic Compliance Matrix: (Units=1/GPa)
#
#
# Indices 1 2 3 4 5 6 
#
# 1 0.010902 -0.002975 -0.002836 0.000000 0.000000 0.000000
# 2 -0.002975 0.009487 -0.001252 0.000000 0.000000 0.000000
# 3 -0.002836 -0.001252 0.009495 0.000000 0.000000 0.000000
# 4 0.000000 0.000000 0.000000 0.041120 0.000000 0.000000
# 5 0.000000 0.000000 0.000000 0.000000 0.057183 0.000000
# 6 0.000000 0.000000 0.000000 0.000000 0.000000 0.021427
#
#
# Mechanical properties :
#
#
# Convention : Reuss Voigt Hill
#
# Bulk Modulus (GPa) = 63.46732 63.48277 63.47505
# Shear Modulus (GPa) = 29.58706 34.20642 31.89674
#
# Velocity S-wave (km/s) = 3.42863 3.68658 3.55994
# Velocity P-wave (km/s) = 6.39459 6.58362 6.48980
#
# Compressibility (1/GPa) = 0.01575614
#
# Stress axis : x y z
#
# Youngs Moduli (GPa) = 91.72709 105.40589 105.32212
#
# Poissons Ratio (x) = 0.31359 0.29872
# Poissons Ratio (y) = 0.27290 0.13191
# Poissons Ratio (z) = 0.26016 0.13202
#
# Static dielectric constant tensor:
#      x y z
#    x 4.192360 0.000000 0.000000 
#    y 0.000000 4.743610 0.000000 
#    z 0.000000 0.000000 4.740710 
# 
# 
# High freq. dielectric constant tensor:
#      x y z
#    x 1.972320 0.000000 0.000000 
#    y 0.000000 2.026070 0.000000 
#    z 0.000000 0.000000 2.019540 
# 
# From -- ./inp_files/10308.got.cif
#   From: 2010.03.12/outbox.cif.g09.slc.cpg/sg17_6_cif.got.tgz:10308.got - 2010.04.10 18:46:23.
