data_PCOD8155529
_publ_section_title
;
Structure prediction by ZEFSAII (Michael W. Deem and Ramdas Pophale) SiO2 
 PCOD8155529
Probable space group: P 2 2 21
;
_chemical_formula_sum "Si O2"
_cell_formula_units_Z 26
_cell_length_a 8.170354
_cell_length_b 8.053477
_cell_length_c 19.422230
_cell_angle_alpha 90.000000
_cell_angle_beta 90.000000
_cell_angle_gamma 90.000000
_cell_volume 1277.978034
_symmetry_space_group_name_H-M "P 2 2 21"
_symmetry_group_IT_number 17
_symmetry_cell_setting 'orthorhombic'
loop_
_space_group_symop_operation_xyz
x,y,z
-x,-y,1/2+z
x,-y,-z
-x,y,1/2-z
loop_
_atom_site_type_symbol
_atom_site_label
_atom_site_fract_x
_atom_site_fract_y
_atom_site_fract_z
Si Si1 0.658532 0.536011 0.883231
Si Si2 0.985163 0.610160 0.669017
Si Si3 0.370083 0.262096 0.513981
Si Si4 0.500000 0.579000 0.250000
Si Si5 0.841308 0.716862 0.299013
Si Si6 0.135920 0.956469 0.885795
Si Si7 0.111205 0.000000 0.500000
Si Si8 0.621435 0.000000 0.500000
O O1 0.678215 0.353522 0.915524
O O2 0.537273 0.535686 0.817109
O O3 0.836727 0.606130 0.865065
O O4 0.575540 0.634718 0.946518
O O5 0.878861 0.442701 0.650498
O O6 0.000000 0.607430 0.750000
O O7 0.895779 0.781438 0.650887
O O8 0.212721 0.164928 0.488014
O O9 0.515384 0.141688 0.536309
O O10 0.667217 0.685884 0.260168
O O11 0.816369 0.893977 0.335210
O O12 0.000000 0.735124 0.250000
O O13 0.278656 0.914976 0.939181
O O14 0.986003 0.025767 0.929687
#
# Coordination Sequence:
#
# PCOD8155529 Si02
#       8
#     4   4   4   2   4   4   2   2
#     4  11  22  41  68  97 130 183 228 279 351 403
#     4  11  22  43  66  96 134 172 228 282 339 414
#     4  10  22  41  66  93 131 178 224 282 338 408
#     4  12  24  42  70 100 140 182 224 292 342 414
#     4  11  24  44  65  97 138 176 227 280 340 417
#     4  11  23  42  64  96 131 177 222 282 345 399
#     4  10  20  38  66  86 126 170 222 276 328 402
#     4  10  24  42  58 100 136 166 226 292 330 412
#
# _framework density 20.344638
#
# number of rings (size 3 to 8) (size 9 to 14) (size 15 to 20)
#    0.000    1.231    4.615    2.308    2.154    0.000 
#    0.000    0.769    0.000    0.000    0.000    0.000 
#    0.000    0.000    0.000    0.000    0.000    0.000 
#
# Total GULP energy -322142.813456 kJ/mol
# GULP energy per Si atom -12390.108210 kJ/mol
# Density = 2.029833 g / cm^3
# Si number density = 20.344638 Si / 1000 Ang^3
#
#
#
# Elastic Constant Matrix: (Units=GPa)
#
#
# Indices 1 2 3 4 5 6 
#
# 1 97.5338 21.6276 15.3098 0.0000 0.0000 0.0000
# 2 21.6276 119.9363 27.7999 0.0000 0.0000 0.0000
# 3 15.3098 27.7999 86.0661 0.0000 0.0000 0.0000
# 4 0.0000 0.0000 0.0000 11.4242 0.0000 0.0000
# 5 0.0000 0.0000 0.0000 0.0000 15.4879 0.0000
# 6 0.0000 0.0000 0.0000 0.0000 0.0000 33.6791
#
#
#
# Elastic Compliance Matrix: (Units=1/GPa)
#
#
# Indices 1 2 3 4 5 6 
#
# 1 0.010834 -0.001629 -0.001401 0.000000 0.000000 0.000000
# 2 -0.001629 0.009257 -0.002700 0.000000 0.000000 0.000000
# 3 -0.001401 -0.002700 0.012740 0.000000 0.000000 0.000000
# 4 0.000000 0.000000 0.000000 0.087533 0.000000 0.000000
# 5 0.000000 0.000000 0.000000 0.000000 0.064566 0.000000
# 6 0.000000 0.000000 0.000000 0.000000 0.000000 0.029692
#
#
# Mechanical properties :
#
#
# Convention : Reuss Voigt Hill
#
# Bulk Modulus (GPa) = 46.79222 48.11231 47.45226
# Shear Modulus (GPa) = 21.44008 28.03818 24.73913
#
# Velocity S-wave (km/s) = 3.24982 3.71639 3.49091
# Velocity P-wave (km/s) = 6.09356 6.48963 6.29471
#
# Compressibility (1/GPa) = 0.02137107
#
# Stress axis : x y z
#
# Youngs Moduli (GPa) = 92.30224 108.02137 78.49005
#
# Poissons Ratio (x) = 0.17596 0.10997
# Poissons Ratio (y) = 0.15035 0.21196
# Poissons Ratio (z) = 0.12932 0.29171
#
# Static dielectric constant tensor:
#      x y z
#    x 3.967980 0.000000 0.000000 
#    y 0.000000 3.986980 0.000000 
#    z 0.000000 0.000000 3.683660 
# 
# 
# High freq. dielectric constant tensor:
#      x y z
#    x 1.799360 0.000000 0.000000 
#    y 0.000000 1.799010 0.000000 
#    z 0.000000 0.000000 1.793420 
# 
# From -- ./inp_files/9456.got.cif
#   From: 2010.03.12/outbox.cif.g09.slc.cpg/sg17_5_cif.got.tgz:9456.got - 2010.04.10 18:46:23.
