data_PCOD8155596
_publ_section_title
;
Structure prediction by ZEFSAII (Michael W. Deem and Ramdas Pophale) SiO2 
 PCOD8155596
Probable space group: P 2 2 21
;
_chemical_formula_sum "Si O2"
_cell_formula_units_Z 32
_cell_length_a 8.981363
_cell_length_b 10.381113
_cell_length_c 15.703117
_cell_angle_alpha 90.000000
_cell_angle_beta 90.000000
_cell_angle_gamma 90.000000
_cell_volume 1464.104362
_symmetry_space_group_name_H-M "P 2 2 21"
_symmetry_group_IT_number 17
_symmetry_cell_setting 'orthorhombic'
loop_
_space_group_symop_operation_xyz
x,y,z
-x,-y,1/2+z
x,-y,-z
-x,y,1/2-z
loop_
_atom_site_type_symbol
_atom_site_label
_atom_site_fract_x
_atom_site_fract_y
_atom_site_fract_z
Si Si1 0.833232 0.035270 0.719117
Si Si2 0.399183 0.921523 0.673001
Si Si3 0.257223 0.308124 0.417594
Si Si4 0.564961 0.648689 0.496709
Si Si5 0.324329 0.093124 0.074838
Si Si6 0.971630 0.635147 0.045346
Si Si7 0.148446 0.524513 0.294041
Si Si8 0.753251 0.306598 0.645280
O O1 0.814506 0.172817 0.677342
O O2 0.000000 0.012749 0.750000
O O3 0.711805 0.033837 0.795553
O O4 0.794162 0.921362 0.651899
O O5 0.500000 0.864343 0.750000
O O6 0.288777 0.816716 0.636117
O O7 0.515435 0.969539 0.601605
O O8 0.391903 0.350528 0.479288
O O9 0.115819 0.272701 0.478736
O O10 0.235199 0.416277 0.345553
O O11 0.624459 0.500000 0.500000
O O12 0.654319 0.754058 0.555323
O O13 0.589168 0.695181 0.397908
O O14 0.265791 0.000000 0.000000
O O15 0.898238 0.637045 0.139688
O O16 0.144527 0.664316 0.060943
O O17 0.948005 0.500000 0.000000
O O18 0.248514 0.586634 0.219411
O O19 0.000000 0.466000 0.250000
#
# Coordination Sequence:
#
# PCOD8155596 Si02
#       8
#     4   4   4   4   4   4   4   4
#     4  11  23  43  65  97 131 171 231 280 315 386
#     4   9  22  42  63  86 126 172 211 264 328 395
#     4  10  21  41  63  94 128 167 218 273 321 399
#     4  11  23  41  67 100 131 168 221 274 323 395
#     4  10  21  46  67  91 133 178 214 260 335 393
#     4   9  18  37  61  89 131 168 212 264 326 390
#     4   9  19  36  61  91 127 171 209 264 335 387
#     4  11  22  39  62  92 132 172 212 272 339 388
#
# _framework density 21.856365
#
# number of rings (size 3 to 8) (size 9 to 14) (size 15 to 20)
#    0.000    2.000    1.250    2.625    0.000    4.500 
#   11.250    1.875    0.000    0.750    0.000    0.000 
#    0.000    0.000    0.000    0.000    0.000    0.000 
#
# Total GULP energy -396429.530391 kJ/mol
# GULP energy per Si atom -12388.422825 kJ/mol
# Density = 2.180662 g / cm^3
# Si number density = 21.856365 Si / 1000 Ang^3
#
#
#
# Elastic Constant Matrix: (Units=GPa)
#
#
# Indices 1 2 3 4 5 6 
#
# 1 88.1388 25.7279 62.2278 0.0000 0.0000 0.0000
# 2 25.7279 58.6351 26.8302 0.0000 0.0000 0.0000
# 3 62.2278 26.8302 117.3549 0.0000 0.0000 0.0000
# 4 0.0000 0.0000 0.0000 26.9518 0.0000 0.0000
# 5 0.0000 0.0000 0.0000 0.0000 48.6280 0.0000
# 6 0.0000 0.0000 0.0000 0.0000 0.0000 24.6284
#
#
#
# Elastic Compliance Matrix: (Units=1/GPa)
#
#
# Indices 1 2 3 4 5 6 
#
# 1 0.019003 -0.004163 -0.009125 0.000000 0.000000 0.000000
# 2 -0.004163 0.019959 -0.002356 0.000000 0.000000 0.000000
# 3 -0.009125 -0.002356 0.013898 0.000000 0.000000 0.000000
# 4 0.000000 0.000000 0.000000 0.037103 0.000000 0.000000
# 5 0.000000 0.000000 0.000000 0.000000 0.020564 0.000000
# 6 0.000000 0.000000 0.000000 0.000000 0.000000 0.040603
#
#
# Mechanical properties :
#
#
# Convention : Reuss Voigt Hill
#
# Bulk Modulus (GPa) = 46.35278 54.85563 50.60420
# Shear Modulus (GPa) = 26.36998 29.99784 28.18391
#
# Velocity S-wave (km/s) = 3.47726 3.70874 3.59486
# Velocity P-wave (km/s) = 6.11357 6.59488 6.35878
#
# Compressibility (1/GPa) = 0.02157368
#
# Stress axis : x y z
#
# Youngs Moduli (GPa) = 52.62285 50.10220 71.95199
#
# Poissons Ratio (x) = 0.20857 0.65654
# Poissons Ratio (y) = 0.21906 0.16950
# Poissons Ratio (z) = 0.48017 0.11803
#
# Static dielectric constant tensor:
#      x y z
#    x 3.960960 0.000000 0.000000 
#    y 0.000000 3.719390 0.000000 
#    z 0.000000 0.000000 4.362890 
# 
# 
# High freq. dielectric constant tensor:
#      x y z
#    x 1.854480 0.000000 0.000000 
#    y 0.000000 1.836200 0.000000 
#    z 0.000000 0.000000 1.876230 
# 
# From -- ./inp_files/8286.got.cif
#   From: 2010.03.12/outbox.cif.g09.slc.cpg/sg17_5_cif.got.tgz:8286.got - 2010.04.10 18:46:23.
