data_PCOD8155764
_publ_section_title
;
Structure prediction by ZEFSAII (Michael W. Deem and Ramdas Pophale) SiO2 
 PCOD8155764
Probable space group: P 2 2 21
;
_chemical_formula_sum "Si O2"
_cell_formula_units_Z 16
_cell_length_a 9.239304
_cell_length_b 8.176768
_cell_length_c 8.684829
_cell_angle_alpha 90.000000
_cell_angle_beta 90.000000
_cell_angle_gamma 90.000000
_cell_volume 656.118381
_symmetry_space_group_name_H-M "P 2 2 21"
_symmetry_group_IT_number 17
_symmetry_cell_setting 'orthorhombic'
loop_
_space_group_symop_operation_xyz
x,y,z
-x,-y,1/2+z
x,-y,-z
-x,y,1/2-z
loop_
_atom_site_type_symbol
_atom_site_label
_atom_site_fract_x
_atom_site_fract_y
_atom_site_fract_z
Si Si1 0.673428 0.282997 0.739586
Si Si2 0.245880 0.947034 0.668869
Si Si3 0.173798 0.500000 0.000000
Si Si4 0.000000 0.710935 0.750000
Si Si5 0.608145 0.500000 0.000000
Si Si6 0.500000 0.728129 0.750000
O O1 0.500000 0.250258 0.750000
O O2 0.720411 0.375258 0.586640
O O3 0.767444 0.116813 0.738115
O O4 0.713174 0.392872 0.890166
O O5 0.360157 0.839424 0.761767
O O6 0.103881 0.836466 0.658763
O O7 0.301216 0.000000 0.500000
O O8 0.076233 0.597450 0.876803
O O9 0.502897 0.386158 0.100415
#
# Coordination Sequence:
#
# PCOD8155764 Si02
#       6
#     4   4   2   2   2   2
#     4  12  27  50  85 123 163 213 280 352 408 487
#     4  12  29  50  80 119 165 218 272 341 420 493
#     4  12  33  57  84 122 169 229 280 338 425 505
#     4  12  34  54  84 118 172 226 270 338 422 522
#     4  12  25  43  80 122 161 207 268 352 411 475
#     4  12  26  50  78 120 162 216 286 344 408 480
#
# _framework density 24.385842
#
# number of rings (size 3 to 8) (size 9 to 14) (size 15 to 20)
#    0.000    0.000    5.000    2.250   10.500    1.000 
#    0.000    0.000    0.000    0.000    0.000    0.000 
#    0.000    0.000    0.000    0.000    0.000    0.000 
#
# Total GULP energy -198377.828317 kJ/mol
# GULP energy per Si atom -12398.614270 kJ/mol
# Density = 2.433034 g / cm^3
# Si number density = 24.385842 Si / 1000 Ang^3
#
#
#
# Elastic Constant Matrix: (Units=GPa)
#
#
# Indices 1 2 3 4 5 6 
#
# 1 97.7533 53.8376 41.8191 0.0000 0.0000 0.0000
# 2 53.8376 195.7195 81.3396 0.0000 0.0000 0.0000
# 3 41.8191 81.3396 150.6668 0.0000 0.0000 0.0000
# 4 0.0000 0.0000 0.0000 23.7707 0.0000 0.0000
# 5 0.0000 0.0000 0.0000 0.0000 44.5463 0.0000
# 6 0.0000 0.0000 0.0000 0.0000 0.0000 35.1606
#
#
#
# Elastic Compliance Matrix: (Units=1/GPa)
#
#
# Indices 1 2 3 4 5 6 
#
# 1 0.012546 -0.002583 -0.002087 0.000000 0.000000 0.000000
# 2 -0.002583 0.007119 -0.003126 0.000000 0.000000 0.000000
# 3 -0.002087 -0.003126 0.008904 0.000000 0.000000 0.000000
# 4 0.000000 0.000000 0.000000 0.042069 0.000000 0.000000
# 5 0.000000 0.000000 0.000000 0.000000 0.022449 0.000000
# 6 0.000000 0.000000 0.000000 0.000000 0.000000 0.028441
#
#
# Mechanical properties :
#
#
# Convention : Reuss Voigt Hill
#
# Bulk Modulus (GPa) = 77.07283 88.68135 82.87709
# Shear Modulus (GPa) = 35.34890 38.50506 36.92698
#
# Velocity S-wave (km/s) = 3.81145 3.97796 3.89560
# Velocity P-wave (km/s) = 7.14449 7.58576 7.36843
#
# Compressibility (1/GPa) = 0.01297474
#
# Stress axis : x y z
#
# Youngs Moduli (GPa) = 79.70855 140.46306 112.30419
#
# Poissons Ratio (x) = 0.36288 0.23443
# Poissons Ratio (y) = 0.20593 0.35111
# Poissons Ratio (z) = 0.16639 0.43914
#
# Static dielectric constant tensor:
#      x y z
#    x 4.444820 0.000000 0.000000 
#    y 0.000000 5.057740 0.000000 
#    z 0.000000 0.000000 4.185850 
# 
# 
# High freq. dielectric constant tensor:
#      x y z
#    x 1.950120 0.000000 0.000000 
#    y 0.000000 1.999510 0.000000 
#    z 0.000000 0.000000 1.981280 
# 
# From -- ./inp_files/3791.got.cif
#   From: 2010.03.12/outbox.cif.g09.slc.cpg/sg17_2_cif.got.tgz:3791.got - 2010.04.10 18:46:23.
