data_PCOD8155774
_publ_section_title
;
Structure prediction by ZEFSAII (Michael W. Deem and Ramdas Pophale) SiO2 
 PCOD8155774
Probable space group: P 21 21 2
;
_chemical_formula_sum "Si O2"
_cell_formula_units_Z 24
_cell_length_a 4.996620
_cell_length_b 19.087932
_cell_length_c 15.071511
_cell_angle_alpha 90.000000
_cell_angle_beta 90.000000
_cell_angle_gamma 90.000000
_cell_volume 1437.447514
_symmetry_space_group_name_H-M "P 21 21 2"
_symmetry_group_IT_number 18
_symmetry_cell_setting 'orthorhombic'
loop_
_space_group_symop_operation_xyz
x,y,z
-x,-y,z
1/2+x,1/2-y,-z
1/2-x,1/2+y,-z
loop_
_atom_site_type_symbol
_atom_site_label
_atom_site_fract_x
_atom_site_fract_y
_atom_site_fract_z
Si Si1 0.793316 0.706193 0.014495
Si Si2 0.749086 0.548811 0.689662
Si Si3 0.321873 0.762420 0.613490
Si Si4 0.817033 0.242855 0.802970
Si Si5 0.676374 0.175640 0.431489
Si Si6 0.181974 0.835645 0.166795
O O1 0.718322 0.686025 0.116609
O O2 0.605179 0.773214 0.990127
O O3 0.731653 0.647924 0.938770
O O4 0.500000 0.500000 0.671938
O O5 0.778350 0.597520 0.602984
O O6 0.717971 0.593416 0.779187
O O7 0.000000 0.500000 0.702959
O O8 0.252103 0.795141 0.709754
O O9 0.288666 0.822331 0.538548
O O10 0.618286 0.729829 0.614412
O O11 0.122385 0.698114 0.594067
O O12 0.617681 0.308225 0.818336
O O13 0.113951 0.275085 0.800521
#
# Coordination Sequence:
#
# PCOD8155774 Si02
#       6
#     4   4   4   4   4   4
#     4   8  16  25  42  65  89 113 136 174 224 266
#     4  12  22  32  46  64  92 132 160 185 221 274
#     4  10  17  30  50  66  92 117 146 194 246 276
#     4  10  15  28  48  68  89 116 140 182 240 278
#     4  10  20  31  44  68  91 120 154 192 230 276
#     4  10  18  30  42  65  95 116 150 183 217 276
#
# _framework density 16.696262999999998
#
# number of rings (size 3 to 8) (size 9 to 14) (size 15 to 20)
#    0.000    2.000    3.333    2.000    0.000    0.000 
#    0.000    0.000    0.000    0.000    0.000    2.333 
#    0.000    0.000    0.000    0.000    0.000    0.000 
#
# Total GULP energy -297422.950935 kJ/mol
# GULP energy per Si atom -12392.622956 kJ/mol
# Density = 1.665826 g / cm^3
# Si number density = 16.696263 Si / 1000 Ang^3
#
#
#
# Elastic Constant Matrix: (Units=GPa)
#
#
# Indices 1 2 3 4 5 6 
#
# 1 71.4869 12.1198 -1.2594 0.0000 0.0000 0.0000
# 2 12.1198 59.1638 33.8002 0.0000 0.0000 0.0000
# 3 -1.2594 33.8002 140.7586 0.0000 0.0000 0.0000
# 4 0.0000 0.0000 0.0000 29.6556 0.0000 0.0000
# 5 0.0000 0.0000 0.0000 0.0000 22.6924 0.0000
# 6 0.0000 0.0000 0.0000 0.0000 0.0000 19.4944
#
#
#
# Elastic Compliance Matrix: (Units=1/GPa)
#
#
# Indices 1 2 3 4 5 6 
#
# 1 0.014609 -0.003555 0.000984 0.000000 0.000000 0.000000
# 2 -0.003555 0.020455 -0.004944 0.000000 0.000000 0.000000
# 3 0.000984 -0.004944 0.008300 0.000000 0.000000 0.000000
# 4 0.000000 0.000000 0.000000 0.033720 0.000000 0.000000
# 5 0.000000 0.000000 0.000000 0.000000 0.044068 0.000000
# 6 0.000000 0.000000 0.000000 0.000000 0.000000 0.051297
#
#
# Mechanical properties :
#
#
# Convention : Reuss Voigt Hill
#
# Bulk Modulus (GPa) = 35.29174 40.08118 37.68646
# Shear Modulus (GPa) = 25.39079 29.48507 27.43793
#
# Velocity S-wave (km/s) = 3.90391 4.20690 4.05823
# Velocity P-wave (km/s) = 6.44236 6.90330 6.67681
#
# Compressibility (1/GPa) = 0.02833524
#
# Stress axis : x y z
#
# Youngs Moduli (GPa) = 68.45267 48.88844 120.47809
#
# Poissons Ratio (x) = 0.17380 -0.11859
# Poissons Ratio (y) = 0.24335 0.59559
# Poissons Ratio (z) = -0.06738 0.24168
#
# Static dielectric constant tensor:
#      x y z
#    x 3.363040 0.000000 0.000000 
#    y 0.000000 2.568830 0.000000 
#    z 0.000000 0.000000 3.772700 
# 
# 
# High freq. dielectric constant tensor:
#      x y z
#    x 1.674680 0.000000 0.000000 
#    y 0.000000 1.555180 0.000000 
#    z 0.000000 0.000000 1.667580 
# 
# From -- ./inp_files/6249.got.cif
#   From: 2010.03.12/outbox.cif.g09.slc.cpg/sg18_4_cif.got.tgz:6249.got - 2010.04.10 18:53:55.
