data_PCOD8155525
_publ_section_title
;
Structure prediction by ZEFSAII (Michael W. Deem and Ramdas Pophale) SiO2 
 PCOD8155525
Probable space group: P 2 2 21
;
_chemical_formula_sum "Si O2"
_cell_formula_units_Z 20
_cell_length_a 13.044381
_cell_length_b 14.311781
_cell_length_c 5.131748
_cell_angle_alpha 90.000000
_cell_angle_beta 90.000000
_cell_angle_gamma 90.000000
_cell_volume 958.037434
_symmetry_space_group_name_H-M "P 2 2 21"
_symmetry_group_IT_number 17
_symmetry_cell_setting 'orthorhombic'
loop_
_space_group_symop_operation_xyz
x,y,z
-x,-y,1/2+z
x,-y,-z
-x,y,1/2-z
loop_
_atom_site_type_symbol
_atom_site_label
_atom_site_fract_x
_atom_site_fract_y
_atom_site_fract_z
Si Si1 0.722276 0.564263 0.251499
Si Si2 0.200094 0.240552 0.659923
Si Si3 0.500000 0.561515 0.250000
Si Si4 0.716371 0.143895 0.325740
Si Si5 0.142694 0.000000 0.000000
Si Si6 0.000000 0.851797 0.250000
Si Si7 0.500000 0.939176 0.750000
O O1 0.747504 0.500000 0.500000
O O2 0.800601 0.649785 0.228797
O O3 0.608837 0.614784 0.281493
O O4 0.732144 0.500000 0.000000
O O5 0.261590 0.220310 0.395086
O O6 0.081640 0.213698 0.601329
O O7 0.251442 0.181494 0.890974
O O8 0.481549 0.500000 0.500000
O O9 0.781289 0.046599 0.281791
O O10 0.595584 0.125367 0.327107
O O11 0.067209 0.916390 0.066667
O O12 0.468485 0.000000 0.500000
#
# Coordination Sequence:
#
# PCOD8155525 Si02
#       7
#     4   4   2   4   2   2   2
#     4  10  20  38  61  86 119 159 197 250 314 374
#     4  11  24  41  61  93 124 158 213 267 304 362
#     4   8  16  30  54  82 106 144 190 230 286 360
#     4  11  24  39  62  91 126 165 207 253 304 369
#     4  10  20  40  62  90 116 172 204 262 306 372
#     4  10  22  38  64  88 120 158 212 264 310 354
#     4  12  24  40  62  92 130 176 204 238 304 386
#
# _framework density 20.876010999999998
#
# number of rings (size 3 to 8) (size 9 to 14) (size 15 to 20)
#    0.000    1.600    1.000    3.600    2.800    4.000 
#    0.000    3.000    0.000    0.000    0.000    0.000 
#    0.000    0.000    0.000    0.000    0.000    0.000 
#
# Total GULP energy -247782.870591 kJ/mol
# GULP energy per Si atom -12389.143530 kJ/mol
# Density = 2.082850 g / cm^3
# Si number density = 20.876011 Si / 1000 Ang^3
#
#
#
# Elastic Constant Matrix: (Units=GPa)
#
#
# Indices 1 2 3 4 5 6 
#
# 1 146.4736 62.3918 21.8775 0.0000 0.0000 0.0000
# 2 62.3918 114.7256 23.8293 0.0000 0.0000 0.0000
# 3 21.8775 23.8293 105.6097 0.0000 0.0000 0.0000
# 4 0.0000 0.0000 0.0000 31.4781 0.0000 0.0000
# 5 0.0000 0.0000 0.0000 0.0000 20.6102 0.0000
# 6 0.0000 0.0000 0.0000 0.0000 0.0000 -13.2318
#
#
#
# Elastic Compliance Matrix: (Units=1/GPa)
#
#
# Indices 1 2 3 4 5 6 
#
# 1 0.008948 -0.004702 -0.000793 0.000000 0.000000 0.000000
# 2 -0.004702 0.011615 -0.001647 0.000000 0.000000 0.000000
# 3 -0.000793 -0.001647 0.010005 0.000000 0.000000 0.000000
# 4 0.000000 0.000000 0.000000 0.031768 0.000000 0.000000
# 5 0.000000 0.000000 0.000000 0.000000 0.048520 0.000000
# 6 0.000000 0.000000 0.000000 0.000000 0.000000 -0.075575
#
#
# Mechanical properties :
#
#
# Convention : Reuss Voigt Hill
#
# Bulk Modulus (GPa) = 61.40386 64.77844 63.09115
# Shear Modulus (GPa) = 90.92148 25.01864 57.97006
#
# Velocity S-wave (km/s) = 6.60664 3.46560 5.27532
# Velocity P-wave (km/s) = 9.36346 6.86377 8.20931
#
# Compressibility (1/GPa) = 0.01628562
#
# Stress axis : x y z
#
# Youngs Moduli (GPa) = 111.75260 86.09189 99.95348
#
# Poissons Ratio (x) = 0.40478 0.07924
# Poissons Ratio (y) = 0.52543 0.16461
# Poissons Ratio (z) = 0.08860 0.14178
#
# Static dielectric constant tensor:
#      x y z
#    x 4.279080 0.000000 0.000000 
#    y 0.000000 3.591840 0.000000 
#    z 0.000000 0.000000 4.524580 
# 
# 
# High freq. dielectric constant tensor:
#      x y z
#    x 1.828730 0.000000 0.000000 
#    y 0.000000 1.797520 0.000000 
#    z 0.000000 0.000000 1.818840 
# 
# From -- ./inp_files/1598.got.cif
#   From: 2010.03.12/outbox.cif.g09.slc.cpg/sg17_1_cif.got.tgz:1598.got - 2010.04.10 18:46:23.
