data_PCOD8155172
_publ_section_title
;
Structure prediction by ZEFSAII (Michael W. Deem and Ramdas Pophale) SiO2 
 PCOD8155172
Probable space group: C 2/C
;
_chemical_formula_sum "Si O2"
_cell_formula_units_Z 24
_cell_length_a 27.251454
_cell_length_b 5.052546
_cell_length_c 13.899159
_cell_angle_alpha 90.000000
_cell_angle_beta 150.732542
_cell_angle_gamma 90.000000
_cell_volume 935.614681
_symmetry_space_group_name_H-M "C 2/C"
_symmetry_group_IT_number 15
_symmetry_cell_setting 'monoclinic'
loop_
_space_group_symop_operation_xyz
x,y,z
-x,y,1/2-z
-x,-y,-z
x,-y,1/2+z
1/2+x,1/2+y,z
1/2-x,1/2+y,1/2-z
1/2-x,1/2-y,-z
1/2+x,1/2-y,1/2+z
loop_
_atom_site_type_symbol
_atom_site_label
_atom_site_fract_x
_atom_site_fract_y
_atom_site_fract_z
Si Si1 0.681080 0.372697 0.718486
Si Si2 0.609929 0.085295 0.424546
Si Si3 0.389388 0.109046 0.294175
O O1 0.614447 0.327005 0.508408
O O2 0.631672 0.627025 0.682795
O O3 0.682904 0.124987 0.794583
O O4 0.798017 0.395614 0.887328
O O5 0.500000 0.949289 0.250000
O O6 0.630001 0.179472 0.350215
O O7 0.500000 0.000000 0.500000
#
# Coordination Sequence:
#
# PCOD8155172 Si02
#       3
#     8   8   8
#     4  12  28  54  77 120 160 206 269 323 400 472
#     4  12  28  52  84 118 160 211 266 331 395 472
#     4  12  27  54  81 115 161 214 259 329 401 469
#
# _framework density 25.651585000000001
#
# number of rings (size 3 to 8) (size 9 to 14) (size 15 to 20)
#    0.000    0.000    3.333    5.000    0.000    5.333 
#    0.000    0.000    0.000    0.000    0.000    0.000 
#    0.000    0.000    0.000    0.000    0.000    0.000 
#
# Total GULP energy -148790.831869 kJ/mol
# GULP energy per Si atom -12399.235989 kJ/mol
# Density = 2.559320 g / cm^3
# Si number density = 25.651585 Si / 1000 Ang^3
#
#
#
# Elastic Constant Matrix: (Units=GPa)
#
#
# Indices 1 2 3 4 5 6 
#
# 1 180.2202 86.7536 66.5982 0.0000 -14.6440 0.0001
# 2 86.7536 156.5011 39.0392 -0.0004 -5.4425 -0.0010
# 3 66.5982 39.0392 160.7718 0.0000 6.8747 -0.0002
# 4 0.0000 -0.0004 0.0000 29.0699 -0.0003 7.8809
# 5 -14.6440 -5.4425 6.8747 -0.0003 54.6652 -0.0005
# 6 0.0001 -0.0010 -0.0002 7.8809 -0.0005 33.9893
#
#
#
# Elastic Compliance Matrix: (Units=1/GPa)
#
#
# Indices 1 2 3 4 5 6 
#
# 1 0.008690 -0.004062 -0.002710 0.000000 0.002264 0.000000
# 2 -0.004062 0.008744 -0.000434 0.000000 -0.000163 0.000000
# 3 -0.002710 -0.000434 0.007521 0.000000 -0.001715 0.000000
# 4 0.000000 0.000000 0.000000 0.036707 0.000000 -0.008511
# 5 0.002264 -0.000163 -0.001715 0.000000 0.019099 0.000000
# 6 0.000000 0.000000 0.000000 -0.008511 0.000000 0.031394
#
#
# Mechanical properties :
#
#
# Convention : Reuss Voigt Hill
#
# Bulk Modulus (GPa) = 94.84672 98.03055 96.43863
# Shear Modulus (GPa) = 38.43742 43.88503 41.16123
#
# Velocity S-wave (km/s) = 3.87517 4.14068 4.01013
# Velocity P-wave (km/s) = 7.55499 7.82045 7.68887
#
# Compressibility (1/GPa) = 0.01054333
#
# Stress axis : x y z
#
# Youngs Moduli (GPa) = 115.07949 114.36390 132.95733
#
# Poissons Ratio (x) = 0.46457 0.36032
# Poissons Ratio (y) = 0.46748 0.05764
# Poissons Ratio (z) = 0.31187 0.04958
#
# Static dielectric constant tensor:
#      x y z
#    x 5.379540 0.000000 -0.055160 
#    y 0.000000 4.575420 0.000000 
#    z -0.055160 0.000000 5.090940 
# 
# 
# High freq. dielectric constant tensor:
#      x y z
#    x 2.061570 0.000000 0.001080 
#    y 0.000000 2.004880 0.000000 
#    z 0.001080 0.000000 2.040360 
# 
# From -- ./inp_files/149358.got.cif
#   From: 2010.06.25/outbox.cif.g09.slc.cpg/sg15_75_cif.got.tgz:149358.got - 2010.06.28 07:06:18.
