data_PCOD8155586
_publ_section_title
;
Structure prediction by ZEFSAII (Michael W. Deem and Ramdas Pophale) SiO2 
 PCOD8155586
Probable space group: P 2 2 21
;
_chemical_formula_sum "Si O2"
_cell_formula_units_Z 24
_cell_length_a 13.677460
_cell_length_b 8.729128
_cell_length_c 9.373635
_cell_angle_alpha 90.000000
_cell_angle_beta 90.000000
_cell_angle_gamma 90.000000
_cell_volume 1119.139833
_symmetry_space_group_name_H-M "P 2 2 21"
_symmetry_group_IT_number 17
_symmetry_cell_setting 'orthorhombic'
loop_
_space_group_symop_operation_xyz
x,y,z
-x,-y,1/2+z
x,-y,-z
-x,y,1/2-z
loop_
_atom_site_type_symbol
_atom_site_label
_atom_site_fract_x
_atom_site_fract_y
_atom_site_fract_z
Si Si1 0.737054 0.332465 0.237155
Si Si2 0.771633 0.312514 0.725352
Si Si3 0.048149 0.865148 0.103868
Si Si4 0.848380 0.818707 0.994794
Si Si5 0.361526 0.179663 0.998384
Si Si6 0.539346 0.355876 0.097669
O O1 0.766616 0.504771 0.274648
O O2 0.827201 0.245687 0.163069
O O3 0.709620 0.250775 0.383299
O O4 0.651954 0.311959 0.118137
O O5 0.864685 0.252577 0.635371
O O6 0.672257 0.246814 0.654392
O O7 0.776766 0.255898 0.887770
O O8 0.000000 0.933893 0.250000
O O9 0.960908 0.773285 0.025498
O O10 0.087260 0.000000 0.000000
O O11 0.834221 0.000000 0.000000
O O12 0.475015 0.218197 0.030915
O O13 0.348930 0.000000 0.000000
O O14 0.500000 0.407486 0.250000
O O15 0.525541 0.500000 0.000000
#
# Coordination Sequence:
#
# PCOD8155586 Si02
#       6
#     4   4   4   4   4   4
#     4  11  23  41  62  90 124 162 206 257 313 374
#     4  11  21  39  64  90 124 165 208 256 310 372
#     4   9  20  38  62  93 128 167 210 255 308 367
#     4  10  21  39  63  91 125 165 207 254 310 370
#     4  11  23  40  62  89 121 159 207 259 311 374
#     4  10  21  39  61  87 120 156 198 251 315 377
#
# _framework density 21.445042999999998
#
# number of rings (size 3 to 8) (size 9 to 14) (size 15 to 20)
#    0.000    1.667    0.000    5.500    0.000    3.333 
#    0.000   19.167    0.000    0.000    0.000    0.000 
#    0.000    0.000    0.000    0.000    0.000    0.000 
#
# Total GULP energy -297577.887922 kJ/mol
# GULP energy per Si atom -12399.078663 kJ/mol
# Density = 2.139623 g / cm^3
# Si number density = 21.445043 Si / 1000 Ang^3
#
#
#
# Elastic Constant Matrix: (Units=GPa)
#
#
# Indices 1 2 3 4 5 6 
#
# 1 71.8628 11.4043 23.1359 0.0000 0.0000 0.0000
# 2 11.4043 119.9325 26.2896 0.0000 0.0000 0.0000
# 3 23.1359 26.2896 48.2739 0.0000 0.0000 0.0000
# 4 0.0000 0.0000 0.0000 146.9931 0.0000 0.0000
# 5 0.0000 0.0000 0.0000 0.0000 32.3192 0.0000
# 6 0.0000 0.0000 0.0000 0.0000 0.0000 28.2015
#
#
#
# Elastic Compliance Matrix: (Units=1/GPa)
#
#
# Indices 1 2 3 4 5 6 
#
# 1 0.016458 0.000186 -0.007989 0.000000 0.000000 0.000000
# 2 0.000186 0.009470 -0.005247 0.000000 0.000000 0.000000
# 3 -0.007989 -0.005247 0.027401 0.000000 0.000000 0.000000
# 4 0.000000 0.000000 0.000000 0.006803 0.000000 0.000000
# 5 0.000000 0.000000 0.000000 0.000000 0.030941 0.000000
# 6 0.000000 0.000000 0.000000 0.000000 0.000000 0.035459
#
#
# Mechanical properties :
#
#
# Convention : Reuss Voigt Hill
#
# Bulk Modulus (GPa) = 36.72360 40.19208 38.45784
# Shear Modulus (GPa) = 30.91965 53.45204 42.18584
#
# Velocity S-wave (km/s) = 3.80123 4.99792 4.44008
# Velocity P-wave (km/s) = 6.03552 7.21722 6.65266
#
# Compressibility (1/GPa) = 0.02723045
#
# Stress axis : x y z
#
# Youngs Moduli (GPa) = 60.76104 105.59187 36.49447
#
# Poissons Ratio (x) = -0.01967 0.29156
# Poissons Ratio (y) = -0.01132 0.19148
# Poissons Ratio (z) = 0.48543 0.55402
#
# Static dielectric constant tensor:
#      x y z
#    x 3.589840 0.000000 0.000000 
#    y 0.000000 3.787090 0.000000 
#    z 0.000000 0.000000 4.491050 
# 
# 
# High freq. dielectric constant tensor:
#      x y z
#    x 1.845670 0.000000 0.000000 
#    y 0.000000 1.829940 0.000000 
#    z 0.000000 0.000000 1.859210 
# 
# From -- ./inp_files/5140.got.cif
#   From: 2010.03.12/outbox.cif.g09.slc.cpg/sg17_3_cif.got.tgz:5140.got - 2010.04.10 18:46:23.
