data_PCOD8155590
_publ_section_title
;
Structure prediction by ZEFSAII (Michael W. Deem and Ramdas Pophale) SiO2 
 PCOD8155590
Probable space group: P 2 2 21
;
_chemical_formula_sum "Si O2"
_cell_formula_units_Z 26
_cell_length_a 16.493628
_cell_length_b 6.210277
_cell_length_c 12.112238
_cell_angle_alpha 90.000000
_cell_angle_beta 90.000000
_cell_angle_gamma 90.000000
_cell_volume 1240.656522
_symmetry_space_group_name_H-M "P 2 2 21"
_symmetry_group_IT_number 17
_symmetry_cell_setting 'orthorhombic'
loop_
_space_group_symop_operation_xyz
x,y,z
-x,-y,1/2+z
x,-y,-z
-x,y,1/2-z
loop_
_atom_site_type_symbol
_atom_site_label
_atom_site_fract_x
_atom_site_fract_y
_atom_site_fract_z
Si Si1 0.732987 0.093322 0.196354
Si Si2 0.953062 0.500000 0.500000
Si Si3 0.177534 0.000000 0.500000
Si Si4 0.061875 0.260306 0.658480
Si Si5 0.304332 0.696971 0.172779
Si Si6 0.629238 0.000000 0.500000
Si Si7 0.844975 0.593331 0.693115
Si Si8 0.414283 0.308948 0.191846
O O1 0.809110 0.177412 0.269851
O O2 0.651432 0.222051 0.221511
O O3 0.713972 0.839202 0.217256
O O4 0.759652 0.147480 0.070064
O O5 0.902263 0.634327 0.589324
O O6 0.007699 0.321224 0.555392
O O7 0.127392 0.896278 0.398338
O O8 0.106234 0.469172 0.709965
O O9 0.000000 0.154117 0.750000
O O10 0.310001 0.861329 0.072537
O O11 0.228779 0.548082 0.148790
O O12 0.387504 0.556926 0.171629
O O13 0.578120 0.160032 0.418977
O O14 0.500000 0.308518 0.250000
#
# Coordination Sequence:
#
# PCOD8155590 Si02
#       8
#     4   2   2   4   4   2   4   4
#     4  10  23  39  65  94 124 173 220 268 326 397
#     4  10  22  36  62  88 124 172 210 276 342 384
#     4  12  22  41  63  92 132 180 224 278 332 401
#     4  10  22  40  58  91 130 171 222 278 338 400
#     4  10  21  40  63  96 125 166 216 269 324 389
#     4  10  22  39  69  94 128 166 220 254 330 377
#     4  10  21  40  62  89 126 162 223 274 323 398
#     4  10  23  43  66  99 137 168 211 275 326 396
#
# _framework density 20.956645000000002
#
# number of rings (size 3 to 8) (size 9 to 14) (size 15 to 20)
#    0.000    1.846    1.538    1.385    6.462    4.308 
#    0.000    1.538    0.000    0.000    0.000    0.000 
#    0.000    0.000    0.000    0.000    0.000    0.000 
#
# Total GULP energy -322089.790065 kJ/mol
# GULP energy per Si atom -12388.068849 kJ/mol
# Density = 2.090895 g / cm^3
# Si number density = 20.956645 Si / 1000 Ang^3
#
#
#
# Elastic Constant Matrix: (Units=GPa)
#
#
# Indices 1 2 3 4 5 6 
#
# 1 117.0502 32.2367 67.4381 0.0000 0.0000 0.0000
# 2 32.2367 91.3864 47.2893 0.0000 0.0000 0.0000
# 3 67.4381 47.2893 134.9820 0.0000 0.0000 0.0000
# 4 0.0000 0.0000 0.0000 24.7502 0.0000 0.0000
# 5 0.0000 0.0000 0.0000 0.0000 31.3334 0.0000
# 6 0.0000 0.0000 0.0000 0.0000 0.0000 19.9436
#
#
#
# Elastic Compliance Matrix: (Units=1/GPa)
#
#
# Indices 1 2 3 4 5 6 
#
# 1 0.012141 -0.001397 -0.005576 0.000000 0.000000 0.000000
# 2 -0.001397 0.013526 -0.004041 0.000000 0.000000 0.000000
# 3 -0.005576 -0.004041 0.011610 0.000000 0.000000 0.000000
# 4 0.000000 0.000000 0.000000 0.040404 0.000000 0.000000
# 5 0.000000 0.000000 0.000000 0.000000 0.031915 0.000000
# 6 0.000000 0.000000 0.000000 0.000000 0.000000 0.050141
#
#
# Mechanical properties :
#
#
# Convention : Reuss Voigt Hill
#
# Bulk Modulus (GPa) = 65.57864 70.81633 68.19749
# Shear Modulus (GPa) = 26.75969 28.30241 27.53105
#
# Velocity S-wave (km/s) = 3.57726 3.67893 3.62845
# Velocity P-wave (km/s) = 6.95865 7.20495 7.08287
#
# Compressibility (1/GPa) = 0.01524887
#
# Stress axis : x y z
#
# Youngs Moduli (GPa) = 82.36662 73.92972 86.13327
#
# Poissons Ratio (x) = 0.10330 0.48029
# Poissons Ratio (y) = 0.11509 0.34804
# Poissons Ratio (z) = 0.45929 0.29873
#
# Static dielectric constant tensor:
#      x y z
#    x 3.848060 0.000000 0.000000 
#    y 0.000000 3.983410 0.000000 
#    z 0.000000 0.000000 3.926820 
# 
# 
# High freq. dielectric constant tensor:
#      x y z
#    x 1.822160 0.000000 0.000000 
#    y 0.000000 1.808310 0.000000 
#    z 0.000000 0.000000 1.826220 
# 
# From -- ./inp_files/7363.got.cif
#   From: 2010.03.12/outbox.cif.g09.slc.cpg/sg17_4_cif.got.tgz:7363.got - 2010.04.10 18:46:23.
