data_PCOD8155269
_publ_section_title
;
Structure prediction by ZEFSAII (Michael W. Deem and Ramdas Pophale) SiO2 
 PCOD8155269
Probable space group: P 2 2 2
;
_chemical_formula_sum "Si O2"
_cell_formula_units_Z 19
_cell_length_a 7.755014
_cell_length_b 13.395222
_cell_length_c 8.023431
_cell_angle_alpha 90.000000
_cell_angle_beta 90.000000
_cell_angle_gamma 90.000000
_cell_volume 833.475089
_symmetry_space_group_name_H-M "P 2 2 2"
_symmetry_group_IT_number 16
_symmetry_cell_setting 'orthorhombic'
loop_
_space_group_symop_operation_xyz
x,y,z
-x,-y,z
x,-y,-z
-x,y,-z
loop_
_atom_site_type_symbol
_atom_site_label
_atom_site_fract_x
_atom_site_fract_y
_atom_site_fract_z
Si Si1 0.604528 0.223308 0.166622
Si Si2 0.062303 0.113090 0.823459
Si Si3 0.201207 0.388983 0.006611
Si Si4 0.500000 0.500000 0.500000
Si Si5 0.000000 0.228611 0.500000
Si Si6 0.317150 0.679925 0.648288
O O1 0.731104 0.128533 0.197379
O O2 0.480307 0.243125 0.328135
O O3 0.500000 0.198154 0.000000
O O4 0.717940 0.324492 0.144128
O O5 0.973760 0.164434 0.666236
O O6 0.000000 0.000000 0.820784
O O7 0.000000 0.161765 0.000000
O O8 0.230946 0.326199 0.172859
O O9 0.285275 0.500000 0.000000
O O10 0.000000 0.400942 0.000000
O O11 0.379907 0.568989 0.612311
O O12 0.179402 0.290946 0.497570
#
# Coordination Sequence:
#
# PCOD8155269 Si02
#       6
#     4   4   4   1   2   4
#     4  10  20  40  66  96 132 173 223 279 338 405
#     4  11  24  45  72  99 131 173 222 283 354 420
#     4  10  20  35  61  95 134 183 230 271 327 400
#     4  12  24  38  54  88 130 174 224 274 324 394
#     4  12  25  45  68  98 134 178 226 281 351 418
#     4  11  24  38  61  92 134 179 222 279 336 401
#
# _framework density 22.796122
#
# number of rings (size 3 to 8) (size 9 to 14) (size 15 to 20)
#    0.000    1.263    0.000    7.263    0.000    6.737 
#    0.000    7.368    0.000    7.579    0.000    0.000 
#    0.000    0.000    0.000    0.000    0.000    0.000 
#
# Total GULP energy -235486.666292 kJ/mol
# GULP energy per Si atom -12394.035068 kJ/mol
# Density = 2.274424 g / cm^3
# Si number density = 22.796122 Si / 1000 Ang^3
#
#
#
# Elastic Constant Matrix: (Units=GPa)
#
#
# Indices 1 2 3 4 5 6 
#
# 1 157.5712 64.2437 37.4138 0.0000 0.0000 0.0000
# 2 64.2437 115.6237 42.0151 0.0000 0.0000 0.0000
# 3 37.4138 42.0151 111.6240 0.0000 0.0000 0.0000
# 4 0.0000 0.0000 0.0000 35.5979 0.0000 0.0000
# 5 0.0000 0.0000 0.0000 0.0000 38.3886 0.0000
# 6 0.0000 0.0000 0.0000 0.0000 0.0000 -9.3312
#
#
#
# Elastic Compliance Matrix: (Units=1/GPa)
#
#
# Indices 1 2 3 4 5 6 
#
# 1 0.008346 -0.004194 -0.001219 0.000000 0.000000 0.000000
# 2 -0.004194 0.012127 -0.003159 0.000000 0.000000 0.000000
# 3 -0.001219 -0.003159 0.010556 0.000000 0.000000 0.000000
# 4 0.000000 0.000000 0.000000 0.028092 0.000000 0.000000
# 5 0.000000 0.000000 0.000000 0.000000 0.026049 0.000000
# 6 0.000000 0.000000 0.000000 0.000000 0.000000 -0.107168
#
#
# Mechanical properties :
#
#
# Convention : Reuss Voigt Hill
#
# Bulk Modulus (GPa) = 72.01741 74.68489 73.35115
# Shear Modulus (GPa) = -22117.87409 29.00748 -11044.43330
#
# Velocity S-wave (km/s) = -98.60799 3.57105 -69.68064
# Velocity P-wave (km/s) = 113.72358 7.05949 80.25963
#
# Compressibility (1/GPa) = 0.01388553
#
# Stress axis : x y z
#
# Youngs Moduli (GPa) = 119.82136 82.46022 94.73251
#
# Poissons Ratio (x) = 0.34587 0.11544
# Poissons Ratio (y) = 0.50257 0.29924
# Poissons Ratio (z) = 0.14601 0.26047
#
# Static dielectric constant tensor:
#      x y z
#    x 4.323460 0.000000 0.000000 
#    y 0.000000 3.936360 0.000000 
#    z 0.000000 0.000000 4.248780 
# 
# 
# High freq. dielectric constant tensor:
#      x y z
#    x 1.913550 0.000000 0.000000 
#    y 0.000000 1.875040 0.000000 
#    z 0.000000 0.000000 1.909110 
# 
# From -- ./inp_files/3837.got.cif
#   From: 2010.03.12/outbox.cif.g09.slc.cpg/sg16_2_cif.got.tgz:3837.got - 2010.03.31 00:51:45.
