data_PCOD8156994
_publ_section_title
;
Structure prediction by ZEFSAII (Michael W. Deem and Ramdas Pophale) SiO2 
 PCOD8156994
Probable space group: P 21 21 21
;
_chemical_formula_sum "Si O2"
_cell_formula_units_Z 32
_cell_length_a 9.023337
_cell_length_b 15.779081
_cell_length_c 10.547469
_cell_angle_alpha 90.000000
_cell_angle_beta 90.000000
_cell_angle_gamma 90.000000
_cell_volume 1501.748271
_symmetry_space_group_name_H-M "P 21 21 21"
_symmetry_group_IT_number 19
_symmetry_cell_setting 'orthorhombic'
loop_
_space_group_symop_operation_xyz
x,y,z
1/2-x,-y,1/2+z
1/2+x,1/2-y,-z
-x,1/2+y,1/2-z
loop_
_atom_site_type_symbol
_atom_site_label
_atom_site_fract_x
_atom_site_fract_y
_atom_site_fract_z
Si Si1 0.448956 0.719628 0.306507
Si Si2 0.977969 0.738427 0.133328
Si Si3 0.160338 0.104956 0.900911
Si Si4 0.178704 0.369420 0.037832
Si Si5 0.543319 0.584668 0.742420
Si Si6 0.265452 0.803300 0.658108
Si Si7 0.218549 0.327835 0.564194
Si Si8 0.921237 0.001448 0.020833
O O1 0.423484 0.819718 0.327454
O O2 0.432400 0.670740 0.437986
O O3 0.612426 0.689270 0.262621
O O4 0.330676 0.687025 0.207037
O O5 0.903162 0.683903 0.246317
O O6 0.048196 0.822755 0.193772
O O7 0.103672 0.683058 0.063229
O O8 0.853854 0.759115 0.029080
O O9 0.295893 0.068251 0.818506
O O10 0.217206 0.134087 0.039517
O O11 0.044712 0.027561 0.917021
O O12 0.304344 0.422534 0.965378
O O13 0.254772 0.293112 0.112249
O O14 0.083273 0.425013 0.135995
O O15 0.505907 0.513776 0.846742
O O16 0.173045 0.420827 0.521162
#
# Coordination Sequence:
#
# PCOD8156994 Si02
#       8
#     4   4   4   4   4   4   4   4
#     4  11  21  38  70  97 132 176 232 273 330 411
#     4  10  22  42  67  97 132 172 227 277 333 407
#     4  11  22  42  67  99 136 175 225 288 333 402
#     4  10  22  39  63  98 131 168 224 275 340 394
#     4  10  22  44  64  92 136 176 216 288 342 399
#     4  10  21  38  71  97 122 176 229 274 328 401
#     4  11  24  42  66  99 134 179 226 273 341 412
#     4  11  26  41  66  97 139 178 223 286 349 400
#
# _framework density 21.308499999999999
#
# number of rings (size 3 to 8) (size 9 to 14) (size 15 to 20)
#    0.000    1.500    3.750    0.750    3.500    1.000 
#    0.000    2.500    0.000    0.000    0.000    0.000 
#    0.000    0.000    0.000    0.000    0.000    0.000 
#
# Total GULP energy -396801.729988 kJ/mol
# GULP energy per Si atom -12400.054062 kJ/mol
# Density = 2.126000 g / cm^3
# Si number density = 21.308500 Si / 1000 Ang^3
#
#
#
# Elastic Constant Matrix: (Units=GPa)
#
#
# Indices 1 2 3 4 5 6 
#
# 1 143.4445 48.1928 38.8081 0.0000 0.0000 0.0000
# 2 48.1928 65.5985 25.4100 0.0000 0.0000 0.0000
# 3 38.8081 25.4100 74.0746 0.0000 0.0000 0.0000
# 4 0.0000 0.0000 0.0000 26.2717 0.0000 0.0000
# 5 0.0000 0.0000 0.0000 0.0000 46.0404 0.0000
# 6 0.0000 0.0000 0.0000 0.0000 0.0000 23.8103
#
#
#
# Elastic Compliance Matrix: (Units=1/GPa)
#
#
# Indices 1 2 3 4 5 6 
#
# 1 0.009831 -0.006028 -0.003082 0.000000 0.000000 0.000000
# 2 -0.006028 0.021277 -0.004140 0.000000 0.000000 0.000000
# 3 -0.003082 -0.004140 0.016535 0.000000 0.000000 0.000000
# 4 0.000000 0.000000 0.000000 0.038064 0.000000 0.000000
# 5 0.000000 0.000000 0.000000 0.000000 0.021720 0.000000
# 6 0.000000 0.000000 0.000000 0.000000 0.000000 0.041999
#
#
# Mechanical properties :
#
#
# Convention : Reuss Voigt Hill
#
# Bulk Modulus (GPa) = 47.30284 56.43771 51.87027
# Shear Modulus (GPa) = 27.32636 30.60494 28.96565
#
# Velocity S-wave (km/s) = 3.58497 3.79394 3.69093
# Velocity P-wave (km/s) = 6.27561 6.76280 6.52375
#
# Compressibility (1/GPa) = 0.02114038
#
# Stress axis : x y z
#
# Youngs Moduli (GPa) = 101.72392 46.99969 60.47742
#
# Poissons Ratio (x) = 0.28332 0.18642
# Poissons Ratio (y) = 0.61321 0.25040
# Poissons Ratio (z) = 0.31356 0.19460
#
# Static dielectric constant tensor:
#      x y z
#    x 3.875390 0.000000 0.000000 
#    y 0.000000 3.583380 0.000000 
#    z 0.000000 0.000000 3.856840 
# 
# 
# High freq. dielectric constant tensor:
#      x y z
#    x 1.849370 0.000000 0.000000 
#    y 0.000000 1.814080 0.000000 
#    z 0.000000 0.000000 1.836210 
# 
# From -- ./inp_files/4795.got.cif
#   From: 2010.03.12/outbox.cif.g09.slc.cpg/sg19_3_cif.got.tgz:4795.got - 2010.04.10 18:59:41.
