data_PCOD8156297
_publ_section_title
;
Structure prediction by ZEFSAII (Michael W. Deem and Ramdas Pophale) SiO2 
 PCOD8156297
Probable space group: P 21 21 2
;
_chemical_formula_sum "Si O2"
_cell_formula_units_Z 30
_cell_length_a 11.624749
_cell_length_b 23.011907
_cell_length_c 5.354442
_cell_angle_alpha 90.000000
_cell_angle_beta 90.000000
_cell_angle_gamma 90.000000
_cell_volume 1432.354158
_symmetry_space_group_name_H-M "P 21 21 2"
_symmetry_group_IT_number 18
_symmetry_cell_setting 'orthorhombic'
loop_
_space_group_symop_operation_xyz
x,y,z
-x,-y,z
1/2+x,1/2-y,-z
1/2-x,1/2+y,-z
loop_
_atom_site_type_symbol
_atom_site_label
_atom_site_fract_x
_atom_site_fract_y
_atom_site_fract_z
Si Si1 0.853051 0.618026 0.000024
Si Si2 0.000000 0.000000 0.736218
Si Si3 0.598842 0.837691 0.001042
Si Si4 0.705155 0.394748 0.747756
Si Si5 0.326946 0.201987 0.497437
Si Si6 0.250121 0.326797 0.500871
Si Si7 0.542416 0.603485 0.619749
Si Si8 0.701350 0.517946 0.907006
O O1 0.803743 0.648444 0.247301
O O2 0.814243 0.650329 0.746909
O O3 0.817229 0.549493 0.004871
O O4 0.990935 0.618956 0.008589
O O5 0.002278 0.059424 0.586774
O O6 0.881143 0.992007 0.882826
O O7 0.718688 0.874366 0.012970
O O8 0.591177 0.796686 0.249551
O O9 0.598746 0.798286 0.751667
O O10 0.752327 0.358093 0.510134
O O11 0.569895 0.378249 0.780355
O O12 0.725794 0.464599 0.716551
O O13 0.242075 0.257115 0.494816
O O14 0.387222 0.342465 0.505023
O O15 0.633395 0.570834 0.788416
#
# Coordination Sequence:
#
# PCOD8156297 Si02
#       8
#     4   2   4   4   4   4   4   4
#     4  11  24  43  69  95 134 180 220 276 336 409
#     4  12  18  36  64  98 132 160 210 282 344 392
#     4  10  24  44  65  92 134 177 224 271 328 406
#     4  10  23  39  64  96 135 171 219 274 339 396
#     4  10  24  45  64  99 129 179 226 277 329 394
#     4  11  24  44  67 100 128 175 231 273 344 399
#     4  11  22  37  64 100 129 171 214 284 343 397
#     4  11  22  38  64  98 131 166 220 276 339 399
#
# _framework density 20.944541000000001
#
# number of rings (size 3 to 8) (size 9 to 14) (size 15 to 20)
#    0.800    0.533    4.000    1.600    1.867    2.667 
#    0.000    1.333    2.933    0.000    0.000    0.000 
#    0.000    0.000    0.000    0.000    0.000    0.000 
#
# Total GULP energy -371659.529192 kJ/mol
# GULP energy per Si atom -12388.650973 kJ/mol
# Density = 2.089687 g / cm^3
# Si number density = 20.944541 Si / 1000 Ang^3
#
#
#
# Elastic Constant Matrix: (Units=GPa)
#
#
# Indices 1 2 3 4 5 6 
#
# 1 96.1488 60.1564 37.0895 0.0000 0.0000 0.0000
# 2 60.1564 62.4785 24.8655 0.0000 0.0000 0.0000
# 3 37.0895 24.8655 124.6119 0.0000 0.0000 0.0000
# 4 0.0000 0.0000 0.0000 27.2221 0.0000 0.0000
# 5 0.0000 0.0000 0.0000 0.0000 22.5561 0.0000
# 6 0.0000 0.0000 0.0000 0.0000 0.0000 27.0750
#
#
#
# Elastic Compliance Matrix: (Units=1/GPa)
#
#
# Indices 1 2 3 4 5 6 
#
# 1 0.027232 -0.024978 -0.003121 0.000000 0.000000 0.000000
# 2 -0.024978 0.040296 -0.000606 0.000000 0.000000 0.000000
# 3 -0.003121 -0.000606 0.009075 0.000000 0.000000 0.000000
# 4 0.000000 0.000000 0.000000 0.036735 0.000000 0.000000
# 5 0.000000 0.000000 0.000000 0.000000 0.044334 0.000000
# 6 0.000000 0.000000 0.000000 0.000000 0.000000 0.036934
#
#
# Mechanical properties :
#
#
# Convention : Reuss Voigt Hill
#
# Bulk Modulus (GPa) = 52.10392 58.60688 55.35540
# Shear Modulus (GPa) = 19.34868 26.11250 22.73059
#
# Velocity S-wave (km/s) = 3.04271 3.53476 3.29793
# Velocity P-wave (km/s) = 6.10535 6.68596 6.40224
#
# Compressibility (1/GPa) = 0.01919241
#
# Stress axis : x y z
#
# Youngs Moduli (GPa) = 36.72116 24.81606 110.19362
#
# Poissons Ratio (x) = 0.61985 0.34394
# Poissons Ratio (y) = 0.91722 0.06683
# Poissons Ratio (z) = 0.11461 0.01505
#
# Static dielectric constant tensor:
#      x y z
#    x 3.882660 0.000000 0.000000 
#    y 0.000000 3.795720 0.000000 
#    z 0.000000 0.000000 3.844420 
# 
# 
# High freq. dielectric constant tensor:
#      x y z
#    x 1.813730 0.000000 0.000000 
#    y 0.000000 1.810260 0.000000 
#    z 0.000000 0.000000 1.820220 
# 
# From -- ./inp_files/1305.got.cif
#   From: 2010.03.12/outbox.cif.g09.slc.cpg/sg18_1_cif.got.tgz:1305.got - 2010.04.10 18:53:55.
