data_PCOD8156673
_publ_section_title
;
Structure prediction by ZEFSAII (Michael W. Deem and Ramdas Pophale) SiO2 
 PCOD8156673
Probable space group: P 21 21 21
;
_chemical_formula_sum "Si O2"
_cell_formula_units_Z 24
_cell_length_a 24.277882
_cell_length_b 7.983109
_cell_length_c 5.372427
_cell_angle_alpha 90.000000
_cell_angle_beta 90.000000
_cell_angle_gamma 90.000000
_cell_volume 1041.246078
_symmetry_space_group_name_H-M "P 21 21 21"
_symmetry_group_IT_number 19
_symmetry_cell_setting 'orthorhombic'
loop_
_space_group_symop_operation_xyz
x,y,z
1/2-x,-y,1/2+z
1/2+x,1/2-y,-z
-x,1/2+y,1/2-z
loop_
_atom_site_type_symbol
_atom_site_label
_atom_site_fract_x
_atom_site_fract_y
_atom_site_fract_z
Si Si1 0.258178 0.103391 0.499945
Si Si2 0.280915 0.549494 0.000094
Si Si3 0.069546 0.898808 0.499832
Si Si4 0.595124 0.985003 0.500058
Si Si5 0.883444 0.353250 0.500170
Si Si6 0.446147 0.499211 0.499936
O O1 0.212749 0.249929 0.500017
O O2 0.318708 0.187716 0.499914
O O3 0.250013 0.999961 0.749916
O O4 0.250000 0.500056 0.250119
O O5 0.339589 0.457928 0.000138
O O6 0.064736 0.695956 0.499784
O O7 0.101906 0.957471 0.250325
O O8 0.101935 0.957451 0.749279
O O9 0.011602 0.993482 0.499888
O O10 0.576101 0.087420 0.253376
O O11 0.576165 0.087404 0.746855
O O12 0.920687 0.187067 0.500238
#
# Coordination Sequence:
#
# PCOD8156673 Si02
#       6
#     4   4   4   4   4   4
#     4  12  26  46  69 102 142 184 229 288 350 410
#     4  12  23  43  74 103 135 182 231 282 344 413
#     4  10  19  37  62  89 122 164 214 275 330 387
#     4  10  21  37  59  94 126 162 216 273 328 396
#     4  10  21  40  61  88 126 170 215 269 330 400
#     4  10  20  37  61  90 125 170 215 269 332 394
#
# _framework density 23.049303999999999
#
# number of rings (size 3 to 8) (size 9 to 14) (size 15 to 20)
#    0.000    1.333    0.000    8.000    0.000    0.000 
#    0.000   20.000    0.000    0.000    0.000    0.000 
#    0.000    0.000    0.000    0.000    0.000    0.000 
#
# Total GULP energy -297428.145415 kJ/mol
# GULP energy per Si atom -12392.839392 kJ/mol
# Density = 2.299684 g / cm^3
# Si number density = 23.049304 Si / 1000 Ang^3
#
#
#
# Elastic Constant Matrix: (Units=GPa)
#
#
# Indices 1 2 3 4 5 6 
#
# 1 130.1268 15.7076 41.4911 0.0000 0.0000 0.0000
# 2 15.7076 74.0329 17.3300 0.0000 0.0000 0.0000
# 3 41.4911 17.3300 277.3061 0.0000 0.0000 0.0000
# 4 0.0000 0.0000 0.0000 18.5478 0.0000 0.0000
# 5 0.0000 0.0000 0.0000 0.0000 48.6258 0.0000
# 6 0.0000 0.0000 0.0000 0.0000 0.0000 33.3083
#
#
#
# Elastic Compliance Matrix: (Units=1/GPa)
#
#
# Indices 1 2 3 4 5 6 
#
# 1 0.008226 -0.001479 -0.001138 0.000000 0.000000 0.000000
# 2 -0.001479 0.013974 -0.000652 0.000000 0.000000 0.000000
# 3 -0.001138 -0.000652 0.003817 0.000000 0.000000 0.000000
# 4 0.000000 0.000000 0.000000 0.053915 0.000000 0.000000
# 5 0.000000 0.000000 0.000000 0.000000 0.020565 0.000000
# 6 0.000000 0.000000 0.000000 0.000000 0.000000 0.030023
#
#
# Mechanical properties :
#
#
# Convention : Reuss Voigt Hill
#
# Bulk Modulus (GPa) = 51.33791 70.05813 60.69802
# Shear Modulus (GPa) = 34.83075 47.22554 41.02815
#
# Velocity S-wave (km/s) = 3.89156 4.53138 4.22360
# Velocity P-wave (km/s) = 6.52025 7.60518 7.08352
#
# Compressibility (1/GPa) = 0.01947878
#
# Stress axis : x y z
#
# Youngs Moduli (GPa) = 121.56112 71.56195 261.97197
#
# Poissons Ratio (x) = 0.10583 0.29823
# Poissons Ratio (y) = 0.17978 0.17081
# Poissons Ratio (z) = 0.13839 0.04666
#
# Static dielectric constant tensor:
#      x y z
#    x 4.141870 0.000000 0.000000 
#    y 0.000000 3.639230 0.000000 
#    z 0.000000 0.000000 6.190730 
# 
# 
# High freq. dielectric constant tensor:
#      x y z
#    x 1.909970 0.000000 0.000000 
#    y 0.000000 1.856490 0.000000 
#    z 0.000000 0.000000 1.964660 
# 
# From -- ./inp_files/2100.got.cif
#   From: 2010.03.12/outbox.cif.g09.slc.cpg/sg19_2_cif.got.tgz:2100.got - 2010.04.10 18:59:41.
