data_PCOD8156636
_publ_section_title
;
Structure prediction by ZEFSAII (Michael W. Deem and Ramdas Pophale) SiO2 
 PCOD8156636
Probable space group: P 21 21 21
;
_chemical_formula_sum "Si O2"
_cell_formula_units_Z 24
_cell_length_a 15.954379
_cell_length_b 7.797337
_cell_length_c 10.236461
_cell_angle_alpha 90.000000
_cell_angle_beta 90.000000
_cell_angle_gamma 90.000000
_cell_volume 1273.432840
_symmetry_space_group_name_H-M "P 21 21 21"
_symmetry_group_IT_number 19
_symmetry_cell_setting 'orthorhombic'
loop_
_space_group_symop_operation_xyz
x,y,z
1/2-x,-y,1/2+z
1/2+x,1/2-y,-z
-x,1/2+y,1/2-z
loop_
_atom_site_type_symbol
_atom_site_label
_atom_site_fract_x
_atom_site_fract_y
_atom_site_fract_z
Si Si1 0.503857 0.940505 0.861068
Si Si2 0.159195 0.144596 0.459324
Si Si3 0.759386 0.776770 0.790911
Si Si4 0.667200 0.133902 0.802265
Si Si5 0.595062 0.588835 0.865303
Si Si6 0.696474 0.374671 0.032588
O O1 0.431173 0.953661 0.971637
O O2 0.540459 0.754347 0.886685
O O3 0.576574 0.082565 0.864903
O O4 0.454771 0.951900 0.722849
O O5 0.178539 0.259046 0.586255
O O6 0.157347 0.273592 0.336251
O O7 0.225503 0.996006 0.441844
O O8 0.683427 0.640471 0.799042
O O9 0.815065 0.739568 0.661962
O O10 0.724265 0.967939 0.781080
O O11 0.713207 0.255915 0.906051
O O12 0.614658 0.492948 0.002680
#
# Coordination Sequence:
#
# PCOD8156636 Si02
#       6
#     4   4   4   4   4   4
#     4  11  19  37  61  90 111 151 203 244 279 341
#     4  11  20  37  61  86 117 156 193 242 293 348
#     4  10  22  35  57  87 120 153 189 240 300 343
#     4  11  22  37  62  87 117 154 206 245 284 353
#     4  10  19  34  59  85 115 150 190 241 280 342
#     4  11  20  38  56  87 120 152 193 244 298 347
#
# _framework density 18.846696000000001
#
# number of rings (size 3 to 8) (size 9 to 14) (size 15 to 20)
#    0.000    1.333    5.000    2.000    0.000    0.000 
#    0.000    1.667    0.000    0.000    0.000    0.000 
#    0.000    0.000    0.000    0.000    0.000    0.000 
#
# Total GULP energy -297408.333340 kJ/mol
# GULP energy per Si atom -12392.013889 kJ/mol
# Density = 1.880380 g / cm^3
# Si number density = 18.846696 Si / 1000 Ang^3
#
#
#
# Elastic Constant Matrix: (Units=GPa)
#
#
# Indices 1 2 3 4 5 6 
#
# 1 87.5800 40.8645 25.8487 0.0000 0.0000 0.0000
# 2 40.8645 112.5747 42.1345 0.0000 0.0000 0.0000
# 3 25.8487 42.1345 90.7931 0.0000 0.0000 0.0000
# 4 0.0000 0.0000 0.0000 29.9967 0.0000 0.0000
# 5 0.0000 0.0000 0.0000 0.0000 30.3187 0.0000
# 6 0.0000 0.0000 0.0000 0.0000 0.0000 27.8160
#
#
#
# Elastic Compliance Matrix: (Units=1/GPa)
#
#
# Indices 1 2 3 4 5 6 
#
# 1 0.014033 -0.004355 -0.001974 0.000000 0.000000 0.000000
# 2 -0.004355 0.012102 -0.004376 0.000000 0.000000 0.000000
# 3 -0.001974 -0.004376 0.013607 0.000000 0.000000 0.000000
# 4 0.000000 0.000000 0.000000 0.033337 0.000000 0.000000
# 5 0.000000 0.000000 0.000000 0.000000 0.032983 0.000000
# 6 0.000000 0.000000 0.000000 0.000000 0.000000 0.035951
#
#
# Mechanical properties :
#
#
# Convention : Reuss Voigt Hill
#
# Bulk Modulus (GPa) = 54.55275 56.51592 55.53433
# Shear Modulus (GPa) = 29.49277 29.76628 29.62953
#
# Velocity S-wave (km/s) = 3.96014 3.97847 3.96932
# Velocity P-wave (km/s) = 7.06532 7.15238 7.10898
#
# Compressibility (1/GPa) = 0.01833088
#
# Stress axis : x y z
#
# Youngs Moduli (GPa) = 71.26151 82.63227 73.49184
#
# Poissons Ratio (x) = 0.35987 0.14508
# Poissons Ratio (y) = 0.31035 0.32162
# Poissons Ratio (z) = 0.14068 0.36162
#
# Static dielectric constant tensor:
#      x y z
#    x 3.664580 0.000000 0.000000 
#    y 0.000000 3.694610 0.000000 
#    z 0.000000 0.000000 3.435700 
# 
# 
# High freq. dielectric constant tensor:
#      x y z
#    x 1.725150 0.000000 0.000000 
#    y 0.000000 1.751510 0.000000 
#    z 0.000000 0.000000 1.711460 
# 
# From -- ./inp_files/2812.got.cif
#   From: 2010.03.12/outbox.cif.g09.slc.cpg/sg19_2_cif.got.tgz:2812.got - 2010.04.10 18:59:41.
