data_PCOD8156130
_publ_section_title
;
Structure prediction by ZEFSAII (Michael W. Deem and Ramdas Pophale) SiO2 
 PCOD8156130
Probable space group: P 21 21 2
;
_chemical_formula_sum "Si O2"
_cell_formula_units_Z 26
_cell_length_a 8.838017
_cell_length_b 9.365409
_cell_length_c 15.439458
_cell_angle_alpha 90.000000
_cell_angle_beta 90.000000
_cell_angle_gamma 90.000000
_cell_volume 1277.949320
_symmetry_space_group_name_H-M "P 21 21 2"
_symmetry_group_IT_number 18
_symmetry_cell_setting 'orthorhombic'
loop_
_space_group_symop_operation_xyz
x,y,z
-x,-y,z
1/2+x,1/2-y,-z
1/2-x,1/2+y,-z
loop_
_atom_site_type_symbol
_atom_site_label
_atom_site_fract_x
_atom_site_fract_y
_atom_site_fract_z
Si Si1 0.988478 0.770225 0.862455
Si Si2 0.830656 0.496105 0.308070
Si Si3 0.500000 0.000000 0.019766
Si Si4 0.327284 0.281519 0.418784
Si Si5 0.754335 0.003186 0.881518
Si Si6 0.670926 0.513365 0.582657
Si Si7 0.370127 0.772594 0.328263
O O1 0.025804 0.635471 0.920545
O O2 0.945167 0.722264 0.765953
O O3 0.139185 0.863128 0.862416
O O4 0.850826 0.861364 0.902369
O O5 0.743547 0.639865 0.335215
O O6 0.843852 0.481928 0.204715
O O7 0.740327 0.360612 0.344252
O O8 0.000000 0.500000 0.347294
O O9 0.353086 0.968912 0.962387
O O10 0.321298 0.388155 0.498743
O O11 0.499451 0.238200 0.400091
O O12 0.231964 0.141938 0.441969
O O13 0.500000 0.500000 0.617778
O O14 0.774625 0.582203 0.658137
#
# Coordination Sequence:
#
# PCOD8156130 Si02
#       7
#     4   4   2   4   4   4   4
#     4  10  23  40  66  93 132 169 213 261 322 396
#     4  11  21  39  66  92 126 166 219 270 321 378
#     4  12  22  38  68  96 130 162 216 268 324 368
#     4  12  24  42  68  92 130 171 218 267 325 385
#     4  10  21  41  62  96 123 171 211 263 318 393
#     4  12  26  42  63  97 132 166 220 274 319 378
#     4  11  24  43  66  93 128 177 219 261 330 389
#
# _framework density 20.345095000000001
#
# number of rings (size 3 to 8) (size 9 to 14) (size 15 to 20)
#    0.000    0.923    2.308    5.538    2.154    1.231 
#    0.000    0.000    3.385    0.000    0.000    0.000 
#    0.000    0.000    0.000    0.000    0.000    0.000 
#
# Total GULP energy -322530.787500 kJ/mol
# GULP energy per Si atom -12405.030288 kJ/mol
# Density = 2.029879 g / cm^3
# Si number density = 20.345095 Si / 1000 Ang^3
#
#
#
# Elastic Constant Matrix: (Units=GPa)
#
#
# Indices 1 2 3 4 5 6 
#
# 1 127.8544 35.1900 30.1071 0.0000 0.0000 0.0000
# 2 35.1900 109.3056 33.7389 0.0000 0.0000 0.0000
# 3 30.1071 33.7389 74.5086 0.0000 0.0000 0.0000
# 4 0.0000 0.0000 0.0000 33.9249 0.0000 0.0000
# 5 0.0000 0.0000 0.0000 0.0000 45.6086 0.0000
# 6 0.0000 0.0000 0.0000 0.0000 0.0000 36.8675
#
#
#
# Elastic Compliance Matrix: (Units=1/GPa)
#
#
# Indices 1 2 3 4 5 6 
#
# 1 0.009030 -0.002070 -0.002711 0.000000 0.000000 0.000000
# 2 -0.002070 0.011110 -0.004194 0.000000 0.000000 0.000000
# 3 -0.002711 -0.004194 0.016416 0.000000 0.000000 0.000000
# 4 0.000000 0.000000 0.000000 0.029477 0.000000 0.000000
# 5 0.000000 0.000000 0.000000 0.000000 0.021926 0.000000
# 6 0.000000 0.000000 0.000000 0.000000 0.000000 0.027124
#
#
# Mechanical properties :
#
#
# Convention : Reuss Voigt Hill
#
# Bulk Modulus (GPa) = 53.75130 56.63783 55.19456
# Shear Modulus (GPa) = 35.91061 37.45572 36.68316
#
# Velocity S-wave (km/s) = 4.20584 4.29537 4.25084
# Velocity P-wave (km/s) = 7.07549 7.24563 7.16107
#
# Compressibility (1/GPa) = 0.01860420
#
# Stress axis : x y z
#
# Youngs Moduli (GPa) = 110.74668 90.01113 60.91607
#
# Poissons Ratio (x) = 0.18634 0.16516
# Poissons Ratio (y) = 0.22926 0.25549
# Poissons Ratio (z) = 0.30026 0.37753
#
# Static dielectric constant tensor:
#      x y z
#    x 4.979360 0.000000 0.000000 
#    y 0.000000 3.590980 0.000000 
#    z 0.000000 0.000000 3.548240 
# 
# 
# High freq. dielectric constant tensor:
#      x y z
#    x 1.810470 0.000000 0.000000 
#    y 0.000000 1.801720 0.000000 
#    z 0.000000 0.000000 1.788800 
# 
# From -- ./inp_files/7332.got.cif
#   From: 2010.03.12/outbox.cif.g09.slc.cpg/sg18_4_cif.got.tgz:7332.got - 2010.04.10 18:53:55.
