data_PCOD8156105
_publ_section_title
;
Structure prediction by ZEFSAII (Michael W. Deem and Ramdas Pophale) SiO2 
 PCOD8156105
Probable space group: P 21 21 2
;
_chemical_formula_sum "Si O2"
_cell_formula_units_Z 30
_cell_length_a 13.231342
_cell_length_b 5.039024
_cell_length_c 21.083466
_cell_angle_alpha 90.000000
_cell_angle_beta 90.000000
_cell_angle_gamma 90.000000
_cell_volume 1405.698980
_symmetry_space_group_name_H-M "P 21 21 2"
_symmetry_group_IT_number 18
_symmetry_cell_setting 'orthorhombic'
loop_
_space_group_symop_operation_xyz
x,y,z
-x,-y,z
1/2+x,1/2-y,-z
1/2-x,1/2+y,-z
loop_
_atom_site_type_symbol
_atom_site_label
_atom_site_fract_x
_atom_site_fract_y
_atom_site_fract_z
Si Si1 0.716790 0.011374 0.224464
Si Si2 0.618963 0.516069 0.024463
Si Si3 0.781609 0.513054 0.919655
Si Si4 0.809908 0.336012 0.504721
Si Si5 0.564027 0.759702 0.610831
Si Si6 0.500000 0.000000 0.272407
Si Si7 0.410277 0.349928 0.378247
Si Si8 0.729023 0.994652 0.699383
O O1 0.748000 0.952303 0.152754
O O2 0.757352 0.299866 0.241873
O O3 0.595650 0.044661 0.227343
O O4 0.766161 0.795969 0.273131
O O5 0.500000 0.500000 0.011860
O O6 0.662167 0.293616 0.072112
O O7 0.639188 0.797425 0.056196
O O8 0.676057 0.494255 0.957257
O O9 0.781880 0.630422 0.481731
O O10 0.866022 0.176453 0.448120
O O11 0.870216 0.365343 0.571168
O O12 0.500000 0.500000 0.633423
O O13 0.500000 0.000000 0.581920
O O14 0.623731 0.901154 0.668754
O O15 0.531096 0.759129 0.317232
O O16 0.500000 0.500000 0.415861
O O17 0.317759 0.535055 0.353512
#
# Coordination Sequence:
#
# PCOD8156105 Si02
#       8
#     4   4   4   4   4   2   4   4
#     4  11  23  41  64  98 132 172 213 265 325 402
#     4  10  21  39  65  95 137 182 217 273 318 373
#     4  10  22  40  63 100 137 173 224 269 323 380
#     4  12  27  42  68  92 122 164 210 268 337 395
#     4  12  26  46  67  93 123 171 225 277 331 402
#     4  10  24  34  64  92 132 168 200 252 334 402
#     4  11  23  42  63  91 128 161 205 258 335 400
#     4  11  24  44  65  89 133 164 211 271 329 385
#
# _framework density 21.341695000000001
#
# number of rings (size 3 to 8) (size 9 to 14) (size 15 to 20)
#    0.000    1.067    2.667    3.200    8.400    0.000 
#    0.000    2.000    0.000    1.600    0.000    0.000 
#    0.000    0.000    0.000    0.000    0.000    0.000 
#
# Total GULP energy -371835.458209 kJ/mol
# GULP energy per Si atom -12394.515274 kJ/mol
# Density = 2.129312 g / cm^3
# Si number density = 21.341695 Si / 1000 Ang^3
#
#
#
# Elastic Constant Matrix: (Units=GPa)
#
#
# Indices 1 2 3 4 5 6 
#
# 1 88.3979 22.0756 24.1021 0.0000 0.0000 0.0000
# 2 22.0756 88.8928 7.7101 0.0000 0.0000 0.0000
# 3 24.1021 7.7101 106.5167 0.0000 0.0000 0.0000
# 4 0.0000 0.0000 0.0000 19.9197 0.0000 0.0000
# 5 0.0000 0.0000 0.0000 0.0000 20.0183 0.0000
# 6 0.0000 0.0000 0.0000 0.0000 0.0000 33.7764
#
#
#
# Elastic Compliance Matrix: (Units=1/GPa)
#
#
# Indices 1 2 3 4 5 6 
#
# 1 0.012777 -0.002941 -0.002678 0.000000 0.000000 0.000000
# 2 -0.002941 0.011997 -0.000203 0.000000 0.000000 0.000000
# 3 -0.002678 -0.000203 0.010009 0.000000 0.000000 0.000000
# 4 0.000000 0.000000 0.000000 0.050202 0.000000 0.000000
# 5 0.000000 0.000000 0.000000 0.000000 0.049954 0.000000
# 6 0.000000 0.000000 0.000000 0.000000 0.000000 0.029607
#
#
# Mechanical properties :
#
#
# Convention : Reuss Voigt Hill
#
# Bulk Modulus (GPa) = 43.21640 43.50925 43.36283
# Shear Modulus (GPa) = 27.18825 30.07085 28.62955
#
# Velocity S-wave (km/s) = 3.57312 3.75776 3.66660
# Velocity P-wave (km/s) = 6.10873 6.26569 6.18771
#
# Compressibility (1/GPa) = 0.02313936
#
# Stress axis : x y z
#
# Youngs Moduli (GPa) = 78.26485 83.35127 99.91081
#
# Poissons Ratio (x) = 0.24512 0.26759
# Poissons Ratio (y) = 0.23016 0.02028
# Poissons Ratio (z) = 0.20962 0.01692
#
# Static dielectric constant tensor:
#      x y z
#    x 4.104220 0.000000 0.000000 
#    y 0.000000 3.871480 0.000000 
#    z 0.000000 0.000000 3.619720 
# 
# 
# High freq. dielectric constant tensor:
#      x y z
#    x 1.836200 0.000000 0.000000 
#    y 0.000000 1.846270 0.000000 
#    z 0.000000 0.000000 1.825360 
# 
# From -- ./inp_files/7587.got.cif
#   From: 2010.03.12/outbox.cif.g09.slc.cpg/sg18_4_cif.got.tgz:7587.got - 2010.04.10 18:53:55.
