data_PCOD8156865
_publ_section_title
;
Structure prediction by ZEFSAII (Michael W. Deem and Ramdas Pophale) SiO2 
 PCOD8156865
Probable space group: P 21 21 21
;
_chemical_formula_sum "Si O2"
_cell_formula_units_Z 24
_cell_length_a 13.233054
_cell_length_b 4.958099
_cell_length_c 14.473864
_cell_angle_alpha 90.000000
_cell_angle_beta 90.000000
_cell_angle_gamma 90.000000
_cell_volume 949.641678
_symmetry_space_group_name_H-M "P 21 21 21"
_symmetry_group_IT_number 19
_symmetry_cell_setting 'orthorhombic'
loop_
_space_group_symop_operation_xyz
x,y,z
1/2-x,-y,1/2+z
1/2+x,1/2-y,-z
-x,1/2+y,1/2-z
loop_
_atom_site_type_symbol
_atom_site_label
_atom_site_fract_x
_atom_site_fract_y
_atom_site_fract_z
Si Si1 0.066142 0.977239 0.732568
Si Si2 0.252408 0.664033 0.513828
Si Si3 0.929901 0.820109 0.944882
Si Si4 0.162869 0.856854 0.910909
Si Si5 0.600100 0.294470 0.829350
Si Si6 0.461472 0.798538 0.861137
O O1 0.103547 0.115947 0.637264
O O2 0.159667 0.881755 0.798344
O O3 0.000069 0.207480 0.786983
O O4 0.140612 0.585261 0.548307
O O5 0.258353 0.922259 0.447679
O O6 0.301228 0.755087 0.610331
O O7 0.307001 0.429564 0.454584
O O8 0.907693 0.662458 0.040599
O O9 0.046111 0.910972 0.939318
O O10 0.532074 0.537109 0.864874
O O11 0.625166 0.302055 0.718856
O O12 0.534475 0.034796 0.839541
#
# Coordination Sequence:
#
# PCOD8156865 Si02
#       6
#     4   4   4   4   4   4
#     4  10  23  42  69  96 133 183 226 284 343 401
#     4  12  24  40  70  98 137 179 225 280 337 405
#     4  11  24  43  70 100 131 185 230 273 345 409
#     4  11  24  45  64  99 139 175 224 289 333 405
#     4  10  20  40  60  94 126 170 213 274 329 391
#     4  10  21  38  67  87 128 170 214 270 335 389
#
# _framework density 25.272693
#
# number of rings (size 3 to 8) (size 9 to 14) (size 15 to 20)
#    0.000    1.333    3.333    2.000    0.000    6.667 
#    0.000    5.000    0.000    0.000    0.000    0.000 
#    0.000    0.000    0.000    0.000    0.000    0.000 
#
# Total GULP energy -297332.079169 kJ/mol
# GULP energy per Si atom -12388.836632 kJ/mol
# Density = 2.521517 g / cm^3
# Si number density = 25.272693 Si / 1000 Ang^3
#
#
#
# Elastic Constant Matrix: (Units=GPa)
#
#
# Indices 1 2 3 4 5 6 
#
# 1 62.9616 1.6163 -0.5738 0.0000 0.0000 0.0000
# 2 1.6163 111.0925 8.2619 0.0000 0.0000 0.0000
# 3 -0.5738 8.2619 130.6863 0.0000 0.0000 0.0000
# 4 0.0000 0.0000 0.0000 36.3389 0.0000 0.0000
# 5 0.0000 0.0000 0.0000 0.0000 -9.0233 0.0000
# 6 0.0000 0.0000 0.0000 0.0000 0.0000 29.5866
#
#
#
# Elastic Compliance Matrix: (Units=1/GPa)
#
#
# Indices 1 2 3 4 5 6 
#
# 1 0.015890 -0.000237 0.000085 0.000000 0.000000 0.000000
# 2 -0.000237 0.009048 -0.000573 0.000000 0.000000 0.000000
# 3 0.000085 -0.000573 0.007689 0.000000 0.000000 0.000000
# 4 0.000000 0.000000 0.000000 0.027519 0.000000 0.000000
# 5 0.000000 0.000000 0.000000 0.000000 -0.110824 0.000000
# 6 0.000000 0.000000 0.000000 0.000000 0.000000 0.033799
#
#
# Mechanical properties :
#
#
# Convention : Reuss Voigt Hill
#
# Bulk Modulus (GPa) = 32.07781 35.92769 34.00275
# Shear Modulus (GPa) = -992.52209 31.07617 -480.72296
#
# Velocity S-wave (km/s) = -19.83879 3.51042 -13.80679
# Velocity P-wave (km/s) = 22.62852 5.53874 15.51406
#
# Compressibility (1/GPa) = 0.03117420
#
# Stress axis : x y z
#
# Youngs Moduli (GPa) = 62.93439 110.52680 130.06424
#
# Poissons Ratio (x) = 0.02625 -0.01103
# Poissons Ratio (y) = 0.01495 0.07453
# Poissons Ratio (z) = -0.00534 0.06333
#
# Static dielectric constant tensor:
#      x y z
#    x 4.198540 0.000000 0.000000 
#    y 0.000000 4.559790 0.000000 
#    z 0.000000 0.000000 4.421660 
# 
# 
# High freq. dielectric constant tensor:
#      x y z
#    x 1.985460 0.000000 0.000000 
#    y 0.000000 2.020160 0.000000 
#    z 0.000000 0.000000 2.037070 
# 
# From -- ./inp_files/6205.got.cif
#   From: 2010.03.12/outbox.cif.g09.slc.cpg/sg19_4_cif.got.tgz:6205.got - 2010.04.10 18:59:41.
