data_PCOD8156965
_publ_section_title
;
Structure prediction by ZEFSAII (Michael W. Deem and Ramdas Pophale) SiO2 
 PCOD8156965
Probable space group: P 21 21 21
;
_chemical_formula_sum "Si O2"
_cell_formula_units_Z 24
_cell_length_a 7.549021
_cell_length_b 9.806020
_cell_length_c 14.597498
_cell_angle_alpha 90.000000
_cell_angle_beta 90.000000
_cell_angle_gamma 90.000000
_cell_volume 1080.592211
_symmetry_space_group_name_H-M "P 21 21 21"
_symmetry_group_IT_number 19
_symmetry_cell_setting 'orthorhombic'
loop_
_space_group_symop_operation_xyz
x,y,z
1/2-x,-y,1/2+z
1/2+x,1/2-y,-z
-x,1/2+y,1/2-z
loop_
_atom_site_type_symbol
_atom_site_label
_atom_site_fract_x
_atom_site_fract_y
_atom_site_fract_z
Si Si1 0.420626 0.176484 0.618880
Si Si2 0.339648 0.230077 0.827390
Si Si3 0.547006 0.052861 0.149255
Si Si4 0.826264 0.620507 0.353708
Si Si5 0.817887 0.213262 0.563440
Si Si6 0.336100 0.038869 0.320450
O O1 0.346754 0.215501 0.718104
O O2 0.626905 0.202599 0.607957
O O3 0.312498 0.268707 0.546007
O O4 0.392033 0.017226 0.598020
O O5 0.225981 0.362054 0.854149
O O6 0.536033 0.254860 0.871588
O O7 0.244086 0.096610 0.869712
O O8 0.378433 0.145075 0.113104
O O9 0.563947 0.917953 0.087664
O O10 0.502265 0.002686 0.253333
O O11 0.822925 0.599833 0.242943
O O12 0.903388 0.351525 0.605575
#
# Coordination Sequence:
#
# PCOD8156965 Si02
#       6
#     4   4   4   4   4   4
#     4  11  23  37  63  95 125 161 207 265 306 367
#     4  11  20  42  63  89 124 164 209 257 313 370
#     4  10  21  37  65  91 122 164 210 256 309 381
#     4   9  20  38  61  89 119 159 209 252 303 372
#     4  12  22  39  64  95 127 161 211 263 312 373
#     4   9  22  35  60  91 123 159 206 255 307 379
#
# _framework density 22.210042999999999
#
# number of rings (size 3 to 8) (size 9 to 14) (size 15 to 20)
#    1.000    0.667    3.333    2.000    2.333    0.000 
#    0.000    0.000    7.333    0.000    0.000    0.000 
#    0.000    0.000    0.000    0.000    0.000    0.000 
#
# Total GULP energy -297355.464517 kJ/mol
# GULP energy per Si atom -12389.811022 kJ/mol
# Density = 2.215949 g / cm^3
# Si number density = 22.210043 Si / 1000 Ang^3
#
#
#
# Elastic Constant Matrix: (Units=GPa)
#
#
# Indices 1 2 3 4 5 6 
#
# 1 93.9729 30.0964 8.7718 0.0000 0.0000 0.0000
# 2 30.0964 79.4310 7.2206 0.0000 0.0000 0.0000
# 3 8.7718 7.2206 32.5158 0.0000 0.0000 0.0000
# 4 0.0000 0.0000 0.0000 26.0067 0.0000 0.0000
# 5 0.0000 0.0000 0.0000 0.0000 22.5762 0.0000
# 6 0.0000 0.0000 0.0000 0.0000 0.0000 29.3523
#
#
#
# Elastic Compliance Matrix: (Units=1/GPa)
#
#
# Indices 1 2 3 4 5 6 
#
# 1 0.012281 -0.004442 -0.002327 0.000000 0.000000 0.000000
# 2 -0.004442 0.014455 -0.002012 0.000000 0.000000 0.000000
# 3 -0.002327 -0.002012 0.031829 0.000000 0.000000 0.000000
# 4 0.000000 0.000000 0.000000 0.038452 0.000000 0.000000
# 5 0.000000 0.000000 0.000000 0.000000 0.044294 0.000000
# 6 0.000000 0.000000 0.000000 0.000000 0.000000 0.034069
#
#
# Mechanical properties :
#
#
# Convention : Reuss Voigt Hill
#
# Bulk Modulus (GPa) = 24.38748 33.12193 28.75470
# Shear Modulus (GPa) = 24.20032 26.24245 25.22139
#
# Velocity S-wave (km/s) = 3.30451 3.44111 3.37350
# Velocity P-wave (km/s) = 5.05608 5.54380 5.30555
#
# Compressibility (1/GPa) = 0.04100465
#
# Stress axis : x y z
#
# Youngs Moduli (GPa) = 81.42584 69.17824 31.41823
#
# Poissons Ratio (x) = 0.30728 0.07310
# Poissons Ratio (y) = 0.36168 0.06321
# Poissons Ratio (z) = 0.18946 0.13917
#
# Static dielectric constant tensor:
#      x y z
#    x 3.933910 0.000000 0.000000 
#    y 0.000000 3.866490 0.000000 
#    z 0.000000 0.000000 3.610140 
# 
# 
# High freq. dielectric constant tensor:
#      x y z
#    x 1.877330 0.000000 0.000000 
#    y 0.000000 1.862770 0.000000 
#    z 0.000000 0.000000 1.839220 
# 
# From -- ./inp_files/6557.got.cif
#   From: 2010.03.12/outbox.cif.g09.slc.cpg/sg19_4_cif.got.tgz:6557.got - 2010.04.10 18:59:41.
