data_PCOD8156575
_publ_section_title
;
Structure prediction by ZEFSAII (Michael W. Deem and Ramdas Pophale) SiO2 
 PCOD8156575
Probable space group: P 21 21 21
;
_chemical_formula_sum "Si O2"
_cell_formula_units_Z 32
_cell_length_a 9.910806
_cell_length_b 10.776546
_cell_length_c 16.254608
_cell_angle_alpha 90.000000
_cell_angle_beta 90.000000
_cell_angle_gamma 90.000000
_cell_volume 1736.061326
_symmetry_space_group_name_H-M "P 21 21 21"
_symmetry_group_IT_number 19
_symmetry_cell_setting 'orthorhombic'
loop_
_space_group_symop_operation_xyz
x,y,z
1/2-x,-y,1/2+z
1/2+x,1/2-y,-z
-x,1/2+y,1/2-z
loop_
_atom_site_type_symbol
_atom_site_label
_atom_site_fract_x
_atom_site_fract_y
_atom_site_fract_z
Si Si1 0.596480 0.238547 0.375760
Si Si2 0.486598 0.588718 0.853230
Si Si3 0.678183 0.196446 0.788707
Si Si4 0.186749 0.865316 0.827700
Si Si5 0.338925 0.440855 0.640550
Si Si6 0.066103 0.180403 0.447767
Si Si7 0.748987 0.624151 0.743109
Si Si8 0.080213 0.665469 0.314994
O O1 0.457127 0.167185 0.364719
O O2 0.711831 0.137047 0.388080
O O3 0.594503 0.327141 0.455407
O O4 0.627916 0.323976 0.297165
O O5 0.371512 0.644764 0.797272
O O6 0.500026 0.682388 0.930055
O O7 0.626572 0.580657 0.802468
O O8 0.425520 0.452251 0.877600
O O9 0.796958 0.289368 0.759138
O O10 0.561596 0.271038 0.834311
O O11 0.716464 0.081358 0.848010
O O12 0.297527 0.837871 0.896991
O O13 0.193318 0.011258 0.808947
O O14 0.457250 0.427898 0.572680
O O15 0.411645 0.387116 0.722017
O O16 0.699250 0.731887 0.678063
#
# Coordination Sequence:
#
# PCOD8156575 Si02
#       8
#     4   4   4   4   4   4   4   4
#     4  11  24  33  53  82 117 146 174 230 290 335
#     4   9  15  29  55  78 102 134 186 238 264 316
#     4   9  16  28  52  79 102 131 183 227 269 312
#     4  11  21  34  56  84 111 149 184 228 281 341
#     4  10  18  33  51  75 108 138 180 234 268 323
#     4  11  19  37  56  80 107 144 193 227 278 331
#     4  10  19  35  53  83 114 143 189 234 282 332
#     4   9  14  29  54  83  95 133 187 240 260 306
#
# _framework density 18.432527
#
# number of rings (size 3 to 8) (size 9 to 14) (size 15 to 20)
#    0.000    2.000    6.250    2.250    1.750    0.000 
#    0.000    0.000    0.000    4.500    0.000    0.000 
#    0.000    0.000    0.000    0.000    0.000    0.000 
#
# Total GULP energy -396432.505333 kJ/mol
# GULP energy per Si atom -12388.515792 kJ/mol
# Density = 1.839057 g / cm^3
# Si number density = 18.432527 Si / 1000 Ang^3
#
#
#
# Elastic Constant Matrix: (Units=GPa)
#
#
# Indices 1 2 3 4 5 6 
#
# 1 85.7392 13.8956 14.0171 0.0000 0.0000 0.0000
# 2 13.8956 90.6533 9.1378 0.0000 0.0000 0.0000
# 3 14.0171 9.1378 30.9526 0.0000 0.0000 0.0000
# 4 0.0000 0.0000 0.0000 15.0255 0.0000 0.0000
# 5 0.0000 0.0000 0.0000 0.0000 16.4784 0.0000
# 6 0.0000 0.0000 0.0000 0.0000 0.0000 7.0905
#
#
#
# Elastic Compliance Matrix: (Units=1/GPa)
#
#
# Indices 1 2 3 4 5 6 
#
# 1 0.012770 -0.001417 -0.005365 0.000000 0.000000 0.000000
# 2 -0.001417 0.011527 -0.002761 0.000000 0.000000 0.000000
# 3 -0.005365 -0.002761 0.035552 0.000000 0.000000 0.000000
# 4 0.000000 0.000000 0.000000 0.066553 0.000000 0.000000
# 5 0.000000 0.000000 0.000000 0.000000 0.060685 0.000000
# 6 0.000000 0.000000 0.000000 0.000000 0.000000 0.141035
#
#
# Mechanical properties :
#
#
# Convention : Reuss Voigt Hill
#
# Bulk Modulus (GPa) = 24.53195 31.27180 27.90188
# Shear Modulus (GPa) = 13.85827 19.07184 16.46506
#
# Velocity S-wave (km/s) = 2.74494 3.22014 2.99199
# Velocity P-wave (km/s) = 4.83572 5.55231 5.20636
#
# Compressibility (1/GPa) = 0.04076317
#
# Stress axis : x y z
#
# Youngs Moduli (GPa) = 78.30895 86.75638 28.12770
#
# Poissons Ratio (x) = 0.12290 0.15090
# Poissons Ratio (y) = 0.11094 0.07767
# Poissons Ratio (z) = 0.42011 0.23956
#
# Static dielectric constant tensor:
#      x y z
#    x 3.290100 0.000000 0.000000 
#    y 0.000000 4.007200 0.000000 
#    z 0.000000 0.000000 3.006980 
# 
# 
# High freq. dielectric constant tensor:
#      x y z
#    x 1.706300 0.000000 0.000000 
#    y 0.000000 1.725330 0.000000 
#    z 0.000000 0.000000 1.660160 
# 
# From -- ./inp_files/6650.got.cif
#   From: 2010.03.12/outbox.cif.g09.slc.cpg/sg19_4_cif.got.tgz:6650.got - 2010.04.10 18:59:41.
