data_PCOD8156138
_publ_section_title
;
Structure prediction by ZEFSAII (Michael W. Deem and Ramdas Pophale) SiO2 
 PCOD8156138
Probable space group: P 21 21 2
;
_chemical_formula_sum "Si O2"
_cell_formula_units_Z 24
_cell_length_a 10.468856
_cell_length_b 8.719951
_cell_length_c 11.726685
_cell_angle_alpha 90.000000
_cell_angle_beta 90.000000
_cell_angle_gamma 90.000000
_cell_volume 1070.504581
_symmetry_space_group_name_H-M "P 21 21 2"
_symmetry_group_IT_number 18
_symmetry_cell_setting 'orthorhombic'
loop_
_space_group_symop_operation_xyz
x,y,z
-x,-y,z
1/2+x,1/2-y,-z
1/2-x,1/2+y,-z
loop_
_atom_site_type_symbol
_atom_site_label
_atom_site_fract_x
_atom_site_fract_y
_atom_site_fract_z
Si Si1 0.293124 0.580487 0.719498
Si Si2 0.550132 0.727739 0.696492
Si Si3 0.850103 0.537175 0.929040
Si Si4 0.856066 0.965748 0.630055
Si Si5 0.803495 0.267492 0.513030
Si Si6 0.247392 0.632961 0.143411
O O1 0.400537 0.715039 0.726481
O O2 0.371956 0.429495 0.693975
O O3 0.211317 0.571805 0.833507
O O4 0.193441 0.611967 0.617515
O O5 0.569990 0.789772 0.566664
O O6 0.612465 0.831651 0.795057
O O7 0.820295 0.715786 0.903958
O O8 0.000000 0.500000 0.934545
O O9 0.779897 0.488815 0.044833
O O10 0.815598 0.805598 0.571436
O O11 0.837599 0.954159 0.765990
O O12 0.777598 0.102267 0.569838
O O13 0.000000 0.000000 0.600231
#
# Coordination Sequence:
#
# PCOD8156138 Si02
#       6
#     4   4   4   4   4   4
#     4  10  21  41  68  95 139 183 227 290 355 408
#     4   9  20  43  64  98 132 185 232 286 352 426
#     4  11  27  47  71 106 143 185 249 299 358 438
#     4  11  25  45  69 104 147 189 243 295 369 440
#     4  11  21  39  71 101 138 186 235 291 354 429
#     4  10  26  45  70 103 141 188 243 299 363 423
#
# _framework density 22.419335
#
# number of rings (size 3 to 8) (size 9 to 14) (size 15 to 20)
#    0.000    1.667    1.667    1.000    7.000    0.000 
#    6.000    6.667    0.000    0.000    0.000    0.000 
#    0.000    0.000    0.000    0.000    0.000    0.000 
#
# Total GULP energy -297459.273001 kJ/mol
# GULP energy per Si atom -12394.136375 kJ/mol
# Density = 2.236831 g / cm^3
# Si number density = 22.419335 Si / 1000 Ang^3
#
#
#
# Elastic Constant Matrix: (Units=GPa)
#
#
# Indices 1 2 3 4 5 6 
#
# 1 98.9002 39.7931 44.0094 0.0000 0.0000 0.0000
# 2 39.7931 68.8364 58.1644 0.0000 0.0000 0.0000
# 3 44.0094 58.1644 171.0170 0.0000 0.0000 0.0000
# 4 0.0000 0.0000 0.0000 49.5746 0.0000 0.0000
# 5 0.0000 0.0000 0.0000 0.0000 24.9547 0.0000
# 6 0.0000 0.0000 0.0000 0.0000 0.0000 29.0964
#
#
#
# Elastic Compliance Matrix: (Units=1/GPa)
#
#
# Indices 1 2 3 4 5 6 
#
# 1 0.013331 -0.006747 -0.001136 0.000000 0.000000 0.000000
# 2 -0.006747 0.023800 -0.006358 0.000000 0.000000 0.000000
# 3 -0.001136 -0.006358 0.008302 0.000000 0.000000 0.000000
# 4 0.000000 0.000000 0.000000 0.020172 0.000000 0.000000
# 5 0.000000 0.000000 0.000000 0.000000 0.040073 0.000000
# 6 0.000000 0.000000 0.000000 0.000000 0.000000 0.034369
#
#
# Mechanical properties :
#
#
# Convention : Reuss Voigt Hill
#
# Bulk Modulus (GPa) = 58.99258 69.18750 64.09004
# Shear Modulus (GPa) = 28.70613 33.84427 31.27520
#
# Velocity S-wave (km/s) = 3.58218 3.88957 3.73904
# Velocity P-wave (km/s) = 6.59391 7.14838 6.87674
#
# Compressibility (1/GPa) = 0.01695128
#
# Stress axis : x y z
#
# Youngs Moduli (GPa) = 75.01148 42.01695 120.44889
#
# Poissons Ratio (x) = 0.28347 0.13684
# Poissons Ratio (y) = 0.50607 0.76586
# Poissons Ratio (z) = 0.08522 0.26716
#
# Static dielectric constant tensor:
#      x y z
#    x 3.983590 0.000000 0.000000 
#    y 0.000000 4.353130 0.000000 
#    z 0.000000 0.000000 4.266100 
# 
# 
# High freq. dielectric constant tensor:
#      x y z
#    x 1.867590 0.000000 0.000000 
#    y 0.000000 1.876800 0.000000 
#    z 0.000000 0.000000 1.901890 
# 
# From -- ./inp_files/5825.got.cif
#   From: 2010.03.12/outbox.cif.g09.slc.cpg/sg18_3_cif.got.tgz:5825.got - 2010.04.10 18:53:55.
