data_PCOD8156091
_publ_section_title
;
Structure prediction by ZEFSAII (Michael W. Deem and Ramdas Pophale) SiO2 
 PCOD8156091
Probable space group: P 21 21 2
;
_chemical_formula_sum "Si O2"
_cell_formula_units_Z 26
_cell_length_a 5.169387
_cell_length_b 14.970958
_cell_length_c 15.711913
_cell_angle_alpha 90.000000
_cell_angle_beta 90.000000
_cell_angle_gamma 90.000000
_cell_volume 1215.955563
_symmetry_space_group_name_H-M "P 21 21 2"
_symmetry_group_IT_number 18
_symmetry_cell_setting 'orthorhombic'
loop_
_space_group_symop_operation_xyz
x,y,z
-x,-y,z
1/2+x,1/2-y,-z
1/2-x,1/2+y,-z
loop_
_atom_site_type_symbol
_atom_site_label
_atom_site_fract_x
_atom_site_fract_y
_atom_site_fract_z
Si Si1 0.179259 0.695419 0.015973
Si Si2 0.500000 0.500000 0.311319
Si Si3 0.633518 0.714369 0.604077
Si Si4 0.520854 0.896656 0.146599
Si Si5 0.635594 0.673056 0.411246
Si Si6 0.520891 0.606093 0.764555
Si Si7 0.255825 0.551397 0.146216
O O1 0.236467 0.651666 0.108507
O O2 0.446568 0.734017 0.978600
O O3 0.083258 0.618602 0.951882
O O4 0.627896 0.574298 0.371373
O O5 0.292312 0.550579 0.249300
O O6 0.621210 0.665922 0.513073
O O7 0.904081 0.763900 0.621117
O O8 0.592862 0.634525 0.669746
O O9 0.408398 0.786562 0.616542
O O10 0.244078 0.854780 0.172485
O O11 0.747262 0.853062 0.204833
O O12 0.500000 0.000000 0.166138
O O13 0.500000 0.500000 0.768256
O O14 0.500000 0.500000 0.103331
O O15 0.000000 0.500000 0.119701
#
# Coordination Sequence:
#
# PCOD8156091 Si02
#       7
#     4   2   4   4   4   4   4
#     4  12  25  41  64  95 124 165 216 264 324 377
#     4  10  26  42  70  94 126 182 222 262 322 396
#     4  10  22  41  61  95 132 163 202 276 314 374
#     4  10  22  40  60  85 121 160 203 252 311 372
#     4  10  23  40  64  92 130 168 212 253 329 374
#     4  10  21  38  64  92 119 165 209 249 318 378
#     4  10  24  44  64  91 130 170 219 267 317 382
#
# _framework density 21.382361
#
# number of rings (size 3 to 8) (size 9 to 14) (size 15 to 20)
#    0.462    1.231    0.000    3.231    3.231    5.538 
#    0.000    0.000    0.000    0.000    0.000    0.000 
#    0.000    0.000    0.000    0.000    0.000    0.000 
#
# Total GULP energy -322313.272369 kJ/mol
# GULP energy per Si atom -12396.664322 kJ/mol
# Density = 2.133369 g / cm^3
# Si number density = 21.382361 Si / 1000 Ang^3
#
#
#
# Elastic Constant Matrix: (Units=GPa)
#
#
# Indices 1 2 3 4 5 6 
#
# 1 135.2526 29.7867 29.9236 0.0000 0.0000 0.0000
# 2 29.7867 63.6011 40.5345 0.0000 0.0000 0.0000
# 3 29.9236 40.5345 96.8829 0.0000 0.0000 0.0000
# 4 0.0000 0.0000 0.0000 37.7867 0.0000 0.0000
# 5 0.0000 0.0000 0.0000 0.0000 18.5942 0.0000
# 6 0.0000 0.0000 0.0000 0.0000 0.0000 26.4099
#
#
#
# Elastic Compliance Matrix: (Units=1/GPa)
#
#
# Indices 1 2 3 4 5 6 
#
# 1 0.008360 -0.003095 -0.001287 0.000000 0.000000 0.000000
# 2 -0.003095 0.022586 -0.008494 0.000000 0.000000 0.000000
# 3 -0.001287 -0.008494 0.014273 0.000000 0.000000 0.000000
# 4 0.000000 0.000000 0.000000 0.026464 0.000000 0.000000
# 5 0.000000 0.000000 0.000000 0.000000 0.053780 0.000000
# 6 0.000000 0.000000 0.000000 0.000000 0.000000 0.037865
#
#
# Mechanical properties :
#
#
# Convention : Reuss Voigt Hill
#
# Bulk Modulus (GPa) = 51.36888 55.13625 53.25257
# Shear Modulus (GPa) = 25.56654 29.59094 27.57874
#
# Velocity S-wave (km/s) = 3.46162 3.72411 3.59526
# Velocity P-wave (km/s) = 6.32876 6.65836 6.49565
#
# Compressibility (1/GPa) = 0.01946704
#
# Stress axis : x y z
#
# Youngs Moduli (GPa) = 119.61789 44.27597 70.06268
#
# Poissons Ratio (x) = 0.13703 0.09019
# Poissons Ratio (y) = 0.37020 0.59509
# Poissons Ratio (z) = 0.15398 0.37606
#
# Static dielectric constant tensor:
#      x y z
#    x 4.313510 0.000000 0.000000 
#    y 0.000000 3.518470 0.000000 
#    z 0.000000 0.000000 3.794300 
# 
# 
# High freq. dielectric constant tensor:
#      x y z
#    x 1.860790 0.000000 0.000000 
#    y 0.000000 1.819920 0.000000 
#    z 0.000000 0.000000 1.836940 
# 
# From -- ./inp_files/6502.got.cif
#   From: 2010.03.12/outbox.cif.g09.slc.cpg/sg18_4_cif.got.tgz:6502.got - 2010.04.10 18:53:55.
