data_PCOD8156310
_publ_section_title
;
Structure prediction by ZEFSAII (Michael W. Deem and Ramdas Pophale) SiO2 
 PCOD8156310
Probable space group: P 21 21 2
;
_chemical_formula_sum "Si O2"
_cell_formula_units_Z 32
_cell_length_a 13.439764
_cell_length_b 13.009771
_cell_length_c 8.556034
_cell_angle_alpha 90.000000
_cell_angle_beta 90.000000
_cell_angle_gamma 90.000000
_cell_volume 1496.007588
_symmetry_space_group_name_H-M "P 21 21 2"
_symmetry_group_IT_number 18
_symmetry_cell_setting 'orthorhombic'
loop_
_space_group_symop_operation_xyz
x,y,z
-x,-y,z
1/2+x,1/2-y,-z
1/2-x,1/2+y,-z
loop_
_atom_site_type_symbol
_atom_site_label
_atom_site_fract_x
_atom_site_fract_y
_atom_site_fract_z
Si Si1 0.478125 0.890722 0.046776
Si Si2 0.497908 0.739762 0.525721
Si Si3 0.772751 0.515893 0.377874
Si Si4 0.641188 0.213119 0.788317
Si Si5 0.365080 0.878896 0.352920
Si Si6 0.803543 0.281978 0.293647
Si Si7 0.068556 0.911955 0.723485
Si Si8 0.342599 0.243714 0.067081
O O1 0.396695 0.913723 0.180762
O O2 0.581845 0.846907 0.114343
O O3 0.500000 0.000000 0.963798
O O4 0.435778 0.806410 0.928584
O O5 0.415687 0.716637 0.660699
O O6 0.465386 0.846608 0.444551
O O7 0.607381 0.749886 0.594172
O O8 0.498804 0.652732 0.393647
O O9 0.829195 0.601130 0.274872
O O10 0.812159 0.526377 0.556799
O O11 0.790510 0.404254 0.304726
O O12 0.656009 0.538425 0.378735
O O13 0.736922 0.276563 0.847840
O O14 0.293731 0.778466 0.351254
O O15 0.827687 0.248997 0.117677
O O16 0.111210 0.849884 0.870590
O O17 0.000000 0.000000 0.798134
#
# Coordination Sequence:
#
# PCOD8156310 Si02
#       8
#     4   4   4   4   4   4   4   4
#     4  12  24  41  67 102 138 182 228 287 346 417
#     4  11  23  41  69  96 136 180 223 281 347 413
#     4  10  24  40  66  97 133 180 226 284 337 418
#     4  10  23  42  66 101 137 176 229 280 351 414
#     4  11  24  41  65 102 137 174 234 282 343 416
#     4  12  23  44  71  95 137 185 227 291 352 404
#     4  11  23  45  69  98 137 182 229 278 350 414
#     4  11  24  45  70 101 138 179 233 293 345 418
#
# _framework density 21.390266
#
# number of rings (size 3 to 8) (size 9 to 14) (size 15 to 20)
#    0.000    1.000    5.000    1.500    1.750    1.000 
#    2.250    0.625    0.000    0.000    0.000    0.000 
#    0.000    0.000    0.000    0.000    0.000    0.000 
#
# Total GULP energy -396787.775183 kJ/mol
# GULP energy per Si atom -12399.617974 kJ/mol
# Density = 2.134158 g / cm^3
# Si number density = 21.390266 Si / 1000 Ang^3
#
#
#
# Elastic Constant Matrix: (Units=GPa)
#
#
# Indices 1 2 3 4 5 6 
#
# 1 103.8925 38.3718 28.2778 0.0000 0.0000 0.0000
# 2 38.3718 83.1374 29.8315 0.0000 0.0000 0.0000
# 3 28.2778 29.8315 111.5681 0.0000 0.0000 0.0000
# 4 0.0000 0.0000 0.0000 23.1624 0.0000 0.0000
# 5 0.0000 0.0000 0.0000 0.0000 37.5417 0.0000
# 6 0.0000 0.0000 0.0000 0.0000 0.0000 29.7677
#
#
#
# Elastic Compliance Matrix: (Units=1/GPa)
#
#
# Indices 1 2 3 4 5 6 
#
# 1 0.011891 -0.004875 -0.001711 0.000000 0.000000 0.000000
# 2 -0.004875 0.015303 -0.002856 0.000000 0.000000 0.000000
# 3 -0.001711 -0.002856 0.010160 0.000000 0.000000 0.000000
# 4 0.000000 0.000000 0.000000 0.043173 0.000000 0.000000
# 5 0.000000 0.000000 0.000000 0.000000 0.026637 0.000000
# 6 0.000000 0.000000 0.000000 0.000000 0.000000 0.033593
#
#
# Mechanical properties :
#
#
# Convention : Reuss Voigt Hill
#
# Bulk Modulus (GPa) = 54.13635 54.61780 54.37707
# Shear Modulus (GPa) = 30.15702 31.56882 30.86292
#
# Velocity S-wave (km/s) = 3.75887 3.84585 3.80261
# Velocity P-wave (km/s) = 6.64850 6.73128 6.69002
#
# Compressibility (1/GPa) = 0.01847188
#
# Stress axis : x y z
#
# Youngs Moduli (GPa) = 84.09502 65.34656 98.42122
#
# Poissons Ratio (x) = 0.31854 0.16835
# Poissons Ratio (y) = 0.40993 0.28112
# Poissons Ratio (z) = 0.14385 0.18665
#
# Static dielectric constant tensor:
#      x y z
#    x 4.147760 0.000000 0.000000 
#    y 0.000000 3.610970 0.000000 
#    z 0.000000 0.000000 3.893350 
# 
# 
# High freq. dielectric constant tensor:
#      x y z
#    x 1.861190 0.000000 0.000000 
#    y 0.000000 1.814980 0.000000 
#    z 0.000000 0.000000 1.842530 
# 
# From -- ./inp_files/3961.got.cif
#   From: 2010.03.12/outbox.cif.g09.slc.cpg/sg18_2_cif.got.tgz:3961.got - 2010.04.10 18:53:55.
