data_PCOD8156148
_publ_section_title
;
Structure prediction by ZEFSAII (Michael W. Deem and Ramdas Pophale) SiO2 
 PCOD8156148
Probable space group: P 21 21 2
;
_chemical_formula_sum "Si O2"
_cell_formula_units_Z 24
_cell_length_a 22.467335
_cell_length_b 8.973579
_cell_length_c 5.385403
_cell_angle_alpha 90.000000
_cell_angle_beta 90.000000
_cell_angle_gamma 90.000000
_cell_volume 1085.764054
_symmetry_space_group_name_H-M "P 21 21 2"
_symmetry_group_IT_number 18
_symmetry_cell_setting 'orthorhombic'
loop_
_space_group_symop_operation_xyz
x,y,z
-x,-y,z
1/2+x,1/2-y,-z
1/2-x,1/2+y,-z
loop_
_atom_site_type_symbol
_atom_site_label
_atom_site_fract_x
_atom_site_fract_y
_atom_site_fract_z
Si Si1 0.277143 0.905346 0.015059
Si Si2 0.855819 0.459637 0.618751
Si Si3 0.979289 0.831156 0.157802
Si Si4 0.760797 0.859647 0.671631
Si Si5 0.977944 0.331203 0.655182
Si Si6 0.856244 0.753933 0.344011
O O1 0.336223 0.993489 0.104867
O O2 0.247807 0.810664 0.238293
O O3 0.298742 0.784744 0.817978
O O4 0.231327 0.022391 0.896351
O O5 0.796386 0.399447 0.489638
O O6 0.905980 0.333816 0.647323
O O7 0.882219 0.604762 0.476219
O O8 0.907576 0.830375 0.181053
O O9 0.003406 0.757588 0.409895
O O10 0.000000 0.000000 0.137146
O O11 0.999201 0.746098 0.907985
O O12 0.825599 0.867344 0.539833
O O13 0.000000 0.500000 0.652755
#
# Coordination Sequence:
#
# PCOD8156148 Si02
#       6
#     4   4   4   4   4   4
#     4  10  21  42  66  98 141 180 231 292 367 424
#     4  10  22  42  69 104 131 180 254 296 343 441
#     4  12  28  50  70 111 151 191 244 312 379 427
#     4  10  22  41  68 102 138 184 233 295 368 432
#     4  12  25  48  80 105 140 200 255 297 359 443
#     4  10  22  44  69  97 144 186 233 302 372 430
#
# _framework density 22.104248999999999
#
# number of rings (size 3 to 8) (size 9 to 14) (size 15 to 20)
#    0.000    1.333    1.667    3.000    7.000    0.000 
#   15.000    0.000    0.000    0.000    0.000    0.000 
#    0.000    0.000    0.000    0.000    0.000    0.000 
#
# Total GULP energy -297470.944494 kJ/mol
# GULP energy per Si atom -12394.622687 kJ/mol
# Density = 2.205394 g / cm^3
# Si number density = 22.104249 Si / 1000 Ang^3
#
#
#
# Elastic Constant Matrix: (Units=GPa)
#
#
# Indices 1 2 3 4 5 6 
#
# 1 75.7007 37.5717 8.1839 0.0000 0.0000 0.0000
# 2 37.5717 100.8826 31.9096 0.0000 0.0000 0.0000
# 3 8.1839 31.9096 97.4675 0.0000 0.0000 0.0000
# 4 0.0000 0.0000 0.0000 43.3696 0.0000 0.0000
# 5 0.0000 0.0000 0.0000 0.0000 25.9936 0.0000
# 6 0.0000 0.0000 0.0000 0.0000 0.0000 36.8240
#
#
#
# Elastic Compliance Matrix: (Units=1/GPa)
#
#
# Indices 1 2 3 4 5 6 
#
# 1 0.016247 -0.006268 0.000688 0.000000 0.000000 0.000000
# 2 -0.006268 0.013476 -0.003886 0.000000 0.000000 0.000000
# 3 0.000688 -0.003886 0.011474 0.000000 0.000000 0.000000
# 4 0.000000 0.000000 0.000000 0.023058 0.000000 0.000000
# 5 0.000000 0.000000 0.000000 0.000000 0.038471 0.000000
# 6 0.000000 0.000000 0.000000 0.000000 0.000000 0.027156
#
#
# Mechanical properties :
#
#
# Convention : Reuss Voigt Hill
#
# Bulk Modulus (GPa) = 44.91344 47.70902 46.31123
# Shear Modulus (GPa) = 32.00303 34.32981 33.16642
#
# Velocity S-wave (km/s) = 3.80915 3.94520 3.87777
# Velocity P-wave (km/s) = 6.30153 6.51024 6.40673
#
# Compressibility (1/GPa) = 0.02226505
#
# Stress axis : x y z
#
# Youngs Moduli (GPa) = 61.55113 74.20565 87.15244
#
# Poissons Ratio (x) = 0.46515 -0.05996
# Poissons Ratio (y) = 0.38583 0.33864
# Poissons Ratio (z) = -0.04235 0.28833
#
# Static dielectric constant tensor:
#      x y z
#    x 3.921870 0.000000 0.000000 
#    y 0.000000 4.094850 0.000000 
#    z 0.000000 0.000000 4.275770 
# 
# 
# High freq. dielectric constant tensor:
#      x y z
#    x 1.861620 0.000000 0.000000 
#    y 0.000000 1.865560 0.000000 
#    z 0.000000 0.000000 1.889480 
# 
# From -- ./inp_files/2077.got.cif
#   From: 2010.03.12/outbox.cif.g09.slc.cpg/sg18_2_cif.got.tgz:2077.got - 2010.04.10 18:53:55.
