data_PCOD8156511
_publ_section_title
;
Structure prediction by ZEFSAII (Michael W. Deem and Ramdas Pophale) SiO2 
 PCOD8156511
Probable space group: P 21 21 2
;
_chemical_formula_sum "Si O2"
_cell_formula_units_Z 16
_cell_length_a 13.748579
_cell_length_b 10.708349
_cell_length_c 4.977721
_cell_angle_alpha 90.000000
_cell_angle_beta 90.000000
_cell_angle_gamma 90.000000
_cell_volume 732.842894
_symmetry_space_group_name_H-M "P 21 21 2"
_symmetry_group_IT_number 18
_symmetry_cell_setting 'orthorhombic'
loop_
_space_group_symop_operation_xyz
x,y,z
-x,-y,z
1/2+x,1/2-y,-z
1/2-x,1/2+y,-z
loop_
_atom_site_type_symbol
_atom_site_label
_atom_site_fract_x
_atom_site_fract_y
_atom_site_fract_z
Si Si1 0.655268 0.339570 0.202685
Si Si2 0.010714 0.646930 0.777947
Si Si3 0.869440 0.269882 0.276664
Si Si4 0.892403 0.988530 0.296139
O O1 0.595945 0.209303 0.188844
O O2 0.764299 0.330291 0.313721
O O3 0.600081 0.430159 0.407955
O O4 0.665612 0.399426 0.907422
O O5 0.053159 0.672844 0.483229
O O6 0.000000 0.500000 0.828214
O O7 0.086855 0.707013 0.983335
O O8 0.846118 0.124476 0.318113
O O9 0.000000 0.000000 0.175240
#
# Coordination Sequence:
#
# PCOD8156511 Si02
#       4
#     4   4   4   4
#     4  12  26  43  72 101 134 181 225 279 337 399
#     4  12  26  48  66 102 143 178 221 279 342 402
#     4  12  27  44  72 101 136 182 225 278 338 400
#     4  12  23  48  70  98 135 178 232 282 328 394
#
# _framework density 21.832785000000001
#
# number of rings (size 3 to 8) (size 9 to 14) (size 15 to 20)
#    0.000    0.000    5.000    4.500    7.000    0.000 
#    0.000    0.000    0.000    0.000    0.000    0.000 
#    0.000    0.000    0.000    0.000    0.000    0.000 
#
# Total GULP energy -198502.399791 kJ/mol
# GULP energy per Si atom -12406.399987 kJ/mol
# Density = 2.178309 g / cm^3
# Si number density = 21.832785 Si / 1000 Ang^3
#
#
#
# Elastic Constant Matrix: (Units=GPa)
#
#
# Indices 1 2 3 4 5 6 
#
# 1 93.3671 10.4813 7.4125 0.0000 0.0000 0.0000
# 2 10.4813 124.8800 21.0874 0.0000 0.0000 0.0000
# 3 7.4125 21.0874 94.3966 0.0000 0.0000 0.0000
# 4 0.0000 0.0000 0.0000 34.5407 0.0000 0.0000
# 5 0.0000 0.0000 0.0000 0.0000 14.4296 0.0000
# 6 0.0000 0.0000 0.0000 0.0000 0.0000 27.9619
#
#
#
# Elastic Compliance Matrix: (Units=1/GPa)
#
#
# Indices 1 2 3 4 5 6 
#
# 1 0.010853 -0.000797 -0.000674 0.000000 0.000000 0.000000
# 2 -0.000797 0.008380 -0.001809 0.000000 0.000000 0.000000
# 3 -0.000674 -0.001809 0.011051 0.000000 0.000000 0.000000
# 4 0.000000 0.000000 0.000000 0.028951 0.000000 0.000000
# 5 0.000000 0.000000 0.000000 0.000000 0.069302 0.000000
# 6 0.000000 0.000000 0.000000 0.000000 0.000000 0.035763
#
#
# Mechanical properties :
#
#
# Convention : Reuss Voigt Hill
#
# Bulk Modulus (GPa) = 42.15353 43.40069 42.77711
# Shear Modulus (GPa) = 27.96899 33.63063 30.79981
#
# Velocity S-wave (km/s) = 3.58307 3.92902 3.76002
# Velocity P-wave (km/s) = 6.03881 6.36433 6.20370
#
# Compressibility (1/GPa) = 0.02372280
#
# Stress axis : x y z
#
# Youngs Moduli (GPa) = 92.13693 119.32980 90.49146
#
# Poissons Ratio (x) = 0.09512 0.06101
# Poissons Ratio (y) = 0.07344 0.16374
# Poissons Ratio (z) = 0.06212 0.21592
#
# Static dielectric constant tensor:
#      x y z
#    x 3.814590 0.000000 0.000000 
#    y 0.000000 4.076710 0.000000 
#    z 0.000000 0.000000 3.873420 
# 
# 
# High freq. dielectric constant tensor:
#      x y z
#    x 1.860230 0.000000 0.000000 
#    y 0.000000 1.866090 0.000000 
#    z 0.000000 0.000000 1.871820 
# 
# From -- ./inp_files/1366.got.cif
#   From: 2010.03.12/outbox.cif.g09.slc.cpg/sg18_1_cif.got.tgz:1366.got - 2010.04.10 18:53:55.
