data_PCOD8156745
_publ_section_title
;
Structure prediction by ZEFSAII (Michael W. Deem and Ramdas Pophale) SiO2 
 PCOD8156745
Probable space group: P 21 21 21
;
_chemical_formula_sum "Si O2"
_cell_formula_units_Z 28
_cell_length_a 7.777132
_cell_length_b 20.145369
_cell_length_c 8.768150
_cell_angle_alpha 90.000000
_cell_angle_beta 90.000000
_cell_angle_gamma 90.000000
_cell_volume 1373.734065
_symmetry_space_group_name_H-M "P 21 21 21"
_symmetry_group_IT_number 19
_symmetry_cell_setting 'orthorhombic'
loop_
_space_group_symop_operation_xyz
x,y,z
1/2-x,-y,1/2+z
1/2+x,1/2-y,-z
-x,1/2+y,1/2-z
loop_
_atom_site_type_symbol
_atom_site_label
_atom_site_fract_x
_atom_site_fract_y
_atom_site_fract_z
Si Si1 0.922739 0.087292 0.617645
Si Si2 0.426978 0.927856 0.441192
Si Si3 0.980242 0.327775 0.596563
Si Si4 0.884848 0.512240 0.125394
Si Si5 0.838050 0.650898 0.286517
Si Si6 0.447937 0.545682 0.904738
Si Si7 0.126514 0.707654 0.094665
O O1 0.729327 0.072387 0.662191
O O2 0.936763 0.158326 0.537479
O O3 0.979647 0.026664 0.509077
O O4 0.035603 0.093004 0.769559
O O5 0.279015 0.982849 0.458060
O O6 0.369402 0.861574 0.532954
O O7 0.579162 0.971755 0.520187
O O8 0.852906 0.321236 0.744287
O O9 0.897152 0.281998 0.465486
O O10 0.977419 0.402285 0.528902
O O11 0.174789 0.306233 0.642791
O O12 0.847305 0.580853 0.205583
O O13 0.941185 0.458158 0.250404
O O14 0.994967 0.698726 0.235732
#
# Coordination Sequence:
#
# PCOD8156745 Si02
#       7
#     4   4   4   4   4   4   4
#     4  10  21  37  57  85 122 156 198 244 301 361
#     4  11  21  36  59  85 125 152 194 249 305 359
#     4  11  20  38  65  88 117 155 208 246 304 355
#     4  10  20  35  57  87 116 157 190 235 310 353
#     4  10  21  38  58  88 118 151 200 247 293 359
#     4  10  21  35  58  90 114 157 196 250 298 359
#     4  10  22  37  66  85 114 162 204 251 293 360
#
# _framework density 20.382400000000001
#
# number of rings (size 3 to 8) (size 9 to 14) (size 15 to 20)
#    0.000    1.714    2.857    2.571    2.000    1.143 
#    2.571    0.000    6.286    0.000    0.000    0.000 
#    0.000    0.000    0.000    0.000    0.000    0.000 
#
# Total GULP energy -347034.549903 kJ/mol
# GULP energy per Si atom -12394.091068 kJ/mol
# Density = 2.033601 g / cm^3
# Si number density = 20.382400 Si / 1000 Ang^3
#
#
#
# Elastic Constant Matrix: (Units=GPa)
#
#
# Indices 1 2 3 4 5 6 
#
# 1 98.0920 13.7571 29.4725 0.0000 0.0000 0.0000
# 2 13.7571 36.4334 2.4604 0.0000 0.0000 0.0000
# 3 29.4725 2.4604 86.5355 0.0000 0.0000 0.0000
# 4 0.0000 0.0000 0.0000 14.9069 0.0000 0.0000
# 5 0.0000 0.0000 0.0000 0.0000 18.2522 0.0000
# 6 0.0000 0.0000 0.0000 0.0000 0.0000 27.8112
#
#
#
# Elastic Compliance Matrix: (Units=1/GPa)
#
#
# Indices 1 2 3 4 5 6 
#
# 1 0.011981 -0.004257 -0.003960 0.000000 0.000000 0.000000
# 2 -0.004257 0.029012 0.000625 0.000000 0.000000 0.000000
# 3 -0.003960 0.000625 0.012887 0.000000 0.000000 0.000000
# 4 0.000000 0.000000 0.000000 0.067083 0.000000 0.000000
# 5 0.000000 0.000000 0.000000 0.000000 0.054788 0.000000
# 6 0.000000 0.000000 0.000000 0.000000 0.000000 0.035957
#
#
# Mechanical properties :
#
#
# Convention : Reuss Voigt Hill
#
# Bulk Modulus (GPa) = 25.84138 34.71567 30.27852
# Shear Modulus (GPa) = 20.85159 23.88545 22.36852
#
# Velocity S-wave (km/s) = 3.20194 3.42697 3.31636
# Velocity P-wave (km/s) = 5.13573 5.72084 5.43616
#
# Compressibility (1/GPa) = 0.03869762
#
# Stress axis : x y z
#
# Youngs Moduli (GPa) = 83.46426 34.46799 77.59914
#
# Poissons Ratio (x) = 0.14672 0.30726
# Poissons Ratio (y) = 0.35528 -0.04849
# Poissons Ratio (z) = 0.33048 -0.02154
#
# Static dielectric constant tensor:
#      x y z
#    x 3.875930 0.000000 0.000000 
#    y 0.000000 3.597850 0.000000 
#    z 0.000000 0.000000 3.677600 
# 
# 
# High freq. dielectric constant tensor:
#      x y z
#    x 1.806170 0.000000 0.000000 
#    y 0.000000 1.780710 0.000000 
#    z 0.000000 0.000000 1.779250 
# 
# From -- ./inp_files/2983.got.cif
#   From: 2010.03.12/outbox.cif.g09.slc.cpg/sg19_2_cif.got.tgz:2983.got - 2010.04.10 18:59:41.
