data_PCOD8156514
_publ_section_title
;
Structure prediction by ZEFSAII (Michael W. Deem and Ramdas Pophale) SiO2 
 PCOD8156514
Probable space group: P 21 21 2
;
_chemical_formula_sum "Si O2"
_cell_formula_units_Z 18
_cell_length_a 12.348560
_cell_length_b 12.348564
_cell_length_c 4.998521
_cell_angle_alpha 90.000000
_cell_angle_beta 90.000000
_cell_angle_gamma 90.000000
_cell_volume 762.209389
_symmetry_space_group_name_H-M "P 21 21 2"
_symmetry_group_IT_number 18
_symmetry_cell_setting 'orthorhombic'
loop_
_space_group_symop_operation_xyz
x,y,z
-x,-y,z
1/2+x,1/2-y,-z
1/2-x,1/2+y,-z
loop_
_atom_site_type_symbol
_atom_site_label
_atom_site_fract_x
_atom_site_fract_y
_atom_site_fract_z
Si Si1 0.499069 0.740499 0.387982
Si Si2 0.211512 0.372814 0.637968
Si Si3 0.872814 0.288489 0.137970
Si Si4 0.759501 0.999069 0.887984
Si Si5 0.000000 0.000000 0.750000
O O1 0.381770 0.785272 0.315129
O O2 0.525320 0.803523 0.663893
O O3 0.496719 0.609919 0.427077
O O4 0.587459 0.774126 0.164731
O O5 0.321590 0.321590 0.749998
O O6 0.225873 0.412539 0.335265
O O7 0.196478 0.474680 0.836103
O O8 0.785272 0.381770 0.184871
O O9 0.890081 0.996718 0.927077
#
# Coordination Sequence:
#
# PCOD8156514 Si02
#       5
#     4   4   4   4   2
#     4  12  27  45  74  99 143 179 236 277 349 407
#     4  12  25  46  68 105 137 181 227 293 337 407
#     4  12  25  46  68 105 137 181 227 293 337 407
#     4  12  27  45  74  99 143 179 236 277 349 407
#     4  12  24  46  72 106 128 190 224 286 332 414
#
# _framework density 23.615561
#
# number of rings (size 3 to 8) (size 9 to 14) (size 15 to 20)
#    0.000    0.000    6.667    2.667    0.000    8.889 
#    0.000    0.000    0.000    0.000    0.000    0.000 
#    0.000    0.000    0.000    0.000    0.000    0.000 
#
# Total GULP energy -223145.007174 kJ/mol
# GULP energy per Si atom -12396.944843 kJ/mol
# Density = 2.356181 g / cm^3
# Si number density = 23.615561 Si / 1000 Ang^3
#
#
#
# Elastic Constant Matrix: (Units=GPa)
#
#
# Indices 1 2 3 4 5 6 
#
# 1 112.4829 63.6413 24.3999 0.0000 0.0000 0.0000
# 2 63.6413 112.4825 24.4029 0.0000 0.0000 0.0000
# 3 24.3999 24.4029 82.7850 0.0000 0.0000 0.0000
# 4 0.0000 0.0000 0.0000 24.7415 0.0000 0.0000
# 5 0.0000 0.0000 0.0000 0.0000 24.7412 0.0000
# 6 0.0000 0.0000 0.0000 0.0000 0.0000 51.0301
#
#
#
# Elastic Compliance Matrix: (Units=1/GPa)
#
#
# Indices 1 2 3 4 5 6 
#
# 1 0.013328 -0.007146 -0.001822 0.000000 0.000000 0.000000
# 2 -0.007146 0.013329 -0.001823 0.000000 0.000000 0.000000
# 3 -0.001822 -0.001823 0.013154 0.000000 0.000000 0.000000
# 4 0.000000 0.000000 0.000000 0.040418 0.000000 0.000000
# 5 0.000000 0.000000 0.000000 0.000000 0.040418 0.000000
# 6 0.000000 0.000000 0.000000 0.000000 0.000000 0.019596
#
#
# Mechanical properties :
#
#
# Convention : Reuss Voigt Hill
#
# Bulk Modulus (GPa) = 54.85539 59.18205 57.01872
# Shear Modulus (GPa) = 29.77937 33.12299 31.45118
#
# Velocity S-wave (km/s) = 3.55492 3.74918 3.65334
# Velocity P-wave (km/s) = 6.33473 6.62245 6.48019
#
# Compressibility (1/GPa) = 0.01822975
#
# Stress axis : x y z
#
# Youngs Moduli (GPa) = 75.02736 75.02584 76.02354
#
# Poissons Ratio (x) = 0.53612 0.13852
# Poissons Ratio (y) = 0.53613 0.13858
# Poissons Ratio (z) = 0.13670 0.13676
#
# Static dielectric constant tensor:
#      x y z
#    x 4.251070 0.000000 0.000000 
#    y 0.000000 4.251070 0.000000 
#    z 0.000000 0.000000 4.288190 
# 
# 
# High freq. dielectric constant tensor:
#      x y z
#    x 1.945110 0.000000 0.000000 
#    y 0.000000 1.945110 0.000000 
#    z 0.000000 0.000000 1.926190 
# 
# From -- ./inp_files/903.got.cif
#   From: 2010.03.12/outbox.cif.g09.slc.cpg/sg18_1_cif.got.tgz:903.got - 2010.04.10 18:53:55.
