data_PCOD8156211
_publ_section_title
;
Structure prediction by ZEFSAII (Michael W. Deem and Ramdas Pophale) SiO2 
 PCOD8156211
Probable space group: P 21 21 2
;
_chemical_formula_sum "Si O2"
_cell_formula_units_Z 16
_cell_length_a 12.418377
_cell_length_b 8.649563
_cell_length_c 6.506277
_cell_angle_alpha 90.000000
_cell_angle_beta 90.000000
_cell_angle_gamma 90.000000
_cell_volume 698.862207
_symmetry_space_group_name_H-M "P 21 21 2"
_symmetry_group_IT_number 18
_symmetry_cell_setting 'orthorhombic'
loop_
_space_group_symop_operation_xyz
x,y,z
-x,-y,z
1/2+x,1/2-y,-z
1/2-x,1/2+y,-z
loop_
_atom_site_type_symbol
_atom_site_label
_atom_site_fract_x
_atom_site_fract_y
_atom_site_fract_z
Si Si1 0.500000 0.000000 0.372976
Si Si2 0.692604 0.808686 0.217997
Si Si3 0.672241 0.468143 0.104504
Si Si4 0.386208 0.713582 0.492469
Si Si5 0.000000 0.000000 0.227629
O O1 0.428034 0.125237 0.248729
O O2 0.588953 0.101905 0.495608
O O3 0.702280 0.623615 0.221769
O O4 0.774385 0.844465 0.405827
O O5 0.727740 0.878503 0.998049
O O6 0.612298 0.350354 0.258903
O O7 0.601307 0.527354 0.915643
O O8 0.485620 0.647081 0.624121
#
# Coordination Sequence:
#
# PCOD8156211 Si02
#       5
#     2   4   4   4   2
#     4  12  24  42  70 100 134 184 234 282 356 422
#     4  11  25  42  67  98 135 181 229 287 351 415
#     4  11  23  43  65  95 137 175 228 289 343 414
#     4  11  24  43  65  97 135 176 227 286 345 413
#     4  10  22  40  66  90 124 178 220 274 344 400
#
# _framework density 22.894356999999999
#
# number of rings (size 3 to 8) (size 9 to 14) (size 15 to 20)
#    0.000    1.000    0.000    6.750    0.000   10.000 
#    0.000    6.250    0.000    0.000    0.000    0.000 
#    0.000    0.000    0.000    0.000    0.000    0.000 
#
# Total GULP energy -198282.688708 kJ/mol
# GULP energy per Si atom -12392.668044 kJ/mol
# Density = 2.284225 g / cm^3
# Si number density = 22.894357 Si / 1000 Ang^3
#
#
#
# Elastic Constant Matrix: (Units=GPa)
#
#
# Indices 1 2 3 4 5 6 
#
# 1 93.8517 36.7808 37.1880 0.0000 0.0000 0.0000
# 2 36.7808 139.2448 37.4499 0.0000 0.0000 0.0000
# 3 37.1880 37.4499 108.5588 0.0000 0.0000 0.0000
# 4 0.0000 0.0000 0.0000 36.6217 0.0000 0.0000
# 5 0.0000 0.0000 0.0000 0.0000 26.3746 0.0000
# 6 0.0000 0.0000 0.0000 0.0000 0.0000 45.8197
#
#
#
# Elastic Compliance Matrix: (Units=1/GPa)
#
#
# Indices 1 2 3 4 5 6 
#
# 1 0.013060 -0.002476 -0.003620 0.000000 0.000000 0.000000
# 2 -0.002476 0.008386 -0.002045 0.000000 0.000000 0.000000
# 3 -0.003620 -0.002045 0.011157 0.000000 0.000000 0.000000
# 4 0.000000 0.000000 0.000000 0.027306 0.000000 0.000000
# 5 0.000000 0.000000 0.000000 0.000000 0.037915 0.000000
# 6 0.000000 0.000000 0.000000 0.000000 0.000000 0.021825
#
#
# Mechanical properties :
#
#
# Convention : Reuss Voigt Hill
#
# Bulk Modulus (GPa) = 61.26862 62.72142 61.99502
# Shear Modulus (GPa) = 35.36834 37.11231 36.24032
#
# Velocity S-wave (km/s) = 3.93472 4.03056 3.98293
# Velocity P-wave (km/s) = 6.88929 7.00829 6.94904
#
# Compressibility (1/GPa) = 0.01632157
#
# Stress axis : x y z
#
# Youngs Moduli (GPa) = 76.57119 119.25278 89.63124
#
# Poissons Ratio (x) = 0.29529 0.32442
# Poissons Ratio (y) = 0.18960 0.18326
# Poissons Ratio (z) = 0.27715 0.24382
#
# Static dielectric constant tensor:
#      x y z
#    x 4.022810 0.000000 0.000000 
#    y 0.000000 4.202350 0.000000 
#    z 0.000000 0.000000 4.138930 
# 
# 
# High freq. dielectric constant tensor:
#      x y z
#    x 1.903340 0.000000 0.000000 
#    y 0.000000 1.912270 0.000000 
#    z 0.000000 0.000000 1.901710 
# 
# From -- ./inp_files/400.got.cif
#   From: 2010.03.12/outbox.cif.g09.slc.cpg/sg18_1_cif.got.tgz:400.got - 2010.04.10 18:53:55.
