data_PCOD8156261
_publ_section_title
;
Structure prediction by ZEFSAII (Michael W. Deem and Ramdas Pophale) SiO2 
 PCOD8156261
Probable space group: P 21 21 2
;
_chemical_formula_sum "Si O2"
_cell_formula_units_Z 32
_cell_length_a 8.664578
_cell_length_b 11.855881
_cell_length_c 14.579571
_cell_angle_alpha 90.000000
_cell_angle_beta 90.000000
_cell_angle_gamma 90.000000
_cell_volume 1497.704009
_symmetry_space_group_name_H-M "P 21 21 2"
_symmetry_group_IT_number 18
_symmetry_cell_setting 'orthorhombic'
loop_
_space_group_symop_operation_xyz
x,y,z
-x,-y,z
1/2+x,1/2-y,-z
1/2-x,1/2+y,-z
loop_
_atom_site_type_symbol
_atom_site_label
_atom_site_fract_x
_atom_site_fract_y
_atom_site_fract_z
Si Si1 0.850770 0.168177 0.228656
Si Si2 0.865583 0.580696 0.622852
Si Si3 0.835275 0.555383 0.124600
Si Si4 0.322048 0.487675 0.934854
Si Si5 0.809940 0.806601 0.190643
Si Si6 0.426076 0.274984 0.332920
Si Si7 0.674835 0.531530 0.446989
Si Si8 0.698557 0.401588 0.269061
O O1 0.770561 0.088287 0.303330
O O2 0.807161 0.298517 0.239441
O O3 0.033817 0.154447 0.241416
O O4 0.801167 0.122874 0.128660
O O5 0.793876 0.530283 0.530372
O O6 0.000000 0.500000 0.659444
O O7 0.946026 0.702853 0.611290
O O8 0.838620 0.689190 0.138694
O O9 0.716125 0.502819 0.197323
O O10 0.000000 0.500000 0.143950
O O11 0.784465 0.528102 0.022245
O O12 0.500000 0.500000 0.964828
O O13 0.261737 0.599973 0.883700
O O14 0.678405 0.802104 0.267832
O O15 0.322091 0.341850 0.405763
O O16 0.518868 0.364699 0.269444
O O17 0.500000 0.500000 0.477127
O O18 0.741418 0.444488 0.371531
#
# Coordination Sequence:
#
# PCOD8156261 Si02
#       8
#     4   4   4   4   4   4   4   4
#     4  10  23  47  66  94 137 180 225 286 338 407
#     4  11  25  41  66  96 132 178 224 277 342 409
#     4  12  25  40  68 101 133 178 230 288 338 405
#     4  10  26  42  63  98 137 177 228 278 344 407
#     4  11  23  42  69  99 134 183 228 277 349 405
#     4  10  23  41  67  95 134 176 222 275 351 401
#     4  10  23  42  64  99 130 173 223 282 335 405
#     4  10  22  43  66  97 133 172 228 281 341 401
#
# _framework density 21.366039000000001
#
# number of rings (size 3 to 8) (size 9 to 14) (size 15 to 20)
#    0.000    1.500    2.500    0.750    3.500   10.500 
#    0.000    0.000    0.000    0.000    0.000    0.000 
#    0.000    0.000    0.000    0.000    0.000    0.000 
#
# Total GULP energy -396874.078692 kJ/mol
# GULP energy per Si atom -12402.314959 kJ/mol
# Density = 2.131741 g / cm^3
# Si number density = 21.366039 Si / 1000 Ang^3
#
#
#
# Elastic Constant Matrix: (Units=GPa)
#
#
# Indices 1 2 3 4 5 6 
#
# 1 90.5214 41.5911 61.7584 0.0000 0.0000 0.0000
# 2 41.5911 104.3500 43.5640 0.0000 0.0000 0.0000
# 3 61.7584 43.5640 111.8131 0.0000 0.0000 0.0000
# 4 0.0000 0.0000 0.0000 36.3368 0.0000 0.0000
# 5 0.0000 0.0000 0.0000 0.0000 37.2441 0.0000
# 6 0.0000 0.0000 0.0000 0.0000 0.0000 40.2156
#
#
#
# Elastic Compliance Matrix: (Units=1/GPa)
#
#
# Indices 1 2 3 4 5 6 
#
# 1 0.018906 -0.003793 -0.008965 0.000000 0.000000 0.000000
# 2 -0.003793 0.012206 -0.002661 0.000000 0.000000 0.000000
# 3 -0.008965 -0.002661 0.014932 0.000000 0.000000 0.000000
# 4 0.000000 0.000000 0.000000 0.027520 0.000000 0.000000
# 5 0.000000 0.000000 0.000000 0.000000 0.026850 0.000000
# 6 0.000000 0.000000 0.000000 0.000000 0.000000 0.024866
#
#
# Mechanical properties :
#
#
# Convention : Reuss Voigt Hill
#
# Bulk Modulus (GPa) = 65.75925 66.72349 66.24137
# Shear Modulus (GPa) = 31.02037 33.41071 32.21554
#
# Velocity S-wave (km/s) = 3.81445 3.95869 3.88724
# Velocity P-wave (km/s) = 7.08833 7.22437 7.15667
#
# Compressibility (1/GPa) = 0.01520699
#
# Stress axis : x y z
#
# Youngs Moduli (GPa) = 52.89339 81.92977 66.97206
#
# Poissons Ratio (x) = 0.31075 0.60038
# Poissons Ratio (y) = 0.20062 0.17818
# Poissons Ratio (z) = 0.47417 0.21798
#
# Static dielectric constant tensor:
#      x y z
#    x 3.885600 0.000000 0.000000 
#    y 0.000000 4.208940 0.000000 
#    z 0.000000 0.000000 3.624180 
# 
# 
# High freq. dielectric constant tensor:
#      x y z
#    x 1.841300 0.000000 0.000000 
#    y 0.000000 1.857900 0.000000 
#    z 0.000000 0.000000 1.824120 
# 
# From -- ./inp_files/6814.got.cif
#   From: 2010.03.12/outbox.cif.g09.slc.cpg/sg18_4_cif.got.tgz:6814.got - 2010.04.10 18:53:55.
