data_PCOD8156426
_publ_section_title
;
Structure prediction by ZEFSAII (Michael W. Deem and Ramdas Pophale) SiO2 
 PCOD8156426
Probable space group: P 21 21 2
;
_chemical_formula_sum "Si O2"
_cell_formula_units_Z 30
_cell_length_a 17.397313
_cell_length_b 13.160491
_cell_length_c 6.433345
_cell_angle_alpha 90.000000
_cell_angle_beta 90.000000
_cell_angle_gamma 90.000000
_cell_volume 1472.960537
_symmetry_space_group_name_H-M "P 21 21 2"
_symmetry_group_IT_number 18
_symmetry_cell_setting 'orthorhombic'
loop_
_space_group_symop_operation_xyz
x,y,z
-x,-y,z
1/2+x,1/2-y,-z
1/2-x,1/2+y,-z
loop_
_atom_site_type_symbol
_atom_site_label
_atom_site_fract_x
_atom_site_fract_y
_atom_site_fract_z
Si Si1 0.254381 0.341153 0.660022
Si Si2 0.349230 0.688256 0.571820
Si Si3 0.886845 0.161047 0.644639
Si Si4 0.500000 0.500000 0.882318
Si Si5 0.853647 0.287643 0.032835
Si Si6 0.748376 0.951160 0.120651
Si Si7 0.515256 0.705553 0.706435
Si Si8 0.117603 0.046708 0.811832
O O1 0.187851 0.289926 0.522022
O O2 0.321227 0.378408 0.510121
O O3 0.287522 0.257418 0.818444
O O4 0.224030 0.441891 0.776807
O O5 0.290246 0.623944 0.713476
O O6 0.423398 0.722500 0.708678
O O7 0.380561 0.623453 0.378137
O O8 0.952205 0.226047 0.525469
O O9 0.921247 0.059743 0.744475
O O10 0.848939 0.229343 0.818090
O O11 0.541935 0.586972 0.745863
O O12 0.558258 0.424281 0.005470
O O13 0.939292 0.279990 0.133467
O O14 0.829970 0.402337 0.971802
O O15 0.799916 0.970363 0.917199
#
# Coordination Sequence:
#
# PCOD8156426 Si02
#       8
#     4   4   4   2   4   4   4   4
#     4  11  23  40  63  99 126 167 221 266 320 396
#     4  12  24  38  63 100 133 166 221 275 329 389
#     4  11  20  38  61  89 131 164 205 263 328 381
#     4  12  20  36  58  96 136 158 198 270 336 406
#     4  11  23  41  62  94 130 171 210 267 329 395
#     4  12  23  40  66  97 126 171 225 264 326 398
#     4  11  24  37  58  99 132 168 212 263 334 395
#     4  12  21  35  61  95 132 162 199 265 337 388
#
# _framework density 20.367146000000002
#
# number of rings (size 3 to 8) (size 9 to 14) (size 15 to 20)
#    0.000    0.533    8.000    2.400    0.000    0.000 
#    0.000    0.000    0.000    0.800    6.933    0.000 
#    0.000    0.000    0.000    0.000    0.000    0.000 
#
# Total GULP energy -371827.512101 kJ/mol
# GULP energy per Si atom -12394.250403 kJ/mol
# Density = 2.032079 g / cm^3
# Si number density = 20.367146 Si / 1000 Ang^3
#
#
#
# Elastic Constant Matrix: (Units=GPa)
#
#
# Indices 1 2 3 4 5 6 
#
# 1 75.0115 28.4957 14.4801 0.0000 0.0000 0.0000
# 2 28.4957 71.5246 13.5713 0.0000 0.0000 0.0000
# 3 14.4801 13.5713 71.4693 0.0000 0.0000 0.0000
# 4 0.0000 0.0000 0.0000 34.5929 0.0000 0.0000
# 5 0.0000 0.0000 0.0000 0.0000 34.6780 0.0000
# 6 0.0000 0.0000 0.0000 0.0000 0.0000 30.5174
#
#
#
# Elastic Compliance Matrix: (Units=1/GPa)
#
#
# Indices 1 2 3 4 5 6 
#
# 1 0.016009 -0.005978 -0.002108 0.000000 0.000000 0.000000
# 2 -0.005978 0.016736 -0.001967 0.000000 0.000000 0.000000
# 3 -0.002108 -0.001967 0.014793 0.000000 0.000000 0.000000
# 4 0.000000 0.000000 0.000000 0.028908 0.000000 0.000000
# 5 0.000000 0.000000 0.000000 0.000000 0.028837 0.000000
# 6 0.000000 0.000000 0.000000 0.000000 0.000000 0.032768
#
#
# Mechanical properties :
#
#
# Convention : Reuss Voigt Hill
#
# Bulk Modulus (GPa) = 36.45455 36.78884 36.62169
# Shear Modulus (GPa) = 29.88625 30.72156 30.30390
#
# Velocity S-wave (km/s) = 3.83479 3.88801 3.86149
# Velocity P-wave (km/s) = 6.12740 6.18527 6.15640
#
# Compressibility (1/GPa) = 0.02743142
#
# Stress axis : x y z
#
# Youngs Moduli (GPa) = 62.46374 59.75105 67.60104
#
# Poissons Ratio (x) = 0.35720 0.14253
# Poissons Ratio (y) = 0.37342 0.13296
# Poissons Ratio (z) = 0.13170 0.11752
#
# Static dielectric constant tensor:
#      x y z
#    x 3.593640 0.000000 0.000000 
#    y 0.000000 3.517850 0.000000 
#    z 0.000000 0.000000 4.037440 
# 
# 
# High freq. dielectric constant tensor:
#      x y z
#    x 1.782820 0.000000 0.000000 
#    y 0.000000 1.758390 0.000000 
#    z 0.000000 0.000000 1.824170 
# 
# From -- ./inp_files/1239.got.cif
#   From: 2010.03.12/outbox.cif.g09.slc.cpg/sg18_1_cif.got.tgz:1239.got - 2010.04.10 18:53:55.
