data_PCOD8156296
_publ_section_title
;
Structure prediction by ZEFSAII (Michael W. Deem and Ramdas Pophale) SiO2 
 PCOD8156296
Probable space group: P 21 21 2
;
_chemical_formula_sum "Si O2"
_cell_formula_units_Z 24
_cell_length_a 9.211516
_cell_length_b 11.724051
_cell_length_c 11.138677
_cell_angle_alpha 90.000000
_cell_angle_beta 90.000000
_cell_angle_gamma 90.000000
_cell_volume 1202.935718
_symmetry_space_group_name_H-M "P 21 21 2"
_symmetry_group_IT_number 18
_symmetry_cell_setting 'orthorhombic'
loop_
_space_group_symop_operation_xyz
x,y,z
-x,-y,z
1/2+x,1/2-y,-z
1/2-x,1/2+y,-z
loop_
_atom_site_type_symbol
_atom_site_label
_atom_site_fract_x
_atom_site_fract_y
_atom_site_fract_z
Si Si1 0.632880 0.188137 0.834902
Si Si2 0.170453 0.973360 0.403694
Si Si3 0.130995 0.372128 0.898582
Si Si4 0.677036 0.899210 0.199572
Si Si5 0.829343 0.253165 0.260054
Si Si6 0.668165 0.998036 0.645202
O O1 0.753842 0.283951 0.850827
O O2 0.498036 0.246903 0.770767
O O3 0.692986 0.083118 0.756728
O O4 0.582552 0.141857 0.964277
O O5 0.202617 0.848740 0.351573
O O6 0.262932 0.070507 0.332867
O O7 0.226331 0.965557 0.538949
O O8 0.000000 0.000000 0.399269
O O9 0.216172 0.493161 0.886374
O O10 0.235523 0.268669 0.860161
O O11 0.995629 0.377084 0.805895
O O12 0.781192 0.372516 0.316211
O O13 0.500000 0.000000 0.604128
#
# Coordination Sequence:
#
# PCOD8156296 Si02
#       6
#     4   4   4   4   4   4
#     4  11  22  42  65  93 131 168 213 269 319 387
#     4  11  23  43  64  92 127 167 217 271 316 388
#     4  10  23  38  69  92 130 165 210 266 320 394
#     4  10  23  40  63  96 123 169 213 258 327 377
#     4  10  23  42  63  95 126 171 214 262 328 378
#     4  10  26  39  65  93 128 169 212 264 329 377
#
# _framework density 19.951191999999999
#
# number of rings (size 3 to 8) (size 9 to 14) (size 15 to 20)
#    0.000    1.667    1.667    1.000   16.333    1.333 
#    0.000    0.000    0.000    0.000    0.000    0.000 
#    0.000    0.000    0.000    0.000    0.000    0.000 
#
# Total GULP energy -297611.090408 kJ/mol
# GULP energy per Si atom -12400.462100 kJ/mol
# Density = 1.990578 g / cm^3
# Si number density = 19.951192 Si / 1000 Ang^3
#
#
#
# Elastic Constant Matrix: (Units=GPa)
#
#
# Indices 1 2 3 4 5 6 
#
# 1 69.0013 48.7360 45.9695 0.0000 0.0000 0.0000
# 2 48.7360 124.8551 48.1503 0.0000 0.0000 0.0000
# 3 45.9695 48.1503 116.7598 0.0000 0.0000 0.0000
# 4 0.0000 0.0000 0.0000 26.3394 0.0000 0.0000
# 5 0.0000 0.0000 0.0000 0.0000 30.3155 0.0000
# 6 0.0000 0.0000 0.0000 0.0000 0.0000 29.1345
#
#
#
# Elastic Compliance Matrix: (Units=1/GPa)
#
#
# Indices 1 2 3 4 5 6 
#
# 1 0.023553 -0.006680 -0.006518 0.000000 0.000000 0.000000
# 2 -0.006680 0.011418 -0.002079 0.000000 0.000000 0.000000
# 3 -0.006518 -0.002079 0.011988 0.000000 0.000000 0.000000
# 4 0.000000 0.000000 0.000000 0.037966 0.000000 0.000000
# 5 0.000000 0.000000 0.000000 0.000000 0.032986 0.000000
# 6 0.000000 0.000000 0.000000 0.000000 0.000000 0.034324
#
#
# Mechanical properties :
#
#
# Convention : Reuss Voigt Hill
#
# Bulk Modulus (GPa) = 60.95529 66.25864 63.60696
# Shear Modulus (GPa) = 26.55918 28.34190 27.45054
#
# Velocity S-wave (km/s) = 3.65253 3.77312 3.71332
# Velocity P-wave (km/s) = 6.95748 7.22941 7.09475
#
# Compressibility (1/GPa) = 0.01640547
#
# Stress axis : x y z
#
# Youngs Moduli (GPa) = 42.45707 87.57757 83.41497
#
# Poissons Ratio (x) = 0.58501 0.54373
# Poissons Ratio (y) = 0.28361 0.17341
# Poissons Ratio (z) = 0.27675 0.18206
#
# Static dielectric constant tensor:
#      x y z
#    x 3.515390 0.000000 0.000000 
#    y 0.000000 3.770920 0.000000 
#    z 0.000000 0.000000 3.499590 
# 
# 
# High freq. dielectric constant tensor:
#      x y z
#    x 1.773470 0.000000 0.000000 
#    y 0.000000 1.792420 0.000000 
#    z 0.000000 0.000000 1.772120 
# 
# From -- ./inp_files/5490.got.cif
#   From: 2010.03.12/outbox.cif.g09.slc.cpg/sg18_3_cif.got.tgz:5490.got - 2010.04.10 18:53:55.
