data_PCOD8156726
_publ_section_title
;
Structure prediction by ZEFSAII (Michael W. Deem and Ramdas Pophale) SiO2 
 PCOD8156726
Probable space group: P 21 21 21
;
_chemical_formula_sum "Si O2"
_cell_formula_units_Z 32
_cell_length_a 8.540793
_cell_length_b 14.437263
_cell_length_c 14.437320
_cell_angle_alpha 90.000000
_cell_angle_beta 90.000000
_cell_angle_gamma 90.000000
_cell_volume 1780.203484
_symmetry_space_group_name_H-M "P 21 21 21"
_symmetry_group_IT_number 19
_symmetry_cell_setting 'orthorhombic'
loop_
_space_group_symop_operation_xyz
x,y,z
1/2-x,-y,1/2+z
1/2+x,1/2-y,-z
-x,1/2+y,1/2-z
loop_
_atom_site_type_symbol
_atom_site_label
_atom_site_fract_x
_atom_site_fract_y
_atom_site_fract_z
Si Si1 0.625001 0.140061 0.390062
Si Si2 0.200330 0.674502 0.741443
Si Si3 0.629489 0.089327 0.598754
Si Si4 0.950331 0.991440 0.575497
Si Si5 0.625001 0.527154 0.777154
Si Si6 0.379489 0.848755 0.160670
Si Si7 0.635897 0.023953 0.872659
Si Si8 0.614101 0.622660 0.273952
O O1 0.584820 0.128731 0.498355
O O2 0.665179 0.248356 0.378737
O O3 0.477068 0.117082 0.324495
O O4 0.772938 0.074497 0.367082
O O5 0.326718 0.670190 0.826519
O O6 0.247923 0.606016 0.658189
O O7 0.186371 0.777751 0.703186
O O8 0.027311 0.646479 0.772250
O O9 0.777312 0.022247 0.603522
O O10 0.480811 0.029036 0.630325
O O11 0.076717 0.076517 0.579808
O O12 0.936368 0.953183 0.472249
O O13 0.997926 0.908186 0.643982
O O14 0.730810 0.619676 0.779040
O O15 0.516134 0.522627 0.689227
O O16 0.733870 0.439227 0.772624
#
# Coordination Sequence:
#
# PCOD8156726 Si02
#       8
#     4   4   4   4   4   4   4   4
#     4  10  20  35  58  79 104 144 174 212 278 322
#     4   9  19  37  53  72 106 142 178 216 260 316
#     4   9  19  34  54  80 107 133 174 227 268 314
#     4   9  19  37  53  72 106 142 178 216 260 316
#     4  10  20  33  52  79 110 136 172 222 266 314
#     4   9  19  34  54  80 107 133 174 227 268 314
#     4  10  20  35  54  77 106 143 177 215 264 317
#     4  10  20  35  54  77 106 143 177 215 264 317
#
# _framework density 17.975473999999998
#
# number of rings (size 3 to 8) (size 9 to 14) (size 15 to 20)
#    0.000    2.500    0.000    3.000    0.000    9.000 
#    0.000    5.000    0.000    0.000    0.000    0.000 
#    0.000    0.000    0.000    0.000    0.000    0.000 
#
# Total GULP energy -396578.686468 kJ/mol
# GULP energy per Si atom -12393.083952 kJ/mol
# Density = 1.793456 g / cm^3
# Si number density = 17.975474 Si / 1000 Ang^3
#
#
#
# Elastic Constant Matrix: (Units=GPa)
#
#
# Indices 1 2 3 4 5 6 
#
# 1 99.5225 50.2335 50.2364 0.0000 0.0000 0.0000
# 2 50.2335 122.5806 81.4924 0.0000 0.0000 0.0000
# 3 50.2364 81.4924 122.5921 0.0000 0.0000 0.0000
# 4 0.0000 0.0000 0.0000 27.8860 0.0000 0.0000
# 5 0.0000 0.0000 0.0000 0.0000 20.1604 0.0000
# 6 0.0000 0.0000 0.0000 0.0000 0.0000 20.1595
#
#
#
# Elastic Compliance Matrix: (Units=1/GPa)
#
#
# Indices 1 2 3 4 5 6 
#
# 1 0.013371 -0.003291 -0.003291 0.000000 0.000000 0.000000
# 2 -0.003291 0.015428 -0.008907 0.000000 0.000000 0.000000
# 3 -0.003291 -0.008907 0.015427 0.000000 0.000000 0.000000
# 4 0.000000 0.000000 0.000000 0.035860 0.000000 0.000000
# 5 0.000000 0.000000 0.000000 0.000000 0.049602 0.000000
# 6 0.000000 0.000000 0.000000 0.000000 0.000000 0.049604
#
#
# Mechanical properties :
#
#
# Convention : Reuss Voigt Hill
#
# Bulk Modulus (GPa) = 75.49229 78.73555 77.11392
# Shear Modulus (GPa) = 23.28973 24.49003 23.88988
#
# Velocity S-wave (km/s) = 3.60340 3.69509 3.64954
# Velocity P-wave (km/s) = 7.70722 7.88046 7.79432
#
# Compressibility (1/GPa) = 0.01324639
#
# Stress axis : x y z
#
# Youngs Moduli (GPa) = 74.79139 64.81678 64.82250
#
# Poissons Ratio (x) = 0.21333 0.21335
# Poissons Ratio (y) = 0.24615 0.57738
# Poissons Ratio (z) = 0.24616 0.57733
#
# Static dielectric constant tensor:
#      x y z
#    x 3.466050 0.000000 0.000000 
#    y 0.000000 3.483570 0.000000 
#    z 0.000000 0.000000 3.483560 
# 
# 
# High freq. dielectric constant tensor:
#      x y z
#    x 1.707250 0.000000 0.000000 
#    y 0.000000 1.689800 0.000000 
#    z 0.000000 0.000000 1.689800 
# 
# From -- ./inp_files/5987.got.cif
#   From: 2010.03.12/outbox.cif.g09.slc.cpg/sg19_3_cif.got.tgz:5987.got - 2010.04.10 18:59:41.
