data_PCOD8156749
_publ_section_title
;
Structure prediction by ZEFSAII (Michael W. Deem and Ramdas Pophale) SiO2 
 PCOD8156749
Probable space group: P 21 21 21
;
_chemical_formula_sum "Si O2"
_cell_formula_units_Z 32
_cell_length_a 19.242273
_cell_length_b 6.076570
_cell_length_c 12.961972
_cell_angle_alpha 90.000000
_cell_angle_beta 90.000000
_cell_angle_gamma 90.000000
_cell_volume 1515.604744
_symmetry_space_group_name_H-M "P 21 21 21"
_symmetry_group_IT_number 19
_symmetry_cell_setting 'orthorhombic'
loop_
_space_group_symop_operation_xyz
x,y,z
1/2-x,-y,1/2+z
1/2+x,1/2-y,-z
-x,1/2+y,1/2-z
loop_
_atom_site_type_symbol
_atom_site_label
_atom_site_fract_x
_atom_site_fract_y
_atom_site_fract_z
Si Si1 0.179420 0.969422 0.909913
Si Si2 0.199572 0.312864 0.079476
Si Si3 0.321992 0.065768 0.170067
Si Si4 0.569376 0.295327 0.809697
Si Si5 0.094636 0.643649 0.528977
Si Si6 0.456506 0.995718 0.890286
Si Si7 0.538882 0.618281 0.984547
Si Si8 0.708141 0.196117 0.480473
O O1 0.170080 0.001846 0.788412
O O2 0.108360 0.851079 0.947752
O O3 0.249716 0.828582 0.931410
O O4 0.186684 0.206781 0.965829
O O5 0.244022 0.144013 0.147700
O O6 0.129021 0.353055 0.140537
O O7 0.233887 0.550197 0.075339
O O8 0.376170 0.261472 0.138001
O O9 0.332470 0.847801 0.101476
O O10 0.500683 0.150231 0.814993
O O11 0.586141 0.341683 0.689175
O O12 0.560760 0.520125 0.874251
O O13 0.096831 0.855454 0.454001
O O14 0.146852 0.463974 0.477542
O O15 0.016867 0.546200 0.540502
O O16 0.503824 0.855995 0.969320
#
# Coordination Sequence:
#
# PCOD8156749 Si02
#       8
#     4   4   4   4   4   4   4   4
#     4  10  22  42  66  90 124 166 216 261 311 379
#     4   9  21  37  60  90 123 156 204 254 309 374
#     4  10  22  42  59  89 120 160 216 253 312 375
#     4  10  20  35  58  93 123 159 204 248 317 373
#     4  10  23  40  59  90 129 164 209 258 315 380
#     4  11  20  37  60  89 129 162 204 256 311 378
#     4  10  21  40  60  90 125 167 208 267 311 365
#     4  10  21  43  64  89 127 164 203 265 316 370
#
# _framework density 21.113685
#
# number of rings (size 3 to 8) (size 9 to 14) (size 15 to 20)
#    0.000    2.000    1.250    1.500    0.000    6.000 
#    4.500    5.000    0.000    0.000    0.000    0.000 
#    0.000    0.000    0.000    0.000    0.000    0.000 
#
# Total GULP energy -396692.345514 kJ/mol
# GULP energy per Si atom -12396.635797 kJ/mol
# Density = 2.106563 g / cm^3
# Si number density = 21.113685 Si / 1000 Ang^3
#
#
#
# Elastic Constant Matrix: (Units=GPa)
#
#
# Indices 1 2 3 4 5 6 
#
# 1 88.1645 17.5046 37.8507 0.0000 0.0000 0.0000
# 2 17.5046 78.2309 26.2793 0.0000 0.0000 0.0000
# 3 37.8507 26.2793 107.5108 0.0000 0.0000 0.0000
# 4 0.0000 0.0000 0.0000 18.9066 0.0000 0.0000
# 5 0.0000 0.0000 0.0000 0.0000 26.4715 0.0000
# 6 0.0000 0.0000 0.0000 0.0000 0.0000 42.5655
#
#
#
# Elastic Compliance Matrix: (Units=1/GPa)
#
#
# Indices 1 2 3 4 5 6 
#
# 1 0.013534 -0.001555 -0.004385 0.000000 0.000000 0.000000
# 2 -0.001555 0.014105 -0.002900 0.000000 0.000000 0.000000
# 3 -0.004385 -0.002900 0.011554 0.000000 0.000000 0.000000
# 4 0.000000 0.000000 0.000000 0.052892 0.000000 0.000000
# 5 0.000000 0.000000 0.000000 0.000000 0.037777 0.000000
# 6 0.000000 0.000000 0.000000 0.000000 0.000000 0.023493
#
#
# Mechanical properties :
#
#
# Convention : Reuss Voigt Hill
#
# Bulk Modulus (GPa) = 46.48483 48.57504 47.52994
# Shear Modulus (GPa) = 28.05764 30.40683 29.23223
#
# Velocity S-wave (km/s) = 3.64934 3.79905 3.72495
# Velocity P-wave (km/s) = 6.31040 6.50385 6.40785
#
# Compressibility (1/GPa) = 0.02151239
#
# Stress axis : x y z
#
# Youngs Moduli (GPa) = 73.89020 70.89739 86.55083
#
# Poissons Ratio (x) = 0.11027 0.37948
# Poissons Ratio (y) = 0.11493 0.25101
# Poissons Ratio (z) = 0.32397 0.20561
#
# Static dielectric constant tensor:
#      x y z
#    x 3.975080 0.000000 0.000000 
#    y 0.000000 3.871060 0.000000 
#    z 0.000000 0.000000 3.540070 
# 
# 
# High freq. dielectric constant tensor:
#      x y z
#    x 1.835830 0.000000 0.000000 
#    y 0.000000 1.833310 0.000000 
#    z 0.000000 0.000000 1.798620 
# 
# From -- ./inp_files/5517.got.cif
#   From: 2010.03.12/outbox.cif.g09.slc.cpg/sg19_3_cif.got.tgz:5517.got - 2010.04.10 18:59:41.
