data_PCOD8156579
_publ_section_title
;
Structure prediction by ZEFSAII (Michael W. Deem and Ramdas Pophale) SiO2 
 PCOD8156579
Probable space group: P 21 21 21
;
_chemical_formula_sum "Si O2"
_cell_formula_units_Z 32
_cell_length_a 8.572583
_cell_length_b 26.420721
_cell_length_c 6.483530
_cell_angle_alpha 90.000000
_cell_angle_beta 90.000000
_cell_angle_gamma 90.000000
_cell_volume 1468.479501
_symmetry_space_group_name_H-M "P 21 21 21"
_symmetry_group_IT_number 19
_symmetry_cell_setting 'orthorhombic'
loop_
_space_group_symop_operation_xyz
x,y,z
1/2-x,-y,1/2+z
1/2+x,1/2-y,-z
-x,1/2+y,1/2-z
loop_
_atom_site_type_symbol
_atom_site_label
_atom_site_fract_x
_atom_site_fract_y
_atom_site_fract_z
Si Si1 0.047370 0.027517 0.167879
Si Si2 0.470624 0.875141 0.379372
Si Si3 0.294680 0.356613 0.465793
Si Si4 0.891661 0.481448 0.950796
Si Si5 0.118752 0.705776 0.352342
Si Si6 0.869793 0.387071 0.229106
Si Si7 0.908198 0.802302 0.358337
Si Si8 0.448187 0.563607 0.060551
O O1 0.222453 0.004933 0.135499
O O2 0.034121 0.029884 0.420856
O O3 0.022605 0.080313 0.050835
O O4 0.924587 0.985835 0.084155
O O5 0.592572 0.884622 0.196620
O O6 0.509265 0.822911 0.488206
O O7 0.304421 0.865837 0.273697
O O8 0.382339 0.324532 0.638726
O O9 0.187498 0.315286 0.348749
O O10 0.208445 0.403453 0.579123
O O11 0.005775 0.459528 0.779272
O O12 0.870818 0.440466 0.124429
O O13 0.293840 0.710660 0.449196
O O14 0.033920 0.758731 0.312093
O O15 0.986496 0.351623 0.096349
O O16 0.925022 0.396645 0.465442
#
# Coordination Sequence:
#
# PCOD8156579 Si02
#       8
#     4   4   4   4   4   4   4   4
#     4  10  20  35  60  92 128 163 217 266 322 383
#     4  10  23  41  62  95 132 170 217 268 326 394
#     4  10  24  43  62  92 132 170 216 266 327 402
#     4  10  18  33  61  95 120 161 216 269 313 376
#     4  11  23  42  65  93 129 170 212 273 324 397
#     4   9  20  37  62  93 122 163 209 265 315 381
#     4  10  22  41  66  93 127 163 215 259 329 386
#     4  10  20  38  62  87 124 170 212 270 318 375
#
# _framework density 21.791246999999998
#
# number of rings (size 3 to 8) (size 9 to 14) (size 15 to 20)
#    0.000    2.000    1.250    1.500    0.000    7.000 
#    2.250    3.750    0.000    0.000    0.000    0.000 
#    0.000    0.000    0.000    0.000    0.000    0.000 
#
# Total GULP energy -396474.610818 kJ/mol
# GULP energy per Si atom -12389.831588 kJ/mol
# Density = 2.174165 g / cm^3
# Si number density = 21.791247 Si / 1000 Ang^3
#
#
#
# Elastic Constant Matrix: (Units=GPa)
#
#
# Indices 1 2 3 4 5 6 
#
# 1 88.4346 34.8942 33.0404 0.0000 0.0000 0.0000
# 2 34.8942 56.4017 26.5388 0.0000 0.0000 0.0000
# 3 33.0404 26.5388 111.8970 0.0000 0.0000 0.0000
# 4 0.0000 0.0000 0.0000 29.6544 0.0000 0.0000
# 5 0.0000 0.0000 0.0000 0.0000 24.1974 0.0000
# 6 0.0000 0.0000 0.0000 0.0000 0.0000 34.1609
#
#
#
# Elastic Compliance Matrix: (Units=1/GPa)
#
#
# Indices 1 2 3 4 5 6 
#
# 1 0.015609 -0.008429 -0.002610 0.000000 0.000000 0.000000
# 2 -0.008429 0.024509 -0.003324 0.000000 0.000000 0.000000
# 3 -0.002610 -0.003324 0.010496 0.000000 0.000000 0.000000
# 4 0.000000 0.000000 0.000000 0.033722 0.000000 0.000000
# 5 0.000000 0.000000 0.000000 0.000000 0.041327 0.000000
# 6 0.000000 0.000000 0.000000 0.000000 0.000000 0.029273
#
#
# Mechanical properties :
#
#
# Convention : Reuss Voigt Hill
#
# Bulk Modulus (GPa) = 45.68690 49.52002 47.60346
# Shear Modulus (GPa) = 26.18410 28.41985 27.30197
#
# Velocity S-wave (km/s) = 3.47015 3.61527 3.54345
# Velocity P-wave (km/s) = 6.08828 6.34042 6.21563
#
# Compressibility (1/GPa) = 0.02188811
#
# Stress axis : x y z
#
# Youngs Moduli (GPa) = 64.06734 40.80203 95.27663
#
# Poissons Ratio (x) = 0.34390 0.24865
# Poissons Ratio (y) = 0.54000 0.31670
# Poissons Ratio (z) = 0.16720 0.13563
#
# Static dielectric constant tensor:
#      x y z
#    x 4.142020 0.000000 0.000000 
#    y 0.000000 3.881640 0.000000 
#    z 0.000000 0.000000 4.220760 
# 
# 
# High freq. dielectric constant tensor:
#      x y z
#    x 1.850590 0.000000 0.000000 
#    y 0.000000 1.855280 0.000000 
#    z 0.000000 0.000000 1.859610 
# 
# From -- ./inp_files/717.got.cif
#   From: 2010.03.12/outbox.cif.g09.slc.cpg/sg19_1_cif.got.tgz:717.got - 2010.04.10 18:59:41.
