data_PCOD8156202
_publ_section_title
;
Structure prediction by ZEFSAII (Michael W. Deem and Ramdas Pophale) SiO2 
 PCOD8156202
Probable space group: P 21 21 2
;
_chemical_formula_sum "Si O2"
_cell_formula_units_Z 30
_cell_length_a 7.393028
_cell_length_b 15.974488
_cell_length_c 11.955172
_cell_angle_alpha 90.000000
_cell_angle_beta 90.000000
_cell_angle_gamma 90.000000
_cell_volume 1411.903865
_symmetry_space_group_name_H-M "P 21 21 2"
_symmetry_group_IT_number 18
_symmetry_cell_setting 'orthorhombic'
loop_
_space_group_symop_operation_xyz
x,y,z
-x,-y,z
1/2+x,1/2-y,-z
1/2-x,1/2+y,-z
loop_
_atom_site_type_symbol
_atom_site_label
_atom_site_fract_x
_atom_site_fract_y
_atom_site_fract_z
Si Si1 0.860328 0.157603 0.578556
Si Si2 0.977829 0.765583 0.369695
Si Si3 0.606285 0.334601 0.859593
Si Si4 0.194865 0.486777 0.298706
Si Si5 0.737682 0.234792 0.042550
Si Si6 0.682179 0.327339 0.265370
Si Si7 0.000000 0.000000 0.052732
Si Si8 0.848870 0.566284 0.056044
O O1 0.951349 0.164262 0.456416
O O2 0.671671 0.207111 0.573658
O O3 0.821394 0.061186 0.612181
O O4 0.001506 0.196096 0.667152
O O5 0.144185 0.710788 0.326518
O O6 0.876765 0.812918 0.269690
O O7 0.429102 0.296573 0.917144
O O8 0.600117 0.434404 0.866642
O O9 0.767133 0.295307 0.934539
O O10 0.291049 0.572283 0.258889
O O11 0.150747 0.427031 0.191230
O O12 0.000000 0.500000 0.357681
O O13 0.648655 0.289125 0.142403
O O14 0.612460 0.155926 0.002393
O O15 0.147206 0.960056 0.972926
O O16 0.000000 0.500000 0.014751
#
# Coordination Sequence:
#
# PCOD8156202 Si02
#       8
#     4   4   4   4   4   4   2   4
#     4  12  24  43  69  92 133 173 223 286 348 383
#     4  11  24  44  65  95 129 173 224 279 330 413
#     4  10  23  40  62  93 130 168 217 265 329 404
#     4  11  23  40  66  99 133 172 229 289 336 394
#     4  10  23  38  64  98 131 175 217 261 342 407
#     4  11  24  42  67 101 133 173 231 282 332 406
#     4  10  22  40  58  88 130 170 208 264 332 404
#     4  10  23  38  62  96 139 172 213 278 330 402
#
# _framework density 21.247906
#
# number of rings (size 3 to 8) (size 9 to 14) (size 15 to 20)
#    0.000    1.333    2.667    2.000   14.933    0.000 
#    2.400    0.000    0.000    3.200    0.000    0.000 
#    0.000    0.000    0.000    0.000    0.000    0.000 
#
# Total GULP energy -371926.140979 kJ/mol
# GULP energy per Si atom -12397.538033 kJ/mol
# Density = 2.119954 g / cm^3
# Si number density = 21.247906 Si / 1000 Ang^3
#
#
#
# Elastic Constant Matrix: (Units=GPa)
#
#
# Indices 1 2 3 4 5 6 
#
# 1 63.6991 10.8343 22.2194 0.0000 0.0000 0.0000
# 2 10.8343 119.9873 49.4432 0.0000 0.0000 0.0000
# 3 22.2194 49.4432 130.9901 0.0000 0.0000 0.0000
# 4 0.0000 0.0000 0.0000 33.9393 0.0000 0.0000
# 5 0.0000 0.0000 0.0000 0.0000 23.9420 0.0000
# 6 0.0000 0.0000 0.0000 0.0000 0.0000 28.2810
#
#
#
# Elastic Compliance Matrix: (Units=1/GPa)
#
#
# Indices 1 2 3 4 5 6 
#
# 1 0.016703 -0.000403 -0.002681 0.000000 0.000000 0.000000
# 2 -0.000403 0.009879 -0.003660 0.000000 0.000000 0.000000
# 3 -0.002681 -0.003660 0.009471 0.000000 0.000000 0.000000
# 4 0.000000 0.000000 0.000000 0.029464 0.000000 0.000000
# 5 0.000000 0.000000 0.000000 0.000000 0.041768 0.000000
# 6 0.000000 0.000000 0.000000 0.000000 0.000000 0.035359
#
#
# Mechanical properties :
#
#
# Convention : Reuss Voigt Hill
#
# Bulk Modulus (GPa) = 44.32129 53.29669 48.80899
# Shear Modulus (GPa) = 30.55222 32.71108 31.63165
#
# Velocity S-wave (km/s) = 3.79607 3.92790 3.86255
# Velocity P-wave (km/s) = 6.33387 6.76084 6.55083
#
# Compressibility (1/GPa) = 0.02256252
#
# Stress axis : x y z
#
# Youngs Moduli (GPa) = 59.87103 101.22462 105.59007
#
# Poissons Ratio (x) = 0.04084 0.28308
# Poissons Ratio (y) = 0.02415 0.38651
# Poissons Ratio (z) = 0.16051 0.37053
#
# Static dielectric constant tensor:
#      x y z
#    x 3.923780 0.000000 0.000000 
#    y 0.000000 4.070880 0.000000 
#    z 0.000000 0.000000 3.827190 
# 
# 
# High freq. dielectric constant tensor:
#      x y z
#    x 1.845890 0.000000 0.000000 
#    y 0.000000 1.831840 0.000000 
#    z 0.000000 0.000000 1.814750 
# 
# From -- ./inp_files/5635.got.cif
#   From: 2010.03.12/outbox.cif.g09.slc.cpg/sg18_3_cif.got.tgz:5635.got - 2010.04.10 18:53:55.
