data_PCOD8156890
_publ_section_title
;
Structure prediction by ZEFSAII (Michael W. Deem and Ramdas Pophale) SiO2 
 PCOD8156890
Probable space group: P 21 21 21
;
_chemical_formula_sum "Si O2"
_cell_formula_units_Z 32
_cell_length_a 18.847898
_cell_length_b 6.930040
_cell_length_c 12.546242
_cell_angle_alpha 90.000000
_cell_angle_beta 90.000000
_cell_angle_gamma 90.000000
_cell_volume 1638.748565
_symmetry_space_group_name_H-M "P 21 21 21"
_symmetry_group_IT_number 19
_symmetry_cell_setting 'orthorhombic'
loop_
_space_group_symop_operation_xyz
x,y,z
1/2-x,-y,1/2+z
1/2+x,1/2-y,-z
-x,1/2+y,1/2-z
loop_
_atom_site_type_symbol
_atom_site_label
_atom_site_fract_x
_atom_site_fract_y
_atom_site_fract_z
Si Si1 0.505799 0.082861 0.864939
Si Si2 0.607688 0.083007 0.388605
Si Si3 0.868269 0.620856 0.714761
Si Si4 0.462145 0.941508 0.485838
Si Si5 0.783638 0.477597 0.244153
Si Si6 0.325659 0.184809 0.133942
Si Si7 0.367073 0.916127 0.953558
Si Si8 0.418553 0.218088 0.666109
O O1 0.477267 0.152517 0.751378
O O2 0.448830 0.947580 0.924023
O O3 0.575132 0.949464 0.846992
O O4 0.526704 0.263516 0.935809
O O5 0.533880 0.992221 0.424513
O O6 0.663547 0.913102 0.366118
O O7 0.597116 0.201834 0.279704
O O8 0.641239 0.220917 0.478802
O O9 0.902967 0.612954 0.599805
O O10 0.782911 0.650144 0.701648
O O11 0.879733 0.421629 0.782315
O O12 0.433985 0.121445 0.552659
O O13 0.755299 0.632371 0.331725
O O14 0.819209 0.603991 0.151278
O O15 0.839606 0.330590 0.295597
O O16 0.339756 0.103676 0.016288
#
# Coordination Sequence:
#
# PCOD8156890 Si02
#       8
#     4   4   4   4   4   4   4   4
#     4  11  22  41  64  97 125 165 206 272 329 367
#     4  11  22  40  65  93 126 169 219 268 326 385
#     4   9  25  41  60  93 129 172 213 255 326 381
#     4  12  24  38  69 100 125 167 219 269 318 386
#     4   9  23  44  62  86 137 168 205 271 317 389
#     4   9  21  43  61  87 131 168 208 262 322 379
#     4  10  20  41  63  89 126 167 210 264 332 378
#     4  11  23  42  66  93 131 160 216 261 322 389
#
# _framework density 19.527096
#
# number of rings (size 3 to 8) (size 9 to 14) (size 15 to 20)
#    0.750    1.000    3.750    0.000    3.500    1.000 
#    4.500    0.000    0.000    0.000    0.000    0.000 
#    0.000    0.000    0.000    0.000    0.000    0.000 
#
# Total GULP energy -396751.101914 kJ/mol
# GULP energy per Si atom -12398.471935 kJ/mol
# Density = 1.948265 g / cm^3
# Si number density = 19.527096 Si / 1000 Ang^3
#
#
#
# Elastic Constant Matrix: (Units=GPa)
#
#
# Indices 1 2 3 4 5 6 
#
# 1 78.5451 12.1645 24.2053 0.0000 0.0000 0.0000
# 2 12.1645 87.0081 10.7461 0.0000 0.0000 0.0000
# 3 24.2053 10.7461 63.9046 0.0000 0.0000 0.0000
# 4 0.0000 0.0000 0.0000 29.6358 0.0000 0.0000
# 5 0.0000 0.0000 0.0000 0.0000 28.0073 0.0000
# 6 0.0000 0.0000 0.0000 0.0000 0.0000 22.7859
#
#
#
# Elastic Compliance Matrix: (Units=1/GPa)
#
#
# Indices 1 2 3 4 5 6 
#
# 1 0.014576 -0.001385 -0.005288 0.000000 0.000000 0.000000
# 2 -0.001385 0.011868 -0.001471 0.000000 0.000000 0.000000
# 3 -0.005288 -0.001471 0.017899 0.000000 0.000000 0.000000
# 4 0.000000 0.000000 0.000000 0.033743 0.000000 0.000000
# 5 0.000000 0.000000 0.000000 0.000000 0.035705 0.000000
# 6 0.000000 0.000000 0.000000 0.000000 0.000000 0.043887
#
#
# Mechanical properties :
#
#
# Convention : Reuss Voigt Hill
#
# Bulk Modulus (GPa) = 35.64452 35.96551 35.80502
# Shear Modulus (GPa) = 27.27515 28.24193 27.75854
#
# Velocity S-wave (km/s) = 3.74141 3.80714 3.77442
# Velocity P-wave (km/s) = 6.07929 6.14687 6.11317
#
# Compressibility (1/GPa) = 0.02805480
#
# Stress axis : x y z
#
# Youngs Moduli (GPa) = 68.60782 84.25669 55.87002
#
# Poissons Ratio (x) = 0.11667 0.29544
# Poissons Ratio (y) = 0.09500 0.08220
# Poissons Ratio (z) = 0.36280 0.12397
#
# Static dielectric constant tensor:
#      x y z
#    x 3.434850 0.000000 0.000000 
#    y 0.000000 3.448740 0.000000 
#    z 0.000000 0.000000 3.646280 
# 
# 
# High freq. dielectric constant tensor:
#      x y z
#    x 1.749280 0.000000 0.000000 
#    y 0.000000 1.753980 0.000000 
#    z 0.000000 0.000000 1.770280 
# 
# From -- ./inp_files/5506.got.cif
#   From: 2010.03.12/outbox.cif.g09.slc.cpg/sg19_3_cif.got.tgz:5506.got - 2010.04.10 18:59:41.
