data_PCOD8156764
_publ_section_title
;
Structure prediction by ZEFSAII (Michael W. Deem and Ramdas Pophale) SiO2 
 PCOD8156764
Probable space group: P 21 21 21
;
_chemical_formula_sum "Si O2"
_cell_formula_units_Z 32
_cell_length_a 5.774718
_cell_length_b 14.313435
_cell_length_c 18.607222
_cell_angle_alpha 90.000000
_cell_angle_beta 90.000000
_cell_angle_gamma 90.000000
_cell_volume 1537.999486
_symmetry_space_group_name_H-M "P 21 21 21"
_symmetry_group_IT_number 19
_symmetry_cell_setting 'orthorhombic'
loop_
_space_group_symop_operation_xyz
x,y,z
1/2-x,-y,1/2+z
1/2+x,1/2-y,-z
-x,1/2+y,1/2-z
loop_
_atom_site_type_symbol
_atom_site_label
_atom_site_fract_x
_atom_site_fract_y
_atom_site_fract_z
Si Si1 0.345648 0.817522 0.727972
Si Si2 0.119621 0.714458 0.404428
Si Si3 0.673733 0.129764 0.964249
Si Si4 0.850291 0.716184 0.968778
Si Si5 0.989253 0.172621 0.828936
Si Si6 0.392612 0.946071 0.943290
Si Si7 0.917111 0.468843 0.685349
Si Si8 0.694437 0.825480 0.843120
O O1 0.424908 0.834073 0.645443
O O2 0.155197 0.735215 0.727621
O O3 0.256531 0.915790 0.760296
O O4 0.561831 0.780537 0.775345
O O5 0.223074 0.634377 0.455359
O O6 0.293221 0.765318 0.350454
O O7 0.022454 0.791557 0.459349
O O8 0.854283 0.145267 0.900970
O O9 0.569166 0.028151 0.957186
O O10 0.842330 0.745762 0.884513
O O11 0.612611 0.754599 0.006671
O O12 0.826585 0.603687 0.980959
O O13 0.052241 0.075837 0.787892
O O14 0.172245 0.979305 0.897109
O O15 0.504169 0.863212 0.897562
O O16 0.154832 0.412227 0.685143
#
# Coordination Sequence:
#
# PCOD8156764 Si02
#       8
#     4   4   4   4   4   4   4   4
#     4  10  25  39  66  97 130 179 220 273 339 404
#     4  11  22  40  64  96 133 162 215 279 339 395
#     4  11  21  37  67  99 121 165 216 274 335 398
#     4  10  20  36  65 100 137 170 223 284 337 395
#     4  11  22  40  69  95 126 171 221 272 333 402
#     4  10  20  35  64 102 121 165 223 271 332 401
#     4  11  20  40  70  93 126 174 224 266 328 418
#     4  10  20  39  65  94 132 174 218 267 335 411
#
# _framework density 20.806251
#
# number of rings (size 3 to 8) (size 9 to 14) (size 15 to 20)
#    0.000    1.500    5.000    0.750    0.000    0.000 
#    0.000    0.000   16.500    1.500    0.000    0.000 
#    0.000    0.000    0.000    0.000    0.000    0.000 
#
# Total GULP energy -396520.562711 kJ/mol
# GULP energy per Si atom -12391.267585 kJ/mol
# Density = 2.075889 g / cm^3
# Si number density = 20.806251 Si / 1000 Ang^3
#
#
#
# Elastic Constant Matrix: (Units=GPa)
#
#
# Indices 1 2 3 4 5 6 
#
# 1 77.6607 22.3365 12.1330 0.0000 0.0000 0.0000
# 2 22.3365 97.8036 46.3703 0.0000 0.0000 0.0000
# 3 12.1330 46.3703 69.6451 0.0000 0.0000 0.0000
# 4 0.0000 0.0000 0.0000 29.1085 0.0000 0.0000
# 5 0.0000 0.0000 0.0000 0.0000 28.2174 0.0000
# 6 0.0000 0.0000 0.0000 0.0000 0.0000 28.4256
#
#
#
# Elastic Compliance Matrix: (Units=1/GPa)
#
#
# Indices 1 2 3 4 5 6 
#
# 1 0.013791 -0.002938 -0.000446 0.000000 0.000000 0.000000
# 2 -0.002938 0.015567 -0.009853 0.000000 0.000000 0.000000
# 3 -0.000446 -0.009853 0.020996 0.000000 0.000000 0.000000
# 4 0.000000 0.000000 0.000000 0.034354 0.000000 0.000000
# 5 0.000000 0.000000 0.000000 0.000000 0.035439 0.000000
# 6 0.000000 0.000000 0.000000 0.000000 0.000000 0.035180
#
#
# Mechanical properties :
#
#
# Convention : Reuss Voigt Hill
#
# Bulk Modulus (GPa) = 41.87583 45.19878 43.53730
# Shear Modulus (GPa) = 26.34883 28.10162 27.22523
#
# Velocity S-wave (km/s) = 3.56250 3.67908 3.62126
# Velocity P-wave (km/s) = 6.09033 6.31018 6.20123
#
# Compressibility (1/GPa) = 0.02388012
#
# Stress axis : x y z
#
# Youngs Moduli (GPa) = 72.50953 64.23890 47.62741
#
# Poissons Ratio (x) = 0.18873 0.02126
# Poissons Ratio (y) = 0.21303 0.46926
# Poissons Ratio (z) = 0.03237 0.63293
#
# Static dielectric constant tensor:
#      x y z
#    x 4.003730 0.000000 0.000000 
#    y 0.000000 3.787390 0.000000 
#    z 0.000000 0.000000 3.941580 
# 
# 
# High freq. dielectric constant tensor:
#      x y z
#    x 1.830910 0.000000 0.000000 
#    y 0.000000 1.800740 0.000000 
#    z 0.000000 0.000000 1.800230 
# 
# From -- ./inp_files/1208.got.cif
#   From: 2010.03.12/outbox.cif.g09.slc.cpg/sg19_1_cif.got.tgz:1208.got - 2010.04.10 18:59:41.
