data_PCOD8156742
_publ_section_title
;
Structure prediction by ZEFSAII (Michael W. Deem and Ramdas Pophale) SiO2 
 PCOD8156742
Probable space group: P 21 21 21
;
_chemical_formula_sum "Si O2"
_cell_formula_units_Z 32
_cell_length_a 11.156582
_cell_length_b 12.770743
_cell_length_c 12.137679
_cell_angle_alpha 90.000000
_cell_angle_beta 90.000000
_cell_angle_gamma 90.000000
_cell_volume 1729.350305
_symmetry_space_group_name_H-M "P 21 21 21"
_symmetry_group_IT_number 19
_symmetry_cell_setting 'orthorhombic'
loop_
_space_group_symop_operation_xyz
x,y,z
1/2-x,-y,1/2+z
1/2+x,1/2-y,-z
-x,1/2+y,1/2-z
loop_
_atom_site_type_symbol
_atom_site_label
_atom_site_fract_x
_atom_site_fract_y
_atom_site_fract_z
Si Si1 0.755512 0.552573 0.988345
Si Si2 0.600553 0.098653 0.942647
Si Si3 0.285955 0.129907 0.739171
Si Si4 0.412931 0.119898 0.125395
Si Si5 0.035668 0.718221 0.337372
Si Si6 0.559946 0.443391 0.666225
Si Si7 0.075369 0.016350 0.837729
Si Si8 0.626881 0.852602 0.434154
O O1 0.728345 0.636704 0.892896
O O2 0.810245 0.444881 0.938829
O O3 0.852039 0.602559 0.072105
O O4 0.631188 0.528437 0.049766
O O5 0.557544 0.190327 0.862205
O O6 0.742260 0.100521 0.953259
O O7 0.560732 0.988499 0.888938
O O8 0.539392 0.111148 0.062223
O O9 0.340735 0.236340 0.787161
O O10 0.156338 0.112502 0.793858
O O11 0.369994 0.032183 0.767310
O O12 0.369354 0.240266 0.126997
O O13 0.431700 0.077074 0.248515
O O14 0.064338 0.654125 0.447134
O O15 0.971399 0.647808 0.248435
O O16 0.944566 0.063618 0.860170
#
# Coordination Sequence:
#
# PCOD8156742 Si02
#       8
#     4   4   4   4   4   4   4   4
#     4   9  18  35  59  78 112 145 186 228 269 334
#     4   9  21  36  53  85 112 142 188 222 280 329
#     4   9  19  35  56  85 107 142 189 229 267 330
#     4   9  21  36  56  82 116 143 182 236 273 324
#     4  10  21  34  62  80 108 147 189 227 269 333
#     4   9  18  36  58  79 110 146 178 233 275 320
#     4  10  20  35  56  86 110 147 186 226 279 328
#     4  11  22  33  58  85 109 146 184 231 270 340
#
# _framework density 18.504059999999999
#
# number of rings (size 3 to 8) (size 9 to 14) (size 15 to 20)
#    0.000    2.500    0.000    3.000   12.250    1.000 
#    0.000    3.750    5.500    0.000    0.000    0.000 
#    0.000    0.000    0.000    0.000    0.000    0.000 
#
# Total GULP energy -396809.960423 kJ/mol
# GULP energy per Si atom -12400.311263 kJ/mol
# Density = 1.846194 g / cm^3
# Si number density = 18.504060 Si / 1000 Ang^3
#
#
#
# Elastic Constant Matrix: (Units=GPa)
#
#
# Indices 1 2 3 4 5 6 
#
# 1 89.1757 10.9501 22.0526 0.0000 0.0000 0.0000
# 2 10.9501 31.5933 23.3165 0.0000 0.0000 0.0000
# 3 22.0526 23.3165 101.0175 0.0000 0.0000 0.0000
# 4 0.0000 0.0000 0.0000 28.7965 0.0000 0.0000
# 5 0.0000 0.0000 0.0000 0.0000 25.7547 0.0000
# 6 0.0000 0.0000 0.0000 0.0000 0.0000 21.1612
#
#
#
# Elastic Compliance Matrix: (Units=1/GPa)
#
#
# Indices 1 2 3 4 5 6 
#
# 1 0.012041 -0.002692 -0.002007 0.000000 0.000000 0.000000
# 2 -0.002692 0.038753 -0.008357 0.000000 0.000000 0.000000
# 3 -0.002007 -0.008357 0.012266 0.000000 0.000000 0.000000
# 4 0.000000 0.000000 0.000000 0.034726 0.000000 0.000000
# 5 0.000000 0.000000 0.000000 0.000000 0.038828 0.000000
# 6 0.000000 0.000000 0.000000 0.000000 0.000000 0.047256
#
#
# Mechanical properties :
#
#
# Convention : Reuss Voigt Hill
#
# Bulk Modulus (GPa) = 27.06533 37.15831 32.11182
# Shear Modulus (GPa) = 22.49218 26.17362 24.33290
#
# Velocity S-wave (km/s) = 3.49022 3.76504 3.63023
# Velocity P-wave (km/s) = 5.55884 6.24703 5.91296
#
# Compressibility (1/GPa) = 0.03694764
#
# Stress axis : x y z
#
# Youngs Moduli (GPa) = 83.05136 25.80438 81.52327
#
# Poissons Ratio (x) = 0.06946 0.16363
# Poissons Ratio (y) = 0.22357 0.68131
# Poissons Ratio (z) = 0.16670 0.21565
#
# Static dielectric constant tensor:
#      x y z
#    x 3.382630 0.000000 0.000000 
#    y 0.000000 3.143160 0.000000 
#    z 0.000000 0.000000 3.583520 
# 
# 
# High freq. dielectric constant tensor:
#      x y z
#    x 1.716940 0.000000 0.000000 
#    y 0.000000 1.687260 0.000000 
#    z 0.000000 0.000000 1.726400 
# 
# From -- ./inp_files/5030.got.cif
#   From: 2010.03.12/outbox.cif.g09.slc.cpg/sg19_3_cif.got.tgz:5030.got - 2010.04.10 18:59:41.
