data_PCOD8156981
_publ_section_title
;
Structure prediction by ZEFSAII (Michael W. Deem and Ramdas Pophale) SiO2 
 PCOD8156981
Probable space group: P 21 21 21
;
_chemical_formula_sum "Si O2"
_cell_formula_units_Z 32
_cell_length_a 5.159265
_cell_length_b 12.605286
_cell_length_c 21.628460
_cell_angle_alpha 90.000000
_cell_angle_beta 90.000000
_cell_angle_gamma 90.000000
_cell_volume 1406.585503
_symmetry_space_group_name_H-M "P 21 21 21"
_symmetry_group_IT_number 19
_symmetry_cell_setting 'orthorhombic'
loop_
_space_group_symop_operation_xyz
x,y,z
1/2-x,-y,1/2+z
1/2+x,1/2-y,-z
-x,1/2+y,1/2-z
loop_
_atom_site_type_symbol
_atom_site_label
_atom_site_fract_x
_atom_site_fract_y
_atom_site_fract_z
Si Si1 0.374019 0.235913 0.856862
Si Si2 0.299031 0.887536 0.993111
Si Si3 0.131386 0.704748 0.803228
Si Si4 0.246559 0.558183 0.695837
Si Si5 0.643713 0.808749 0.516783
Si Si6 0.439870 0.942052 0.417445
Si Si7 0.857256 0.171235 0.270654
Si Si8 0.292987 0.657575 0.937234
O O1 0.581567 0.149577 0.834865
O O2 0.454133 0.319031 0.911269
O O3 0.150255 0.169687 0.889981
O O4 0.271253 0.304688 0.799773
O O5 0.574396 0.905394 0.024897
O O6 0.072728 0.890691 0.045236
O O7 0.280947 0.780416 0.954433
O O8 0.281212 0.978679 0.941077
O O9 0.083199 0.613746 0.751049
O O10 0.360838 0.782724 0.783387
O O11 0.222619 0.645416 0.865290
O O12 0.865578 0.772292 0.812716
O O13 0.393113 0.455330 0.722472
O O14 0.083414 0.504192 0.640425
O O15 0.945849 0.778375 0.511722
O O16 0.614025 0.917841 0.478322
#
# Coordination Sequence:
#
# PCOD8156981 Si02
#       8
#     4   4   4   4   4   4   4   4
#     4  10  23  43  61  98 136 164 230 274 321 408
#     4  10  23  37  65  91 122 167 213 267 323 387
#     4  11  24  45  65  95 136 174 218 282 324 404
#     4  11  24  41  67  98 131 180 225 270 335 406
#     4  10  21  38  63  89 125 166 201 279 326 368
#     4  11  22  40  68  93 129 169 225 265 334 403
#     4  11  25  40  69  96 131 181 219 276 340 383
#     4  10  22  42  58  92 130 161 213 271 321 381
#
# _framework density 22.750129000000001
#
# number of rings (size 3 to 8) (size 9 to 14) (size 15 to 20)
#    0.000    1.500    2.500    1.500    5.250    2.000 
#    0.000    5.000    0.000    0.000    0.000    0.000 
#    0.000    0.000    0.000    0.000    0.000    0.000 
#
# Total GULP energy -396500.270404 kJ/mol
# GULP energy per Si atom -12390.633450 kJ/mol
# Density = 2.269835 g / cm^3
# Si number density = 22.750129 Si / 1000 Ang^3
#
#
#
# Elastic Constant Matrix: (Units=GPa)
#
#
# Indices 1 2 3 4 5 6 
#
# 1 62.7835 6.5720 -7.7949 0.0000 0.0000 0.0000
# 2 6.5720 58.6274 36.4758 0.0000 0.0000 0.0000
# 3 -7.7949 36.4758 117.9834 0.0000 0.0000 0.0000
# 4 0.0000 0.0000 0.0000 15.1513 0.0000 0.0000
# 5 0.0000 0.0000 0.0000 0.0000 26.4699 0.0000
# 6 0.0000 0.0000 0.0000 0.0000 0.0000 23.5133
#
#
#
# Elastic Compliance Matrix: (Units=1/GPa)
#
#
# Indices 1 2 3 4 5 6 
#
# 1 0.016511 -0.003132 0.002059 0.000000 0.000000 0.000000
# 2 -0.003132 0.021713 -0.006920 0.000000 0.000000 0.000000
# 3 0.002059 -0.006920 0.010751 0.000000 0.000000 0.000000
# 4 0.000000 0.000000 0.000000 0.066001 0.000000 0.000000
# 5 0.000000 0.000000 0.000000 0.000000 0.037779 0.000000
# 6 0.000000 0.000000 0.000000 0.000000 0.000000 0.042529
#
#
# Mechanical properties :
#
#
# Convention : Reuss Voigt Hill
#
# Bulk Modulus (GPa) = 30.31191 34.43333 32.37262
# Shear Modulus (GPa) = 22.49551 26.63632 24.56592
#
# Velocity S-wave (km/s) = 3.14794 3.42544 3.28962
# Velocity P-wave (km/s) = 5.15417 5.55096 5.35624
#
# Compressibility (1/GPa) = 0.03299033
#
# Stress axis : x y z
#
# Youngs Moduli (GPa) = 60.56480 46.05498 93.01347
#
# Poissons Ratio (x) = 0.14424 -0.19153
# Poissons Ratio (y) = 0.18969 0.64363
# Poissons Ratio (z) = -0.12471 0.31869
#
# Static dielectric constant tensor:
#      x y z
#    x 3.979590 0.000000 0.000000 
#    y 0.000000 3.945610 0.000000 
#    z 0.000000 0.000000 4.879290 
# 
# 
# High freq. dielectric constant tensor:
#      x y z
#    x 1.888190 0.000000 0.000000 
#    y 0.000000 1.880670 0.000000 
#    z 0.000000 0.000000 1.915810 
# 
# From -- ./inp_files/6915.got.cif
#   From: 2010.03.12/outbox.cif.g09.slc.cpg/sg19_4_cif.got.tgz:6915.got - 2010.04.10 18:59:41.
