data_PCOD8156110
_publ_section_title
;
Structure prediction by ZEFSAII (Michael W. Deem and Ramdas Pophale) SiO2 
 PCOD8156110
Probable space group: P 21 21 2
;
_chemical_formula_sum "Si O2"
_cell_formula_units_Z 26
_cell_length_a 17.739071
_cell_length_b 5.346863
_cell_length_c 13.115942
_cell_angle_alpha 90.000000
_cell_angle_beta 90.000000
_cell_angle_gamma 90.000000
_cell_volume 1244.025882
_symmetry_space_group_name_H-M "P 21 21 2"
_symmetry_group_IT_number 18
_symmetry_cell_setting 'orthorhombic'
loop_
_space_group_symop_operation_xyz
x,y,z
-x,-y,z
1/2+x,1/2-y,-z
1/2-x,1/2+y,-z
loop_
_atom_site_type_symbol
_atom_site_label
_atom_site_fract_x
_atom_site_fract_y
_atom_site_fract_z
Si Si1 0.742535 0.435901 0.156402
Si Si2 0.500000 0.500000 0.446711
Si Si3 0.896518 0.619258 0.843098
Si Si4 0.720770 0.098489 0.628296
Si Si5 0.656804 0.595225 0.539356
Si Si6 0.000000 0.500000 0.680138
Si Si7 0.648080 0.734028 0.995330
Si Si8 0.000000 0.000000 0.946700
O O1 0.676916 0.258888 0.199432
O O2 0.765994 0.609005 0.250430
O O3 0.710246 0.590056 0.061452
O O4 0.816230 0.288186 0.115218
O O5 0.568791 0.574130 0.518612
O O6 0.518272 0.251134 0.382049
O O7 0.872659 0.485572 0.946400
O O8 0.925551 0.446224 0.750096
O O9 0.968797 0.789547 0.870521
O O10 0.672128 0.853355 0.599331
O O11 0.678290 0.355732 0.606249
O O12 0.799504 0.092252 0.568077
O O13 0.569671 0.583765 0.981348
#
# Coordination Sequence:
#
# PCOD8156110 Si02
#       8
#     4   2   4   4   4   2   4   2
#     4  11  24  38  64  95 129 178 224 269 325 392
#     4  12  25  42  69  98 130 162 216 283 345 390
#     4  11  22  37  59  94 134 164 213 270 320 395
#     4  10  23  42  68  92 130 172 216 264 335 391
#     4  10  23  44  66  95 127 165 213 281 326 392
#     4  12  24  36  66 100 130 170 212 270 354 396
#     4  11  22  39  61  94 135 171 220 276 318 388
#     4  10  21  40  59  82 136 182 204 269 331 372
#
# _framework density 20.899885999999999
#
# number of rings (size 3 to 8) (size 9 to 14) (size 15 to 20)
#    0.000    1.231    3.077    2.308    6.462    1.231 
#    0.000    0.769    3.385    0.000    0.000    0.000 
#    0.000    0.000    0.000    0.000    0.000    0.000 
#
# Total GULP energy -322357.482579 kJ/mol
# GULP energy per Si atom -12398.364715 kJ/mol
# Density = 2.085232 g / cm^3
# Si number density = 20.899886 Si / 1000 Ang^3
#
#
#
# Elastic Constant Matrix: (Units=GPa)
#
#
# Indices 1 2 3 4 5 6 
#
# 1 113.8602 11.1045 25.1786 0.0000 0.0000 0.0000
# 2 11.1045 85.0740 -2.9079 0.0000 0.0000 0.0000
# 3 25.1786 -2.9079 57.7177 0.0000 0.0000 0.0000
# 4 0.0000 0.0000 0.0000 6.8892 0.0000 0.0000
# 5 0.0000 0.0000 0.0000 0.0000 15.5441 0.0000
# 6 0.0000 0.0000 0.0000 0.0000 0.0000 27.2490
#
#
#
# Elastic Compliance Matrix: (Units=1/GPa)
#
#
# Indices 1 2 3 4 5 6 
#
# 1 0.009894 -0.001441 -0.004389 0.000000 0.000000 0.000000
# 2 -0.001441 0.011985 0.001233 0.000000 0.000000 0.000000
# 3 -0.004389 0.001233 0.019302 0.000000 0.000000 0.000000
# 4 0.000000 0.000000 0.000000 0.145155 0.000000 0.000000
# 5 0.000000 0.000000 0.000000 0.000000 0.064333 0.000000
# 6 0.000000 0.000000 0.000000 0.000000 0.000000 0.036699
#
#
# Mechanical properties :
#
#
# Convention : Reuss Voigt Hill
#
# Bulk Modulus (GPa) = 31.26374 35.93357 33.59866
# Shear Modulus (GPa) = 16.27476 24.82157 20.54817
#
# Velocity S-wave (km/s) = 2.79355 3.44996 3.13896
# Velocity P-wave (km/s) = 5.03949 5.75327 5.40817
#
# Compressibility (1/GPa) = 0.03198593
#
# Stress axis : x y z
#
# Youngs Moduli (GPa) = 101.07382 83.43933 51.80730
#
# Poissons Ratio (x) = 0.12027 0.22736
# Poissons Ratio (y) = 0.14569 -0.06386
# Poissons Ratio (z) = 0.44358 -0.10285
#
# Static dielectric constant tensor:
#      x y z
#    x 3.990890 0.000000 0.000000 
#    y 0.000000 3.963190 0.000000 
#    z 0.000000 0.000000 3.452500 
# 
# 
# High freq. dielectric constant tensor:
#      x y z
#    x 1.825720 0.000000 0.000000 
#    y 0.000000 1.831590 0.000000 
#    z 0.000000 0.000000 1.791870 
# 
# From -- ./inp_files/5169.got.cif
#   From: 2010.03.12/outbox.cif.g09.slc.cpg/sg18_3_cif.got.tgz:5169.got - 2010.04.10 18:53:55.
