data_PCOD8156523
_publ_section_title
;
Structure prediction by ZEFSAII (Michael W. Deem and Ramdas Pophale) SiO2 
 PCOD8156523
Probable space group: P 21 21 2
;
_chemical_formula_sum "Si O2"
_cell_formula_units_Z 14
_cell_length_a 4.824233
_cell_length_b 9.189461
_cell_length_c 12.355630
_cell_angle_alpha 90.000000
_cell_angle_beta 90.000000
_cell_angle_gamma 90.000000
_cell_volume 547.751037
_symmetry_space_group_name_H-M "P 21 21 2"
_symmetry_group_IT_number 18
_symmetry_cell_setting 'orthorhombic'
loop_
_space_group_symop_operation_xyz
x,y,z
-x,-y,z
1/2+x,1/2-y,-z
1/2-x,1/2+y,-z
loop_
_atom_site_type_symbol
_atom_site_label
_atom_site_fract_x
_atom_site_fract_y
_atom_site_fract_z
Si Si1 0.160044 0.789695 0.432585
Si Si2 0.000000 0.500000 0.076019
Si Si3 0.000000 0.000000 0.069081
Si Si4 0.000000 0.500000 0.690773
Si Si5 0.391954 0.735808 0.781769
O O1 0.428051 0.699658 0.473885
O O2 0.253296 0.948930 0.389992
O O3 0.030843 0.707075 0.328917
O O4 0.244801 0.562612 0.000893
O O5 0.158788 0.378987 0.147248
O O6 0.900892 0.131284 0.148699
O O7 0.886089 0.361471 0.759751
#
# Coordination Sequence:
#
# PCOD8156523 Si02
#       5
#     4   2   2   2   4
#     4  12  27  48  79 113 155 213 276 329 409 501
#     4  12  31  47  78 126 158 206 287 343 402 480
#     4  12  26  50  82 112 160 220 268 338 420 488
#     4  12  25  53  80 118 162 228 263 339 432 492
#     4  12  27  52  83 115 169 212 276 342 414 499
#
# _framework density 25.559059000000001
#
# number of rings (size 3 to 8) (size 9 to 14) (size 15 to 20)
#    0.000    0.000    5.714    2.571    4.000    1.143 
#    5.143    0.000    0.000    0.000    0.000    0.000 
#    0.000    0.000    0.000    0.000    0.000    0.000 
#
# Total GULP energy -173512.259812 kJ/mol
# GULP energy per Si atom -12393.732844 kJ/mol
# Density = 2.550089 g / cm^3
# Si number density = 25.559059 Si / 1000 Ang^3
#
#
#
# Elastic Constant Matrix: (Units=GPa)
#
#
# Indices 1 2 3 4 5 6 
#
# 1 154.3394 32.3835 66.0578 0.0000 0.0000 0.0000
# 2 32.3835 108.2508 57.2496 0.0000 0.0000 0.0000
# 3 66.0578 57.2496 147.0453 0.0000 0.0000 0.0000
# 4 0.0000 0.0000 0.0000 44.3296 0.0000 0.0000
# 5 0.0000 0.0000 0.0000 0.0000 20.2863 0.0000
# 6 0.0000 0.0000 0.0000 0.0000 0.0000 41.7542
#
#
#
# Elastic Compliance Matrix: (Units=1/GPa)
#
#
# Indices 1 2 3 4 5 6 
#
# 1 0.008055 -0.000625 -0.003375 0.000000 0.000000 0.000000
# 2 -0.000625 0.011682 -0.004267 0.000000 0.000000 0.000000
# 3 -0.003375 -0.004267 0.009978 0.000000 0.000000 0.000000
# 4 0.000000 0.000000 0.000000 0.022558 0.000000 0.000000
# 5 0.000000 0.000000 0.000000 0.000000 0.049294 0.000000
# 6 0.000000 0.000000 0.000000 0.000000 0.000000 0.023950
#
#
# Mechanical properties :
#
#
# Convention : Reuss Voigt Hill
#
# Bulk Modulus (GPa) = 75.87175 80.11303 77.99239
# Shear Modulus (GPa) = 34.14239 38.20364 36.17302
#
# Velocity S-wave (km/s) = 3.65886 3.87036 3.76609
# Velocity P-wave (km/s) = 6.89920 7.16835 7.03506
#
# Compressibility (1/GPa) = 0.01318014
#
# Stress axis : x y z
#
# Youngs Moduli (GPa) = 124.14716 85.60529 100.21618
#
# Poissons Ratio (x) = 0.05346 0.33827
# Poissons Ratio (y) = 0.07753 0.42767
# Poissons Ratio (z) = 0.41905 0.36532
#
# Static dielectric constant tensor:
#      x y z
#    x 4.587550 0.000000 0.000000 
#    y 0.000000 4.188710 0.000000 
#    z 0.000000 0.000000 5.051210 
# 
# 
# High freq. dielectric constant tensor:
#      x y z
#    x 2.026860 0.000000 0.000000 
#    y 0.000000 1.983630 0.000000 
#    z 0.000000 0.000000 2.045390 
# 
# From -- ./inp_files/4928.got.cif
#   From: 2010.03.12/outbox.cif.g09.slc.cpg/sg18_3_cif.got.tgz:4928.got - 2010.04.10 18:53:55.
