data_PCOD8156577
_publ_section_title
;
Structure prediction by ZEFSAII (Michael W. Deem and Ramdas Pophale) SiO2 
 PCOD8156577
Probable space group: P 21 21 21
;
_chemical_formula_sum "Si O2"
_cell_formula_units_Z 32
_cell_length_a 8.251055
_cell_length_b 17.169400
_cell_length_c 11.782701
_cell_angle_alpha 90.000000
_cell_angle_beta 90.000000
_cell_angle_gamma 90.000000
_cell_volume 1669.204158
_symmetry_space_group_name_H-M "P 21 21 21"
_symmetry_group_IT_number 19
_symmetry_cell_setting 'orthorhombic'
loop_
_space_group_symop_operation_xyz
x,y,z
1/2-x,-y,1/2+z
1/2+x,1/2-y,-z
-x,1/2+y,1/2-z
loop_
_atom_site_type_symbol
_atom_site_label
_atom_site_fract_x
_atom_site_fract_y
_atom_site_fract_z
Si Si1 0.758487 0.157396 0.230351
Si Si2 0.477634 0.787719 0.232266
Si Si3 0.544748 0.054078 0.384725
Si Si4 0.711158 0.050105 0.017666
Si Si5 0.216034 0.358833 0.198970
Si Si6 0.980912 0.742427 0.155985
Si Si7 0.464342 0.451389 0.317685
Si Si8 0.842581 0.309717 0.545863
O O1 0.664915 0.239788 0.206316
O O2 0.678540 0.112895 0.335800
O O3 0.766525 0.105362 0.119325
O O4 0.943228 0.176029 0.264271
O O5 0.624263 0.803728 0.322819
O O6 0.424884 0.872705 0.177991
O O7 0.545431 0.737910 0.130027
O O8 0.398426 0.099984 0.446688
O O9 0.632239 0.997732 0.475043
O O10 0.462831 0.007791 0.279384
O O11 0.562066 0.994836 0.061174
O O12 0.644602 0.105547 0.917110
O O13 0.079153 0.312001 0.264515
O O14 0.279151 0.429277 0.279537
O O15 0.844296 0.702982 0.077736
O O16 0.127115 0.777180 0.080158
#
# Coordination Sequence:
#
# PCOD8156577 Si02
#       8
#     4   4   4   4   4   4   4   4
#     4  10  21  33  57  84 112 147 199 231 284 347
#     4   8  17  34  53  82 104 149 189 238 270 346
#     4   9  18  34  56  81 108 148 190 231 285 345
#     4  10  18  33  58  84 114 161 178 235 296 347
#     4   8  18  33  54  83 114 144 194 235 279 341
#     4  11  21  35  55  88 110 144 196 245 272 343
#     4   8  16  31  57  78 109 148 198 222 280 351
#     4  10  19  33  60  76 111 145 188 239 292 316
#
# _framework density 19.170812999999999
#
# number of rings (size 3 to 8) (size 9 to 14) (size 15 to 20)
#    0.750    2.000    0.000    2.250    1.750    1.000 
#    0.000    0.000   13.750    1.500    0.000    0.000 
#    0.000    0.000    0.000    0.000    0.000    0.000 
#
# Total GULP energy -396465.559150 kJ/mol
# GULP energy per Si atom -12389.548723 kJ/mol
# Density = 1.912718 g / cm^3
# Si number density = 19.170813 Si / 1000 Ang^3
#
#
#
# Elastic Constant Matrix: (Units=GPa)
#
#
# Indices 1 2 3 4 5 6 
#
# 1 55.9718 37.3043 30.3739 0.0000 0.0000 0.0000
# 2 37.3043 108.6291 41.7297 0.0000 0.0000 0.0000
# 3 30.3739 41.7297 81.7870 0.0000 0.0000 0.0000
# 4 0.0000 0.0000 0.0000 35.3182 0.0000 0.0000
# 5 0.0000 0.0000 0.0000 0.0000 18.2482 0.0000
# 6 0.0000 0.0000 0.0000 0.0000 0.0000 33.6110
#
#
#
# Elastic Compliance Matrix: (Units=1/GPa)
#
#
# Indices 1 2 3 4 5 6 
#
# 1 0.025480 -0.006362 -0.006217 0.000000 0.000000 0.000000
# 2 -0.006362 0.013038 -0.004290 0.000000 0.000000 0.000000
# 3 -0.006217 -0.004290 0.016724 0.000000 0.000000 0.000000
# 4 0.000000 0.000000 0.000000 0.028314 0.000000 0.000000
# 5 0.000000 0.000000 0.000000 0.000000 0.054800 0.000000
# 6 0.000000 0.000000 0.000000 0.000000 0.000000 0.029752
#
#
# Mechanical properties :
#
#
# Convention : Reuss Voigt Hill
#
# Bulk Modulus (GPa) = 46.49908 51.68930 49.09419
# Shear Modulus (GPa) = 23.92186 26.56748 25.24467
#
# Velocity S-wave (km/s) = 3.53629 3.72671 3.63275
# Velocity P-wave (km/s) = 6.40169 6.74825 6.57725
#
# Compressibility (1/GPa) = 0.02150580
#
# Stress axis : x y z
#
# Youngs Moduli (GPa) = 39.24677 76.69720 59.79313
#
# Poissons Ratio (x) = 0.48794 0.37171
# Poissons Ratio (y) = 0.24968 0.25650
# Poissons Ratio (z) = 0.24398 0.32901
#
# Static dielectric constant tensor:
#      x y z
#    x 3.156330 0.000000 0.000000 
#    y 0.000000 3.842210 0.000000 
#    z 0.000000 0.000000 3.334530 
# 
# 
# High freq. dielectric constant tensor:
#      x y z
#    x 1.704920 0.000000 0.000000 
#    y 0.000000 1.758720 0.000000 
#    z 0.000000 0.000000 1.734040 
# 
# From -- ./inp_files/4828.got.cif
#   From: 2010.03.12/outbox.cif.g09.slc.cpg/sg19_3_cif.got.tgz:4828.got - 2010.04.10 18:59:41.
