data_PCOD8156604
_publ_section_title
;
Structure prediction by ZEFSAII (Michael W. Deem and Ramdas Pophale) SiO2 
 PCOD8156604
Probable space group: P 21 21 21
;
_chemical_formula_sum "Si O2"
_cell_formula_units_Z 32
_cell_length_a 11.624253
_cell_length_b 11.172348
_cell_length_c 11.335240
_cell_angle_alpha 90.000000
_cell_angle_beta 90.000000
_cell_angle_gamma 90.000000
_cell_volume 1472.109883
_symmetry_space_group_name_H-M "P 21 21 21"
_symmetry_group_IT_number 19
_symmetry_cell_setting 'orthorhombic'
loop_
_space_group_symop_operation_xyz
x,y,z
1/2-x,-y,1/2+z
1/2+x,1/2-y,-z
-x,1/2+y,1/2-z
loop_
_atom_site_type_symbol
_atom_site_label
_atom_site_fract_x
_atom_site_fract_y
_atom_site_fract_z
Si Si1 0.561225 0.760988 0.095176
Si Si2 0.102351 0.258476 0.167601
Si Si3 0.710896 0.494208 0.862812
Si Si4 0.673932 0.892852 0.298033
Si Si5 0.651043 0.170427 0.291330
Si Si6 0.827023 0.492229 0.617388
Si Si7 0.976347 0.719692 0.579840
Si Si8 0.103739 0.768409 0.161063
O O1 0.614203 0.868159 0.172198
O O2 0.423085 0.744299 0.111424
O O3 0.622455 0.638871 0.135115
O O4 0.587553 0.799295 0.962449
O O5 0.189602 0.365482 0.200641
O O6 0.006560 0.237355 0.264211
O O7 0.175463 0.139102 0.163417
O O8 0.036585 0.284018 0.045690
O O9 0.785608 0.533515 0.747980
O O10 0.605188 0.588411 0.860915
O O11 0.760160 0.505271 0.000257
O O12 0.611054 0.803957 0.392081
O O13 0.656514 0.031735 0.327152
O O14 0.584059 0.188083 0.168621
O O15 0.778804 0.223003 0.279563
O O16 0.923229 0.587323 0.581175
#
# Coordination Sequence:
#
# PCOD8156604 Si02
#       8
#     4   4   4   4   4   4   4   4
#     4  10  23  44  67  97 132 172 219 278 336 396
#     4  11  26  43  67  97 132 176 222 273 336 398
#     4  10  22  40  67  92 132 178 221 279 325 404
#     4  11  24  43  70 100 134 174 223 274 335 398
#     4  11  24  43  70 100 134 174 223 274 335 398
#     4  10  18  42  67  96 126 176 223 271 337 396
#     4  10  23  44  67  97 132 172 219 278 336 396
#     4  11  26  43  67  97 132 176 222 273 336 398
#
# _framework density 21.737507000000001
#
# number of rings (size 3 to 8) (size 9 to 14) (size 15 to 20)
#    0.000    1.500    3.750    0.000    5.250    1.000 
#    0.000    0.000    0.000    0.000    0.000    0.000 
#    0.000    0.000    0.000    0.000    0.000    0.000 
#
# Total GULP energy -396514.309253 kJ/mol
# GULP energy per Si atom -12391.072164 kJ/mol
# Density = 2.168803 g / cm^3
# Si number density = 21.737507 Si / 1000 Ang^3
#
#
#
# Elastic Constant Matrix: (Units=GPa)
#
#
# Indices 1 2 3 4 5 6 
#
# 1 101.4013 10.7880 39.0418 0.0000 0.0000 0.0000
# 2 10.7880 56.6370 4.3683 0.0000 0.0000 0.0000
# 3 39.0418 4.3683 114.6307 0.0000 0.0000 0.0000
# 4 0.0000 0.0000 0.0000 26.1981 0.0000 0.0000
# 5 0.0000 0.0000 0.0000 0.0000 29.3716 0.0000
# 6 0.0000 0.0000 0.0000 0.0000 0.0000 13.2799
#
#
#
# Elastic Compliance Matrix: (Units=1/GPa)
#
#
# Indices 1 2 3 4 5 6 
#
# 1 0.011551 -0.001902 -0.003862 0.000000 0.000000 0.000000
# 2 -0.001902 0.018022 -0.000039 0.000000 0.000000 0.000000
# 3 -0.003862 -0.000039 0.010040 0.000000 0.000000 0.000000
# 4 0.000000 0.000000 0.000000 0.038171 0.000000 0.000000
# 5 0.000000 0.000000 0.000000 0.000000 0.034046 0.000000
# 6 0.000000 0.000000 0.000000 0.000000 0.000000 0.075302
#
#
# Mechanical properties :
#
#
# Convention : Reuss Voigt Hill
#
# Bulk Modulus (GPa) = 35.70491 42.34059 39.02275
# Shear Modulus (GPa) = 24.02996 28.33465 26.18230
#
# Velocity S-wave (km/s) = 3.32845 3.61431 3.47432
# Velocity P-wave (km/s) = 5.58861 6.07767 5.83826
#
# Compressibility (1/GPa) = 0.02800735
#
# Stress axis : x y z
#
# Youngs Moduli (GPa) = 86.57248 55.48884 99.59784
#
# Poissons Ratio (x) = 0.10556 0.38461
# Poissons Ratio (y) = 0.16469 0.00387
# Poissons Ratio (z) = 0.33431 0.00216
#
# Static dielectric constant tensor:
#      x y z
#    x 3.825390 0.000000 0.000000 
#    y 0.000000 3.755150 0.000000 
#    z 0.000000 0.000000 4.343850 
# 
# 
# High freq. dielectric constant tensor:
#      x y z
#    x 1.833750 0.000000 0.000000 
#    y 0.000000 1.854820 0.000000 
#    z 0.000000 0.000000 1.863850 
# 
# From -- ./inp_files/5074.got.cif
#   From: 2010.03.12/outbox.cif.g09.slc.cpg/sg19_3_cif.got.tgz:5074.got - 2010.04.10 18:59:41.
