data_PCOD8156870
_publ_section_title
;
Structure prediction by ZEFSAII (Michael W. Deem and Ramdas Pophale) SiO2 
 PCOD8156870
Probable space group: P 21 21 21
;
_chemical_formula_sum "Si O2"
_cell_formula_units_Z 24
_cell_length_a 5.124981
_cell_length_b 22.429625
_cell_length_c 10.516614
_cell_angle_alpha 90.000000
_cell_angle_beta 90.000000
_cell_angle_gamma 90.000000
_cell_volume 1208.899523
_symmetry_space_group_name_H-M "P 21 21 21"
_symmetry_group_IT_number 19
_symmetry_cell_setting 'orthorhombic'
loop_
_space_group_symop_operation_xyz
x,y,z
1/2-x,-y,1/2+z
1/2+x,1/2-y,-z
-x,1/2+y,1/2-z
loop_
_atom_site_type_symbol
_atom_site_label
_atom_site_fract_x
_atom_site_fract_y
_atom_site_fract_z
Si Si1 0.041435 0.379116 0.272078
Si Si2 0.035538 0.654911 0.267168
Si Si3 0.484107 0.082738 0.224346
Si Si4 0.972035 0.260938 0.419152
Si Si5 0.247560 0.616358 0.512834
Si Si6 0.478289 0.947215 0.279989
O O1 0.770524 0.413647 0.275816
O O2 0.041339 0.327329 0.375499
O O3 0.100031 0.351761 0.130091
O O4 0.272305 0.426332 0.305130
O O5 0.761912 0.623370 0.242728
O O6 0.036769 0.719512 0.204752
O O7 0.264557 0.613243 0.206901
O O8 0.095647 0.662649 0.419392
O O9 0.432604 0.017356 0.277017
O O10 0.541346 0.079845 0.072307
O O11 0.189078 0.237904 0.516506
O O12 0.034612 0.570614 0.572755
#
# Coordination Sequence:
#
# PCOD8156870 Si02
#       6
#     4   4   4   4   4   4
#     4  10  22  43  63  93 127 169 215 273 323 377
#     4  10  22  43  63  93 127 169 215 273 323 377
#     4  10  20  40  63  97 131 161 212 265 326 390
#     4  12  26  48  64  92 134 172 230 270 318 400
#     4   8  22  40  62  98 124 158 218 262 320 388
#     4  10  20  40  63  97 131 161 212 265 326 390
#
# _framework density 19.852765999999999
#
# number of rings (size 3 to 8) (size 9 to 14) (size 15 to 20)
#    2.000    0.000    0.000    4.000    0.000    0.000 
#   15.000    0.000    0.000    0.000    0.000    0.000 
#    0.000    0.000    0.000    0.000    0.000    0.000 
#
# Total GULP energy -297333.829603 kJ/mol
# GULP energy per Si atom -12388.909567 kJ/mol
# Density = 1.980758 g / cm^3
# Si number density = 19.852766 Si / 1000 Ang^3
#
#
#
# Elastic Constant Matrix: (Units=GPa)
#
#
# Indices 1 2 3 4 5 6 
#
# 1 132.0750 17.8611 7.4065 0.0000 0.0000 0.0000
# 2 17.8611 50.0482 -0.0629 0.0000 0.0000 0.0000
# 3 7.4065 -0.0629 38.6642 0.0000 0.0000 0.0000
# 4 0.0000 0.0000 0.0000 32.5201 0.0000 0.0000
# 5 0.0000 0.0000 0.0000 0.0000 21.3828 0.0000
# 6 0.0000 0.0000 0.0000 0.0000 0.0000 31.5256
#
#
#
# Elastic Compliance Matrix: (Units=1/GPa)
#
#
# Indices 1 2 3 4 5 6 
#
# 1 0.008047 -0.002874 -0.001546 0.000000 0.000000 0.000000
# 2 -0.002874 0.021007 0.000585 0.000000 0.000000 0.000000
# 3 -0.001546 0.000585 0.026161 0.000000 0.000000 0.000000
# 4 0.000000 0.000000 0.000000 0.030750 0.000000 0.000000
# 5 0.000000 0.000000 0.000000 0.000000 0.046767 0.000000
# 6 0.000000 0.000000 0.000000 0.000000 0.000000 0.031720
#
#
# Mechanical properties :
#
#
# Convention : Reuss Voigt Hill
#
# Bulk Modulus (GPa) = 21.03298 30.13299 25.58299
# Shear Modulus (GPa) = 26.59999 30.12456 28.36227
#
# Velocity S-wave (km/s) = 3.66439 3.89961 3.78382
# Velocity P-wave (km/s) = 5.34052 5.95710 5.65722
#
# Compressibility (1/GPa) = 0.04754437
#
# Stress axis : x y z
#
# Youngs Moduli (GPa) = 124.27341 47.60316 38.22504
#
# Poissons Ratio (x) = 0.13679 0.05910
# Poissons Ratio (y) = 0.35712 -0.02235
# Poissons Ratio (z) = 0.19214 -0.02783
#
# Static dielectric constant tensor:
#      x y z
#    x 3.697840 0.000000 0.000000 
#    y 0.000000 3.264720 0.000000 
#    z 0.000000 0.000000 3.425920 
# 
# 
# High freq. dielectric constant tensor:
#      x y z
#    x 1.793150 0.000000 0.000000 
#    y 0.000000 1.749110 0.000000 
#    z 0.000000 0.000000 1.758640 
# 
# From -- ./inp_files/4504.got.cif
#   From: 2010.03.12/outbox.cif.g09.slc.cpg/sg19_3_cif.got.tgz:4504.got - 2010.04.10 18:59:41.
