data_PCOD8156637
_publ_section_title
;
Structure prediction by ZEFSAII (Michael W. Deem and Ramdas Pophale) SiO2 
 PCOD8156637
Probable space group: P 21 21 21
;
_chemical_formula_sum "Si O2"
_cell_formula_units_Z 28
_cell_length_a 4.942790
_cell_length_b 27.352122
_cell_length_c 10.024605
_cell_angle_alpha 90.000000
_cell_angle_beta 90.000000
_cell_angle_gamma 90.000000
_cell_volume 1355.284444
_symmetry_space_group_name_H-M "P 21 21 21"
_symmetry_group_IT_number 19
_symmetry_cell_setting 'orthorhombic'
loop_
_space_group_symop_operation_xyz
x,y,z
1/2-x,-y,1/2+z
1/2+x,1/2-y,-z
-x,1/2+y,1/2-z
loop_
_atom_site_type_symbol
_atom_site_label
_atom_site_fract_x
_atom_site_fract_y
_atom_site_fract_z
Si Si1 0.094040 0.224520 0.044902
Si Si2 0.732904 0.617691 0.428726
Si Si3 0.946225 0.230919 0.336067
Si Si4 0.760949 0.969169 0.836525
Si Si5 0.238190 0.093056 0.369720
Si Si6 0.772731 0.054548 0.035502
Si Si7 0.058937 0.812416 0.969024
O O1 0.194060 0.169989 0.008177
O O2 0.364653 0.257705 0.059921
O O3 0.912300 0.228488 0.178413
O O4 0.759785 0.622509 0.269354
O O5 0.430882 0.600570 0.464425
O O6 0.930594 0.576324 0.486849
O O7 0.252101 0.215985 0.365714
O O8 0.904059 0.286696 0.387039
O O9 0.744154 0.192763 0.409943
O O10 0.561754 0.927368 0.895363
O O11 0.729490 0.975050 0.676377
O O12 0.066503 0.953698 0.867874
O O13 0.700720 0.019673 0.911806
O O14 0.343631 0.131161 0.481797
#
# Coordination Sequence:
#
# PCOD8156637 Si02
#       7
#     4   4   4   4   4   4   4
#     4  12  24  38  58  85 122 159 203 244 283 355
#     4  10  21  37  61  81 111 156 199 229 279 357
#     4  10  21  35  56  83 116 151 191 245 297 328
#     4  10  21  36  59  88 115 147 190 244 291 351
#     4  10  19  34  61  87 109 146 197 238 283 348
#     4  10  21  39  60  86 113 150 194 237 298 349
#     4  10  19  35  59  84 112 147 194 251 289 338
#
# _framework density 20.659872
#
# number of rings (size 3 to 8) (size 9 to 14) (size 15 to 20)
#    0.000    1.714    1.429    3.429    4.000    0.000 
#    0.000    4.286    0.000    0.000    0.000    0.000 
#    0.000    0.000    0.000    0.000    0.000    0.000 
#
# Total GULP energy -347166.713330 kJ/mol
# GULP energy per Si atom -12398.811190 kJ/mol
# Density = 2.061285 g / cm^3
# Si number density = 20.659872 Si / 1000 Ang^3
#
#
#
# Elastic Constant Matrix: (Units=GPa)
#
#
# Indices 1 2 3 4 5 6 
#
# 1 85.5422 15.9591 17.6127 0.0000 0.0000 0.0000
# 2 15.9591 94.8500 35.5074 0.0000 0.0000 0.0000
# 3 17.6127 35.5074 50.3001 0.0000 0.0000 0.0000
# 4 0.0000 0.0000 0.0000 25.0434 0.0000 0.0000
# 5 0.0000 0.0000 0.0000 0.0000 23.5485 0.0000
# 6 0.0000 0.0000 0.0000 0.0000 0.0000 20.7342
#
#
#
# Elastic Compliance Matrix: (Units=1/GPa)
#
#
# Indices 1 2 3 4 5 6 
#
# 1 0.012627 -0.000638 -0.003971 0.000000 0.000000 0.000000
# 2 -0.000638 0.014362 -0.009915 0.000000 0.000000 0.000000
# 3 -0.003971 -0.009915 0.028270 0.000000 0.000000 0.000000
# 4 0.000000 0.000000 0.000000 0.039931 0.000000 0.000000
# 5 0.000000 0.000000 0.000000 0.000000 0.042466 0.000000
# 6 0.000000 0.000000 0.000000 0.000000 0.000000 0.048230
#
#
# Mechanical properties :
#
#
# Convention : Reuss Voigt Hill
#
# Bulk Modulus (GPa) = 38.15152 40.98340 39.56746
# Shear Modulus (GPa) = 22.35443 24.63943 23.49693
#
# Velocity S-wave (km/s) = 3.29298 3.45718 3.37608
# Velocity P-wave (km/s) = 5.74150 5.98468 5.86435
#
# Compressibility (1/GPa) = 0.02621127
#
# Stress axis : x y z
#
# Youngs Moduli (GPa) = 79.19693 69.62821 35.37296
#
# Poissons Ratio (x) = 0.04442 0.14046
# Poissons Ratio (y) = 0.05053 0.35072
# Poissons Ratio (z) = 0.31448 0.69036
#
# Static dielectric constant tensor:
#      x y z
#    x 3.864720 0.000000 0.000000 
#    y 0.000000 3.552740 0.000000 
#    z 0.000000 0.000000 3.501470 
# 
# 
# High freq. dielectric constant tensor:
#      x y z
#    x 1.832330 0.000000 0.000000 
#    y 0.000000 1.799060 0.000000 
#    z 0.000000 0.000000 1.768350 
# 
# From -- ./inp_files/2240.got.cif
#   From: 2010.03.12/outbox.cif.g09.slc.cpg/sg19_2_cif.got.tgz:2240.got - 2010.04.10 18:59:41.
