data_PCOD8156076
_publ_section_title
;
Structure prediction by ZEFSAII (Michael W. Deem and Ramdas Pophale) SiO2 
 PCOD8156076
Probable space group: P 21 21 2
;
_chemical_formula_sum "Si O2"
_cell_formula_units_Z 32
_cell_length_a 8.559196
_cell_length_b 22.016959
_cell_length_c 8.634819
_cell_angle_alpha 90.000000
_cell_angle_beta 90.000000
_cell_angle_gamma 90.000000
_cell_volume 1627.209772
_symmetry_space_group_name_H-M "P 21 21 2"
_symmetry_group_IT_number 18
_symmetry_cell_setting 'orthorhombic'
loop_
_space_group_symop_operation_xyz
x,y,z
-x,-y,z
1/2+x,1/2-y,-z
1/2-x,1/2+y,-z
loop_
_atom_site_type_symbol
_atom_site_label
_atom_site_fract_x
_atom_site_fract_y
_atom_site_fract_z
Si Si1 0.478550 0.686401 0.056676
Si Si2 0.543483 0.152873 0.351807
Si Si3 0.209639 0.155778 0.239859
Si Si4 0.734957 0.722083 0.822794
Si Si5 0.422267 0.382853 0.346097
Si Si6 0.010467 0.769474 0.444754
Si Si7 0.130024 0.456830 0.440595
Si Si8 0.373404 0.543873 0.573156
O O1 0.389103 0.737605 0.153700
O O2 0.530142 0.632561 0.170764
O O3 0.355578 0.662920 0.931842
O O4 0.635981 0.712895 0.978881
O O5 0.395778 0.157686 0.238064
O O6 0.698649 0.157669 0.243585
O O7 0.542817 0.210331 0.465708
O O8 0.541220 0.090655 0.447632
O O9 0.145179 0.205596 0.360522
O O10 0.154271 0.090572 0.292019
O O11 0.629408 0.752125 0.689380
O O12 0.408768 0.321234 0.447885
O O13 0.254961 0.418653 0.337882
O O14 0.557044 0.425781 0.416143
O O15 0.218022 0.506467 0.542428
O O16 0.000000 0.500000 0.351265
O O17 0.500000 0.500000 0.647792
#
# Coordination Sequence:
#
# PCOD8156076 Si02
#       8
#     4   4   4   4   4   4   4   4
#     4  11  24  39  60  94 137 168 201 250 330 394
#     4  12  21  36  65  94 127 160 210 262 314 371
#     4  10  22  38  61  94 123 169 203 249 318 387
#     4  11  23  39  59  93 134 164 200 250 320 397
#     4  10  21  40  65  87 126 164 211 265 312 381
#     4  10  21  37  63  95 120 163 213 253 314 374
#     4  11  22  38  64  96 118 158 216 287 304 351
#     4   9  20  40  64  88 117 160 224 262 304 360
#
# _framework density 19.665565000000001
#
# number of rings (size 3 to 8) (size 9 to 14) (size 15 to 20)
#    0.000    1.500    3.750    1.500    3.500    1.000 
#    0.000    3.125    0.000    0.750    3.250    0.000 
#    0.000    0.000    0.000    0.000    0.000    0.000 
#
# Total GULP energy -396619.951175 kJ/mol
# GULP energy per Si atom -12394.373474 kJ/mol
# Density = 1.962081 g / cm^3
# Si number density = 19.665565 Si / 1000 Ang^3
#
#
#
# Elastic Constant Matrix: (Units=GPa)
#
#
# Indices 1 2 3 4 5 6 
#
# 1 97.9761 39.1813 25.6385 0.0000 0.0000 0.0000
# 2 39.1813 105.7261 32.9360 0.0000 0.0000 0.0000
# 3 25.6385 32.9360 76.5547 0.0000 0.0000 0.0000
# 4 0.0000 0.0000 0.0000 22.1603 0.0000 0.0000
# 5 0.0000 0.0000 0.0000 0.0000 3.2033 0.0000
# 6 0.0000 0.0000 0.0000 0.0000 0.0000 39.8027
#
#
#
# Elastic Compliance Matrix: (Units=1/GPa)
#
#
# Indices 1 2 3 4 5 6 
#
# 1 0.012386 -0.003808 -0.002510 0.000000 0.000000 0.000000
# 2 -0.003808 0.012093 -0.003927 0.000000 0.000000 0.000000
# 3 -0.002510 -0.003927 0.015593 0.000000 0.000000 0.000000
# 4 0.000000 0.000000 0.000000 0.045126 0.000000 0.000000
# 5 0.000000 0.000000 0.000000 0.000000 0.312178 0.000000
# 6 0.000000 0.000000 0.000000 0.000000 0.000000 0.025124
#
#
# Mechanical properties :
#
#
# Convention : Reuss Voigt Hill
#
# Bulk Modulus (GPa) = 51.06942 52.86317 51.96629
# Shear Modulus (GPa) = 11.12301 25.20000 18.16151
#
# Velocity S-wave (km/s) = 2.38083 3.58359 3.04224
# Velocity P-wave (km/s) = 5.79510 6.63794 6.23079
#
# Compressibility (1/GPa) = 0.01958119
#
# Stress axis : x y z
#
# Youngs Moduli (GPa) = 80.73406 82.69075 64.13238
#
# Poissons Ratio (x) = 0.31492 0.16096
# Poissons Ratio (y) = 0.30747 0.25187
# Poissons Ratio (z) = 0.20262 0.32476
#
# Static dielectric constant tensor:
#      x y z
#    x 3.377110 0.000000 0.000000 
#    y 0.000000 3.937040 0.000000 
#    z 0.000000 0.000000 3.350190 
# 
# 
# High freq. dielectric constant tensor:
#      x y z
#    x 1.789460 0.000000 0.000000 
#    y 0.000000 1.765640 0.000000 
#    z 0.000000 0.000000 1.738580 
# 
# From -- ./inp_files/3531.got.cif
#   From: 2010.03.12/outbox.cif.g09.slc.cpg/sg18_2_cif.got.tgz:3531.got - 2010.04.10 18:53:55.
