data_PCOD8156992
_publ_section_title
;
Structure prediction by ZEFSAII (Michael W. Deem and Ramdas Pophale) SiO2 
 PCOD8156992
Probable space group: P 21 21 21
;
_chemical_formula_sum "Si O2"
_cell_formula_units_Z 28
_cell_length_a 15.721115
_cell_length_b 13.877508
_cell_length_c 6.213878
_cell_angle_alpha 90.000000
_cell_angle_beta 90.000000
_cell_angle_gamma 90.000000
_cell_volume 1355.681137
_symmetry_space_group_name_H-M "P 21 21 21"
_symmetry_group_IT_number 19
_symmetry_cell_setting 'orthorhombic'
loop_
_space_group_symop_operation_xyz
x,y,z
1/2-x,-y,1/2+z
1/2+x,1/2-y,-z
-x,1/2+y,1/2-z
loop_
_atom_site_type_symbol
_atom_site_label
_atom_site_fract_x
_atom_site_fract_y
_atom_site_fract_z
Si Si1 0.054500 0.075481 0.864204
Si Si2 0.211133 0.382558 0.374646
Si Si3 0.666716 0.290732 0.885260
Si Si4 0.205722 0.730605 0.258267
Si Si5 0.668134 0.438885 0.525015
Si Si6 0.638906 0.928303 0.440456
Si Si7 0.650249 0.574084 0.875156
O O1 0.079292 0.161651 0.029581
O O2 0.088275 0.970204 0.943142
O O3 0.096369 0.100674 0.636060
O O4 0.953918 0.072509 0.836887
O O5 0.155910 0.317360 0.208814
O O6 0.235753 0.326302 0.590676
O O7 0.152643 0.472459 0.433079
O O8 0.296072 0.418748 0.256309
O O9 0.699054 0.354956 0.687118
O O10 0.734837 0.290706 0.078585
O O11 0.146033 0.658169 0.388953
O O12 0.147187 0.809343 0.132579
O O13 0.624298 0.529639 0.644109
O O14 0.754298 0.468437 0.403909
#
# Coordination Sequence:
#
# PCOD8156992 Si02
#       7
#     4   4   4   4   4   4   4
#     4  11  24  39  62 102 138 163 221 272 320 392
#     4  11  22  44  71  87 126 178 224 264 330 382
#     4  10  21  38  68  97 126 172 208 271 323 388
#     4  11  22  42  69  92 124 171 226 261 326 395
#     4  11  19  37  63  94 135 166 203 262 337 388
#     4  11  26  43  65  94 126 180 226 273 317 383
#     4  11  20  35  66  94 129 170 204 261 333 388
#
# _framework density 20.653825000000001
#
# number of rings (size 3 to 8) (size 9 to 14) (size 15 to 20)
#    0.000    1.143    5.714    0.857    0.000    3.429 
#    0.000    4.286    0.000    0.000    0.000    0.000 
#    0.000    0.000    0.000    0.000    0.000    0.000 
#
# Total GULP energy -347175.689101 kJ/mol
# GULP energy per Si atom -12399.131754 kJ/mol
# Density = 2.060682 g / cm^3
# Si number density = 20.653825 Si / 1000 Ang^3
#
#
#
# Elastic Constant Matrix: (Units=GPa)
#
#
# Indices 1 2 3 4 5 6 
#
# 1 86.3266 26.7880 23.2522 0.0000 0.0000 0.0000
# 2 26.7880 116.3360 29.8298 0.0000 0.0000 0.0000
# 3 23.2522 29.8298 87.5220 0.0000 0.0000 0.0000
# 4 0.0000 0.0000 0.0000 34.5464 0.0000 0.0000
# 5 0.0000 0.0000 0.0000 0.0000 23.7050 0.0000
# 6 0.0000 0.0000 0.0000 0.0000 0.0000 19.8292
#
#
#
# Elastic Compliance Matrix: (Units=1/GPa)
#
#
# Indices 1 2 3 4 5 6 
#
# 1 0.013021 -0.002313 -0.002671 0.000000 0.000000 0.000000
# 2 -0.002313 0.009830 -0.002736 0.000000 0.000000 0.000000
# 3 -0.002671 -0.002736 0.013068 0.000000 0.000000 0.000000
# 4 0.000000 0.000000 0.000000 0.028947 0.000000 0.000000
# 5 0.000000 0.000000 0.000000 0.000000 0.042185 0.000000
# 6 0.000000 0.000000 0.000000 0.000000 0.000000 0.050431
#
#
# Mechanical properties :
#
#
# Convention : Reuss Voigt Hill
#
# Bulk Modulus (GPa) = 48.83109 49.99164 49.41137
# Shear Modulus (GPa) = 27.81675 29.63707 28.72691
#
# Velocity S-wave (km/s) = 3.67387 3.79217 3.73349
# Velocity P-wave (km/s) = 6.45681 6.59024 6.52386
#
# Compressibility (1/GPa) = 0.02047875
#
# Stress axis : x y z
#
# Youngs Moduli (GPa) = 76.79775 101.72983 76.52468
#
# Poissons Ratio (x) = 0.23535 0.20439
# Poissons Ratio (y) = 0.17767 0.20935
# Poissons Ratio (z) = 0.20512 0.27830
#
# Static dielectric constant tensor:
#      x y z
#    x 3.237800 0.000000 0.000000 
#    y 0.000000 3.893080 0.000000 
#    z 0.000000 0.000000 3.938890 
# 
# 
# High freq. dielectric constant tensor:
#      x y z
#    x 1.763500 0.000000 0.000000 
#    y 0.000000 1.817850 0.000000 
#    z 0.000000 0.000000 1.826030 
# 
# From -- ./inp_files/1473.got.cif
#   From: 2010.03.12/outbox.cif.g09.slc.cpg/sg19_1_cif.got.tgz:1473.got - 2010.04.10 18:59:41.
