data_PCOD8156299
_publ_section_title
;
Structure prediction by ZEFSAII (Michael W. Deem and Ramdas Pophale) SiO2 
 PCOD8156299
Probable space group: P 21 21 2
;
_chemical_formula_sum "Si O2"
_cell_formula_units_Z 22
_cell_length_a 14.928830
_cell_length_b 5.222293
_cell_length_c 12.831187
_cell_angle_alpha 90.000000
_cell_angle_beta 90.000000
_cell_angle_gamma 90.000000
_cell_volume 1000.354296
_symmetry_space_group_name_H-M "P 21 21 2"
_symmetry_group_IT_number 18
_symmetry_cell_setting 'orthorhombic'
loop_
_space_group_symop_operation_xyz
x,y,z
-x,-y,z
1/2+x,1/2-y,-z
1/2-x,1/2+y,-z
loop_
_atom_site_type_symbol
_atom_site_label
_atom_site_fract_x
_atom_site_fract_y
_atom_site_fract_z
Si Si1 0.598633 0.419583 0.278852
Si Si2 0.599677 0.891913 0.945892
Si Si3 0.834380 0.417426 0.827149
Si Si4 0.500000 0.500000 0.829595
Si Si5 0.842031 0.713157 0.238905
Si Si6 0.753980 0.019461 0.565208
O O1 0.500000 0.500000 0.311758
O O2 0.632928 0.634364 0.200437
O O3 0.654586 0.416933 0.384763
O O4 0.605494 0.142122 0.223334
O O5 0.578779 0.606711 0.905010
O O6 0.500000 0.000000 0.962622
O O7 0.660937 0.019614 0.857752
O O8 0.658954 0.923884 0.048454
O O9 0.732059 0.436266 0.784428
O O10 0.445001 0.688539 0.753360
O O11 0.821370 0.567394 0.346755
O O12 0.777481 0.289642 0.509696
#
# Coordination Sequence:
#
# PCOD8156299 Si02
#       6
#     4   4   4   2   4   4
#     4  11  24  45  69 103 137 179 231 292 347 418
#     4  10  23  40  62 102 141 185 227 276 335 424
#     4  11  25  39  73 100 145 186 228 273 347 416
#     4  10  24  42  66  96 150 178 242 274 346 412
#     4  10  25  42  68  98 138 183 231 291 345 418
#     4  11  25  47  73  96 134 176 234 294 357 412
#
# _framework density 21.992208999999999
#
# number of rings (size 3 to 8) (size 9 to 14) (size 15 to 20)
#    0.000    1.455    0.000    3.818   16.545    0.000 
#    1.636    0.000    0.000    0.000    0.000    0.000 
#    0.000    0.000    0.000    0.000    0.000    0.000 
#
# Total GULP energy -272642.313310 kJ/mol
# GULP energy per Si atom -12392.832423 kJ/mol
# Density = 2.194215 g / cm^3
# Si number density = 21.992209 Si / 1000 Ang^3
#
#
#
# Elastic Constant Matrix: (Units=GPa)
#
#
# Indices 1 2 3 4 5 6 
#
# 1 82.5604 16.9115 34.0550 0.0000 0.0000 0.0000
# 2 16.9115 100.8157 34.4441 0.0000 0.0000 0.0000
# 3 34.0550 34.4441 129.0067 0.0000 0.0000 0.0000
# 4 0.0000 0.0000 0.0000 28.0197 0.0000 0.0000
# 5 0.0000 0.0000 0.0000 0.0000 18.5112 0.0000
# 6 0.0000 0.0000 0.0000 0.0000 0.0000 33.1506
#
#
#
# Elastic Compliance Matrix: (Units=1/GPa)
#
#
# Indices 1 2 3 4 5 6 
#
# 1 0.013717 -0.001171 -0.003308 0.000000 0.000000 0.000000
# 2 -0.001171 0.011015 -0.002632 0.000000 0.000000 0.000000
# 3 -0.003308 -0.002632 0.009328 0.000000 0.000000 0.000000
# 4 0.000000 0.000000 0.000000 0.035689 0.000000 0.000000
# 5 0.000000 0.000000 0.000000 0.000000 0.054021 0.000000
# 6 0.000000 0.000000 0.000000 0.000000 0.000000 0.030165
#
#
# Mechanical properties :
#
#
# Convention : Reuss Voigt Hill
#
# Bulk Modulus (GPa) = 50.41007 53.68934 52.04971
# Shear Modulus (GPa) = 28.60922 31.06780 29.83851
#
# Velocity S-wave (km/s) = 3.61068 3.76263 3.68744
# Velocity P-wave (km/s) = 6.35250 6.58350 6.46903
#
# Compressibility (1/GPa) = 0.01983731
#
# Stress axis : x y z
#
# Youngs Moduli (GPa) = 72.90336 90.78831 107.20916
#
# Poissons Ratio (x) = 0.10628 0.35469
# Poissons Ratio (y) = 0.08534 0.28216
# Poissons Ratio (z) = 0.24119 0.23894
#
# Static dielectric constant tensor:
#      x y z
#    x 4.332630 0.000000 0.000000 
#    y 0.000000 4.165410 0.000000 
#    z 0.000000 0.000000 3.886560 
# 
# 
# High freq. dielectric constant tensor:
#      x y z
#    x 1.867440 0.000000 0.000000 
#    y 0.000000 1.874740 0.000000 
#    z 0.000000 0.000000 1.855920 
# 
# From -- ./inp_files/6030.got.cif
#   From: 2010.03.12/outbox.cif.g09.slc.cpg/sg18_4_cif.got.tgz:6030.got - 2010.04.10 18:53:55.
