data_PCOD8156982
_publ_section_title
;
Structure prediction by ZEFSAII (Michael W. Deem and Ramdas Pophale) SiO2 
 PCOD8156982
Probable space group: P 21 21 21
;
_chemical_formula_sum "Si O2"
_cell_formula_units_Z 32
_cell_length_a 14.187286
_cell_length_b 8.885732
_cell_length_c 12.631981
_cell_angle_alpha 90.000000
_cell_angle_beta 90.000000
_cell_angle_gamma 90.000000
_cell_volume 1592.443373
_symmetry_space_group_name_H-M "P 21 21 21"
_symmetry_group_IT_number 19
_symmetry_cell_setting 'orthorhombic'
loop_
_space_group_symop_operation_xyz
x,y,z
1/2-x,-y,1/2+z
1/2+x,1/2-y,-z
-x,1/2+y,1/2-z
loop_
_atom_site_type_symbol
_atom_site_label
_atom_site_fract_x
_atom_site_fract_y
_atom_site_fract_z
Si Si1 0.920819 0.466578 0.799404
Si Si2 0.572861 0.666873 0.701619
Si Si3 0.907765 0.990091 0.191530
Si Si4 0.723779 0.328438 0.187524
Si Si5 0.396568 0.345993 0.298688
Si Si6 0.733576 0.047435 0.312366
Si Si7 0.774437 0.815693 0.042098
Si Si8 0.663451 0.525717 0.523191
O O1 0.863340 0.570383 0.719359
O O2 0.940904 0.312012 0.738039
O O3 0.856124 0.439716 0.901659
O O4 0.017674 0.546410 0.833229
O O5 0.556975 0.840996 0.669462
O O6 0.496385 0.616081 0.786146
O O7 0.677706 0.641391 0.753275
O O8 0.570184 0.567281 0.593245
O O9 0.838659 0.984699 0.293206
O O10 0.853258 0.924668 0.090736
O O11 0.701772 0.154175 0.212416
O O12 0.750408 0.364883 0.064214
O O13 0.341750 0.412237 0.195760
O O14 0.325247 0.328137 0.397388
O O15 0.733676 0.135537 0.421220
O O16 0.810011 0.645819 0.045926
#
# Coordination Sequence:
#
# PCOD8156982 Si02
#       8
#     4   4   4   4   4   4   4   4
#     4  12  23  42  65  94 131 173 212 271 323 392
#     4   9  20  37  61  90 121 161 207 268 317 371
#     4  10  21  38  63  89 130 156 213 268 314 386
#     4   9  20  41  61  92 123 162 212 268 316 376
#     4  11  26  41  65  97 134 170 220 270 323 393
#     4  10  22  41  66  89 130 166 212 266 324 385
#     4  11  22  41  65  94 122 177 215 261 333 384
#     4  10  22  39  68  87 129 165 215 260 328 381
#
# _framework density 20.094906999999999
#
# number of rings (size 3 to 8) (size 9 to 14) (size 15 to 20)
#    0.750    1.000    2.500    1.500    3.500    0.000 
#    0.000    1.250    2.750    0.000    0.000    0.000 
#    0.000    0.000    0.000    0.000    0.000    0.000 
#
# Total GULP energy -396519.852771 kJ/mol
# GULP energy per Si atom -12391.245399 kJ/mol
# Density = 2.004917 g / cm^3
# Si number density = 20.094907 Si / 1000 Ang^3
#
#
#
# Elastic Constant Matrix: (Units=GPa)
#
#
# Indices 1 2 3 4 5 6 
#
# 1 75.1343 32.5468 12.9006 0.0000 0.0000 0.0000
# 2 32.5468 100.4667 13.8024 0.0000 0.0000 0.0000
# 3 12.9006 13.8024 58.6439 0.0000 0.0000 0.0000
# 4 0.0000 0.0000 0.0000 29.0358 0.0000 0.0000
# 5 0.0000 0.0000 0.0000 0.0000 22.6865 0.0000
# 6 0.0000 0.0000 0.0000 0.0000 0.0000 35.3192
#
#
#
# Elastic Compliance Matrix: (Units=1/GPa)
#
#
# Indices 1 2 3 4 5 6 
#
# 1 0.015788 -0.004793 -0.002345 0.000000 0.000000 0.000000
# 2 -0.004793 0.011741 -0.001709 0.000000 0.000000 0.000000
# 3 -0.002345 -0.001709 0.017970 0.000000 0.000000 0.000000
# 4 0.000000 0.000000 0.000000 0.034440 0.000000 0.000000
# 5 0.000000 0.000000 0.000000 0.000000 0.044079 0.000000
# 6 0.000000 0.000000 0.000000 0.000000 0.000000 0.028313
#
#
# Mechanical properties :
#
#
# Convention : Reuss Voigt Hill
#
# Bulk Modulus (GPa) = 35.96365 39.19383 37.57874
# Shear Modulus (GPa) = 27.88716 29.07462 28.48089
#
# Velocity S-wave (km/s) = 3.72932 3.80789 3.76881
# Velocity P-wave (km/s) = 6.03983 6.23539 6.13839
#
# Compressibility (1/GPa) = 0.02780586
#
# Stress axis : x y z
#
# Youngs Moduli (GPa) = 63.33844 85.17228 55.64767
#
# Poissons Ratio (x) = 0.40819 0.13050
# Poissons Ratio (y) = 0.30355 0.09511
# Poissons Ratio (z) = 0.14854 0.14557
#
# Static dielectric constant tensor:
#      x y z
#    x 3.575330 0.000000 0.000000 
#    y 0.000000 3.833740 0.000000 
#    z 0.000000 0.000000 3.389920 
# 
# 
# High freq. dielectric constant tensor:
#      x y z
#    x 1.780780 0.000000 0.000000 
#    y 0.000000 1.800800 0.000000 
#    z 0.000000 0.000000 1.758200 
# 
# From -- ./inp_files/5228.got.cif
#   From: 2010.03.12/outbox.cif.g09.slc.cpg/sg19_3_cif.got.tgz:5228.got - 2010.04.10 18:59:41.
