data_PCOD8156782
_publ_section_title
;
Structure prediction by ZEFSAII (Michael W. Deem and Ramdas Pophale) SiO2 
 PCOD8156782
Probable space group: P 21 21 21
;
_chemical_formula_sum "Si O2"
_cell_formula_units_Z 28
_cell_length_a 14.819391
_cell_length_b 11.427102
_cell_length_c 8.334194
_cell_angle_alpha 90.000000
_cell_angle_beta 90.000000
_cell_angle_gamma 90.000000
_cell_volume 1411.334852
_symmetry_space_group_name_H-M "P 21 21 21"
_symmetry_group_IT_number 19
_symmetry_cell_setting 'orthorhombic'
loop_
_space_group_symop_operation_xyz
x,y,z
1/2-x,-y,1/2+z
1/2+x,1/2-y,-z
-x,1/2+y,1/2-z
loop_
_atom_site_type_symbol
_atom_site_label
_atom_site_fract_x
_atom_site_fract_y
_atom_site_fract_z
Si Si1 0.022267 0.755858 0.248090
Si Si2 0.435076 0.034392 0.978162
Si Si3 0.585827 0.853872 0.056104
Si Si4 0.823591 0.115163 0.097248
Si Si5 0.338658 0.217691 0.174665
Si Si6 0.662259 0.313063 0.628235
Si Si7 0.776932 0.889723 0.923119
O O1 0.040665 0.880669 0.329131
O O2 0.077850 0.649136 0.331559
O O3 0.914871 0.731951 0.251771
O O4 0.054488 0.751770 0.062401
O O5 0.358793 0.944216 0.924089
O O6 0.395579 0.104875 0.126716
O O7 0.521479 0.965654 0.043106
O O8 0.589572 0.802361 0.235628
O O9 0.684063 0.900954 0.017040
O O10 0.745321 0.104289 0.233145
O O11 0.794360 0.219894 0.979510
O O12 0.835404 0.998395 0.990438
O O13 0.258428 0.179662 0.289097
O O14 0.669702 0.228733 0.471398
#
# Coordination Sequence:
#
# PCOD8156782 Si02
#       7
#     4   4   4   4   4   4   4
#     4   9  21  39  62  86 126 165 205 254 319 369
#     4  10  22  41  61  88 128 161 205 258 311 374
#     4   9  20  40  59  89 122 160 209 256 307 368
#     4  10  21  39  61  93 122 164 206 266 312 370
#     4  10  22  41  61  92 124 163 212 256 313 376
#     4  10  22  38  62  89 121 166 205 254 311 373
#     4  10  20  36  62  87 121 157 214 254 309 370
#
# _framework density 19.839375
#
# number of rings (size 3 to 8) (size 9 to 14) (size 15 to 20)
#    0.000    2.286    0.000    1.714    8.000    4.571 
#   10.286    2.857    0.000    0.000    0.000    0.000 
#    0.000    0.000    0.000    0.000    0.000    0.000 
#
# Total GULP energy -347067.978994 kJ/mol
# GULP energy per Si atom -12395.284964 kJ/mol
# Density = 1.979422 g / cm^3
# Si number density = 19.839375 Si / 1000 Ang^3
#
#
#
# Elastic Constant Matrix: (Units=GPa)
#
#
# Indices 1 2 3 4 5 6 
#
# 1 84.0327 52.1573 40.1065 0.0000 0.0000 0.0000
# 2 52.1573 143.9411 67.6340 0.0000 0.0000 0.0000
# 3 40.1065 67.6340 108.7854 0.0000 0.0000 0.0000
# 4 0.0000 0.0000 0.0000 34.6813 0.0000 0.0000
# 5 0.0000 0.0000 0.0000 0.0000 22.2397 0.0000
# 6 0.0000 0.0000 0.0000 0.0000 0.0000 27.0164
#
#
#
# Elastic Compliance Matrix: (Units=1/GPa)
#
#
# Indices 1 2 3 4 5 6 
#
# 1 0.016136 -0.004311 -0.003269 0.000000 0.000000 0.000000
# 2 -0.004311 0.010966 -0.005228 0.000000 0.000000 0.000000
# 3 -0.003269 -0.005228 0.013648 0.000000 0.000000 0.000000
# 4 0.000000 0.000000 0.000000 0.028834 0.000000 0.000000
# 5 0.000000 0.000000 0.000000 0.000000 0.044965 0.000000
# 6 0.000000 0.000000 0.000000 0.000000 0.000000 0.037015
#
#
# Mechanical properties :
#
#
# Convention : Reuss Voigt Hill
#
# Bulk Modulus (GPa) = 66.07711 72.95054 69.51383
# Shear Modulus (GPa) = 27.43870 28.57822 28.00846
#
# Velocity S-wave (km/s) = 3.72296 3.79948 3.76142
# Velocity P-wave (km/s) = 7.20132 7.48989 7.34702
#
# Compressibility (1/GPa) = 0.01513383
#
# Stress axis : x y z
#
# Youngs Moduli (GPa) = 61.97343 91.18996 73.27007
#
# Poissons Ratio (x) = 0.39312 0.23950
# Poissons Ratio (y) = 0.26717 0.38309
# Poissons Ratio (z) = 0.20257 0.47678
#
# Static dielectric constant tensor:
#      x y z
#    x 3.599030 0.000000 0.000000 
#    y 0.000000 3.621730 0.000000 
#    z 0.000000 0.000000 3.817420 
# 
# 
# High freq. dielectric constant tensor:
#      x y z
#    x 1.769400 0.000000 0.000000 
#    y 0.000000 1.774600 0.000000 
#    z 0.000000 0.000000 1.773020 
# 
# From -- ./inp_files/3902.got.cif
#   From: 2010.03.12/outbox.cif.g09.slc.cpg/sg19_2_cif.got.tgz:3902.got - 2010.04.10 18:59:41.
