data_PCOD8156391
_publ_section_title
;
Structure prediction by ZEFSAII (Michael W. Deem and Ramdas Pophale) SiO2 
 PCOD8156391
Probable space group: P 21 21 2
;
_chemical_formula_sum "Si O2"
_cell_formula_units_Z 20
_cell_length_a 8.925911
_cell_length_b 10.254105
_cell_length_c 10.472371
_cell_angle_alpha 90.000000
_cell_angle_beta 90.000000
_cell_angle_gamma 90.000000
_cell_volume 958.507095
_symmetry_space_group_name_H-M "P 21 21 2"
_symmetry_group_IT_number 18
_symmetry_cell_setting 'orthorhombic'
loop_
_space_group_symop_operation_xyz
x,y,z
-x,-y,z
1/2+x,1/2-y,-z
1/2-x,1/2+y,-z
loop_
_atom_site_type_symbol
_atom_site_label
_atom_site_fract_x
_atom_site_fract_y
_atom_site_fract_z
Si Si1 0.540271 0.710800 0.425060
Si Si2 0.528124 0.298476 0.807056
Si Si3 0.500000 0.500000 0.024004
Si Si4 0.199880 0.661685 0.366288
Si Si5 0.731207 0.589722 0.221279
Si Si6 0.000000 0.000000 0.387920
O O1 0.362927 0.716609 0.404029
O O2 0.597724 0.836498 0.504446
O O3 0.616445 0.690347 0.288145
O O4 0.595993 0.590499 0.516579
O O5 0.370290 0.249438 0.748034
O O6 0.634063 0.175655 0.833557
O O7 0.597484 0.403865 0.705079
O O8 0.504927 0.368205 0.941972
O O9 0.648634 0.509548 0.110131
O O10 0.203960 0.512434 0.322375
#
# Coordination Sequence:
#
# PCOD8156391 Si02
#       6
#     4   4   2   4   4   2
#     4  11  20  38  67  93 139 167 215 274 341 403
#     4  10  25  40  67  92 132 174 227 276 325 394
#     4  11  25  46  70  92 135 181 230 284 326 381
#     4  11  22  40  65 103 130 174 219 270 337 410
#     4  12  23  42  68  97 128 181 227 273 339 396
#     4   9  17  40  58  94 125 169 200 260 336 385
#
# _framework density 20.865781999999999
#
# number of rings (size 3 to 8) (size 9 to 14) (size 15 to 20)
#    0.000    1.200    4.000    3.000    2.800    0.000 
#    0.000    0.000    0.000    0.000    0.000    0.000 
#    0.000    0.000    0.000    0.000    0.000    0.000 
#
# Total GULP energy -247842.919090 kJ/mol
# GULP energy per Si atom -12392.145954 kJ/mol
# Density = 2.081829 g / cm^3
# Si number density = 20.865782 Si / 1000 Ang^3
#
#
#
# Elastic Constant Matrix: (Units=GPa)
#
#
# Indices 1 2 3 4 5 6 
#
# 1 120.5421 58.3740 44.7674 0.0000 0.0000 0.0000
# 2 58.3740 91.3264 43.7719 0.0000 0.0000 0.0000
# 3 44.7674 43.7719 100.9398 0.0000 0.0000 0.0000
# 4 0.0000 0.0000 0.0000 40.5113 0.0000 0.0000
# 5 0.0000 0.0000 0.0000 0.0000 34.8242 0.0000
# 6 0.0000 0.0000 0.0000 0.0000 0.0000 30.9351
#
#
#
# Elastic Compliance Matrix: (Units=1/GPa)
#
#
# Indices 1 2 3 4 5 6 
#
# 1 0.012546 -0.006757 -0.002634 0.000000 0.000000 0.000000
# 2 -0.006757 0.017461 -0.004575 0.000000 0.000000 0.000000
# 3 -0.002634 -0.004575 0.013059 0.000000 0.000000 0.000000
# 4 0.000000 0.000000 0.000000 0.024684 0.000000 0.000000
# 5 0.000000 0.000000 0.000000 0.000000 0.028716 0.000000
# 6 0.000000 0.000000 0.000000 0.000000 0.000000 0.032326
#
#
# Mechanical properties :
#
#
# Convention : Reuss Voigt Hill
#
# Bulk Modulus (GPa) = 66.07578 67.40387 66.73983
# Shear Modulus (GPa) = 30.90803 32.31381 31.61092
#
# Velocity S-wave (km/s) = 3.85291 3.93956 3.89648
# Velocity P-wave (km/s) = 7.17837 7.28472 7.23174
#
# Compressibility (1/GPa) = 0.01513414
#
# Stress axis : x y z
#
# Youngs Moduli (GPa) = 79.70532 57.26911 76.57360
#
# Poissons Ratio (x) = 0.38695 0.20172
# Poissons Ratio (y) = 0.53854 0.35035
# Poissons Ratio (z) = 0.20997 0.26203
#
# Static dielectric constant tensor:
#      x y z
#    x 3.579730 0.000000 0.000000 
#    y 0.000000 3.922330 0.000000 
#    z 0.000000 0.000000 3.862920 
# 
# 
# High freq. dielectric constant tensor:
#      x y z
#    x 1.795790 0.000000 0.000000 
#    y 0.000000 1.817320 0.000000 
#    z 0.000000 0.000000 1.819600 
# 
# From -- ./inp_files/2996.got.cif
#   From: 2010.03.12/outbox.cif.g09.slc.cpg/sg18_2_cif.got.tgz:2996.got - 2010.04.10 18:53:55.
