data_PCOD8156325
_publ_section_title
;
Structure prediction by ZEFSAII (Michael W. Deem and Ramdas Pophale) SiO2 
 PCOD8156325
Probable space group: P 21 21 2
;
_chemical_formula_sum "Si O2"
_cell_formula_units_Z 32
_cell_length_a 9.021479
_cell_length_b 13.936311
_cell_length_c 11.414294
_cell_angle_alpha 90.000000
_cell_angle_beta 90.000000
_cell_angle_gamma 90.000000
_cell_volume 1435.075091
_symmetry_space_group_name_H-M "P 21 21 2"
_symmetry_group_IT_number 18
_symmetry_cell_setting 'orthorhombic'
loop_
_space_group_symop_operation_xyz
x,y,z
-x,-y,z
1/2+x,1/2-y,-z
1/2-x,1/2+y,-z
loop_
_atom_site_type_symbol
_atom_site_label
_atom_site_fract_x
_atom_site_fract_y
_atom_site_fract_z
Si Si1 0.239444 0.224005 0.861572
Si Si2 0.172444 0.141968 0.482181
Si Si3 0.580107 0.271912 0.896421
Si Si4 0.594568 0.121452 0.281604
Si Si5 0.906578 0.584133 0.243179
Si Si6 0.001294 0.671320 0.473323
Si Si7 0.766123 0.424582 0.754668
Si Si8 0.149879 0.044398 0.724633
O O1 0.401494 0.266383 0.890627
O O2 0.173306 0.280425 0.751324
O O3 0.233969 0.114201 0.817471
O O4 0.130518 0.236269 0.970415
O O5 0.062347 0.225174 0.444160
O O6 0.330483 0.191803 0.495453
O O7 0.186150 0.070808 0.371650
O O8 0.114052 0.090191 0.598455
O O9 0.636967 0.176035 0.833277
O O10 0.652078 0.370432 0.843376
O O11 0.587080 0.114543 0.423501
O O12 0.424470 0.128770 0.237556
O O13 0.690267 0.035969 0.220974
O O14 0.006719 0.609851 0.355209
O O15 0.752860 0.546991 0.293948
O O16 0.000000 0.500000 0.175225
O O17 0.000000 0.000000 0.779390
#
# Coordination Sequence:
#
# PCOD8156325 Si02
#       8
#     4   4   4   4   4   4   4   4
#     4  12  27  49  70 101 138 180 240 295 350 416
#     4  11  22  41  66 106 141 184 223 278 350 418
#     4  12  27  47  73  99 136 186 236 295 352 415
#     4  10  23  43  69  99 141 179 223 283 346 416
#     4  12  24  47  72 102 141 187 233 291 358 432
#     4  11  22  38  71  99 146 180 222 282 349 417
#     4  10  23  44  69 101 137 183 226 276 351 414
#     4  12  28  45  72 107 143 183 239 293 358 428
#
# _framework density 22.298484999999999
#
# number of rings (size 3 to 8) (size 9 to 14) (size 15 to 20)
#    0.000    0.750    5.000    1.500    7.000    1.500 
#    4.500    0.000    0.000    0.000    0.000    0.000 
#    0.000    0.000    0.000    0.000    0.000    0.000 
#
# Total GULP energy -396611.398739 kJ/mol
# GULP energy per Si atom -12394.106211 kJ/mol
# Density = 2.224773 g / cm^3
# Si number density = 22.298485 Si / 1000 Ang^3
#
#
#
# Elastic Constant Matrix: (Units=GPa)
#
#
# Indices 1 2 3 4 5 6 
#
# 1 84.3093 17.5509 23.6428 0.0000 0.0000 0.0000
# 2 17.5509 73.0506 27.0629 0.0000 0.0000 0.0000
# 3 23.6428 27.0629 88.6846 0.0000 0.0000 0.0000
# 4 0.0000 0.0000 0.0000 17.6689 0.0000 0.0000
# 5 0.0000 0.0000 0.0000 0.0000 35.9115 0.0000
# 6 0.0000 0.0000 0.0000 0.0000 0.0000 42.7189
#
#
#
# Elastic Compliance Matrix: (Units=1/GPa)
#
#
# Indices 1 2 3 4 5 6 
#
# 1 0.013096 -0.002089 -0.002854 0.000000 0.000000 0.000000
# 2 -0.002089 0.015767 -0.004255 0.000000 0.000000 0.000000
# 3 -0.002854 -0.004255 0.013335 0.000000 0.000000 0.000000
# 4 0.000000 0.000000 0.000000 0.056596 0.000000 0.000000
# 5 0.000000 0.000000 0.000000 0.000000 0.027846 0.000000
# 6 0.000000 0.000000 0.000000 0.000000 0.000000 0.023409
#
#
# Mechanical properties :
#
#
# Convention : Reuss Voigt Hill
#
# Bulk Modulus (GPa) = 42.01082 42.50639 42.25861
# Shear Modulus (GPa) = 28.34790 31.11239 29.73014
#
# Velocity S-wave (km/s) = 3.56939 3.73938 3.65537
# Velocity P-wave (km/s) = 5.98903 6.14393 6.06697
#
# Compressibility (1/GPa) = 0.02380339
#
# Stress axis : x y z
#
# Youngs Moduli (GPa) = 76.35744 63.42256 74.99037
#
# Poissons Ratio (x) = 0.13250 0.21401
# Poissons Ratio (y) = 0.15953 0.31905
# Poissons Ratio (z) = 0.21791 0.26983
#
# Static dielectric constant tensor:
#      x y z
#    x 4.076140 0.000000 0.000000 
#    y 0.000000 4.022130 0.000000 
#    z 0.000000 0.000000 3.880920 
# 
# 
# High freq. dielectric constant tensor:
#      x y z
#    x 1.889320 0.000000 0.000000 
#    y 0.000000 1.879920 0.000000 
#    z 0.000000 0.000000 1.862640 
# 
# From -- ./inp_files/5675.got.cif
#   From: 2010.03.12/outbox.cif.g09.slc.cpg/sg18_3_cif.got.tgz:5675.got - 2010.04.10 18:53:55.
