data_PCOD8156657
_publ_section_title
;
Structure prediction by ZEFSAII (Michael W. Deem and Ramdas Pophale) SiO2 
 PCOD8156657
Probable space group: P 21 21 21
;
_chemical_formula_sum "Si O2"
_cell_formula_units_Z 24
_cell_length_a 9.036545
_cell_length_b 8.072353
_cell_length_c 17.114090
_cell_angle_alpha 90.000000
_cell_angle_beta 90.000000
_cell_angle_gamma 90.000000
_cell_volume 1248.407509
_symmetry_space_group_name_H-M "P 21 21 21"
_symmetry_group_IT_number 19
_symmetry_cell_setting 'orthorhombic'
loop_
_space_group_symop_operation_xyz
x,y,z
1/2-x,-y,1/2+z
1/2+x,1/2-y,-z
-x,1/2+y,1/2-z
loop_
_atom_site_type_symbol
_atom_site_label
_atom_site_fract_x
_atom_site_fract_y
_atom_site_fract_z
Si Si1 0.340823 0.324685 0.581590
Si Si2 0.609761 0.898966 0.679857
Si Si3 0.666890 0.199012 0.577367
Si Si4 0.826523 0.694369 0.775467
Si Si5 0.850253 0.322965 0.718874
Si Si6 0.131167 0.370912 0.181742
O O1 0.509514 0.282510 0.564710
O O2 0.248792 0.297500 0.504210
O O3 0.280093 0.203539 0.649221
O O4 0.328669 0.516905 0.607358
O O5 0.757018 0.800430 0.704800
O O6 0.479301 0.774313 0.656604
O O7 0.650672 0.009100 0.605101
O O8 0.553181 0.015814 0.751257
O O9 0.756539 0.308490 0.639655
O O10 0.844871 0.507868 0.749457
O O11 0.982858 0.771919 0.799031
O O12 0.784016 0.202296 0.785055
#
# Coordination Sequence:
#
# PCOD8156657 Si02
#       6
#     4   4   4   4   4   4
#     4  11  23  39  58  82 116 152 187 231 285 335
#     4  10  19  36  60  85 111 147 192 232 277 332
#     4  11  23  39  58  82 116 152 187 231 285 335
#     4  11  21  37  61  87 114 147 189 233 277 333
#     4  11  21  37  61  87 114 147 189 233 277 333
#     4  10  19  36  60  85 111 147 192 232 277 332
#
# _framework density 19.224492999999999
#
# number of rings (size 3 to 8) (size 9 to 14) (size 15 to 20)
#    0.000    1.333    0.000   11.000    0.000    0.000 
#    0.000   11.667    0.000    0.000    0.000    0.000 
#    0.000    0.000    0.000    0.000    0.000    0.000 
#
# Total GULP energy -297722.862027 kJ/mol
# GULP energy per Si atom -12405.119251 kJ/mol
# Density = 1.918074 g / cm^3
# Si number density = 19.224493 Si / 1000 Ang^3
#
#
#
# Elastic Constant Matrix: (Units=GPa)
#
#
# Indices 1 2 3 4 5 6 
#
# 1 58.2160 -13.1094 8.1801 0.0000 0.0000 0.0000
# 2 -13.1094 87.3527 21.0194 0.0000 0.0000 0.0000
# 3 8.1801 21.0194 71.0765 0.0000 0.0000 0.0000
# 4 0.0000 0.0000 0.0000 12.1304 0.0000 0.0000
# 5 0.0000 0.0000 0.0000 0.0000 2.9793 0.0000
# 6 0.0000 0.0000 0.0000 0.0000 0.0000 33.1005
#
#
#
# Elastic Compliance Matrix: (Units=1/GPa)
#
#
# Indices 1 2 3 4 5 6 
#
# 1 0.018415 0.003524 -0.003162 0.000000 0.000000 0.000000
# 2 0.003524 0.012999 -0.004250 0.000000 0.000000 0.000000
# 3 -0.003162 -0.004250 0.015690 0.000000 0.000000 0.000000
# 4 0.000000 0.000000 0.000000 0.082437 0.000000 0.000000
# 5 0.000000 0.000000 0.000000 0.000000 0.335644 0.000000
# 6 0.000000 0.000000 0.000000 0.000000 0.000000 0.030211
#
#
# Mechanical properties :
#
#
# Convention : Reuss Voigt Hill
#
# Bulk Modulus (GPa) = 25.42558 27.64727 26.53643
# Shear Modulus (GPa) = 9.68463 23.01239 16.34851
#
# Velocity S-wave (km/s) = 2.24691 3.46357 2.91933
# Velocity P-wave (km/s) = 4.47055 5.51431 5.01963
#
# Compressibility (1/GPa) = 0.03933047
#
# Stress axis : x y z
#
# Youngs Moduli (GPa) = 54.30258 76.92647 63.73467
#
# Poissons Ratio (x) = -0.27112 0.20151
# Poissons Ratio (y) = -0.19139 0.27087
# Poissons Ratio (z) = 0.17169 0.32693
#
# Static dielectric constant tensor:
#      x y z
#    x 3.678240 0.000000 0.000000 
#    y 0.000000 3.774160 0.000000 
#    z 0.000000 0.000000 3.343860 
# 
# 
# High freq. dielectric constant tensor:
#      x y z
#    x 1.763400 0.000000 0.000000 
#    y 0.000000 1.760940 0.000000 
#    z 0.000000 0.000000 1.725110 
# 
# From -- ./inp_files/2888.got.cif
#   From: 2010.03.12/outbox.cif.g09.slc.cpg/sg19_2_cif.got.tgz:2888.got - 2010.04.10 18:59:41.
