data_PCOD8156550
_publ_section_title
;
Structure prediction by ZEFSAII (Michael W. Deem and Ramdas Pophale) SiO2 
 PCOD8156550
Probable space group: P 21 21 21
;
_chemical_formula_sum "Si O2"
_cell_formula_units_Z 32
_cell_length_a 9.069984
_cell_length_b 10.661725
_cell_length_c 17.049065
_cell_angle_alpha 90.000000
_cell_angle_beta 90.000000
_cell_angle_gamma 90.000000
_cell_volume 1648.673145
_symmetry_space_group_name_H-M "P 21 21 21"
_symmetry_group_IT_number 19
_symmetry_cell_setting 'orthorhombic'
loop_
_space_group_symop_operation_xyz
x,y,z
1/2-x,-y,1/2+z
1/2+x,1/2-y,-z
-x,1/2+y,1/2-z
loop_
_atom_site_type_symbol
_atom_site_label
_atom_site_fract_x
_atom_site_fract_y
_atom_site_fract_z
Si Si1 0.699753 0.603148 0.928997
Si Si2 0.373973 0.873569 0.769660
Si Si3 0.853833 0.407423 0.606438
Si Si4 0.874932 0.769205 0.814279
Si Si5 0.834603 0.004528 0.730421
Si Si6 0.385813 0.094670 0.145818
Si Si7 0.961489 0.898964 0.197024
Si Si8 0.988488 0.650533 0.663776
O O1 0.784219 0.716986 0.887126
O O2 0.803575 0.478604 0.924605
O O3 0.545841 0.586128 0.884617
O O4 0.660319 0.637850 0.017304
O O5 0.306878 0.887317 0.856587
O O6 0.235852 0.871427 0.710542
O O7 0.467170 0.742440 0.766474
O O8 0.474363 0.996752 0.756757
O O9 0.899623 0.554797 0.608120
O O10 0.970352 0.323755 0.654522
O O11 0.897757 0.668448 0.745112
O O12 0.781442 0.874271 0.768411
O O13 0.707507 0.065024 0.677144
O O14 0.858310 0.091014 0.807107
O O15 0.985292 0.993425 0.680367
O O16 0.469016 0.221861 0.117195
#
# Coordination Sequence:
#
# PCOD8156550 Si02
#       8
#     4   4   4   4   4   4   4   4
#     4  11  24  38  55  94 134 157 194 262 340 367
#     4  11  21  40  61  91 123 160 213 263 313 361
#     4  11  23  38  64  90 127 163 206 258 314 389
#     4  10  19  37  63  89 114 166 213 255 293 384
#     4  10  17  34  65  90 107 161 221 252 291 360
#     4  10  19  37  65  85 118 162 211 255 299 386
#     4  11  23  37  62  96 125 160 206 275 316 363
#     4  10  16  37  65  85 106 163 222 242 288 374
#
# _framework density 19.409547
#
# number of rings (size 3 to 8) (size 9 to 14) (size 15 to 20)
#    0.000    1.500    6.250    1.500    1.750    1.000 
#    0.000    5.000    2.750    0.000    0.000    0.000 
#    0.000    0.000    0.000    0.000    0.000    0.000 
#
# Total GULP energy -396484.079393 kJ/mol
# GULP energy per Si atom -12390.127481 kJ/mol
# Density = 1.936537 g / cm^3
# Si number density = 19.409547 Si / 1000 Ang^3
#
#
#
# Elastic Constant Matrix: (Units=GPa)
#
#
# Indices 1 2 3 4 5 6 
#
# 1 73.2748 30.5546 15.3700 0.0000 0.0000 0.0000
# 2 30.5546 82.6740 1.2170 0.0000 0.0000 0.0000
# 3 15.3700 1.2170 62.8351 0.0000 0.0000 0.0000
# 4 0.0000 0.0000 0.0000 21.7984 0.0000 0.0000
# 5 0.0000 0.0000 0.0000 0.0000 21.0421 0.0000
# 6 0.0000 0.0000 0.0000 0.0000 0.0000 36.6043
#
#
#
# Elastic Compliance Matrix: (Units=1/GPa)
#
#
# Indices 1 2 3 4 5 6 
#
# 1 0.017112 -0.006264 -0.004064 0.000000 0.000000 0.000000
# 2 -0.006264 0.014392 0.001254 0.000000 0.000000 0.000000
# 3 -0.004064 0.001254 0.016885 0.000000 0.000000 0.000000
# 4 0.000000 0.000000 0.000000 0.045875 0.000000 0.000000
# 5 0.000000 0.000000 0.000000 0.000000 0.047524 0.000000
# 6 0.000000 0.000000 0.000000 0.000000 0.000000 0.027319
#
#
# Mechanical properties :
#
#
# Convention : Reuss Voigt Hill
#
# Bulk Modulus (GPa) = 33.07038 34.78522 33.92780
# Shear Modulus (GPa) = 25.33739 27.33178 26.33458
#
# Velocity S-wave (km/s) = 3.61696 3.75662 3.68745
# Velocity P-wave (km/s) = 5.87524 6.06439 5.97056
#
# Compressibility (1/GPa) = 0.03023854
#
# Stress axis : x y z
#
# Youngs Moduli (GPa) = 58.43858 69.48096 59.22557
#
# Poissons Ratio (x) = 0.43526 0.24072
# Poissons Ratio (y) = 0.36608 -0.07424
# Poissons Ratio (z) = 0.23752 -0.08710
#
# Static dielectric constant tensor:
#      x y z
#    x 3.582240 0.000000 0.000000 
#    y 0.000000 4.016760 0.000000 
#    z 0.000000 0.000000 3.054020 
# 
# 
# High freq. dielectric constant tensor:
#      x y z
#    x 1.758400 0.000000 0.000000 
#    y 0.000000 1.779460 0.000000 
#    z 0.000000 0.000000 1.704260 
# 
# From -- ./inp_files/6661.got.cif
#   From: 2010.03.12/outbox.cif.g09.slc.cpg/sg19_4_cif.got.tgz:6661.got - 2010.04.10 18:59:41.
