data_PCOD8156284
_publ_section_title
;
Structure prediction by ZEFSAII (Michael W. Deem and Ramdas Pophale) SiO2 
 PCOD8156284
Probable space group: P 21 21 2
;
_chemical_formula_sum "Si O2"
_cell_formula_units_Z 26
_cell_length_a 9.004976
_cell_length_b 10.523824
_cell_length_c 12.488091
_cell_angle_alpha 90.000000
_cell_angle_beta 90.000000
_cell_angle_gamma 90.000000
_cell_volume 1183.456204
_symmetry_space_group_name_H-M "P 21 21 2"
_symmetry_group_IT_number 18
_symmetry_cell_setting 'orthorhombic'
loop_
_space_group_symop_operation_xyz
x,y,z
-x,-y,z
1/2+x,1/2-y,-z
1/2-x,1/2+y,-z
loop_
_atom_site_type_symbol
_atom_site_label
_atom_site_fract_x
_atom_site_fract_y
_atom_site_fract_z
Si Si1 0.459239 0.819139 0.822514
Si Si2 0.469143 0.230537 0.384520
Si Si3 0.000000 0.000000 0.724916
Si Si4 0.766473 0.459686 0.115805
Si Si5 0.381201 0.743014 0.604824
Si Si6 0.205946 0.059568 0.123618
Si Si7 0.500000 0.000000 0.233694
Si Si8 0.000000 0.000000 0.287928
O O1 0.634638 0.834256 0.853792
O O2 0.428130 0.846071 0.695976
O O3 0.385191 0.684553 0.843921
O O4 0.374269 0.920834 0.894043
O O5 0.495056 0.374011 0.346348
O O6 0.558863 0.205099 0.493084
O O7 0.293563 0.211932 0.400211
O O8 0.537954 0.123362 0.305617
O O9 0.145545 0.012211 0.795572
O O10 0.682065 0.451902 0.002600
O O11 0.464273 0.612846 0.632001
O O12 0.377787 0.055469 0.152373
O O13 0.132020 0.956339 0.204456
#
# Coordination Sequence:
#
# PCOD8156284 Si02
#       8
#     4   4   2   4   4   4   2   2
#     4  10  23  47  65 103 146 184 236 298 357 439
#     4  12  28  45  75 105 143 185 245 301 368 433
#     4  12  26  48  72 112 142 180 246 302 354 444
#     4  11  24  43  74 101 144 188 235 298 363 423
#     4  11  25  48  69 102 142 187 236 298 367 428
#     4  11  24  43  71 106 144 191 241 285 364 433
#     4  12  24  46  70 108 146 186 248 298 344 454
#     4  10  22  46  68  98 148 182 236 294 352 438
#
# _framework density 21.969550000000002
#
# number of rings (size 3 to 8) (size 9 to 14) (size 15 to 20)
#    0.000    0.923    4.615    1.846    4.308    9.846 
#    0.000    0.000    0.000    0.000    0.000    0.000 
#    0.000    0.000    0.000    0.000    0.000    0.000 
#
# Total GULP energy -322143.546090 kJ/mol
# GULP energy per Si atom -12390.136388 kJ/mol
# Density = 2.191955 g / cm^3
# Si number density = 21.969550 Si / 1000 Ang^3
#
#
#
# Elastic Constant Matrix: (Units=GPa)
#
#
# Indices 1 2 3 4 5 6 
#
# 1 63.7646 5.9658 4.4630 0.0000 0.0000 0.0000
# 2 5.9658 93.6763 16.3124 0.0000 0.0000 0.0000
# 3 4.4630 16.3124 107.8262 0.0000 0.0000 0.0000
# 4 0.0000 0.0000 0.0000 19.6970 0.0000 0.0000
# 5 0.0000 0.0000 0.0000 0.0000 30.5699 0.0000
# 6 0.0000 0.0000 0.0000 0.0000 0.0000 38.1556
#
#
#
# Elastic Compliance Matrix: (Units=1/GPa)
#
#
# Indices 1 2 3 4 5 6 
#
# 1 0.015805 -0.000917 -0.000515 0.000000 0.000000 0.000000
# 2 -0.000917 0.011017 -0.001629 0.000000 0.000000 0.000000
# 3 -0.000515 -0.001629 0.009542 0.000000 0.000000 0.000000
# 4 0.000000 0.000000 0.000000 0.050769 0.000000 0.000000
# 5 0.000000 0.000000 0.000000 0.000000 0.032712 0.000000
# 6 0.000000 0.000000 0.000000 0.000000 0.000000 0.026208
#
#
# Mechanical properties :
#
#
# Convention : Reuss Voigt Hill
#
# Bulk Modulus (GPa) = 33.06710 35.41662 34.24186
# Shear Modulus (GPa) = 30.81557 33.58623 32.20090
#
# Velocity S-wave (km/s) = 3.74926 3.91418 3.83261
# Velocity P-wave (km/s) = 5.81606 6.04843 5.93339
#
# Compressibility (1/GPa) = 0.03024154
#
# Stress axis : x y z
#
# Youngs Moduli (GPa) = 63.27302 90.76829 104.80066
#
# Poissons Ratio (x) = 0.08321 0.05402
# Poissons Ratio (y) = 0.05801 0.17070
# Poissons Ratio (z) = 0.03262 0.14784
#
# Static dielectric constant tensor:
#      x y z
#    x 4.290900 0.000000 0.000000 
#    y 0.000000 4.057310 0.000000 
#    z 0.000000 0.000000 4.194940 
# 
# 
# High freq. dielectric constant tensor:
#      x y z
#    x 1.876570 0.000000 0.000000 
#    y 0.000000 1.857840 0.000000 
#    z 0.000000 0.000000 1.875980 
# 
# From -- ./inp_files/5591.got.cif
#   From: 2010.03.12/outbox.cif.g09.slc.cpg/sg18_3_cif.got.tgz:5591.got - 2010.04.10 18:53:55.
