data_PCOD8156688
_publ_section_title
;
Structure prediction by ZEFSAII (Michael W. Deem and Ramdas Pophale) SiO2 
 PCOD8156688
Probable space group: P 21 21 21
;
_chemical_formula_sum "Si O2"
_cell_formula_units_Z 28
_cell_length_a 10.672828
_cell_length_b 14.255306
_cell_length_c 8.039121
_cell_angle_alpha 90.000000
_cell_angle_beta 90.000000
_cell_angle_gamma 90.000000
_cell_volume 1223.107474
_symmetry_space_group_name_H-M "P 21 21 21"
_symmetry_group_IT_number 19
_symmetry_cell_setting 'orthorhombic'
loop_
_space_group_symop_operation_xyz
x,y,z
1/2-x,-y,1/2+z
1/2+x,1/2-y,-z
-x,1/2+y,1/2-z
loop_
_atom_site_type_symbol
_atom_site_label
_atom_site_fract_x
_atom_site_fract_y
_atom_site_fract_z
Si Si1 0.518692 0.246354 0.907667
Si Si2 0.827033 0.192518 0.492661
Si Si3 0.257830 0.767201 0.359068
Si Si4 0.741591 0.530899 0.756310
Si Si5 0.395687 0.595572 0.851662
Si Si6 0.613529 0.604125 0.078472
Si Si7 0.496561 0.924093 0.797440
O O1 0.372146 0.244169 0.965358
O O2 0.527958 0.170520 0.759425
O O3 0.548825 0.350412 0.842084
O O4 0.621117 0.221425 0.049447
O O5 0.759970 0.215018 0.317399
O O6 0.743877 0.129018 0.613572
O O7 0.857310 0.285896 0.596351
O O8 0.953748 0.133599 0.457450
O O9 0.288842 0.876081 0.335727
O O10 0.704300 0.554219 0.943652
O O11 0.853012 0.452284 0.747921
O O12 0.621442 0.488335 0.657362
O O13 0.469977 0.589212 0.026629
O O14 0.391891 0.492721 0.767935
#
# Coordination Sequence:
#
# PCOD8156688 Si02
#       7
#     4   4   4   4   4   4   4
#     4  11  21  42  65  89 127 170 206 266 319 372
#     4  10  22  39  60  90 125 160 207 262 314 378
#     4  10  21  41  62  90 127 163 213 261 309 378
#     4  10  19  38  62  87 119 161 211 250 304 372
#     4  11  21  41  63  85 126 169 202 259 329 366
#     4  10  20  38  62  89 118 161 206 257 308 369
#     4  10  20  39  62  88 124 166 205 257 319 373
#
# _framework density 22.892510999999999
#
# number of rings (size 3 to 8) (size 9 to 14) (size 15 to 20)
#    0.000    1.714    5.714    2.571    0.000    2.286 
#    7.714    0.000    0.000    0.000    0.000    0.000 
#    0.000    0.000    0.000    0.000    0.000    0.000 
#
# Total GULP energy -347081.280756 kJ/mol
# GULP energy per Si atom -12395.760027 kJ/mol
# Density = 2.284041 g / cm^3
# Si number density = 22.892511 Si / 1000 Ang^3
#
#
#
# Elastic Constant Matrix: (Units=GPa)
#
#
# Indices 1 2 3 4 5 6 
#
# 1 41.1210 -2.7712 -2.2948 0.0000 0.0000 0.0000
# 2 -2.7712 103.9687 5.5454 0.0000 0.0000 0.0000
# 3 -2.2948 5.5454 12.7898 0.0000 0.0000 0.0000
# 4 0.0000 0.0000 0.0000 29.3476 0.0000 0.0000
# 5 0.0000 0.0000 0.0000 0.0000 30.9768 0.0000
# 6 0.0000 0.0000 0.0000 0.0000 0.0000 39.5707
#
#
#
# Elastic Compliance Matrix: (Units=1/GPa)
#
#
# Indices 1 2 3 4 5 6 
#
# 1 0.024583 0.000430 0.004224 0.000000 0.000000 0.000000
# 2 0.000430 0.009853 -0.004195 0.000000 0.000000 0.000000
# 3 0.004224 -0.004195 0.080764 0.000000 0.000000 0.000000
# 4 0.000000 0.000000 0.000000 0.034074 0.000000 0.000000
# 5 0.000000 0.000000 0.000000 0.000000 0.032282 0.000000
# 6 0.000000 0.000000 0.000000 0.000000 0.000000 0.025271
#
#
# Mechanical properties :
#
#
# Convention : Reuss Voigt Hill
#
# Bulk Modulus (GPa) = 8.61184 17.64868 13.13026
# Shear Modulus (GPa) = 20.44017 30.47236 25.45627
#
# Velocity S-wave (km/s) = 2.99134 3.65239 3.33827
# Velocity P-wave (km/s) = 3.96243 5.05101 4.53947
#
# Compressibility (1/GPa) = 0.11611925
#
# Stress axis : x y z
#
# Youngs Moduli (GPa) = 40.67822 101.48685 12.38176
#
# Poissons Ratio (x) = -0.04363 -0.05231
# Poissons Ratio (y) = -0.01749 0.05194
# Poissons Ratio (z) = -0.17184 0.42575
#
# Static dielectric constant tensor:
#      x y z
#    x 3.939440 0.000000 0.000000 
#    y 0.000000 4.341510 0.000000 
#    z 0.000000 0.000000 3.688060 
# 
# 
# High freq. dielectric constant tensor:
#      x y z
#    x 1.894310 0.000000 0.000000 
#    y 0.000000 1.921910 0.000000 
#    z 0.000000 0.000000 1.862670 
# 
# From -- ./inp_files/3535.got.cif
#   From: 2010.03.12/outbox.cif.g09.slc.cpg/sg19_2_cif.got.tgz:3535.got - 2010.04.10 18:59:41.
