data_PCOD8156786
_publ_section_title
;
Structure prediction by ZEFSAII (Michael W. Deem and Ramdas Pophale) SiO2 
 PCOD8156786
Probable space group: P 21 21 21
;
_chemical_formula_sum "Si O2"
_cell_formula_units_Z 32
_cell_length_a 8.904279
_cell_length_b 20.185965
_cell_length_c 9.284079
_cell_angle_alpha 90.000000
_cell_angle_beta 90.000000
_cell_angle_gamma 90.000000
_cell_volume 1668.733954
_symmetry_space_group_name_H-M "P 21 21 21"
_symmetry_group_IT_number 19
_symmetry_cell_setting 'orthorhombic'
loop_
_space_group_symop_operation_xyz
x,y,z
1/2-x,-y,1/2+z
1/2+x,1/2-y,-z
-x,1/2+y,1/2-z
loop_
_atom_site_type_symbol
_atom_site_label
_atom_site_fract_x
_atom_site_fract_y
_atom_site_fract_z
Si Si1 0.075355 0.125682 0.674106
Si Si2 0.613909 0.003722 0.155419
Si Si3 0.395416 0.871621 0.840284
Si Si4 0.569930 0.249298 0.858006
Si Si5 0.415610 0.499821 0.675797
Si Si6 0.095554 0.880327 0.680985
Si Si7 0.879729 0.380251 0.153383
Si Si8 0.917268 0.232718 0.851114
O O1 0.117160 0.140353 0.509916
O O2 0.222730 0.128720 0.769526
O O3 0.000585 0.054498 0.693087
O O4 0.958553 0.180919 0.727513
O O5 0.774587 0.990188 0.222146
O O6 0.541573 0.071011 0.218649
O O7 0.639874 0.010859 0.986054
O O8 0.444641 0.802703 0.768788
O O9 0.234792 0.896875 0.783960
O O10 0.517835 0.926912 0.801434
O O11 0.478190 0.184468 0.813836
O O12 0.741111 0.228313 0.885087
O O13 0.507285 0.283076 0.002945
O O14 0.538271 0.555157 0.717426
O O15 0.149984 0.889294 0.516359
O O16 0.038300 0.805648 0.706363
#
# Coordination Sequence:
#
# PCOD8156786 Si02
#       8
#     4   4   4   4   4   4   4   4
#     4  11  22  36  56  83 115 144 177 227 282 328
#     4  10  22  38  57  82 111 143 182 229 274 324
#     4  10  22  37  55  83 114 144 178 225 283 331
#     4  10  21  37  59  83 109 146 190 227 268 324
#     4  10  22  38  57  83 111 143 185 228 275 327
#     4   9  20  39  58  79 107 145 188 224 264 325
#     4  10  21  38  60  81 107 148 191 226 267 326
#     4  10  20  37  58  82 110 145 189 228 265 323
#
# _framework density 19.176214000000002
#
# number of rings (size 3 to 8) (size 9 to 14) (size 15 to 20)
#    0.000    2.000    0.000    3.750    0.000    9.000 
#    0.000    2.500    0.000    0.000    0.000    0.000 
#    0.000    0.000    0.000    0.000    0.000    0.000 
#
# Total GULP energy -396950.817467 kJ/mol
# GULP energy per Si atom -12404.713046 kJ/mol
# Density = 1.913257 g / cm^3
# Si number density = 19.176214 Si / 1000 Ang^3
#
#
#
# Elastic Constant Matrix: (Units=GPa)
#
#
# Indices 1 2 3 4 5 6 
#
# 1 78.4413 16.3064 30.2202 0.0000 0.0000 0.0000
# 2 16.3064 70.7455 25.4375 0.0000 0.0000 0.0000
# 3 30.2202 25.4375 65.6112 0.0000 0.0000 0.0000
# 4 0.0000 0.0000 0.0000 27.8161 0.0000 0.0000
# 5 0.0000 0.0000 0.0000 0.0000 35.7250 0.0000
# 6 0.0000 0.0000 0.0000 0.0000 0.0000 27.1140
#
#
#
# Elastic Compliance Matrix: (Units=1/GPa)
#
#
# Indices 1 2 3 4 5 6 
#
# 1 0.015582 -0.001175 -0.006722 0.000000 0.000000 0.000000
# 2 -0.001175 0.016513 -0.005861 0.000000 0.000000 0.000000
# 3 -0.006722 -0.005861 0.020610 0.000000 0.000000 0.000000
# 4 0.000000 0.000000 0.000000 0.035950 0.000000 0.000000
# 5 0.000000 0.000000 0.000000 0.000000 0.027992 0.000000
# 6 0.000000 0.000000 0.000000 0.000000 0.000000 0.036881
#
#
# Mechanical properties :
#
#
# Convention : Reuss Voigt Hill
#
# Bulk Modulus (GPa) = 39.69812 39.85848 39.77830
# Shear Modulus (GPa) = 26.39353 27.65328 27.02340
#
# Velocity S-wave (km/s) = 3.71397 3.80157 3.75802
# Velocity P-wave (km/s) = 6.25605 6.33243 6.29436
#
# Compressibility (1/GPa) = 0.02519011
#
# Stress axis : x y z
#
# Youngs Moduli (GPa) = 64.17594 60.55686 48.52096
#
# Poissons Ratio (x) = 0.07114 0.32614
# Poissons Ratio (y) = 0.07539 0.28439
# Poissons Ratio (z) = 0.43137 0.35494
#
# Static dielectric constant tensor:
#      x y z
#    x 3.459540 0.000000 0.000000 
#    y 0.000000 3.720750 0.000000 
#    z 0.000000 0.000000 3.444770 
# 
# 
# High freq. dielectric constant tensor:
#      x y z
#    x 1.751830 0.000000 0.000000 
#    y 0.000000 1.761130 0.000000 
#    z 0.000000 0.000000 1.739070 
# 
# From -- ./inp_files/3134.got.cif
#   From: 2010.03.12/outbox.cif.g09.slc.cpg/sg19_2_cif.got.tgz:3134.got - 2010.04.10 18:59:41.
