data_PCOD8156580
_publ_section_title
;
Structure prediction by ZEFSAII (Michael W. Deem and Ramdas Pophale) SiO2 
 PCOD8156580
Probable space group: P 21 21 21
;
_chemical_formula_sum "Si O2"
_cell_formula_units_Z 28
_cell_length_a 5.136465
_cell_length_b 13.294405
_cell_length_c 22.272184
_cell_angle_alpha 90.000000
_cell_angle_beta 90.000000
_cell_angle_gamma 90.000000
_cell_volume 1520.883835
_symmetry_space_group_name_H-M "P 21 21 21"
_symmetry_group_IT_number 19
_symmetry_cell_setting 'orthorhombic'
loop_
_space_group_symop_operation_xyz
x,y,z
1/2-x,-y,1/2+z
1/2+x,1/2-y,-z
-x,1/2+y,1/2-z
loop_
_atom_site_type_symbol
_atom_site_label
_atom_site_fract_x
_atom_site_fract_y
_atom_site_fract_z
Si Si1 0.225223 0.012872 0.718750
Si Si2 0.091962 0.236391 0.749742
Si Si3 0.958688 0.862199 0.643560
Si Si4 0.040013 0.381979 0.493072
Si Si5 0.452077 0.950475 0.602159
Si Si6 0.096382 0.158140 0.299116
Si Si7 0.042232 0.169277 0.437096
O O1 0.118746 0.118085 0.741242
O O2 0.421326 0.022287 0.661211
O O3 0.366210 0.953809 0.772867
O O4 0.977973 0.947072 0.696350
O O5 0.026232 0.256490 0.820357
O O6 0.367802 0.287674 0.736899
O O7 0.861525 0.276701 0.706701
O O8 0.693993 0.875043 0.607330
O O9 0.199471 0.877250 0.597229
O O10 0.990056 0.483404 0.456689
O O11 0.023092 0.288712 0.447414
O O12 0.820951 0.372795 0.543555
O O13 0.319355 0.387516 0.525140
O O14 0.007239 0.147185 0.367439
#
# Coordination Sequence:
#
# PCOD8156580 Si02
#       7
#     4   4   4   4   4   4   4
#     4   9  22  31  55  76 108 142 177 212 282 318
#     4  11  20  33  53  75 110 146 167 220 270 321
#     4   9  19  32  45  78 102 127 185 206 255 324
#     4  10  20  33  51  74 102 146 181 208 264 323
#     4  10  18  34  50  72 105 135 175 220 249 317
#     4  11  22  36  51  80 116 140 179 223 265 335
#     4  10  21  33  49  77 107 140 182 215 259 324
#
# _framework density 18.410347999999999
#
# number of rings (size 3 to 8) (size 9 to 14) (size 15 to 20)
#    0.857    1.143    1.429    2.571    4.000    1.143 
#    0.000    0.000    0.000    0.000    0.000    4.000 
#    0.000    0.000    0.000    0.000    0.000    0.000 
#
# Total GULP energy -347048.415155 kJ/mol
# GULP energy per Si atom -12394.586256 kJ/mol
# Density = 1.836845 g / cm^3
# Si number density = 18.410348 Si / 1000 Ang^3
#
#
#
# Elastic Constant Matrix: (Units=GPa)
#
#
# Indices 1 2 3 4 5 6 
#
# 1 101.4884 12.0266 2.2748 0.0000 0.0000 0.0000
# 2 12.0266 50.9042 8.5807 0.0000 0.0000 0.0000
# 3 2.2748 8.5807 51.1827 0.0000 0.0000 0.0000
# 4 0.0000 0.0000 0.0000 21.8308 0.0000 0.0000
# 5 0.0000 0.0000 0.0000 0.0000 19.8349 0.0000
# 6 0.0000 0.0000 0.0000 0.0000 0.0000 17.6089
#
#
#
# Elastic Compliance Matrix: (Units=1/GPa)
#
#
# Indices 1 2 3 4 5 6 
#
# 1 0.010137 -0.002387 -0.000050 0.000000 0.000000 0.000000
# 2 -0.002387 0.020778 -0.003377 0.000000 0.000000 0.000000
# 3 -0.000050 -0.003377 0.020106 0.000000 0.000000 0.000000
# 4 0.000000 0.000000 0.000000 0.045807 0.000000 0.000000
# 5 0.000000 0.000000 0.000000 0.000000 0.050416 0.000000
# 6 0.000000 0.000000 0.000000 0.000000 0.000000 0.056789
#
#
# Mechanical properties :
#
#
# Convention : Reuss Voigt Hill
#
# Bulk Modulus (GPa) = 25.38530 27.70439 26.54484
# Shear Modulus (GPa) = 21.85378 23.90114 22.87746
#
# Velocity S-wave (km/s) = 3.44908 3.60703 3.52894
# Velocity P-wave (km/s) = 5.44794 5.69460 5.57263
#
# Compressibility (1/GPa) = 0.03939288
#
# Stress axis : x y z
#
# Youngs Moduli (GPa) = 98.64573 48.12809 49.73563
#
# Poissons Ratio (x) = 0.11486 0.00251
# Poissons Ratio (y) = 0.23542 0.16797
# Poissons Ratio (z) = 0.00498 0.16254
#
# Static dielectric constant tensor:
#      x y z
#    x 3.533430 0.000000 0.000000 
#    y 0.000000 3.085000 0.000000 
#    z 0.000000 0.000000 3.121550 
# 
# 
# High freq. dielectric constant tensor:
#      x y z
#    x 1.732980 0.000000 0.000000 
#    y 0.000000 1.680920 0.000000 
#    z 0.000000 0.000000 1.692890 
# 
# From -- ./inp_files/6880.got.cif
#   From: 2010.03.12/outbox.cif.g09.slc.cpg/sg19_4_cif.got.tgz:6880.got - 2010.04.10 18:59:41.
