data_PCOD8156193
_publ_section_title
;
Structure prediction by ZEFSAII (Michael W. Deem and Ramdas Pophale) SiO2 
 PCOD8156193
Probable space group: P 21 21 2
;
_chemical_formula_sum "Si O2"
_cell_formula_units_Z 30
_cell_length_a 7.245575
_cell_length_b 16.132655
_cell_length_c 11.915388
_cell_angle_alpha 90.000000
_cell_angle_beta 90.000000
_cell_angle_gamma 90.000000
_cell_volume 1392.794014
_symmetry_space_group_name_H-M "P 21 21 2"
_symmetry_group_IT_number 18
_symmetry_cell_setting 'orthorhombic'
loop_
_space_group_symop_operation_xyz
x,y,z
-x,-y,z
1/2+x,1/2-y,-z
1/2-x,1/2+y,-z
loop_
_atom_site_type_symbol
_atom_site_label
_atom_site_fract_x
_atom_site_fract_y
_atom_site_fract_z
Si Si1 0.839093 0.151169 0.582307
Si Si2 0.988230 0.770079 0.377548
Si Si3 0.608893 0.333411 0.853668
Si Si4 0.292798 0.492758 0.266202
Si Si5 0.738391 0.236127 0.040025
Si Si6 0.677204 0.321036 0.267156
Si Si7 0.000000 0.000000 0.070897
Si Si8 0.850044 0.565623 0.045816
O O1 0.958842 0.159072 0.468180
O O2 0.648851 0.202188 0.569110
O O3 0.971766 0.183792 0.681922
O O4 0.789596 0.055335 0.613122
O O5 0.872909 0.808411 0.275214
O O6 0.183243 0.736024 0.335820
O O7 0.431194 0.296413 0.916194
O O8 0.602241 0.432714 0.851408
O O9 0.772340 0.296343 0.931670
O O10 0.500000 0.500000 0.218661
O O11 0.227044 0.587955 0.275507
O O12 0.160809 0.440626 0.181816
O O13 0.647206 0.290136 0.139664
O O14 0.608358 0.158568 0.998338
O O15 0.852072 0.042594 0.993169
O O16 0.000000 0.500000 0.999097
#
# Coordination Sequence:
#
# PCOD8156193 Si02
#       8
#     4   4   4   4   4   4   2   4
#     4  11  23  41  65  88 125 162 216 268 324 367
#     4  11  23  42  64  92 121 168 212 263 321 386
#     4  10  23  39  62  90 124 166 208 252 322 385
#     4  10  22  39  62  91 123 165 213 272 316 366
#     4  10  23  37  61  95 128 166 207 252 325 388
#     4  10  23  42  64  94 127 164 217 272 313 383
#     4  10  22  42  54  86 130 164 202 264 312 386
#     4  11  23  36  61  93 132 169 207 261 319 387
#
# _framework density 21.539438000000001
#
# number of rings (size 3 to 8) (size 9 to 14) (size 15 to 20)
#    0.000    1.600    2.000    1.600   14.933    0.000 
#    3.600    0.000    0.000    0.000    0.000    0.000 
#    0.000    0.000    0.000    0.000    0.000    0.000 
#
# Total GULP energy -371765.148617 kJ/mol
# GULP energy per Si atom -12392.171621 kJ/mol
# Density = 2.149041 g / cm^3
# Si number density = 21.539438 Si / 1000 Ang^3
#
#
#
# Elastic Constant Matrix: (Units=GPa)
#
#
# Indices 1 2 3 4 5 6 
#
# 1 40.1143 7.6829 7.8222 0.0000 0.0000 0.0000
# 2 7.6829 137.0513 60.9177 0.0000 0.0000 0.0000
# 3 7.8222 60.9177 126.3334 0.0000 0.0000 0.0000
# 4 0.0000 0.0000 0.0000 36.7782 0.0000 0.0000
# 5 0.0000 0.0000 0.0000 0.0000 23.5545 0.0000
# 6 0.0000 0.0000 0.0000 0.0000 0.0000 22.1765
#
#
#
# Elastic Compliance Matrix: (Units=1/GPa)
#
#
# Indices 1 2 3 4 5 6 
#
# 1 0.025324 -0.000920 -0.001124 0.000000 0.000000 0.000000
# 2 -0.000920 0.009320 -0.004437 0.000000 0.000000 0.000000
# 3 -0.001124 -0.004437 0.010125 0.000000 0.000000 0.000000
# 4 0.000000 0.000000 0.000000 0.027190 0.000000 0.000000
# 5 0.000000 0.000000 0.000000 0.000000 0.042455 0.000000
# 6 0.000000 0.000000 0.000000 0.000000 0.000000 0.045093
#
#
# Mechanical properties :
#
#
# Convention : Reuss Voigt Hill
#
# Bulk Modulus (GPa) = 31.44039 50.70497 41.07268
# Shear Modulus (GPa) = 27.31161 31.64026 29.47594
#
# Velocity S-wave (km/s) = 3.56474 3.83684 3.70329
# Velocity P-wave (km/s) = 5.61885 6.57420 6.11521
#
# Compressibility (1/GPa) = 0.03180622
#
# Stress axis : x y z
#
# Youngs Moduli (GPa) = 39.48794 107.29097 98.76677
#
# Poissons Ratio (x) = 0.09869 0.11106
# Poissons Ratio (y) = 0.03632 0.43826
# Poissons Ratio (z) = 0.04440 0.47609
#
# Static dielectric constant tensor:
#      x y z
#    x 3.747550 0.000000 0.000000 
#    y 0.000000 4.243270 0.000000 
#    z 0.000000 0.000000 3.891080 
# 
# 
# High freq. dielectric constant tensor:
#      x y z
#    x 1.847930 0.000000 0.000000 
#    y 0.000000 1.844620 0.000000 
#    z 0.000000 0.000000 1.827150 
# 
# From -- ./inp_files/5636.got.cif
#   From: 2010.03.12/outbox.cif.g09.slc.cpg/sg18_3_cif.got.tgz:5636.got - 2010.04.10 18:53:55.
