data_PCOD8156474
_publ_section_title
;
Structure prediction by ZEFSAII (Michael W. Deem and Ramdas Pophale) SiO2 
 PCOD8156474
Probable space group: P 21 21 2
;
_chemical_formula_sum "Si O2"
_cell_formula_units_Z 26
_cell_length_a 10.987006
_cell_length_b 11.040748
_cell_length_c 9.370532
_cell_angle_alpha 90.000000
_cell_angle_beta 90.000000
_cell_angle_gamma 90.000000
_cell_volume 1136.690178
_symmetry_space_group_name_H-M "P 21 21 2"
_symmetry_group_IT_number 18
_symmetry_cell_setting 'orthorhombic'
loop_
_space_group_symop_operation_xyz
x,y,z
-x,-y,z
1/2+x,1/2-y,-z
1/2-x,1/2+y,-z
loop_
_atom_site_type_symbol
_atom_site_label
_atom_site_fract_x
_atom_site_fract_y
_atom_site_fract_z
Si Si1 0.169784 0.028271 0.705179
Si Si2 0.565246 0.250140 0.928416
Si Si3 0.727424 0.738685 0.291514
Si Si4 0.086817 0.226522 0.522349
Si Si5 0.500000 0.500000 0.036327
Si Si6 0.974252 0.638706 0.775486
Si Si7 0.567066 0.875479 0.685157
O O1 0.209876 0.897466 0.650977
O O2 0.066924 0.098920 0.609518
O O3 0.120628 0.009902 0.865878
O O4 0.288401 0.113895 0.696999
O O5 0.697054 0.252048 0.854623
O O6 0.477565 0.160773 0.842354
O O7 0.501063 0.382103 0.935327
O O8 0.585664 0.197561 0.085962
O O9 0.799357 0.801757 0.420302
O O10 0.599628 0.798019 0.265235
O O11 0.113176 0.332227 0.640688
O O12 0.970619 0.269192 0.427317
O O13 0.000000 0.500000 0.801490
O O14 0.500000 0.000000 0.638826
#
# Coordination Sequence:
#
# PCOD8156474 Si02
#       7
#     4   4   4   4   2   4   4
#     4  12  23  46  77 101 154 197 244 319 377 453
#     4  11  25  47  69 109 147 198 250 308 383 459
#     4  11  26  46  75 105 148 195 252 318 386 447
#     4  11  24  44  70 110 141 196 249 310 382 453
#     4  12  26  44  68 106 152 192 250 318 378 454
#     4  12  26  45  72 107 142 190 257 306 378 469
#     4  11  23  47  76 104 148 198 252 309 385 461
#
# _framework density 22.873428000000001
#
# number of rings (size 3 to 8) (size 9 to 14) (size 15 to 20)
#    0.000    0.615    6.154    1.846    4.308    0.000 
#    2.769    9.231    0.000    0.000    0.000    0.000 
#    0.000    0.000    0.000    0.000    0.000    0.000 
#
# Total GULP energy -322329.606848 kJ/mol
# GULP energy per Si atom -12397.292571 kJ/mol
# Density = 2.282137 g / cm^3
# Si number density = 22.873428 Si / 1000 Ang^3
#
#
#
# Elastic Constant Matrix: (Units=GPa)
#
#
# Indices 1 2 3 4 5 6 
#
# 1 73.9206 8.5192 33.0231 0.0000 0.0000 0.0000
# 2 8.5192 110.3499 32.0529 0.0000 0.0000 0.0000
# 3 33.0231 32.0529 125.6927 0.0000 0.0000 0.0000
# 4 0.0000 0.0000 0.0000 46.1052 0.0000 0.0000
# 5 0.0000 0.0000 0.0000 0.0000 33.5483 0.0000
# 6 0.0000 0.0000 0.0000 0.0000 0.0000 33.3897
#
#
#
# Elastic Compliance Matrix: (Units=1/GPa)
#
#
# Indices 1 2 3 4 5 6 
#
# 1 0.015327 -0.000015 -0.004023 0.000000 0.000000 0.000000
# 2 -0.000015 0.009787 -0.002492 0.000000 0.000000 0.000000
# 3 -0.004023 -0.002492 0.009648 0.000000 0.000000 0.000000
# 4 0.000000 0.000000 0.000000 0.021690 0.000000 0.000000
# 5 0.000000 0.000000 0.000000 0.000000 0.029808 0.000000
# 6 0.000000 0.000000 0.000000 0.000000 0.000000 0.029949
#
#
# Mechanical properties :
#
#
# Convention : Reuss Voigt Hill
#
# Bulk Modulus (GPa) = 46.07669 50.79484 48.43577
# Shear Modulus (GPa) = 36.62928 38.36651 37.49790
#
# Velocity S-wave (km/s) = 4.00608 4.09998 4.05330
# Velocity P-wave (km/s) = 6.44873 6.68343 6.56713
#
# Compressibility (1/GPa) = 0.02170295
#
# Stress axis : x y z
#
# Youngs Moduli (GPa) = 65.24437 102.17597 103.64449
#
# Poissons Ratio (x) = 0.00150 0.41697
# Poissons Ratio (y) = 0.00096 0.25828
# Poissons Ratio (z) = 0.26248 0.25462
#
# Static dielectric constant tensor:
#      x y z
#    x 4.025160 0.000000 0.000000 
#    y 0.000000 4.098610 0.000000 
#    z 0.000000 0.000000 4.435650 
# 
# 
# High freq. dielectric constant tensor:
#      x y z
#    x 1.899420 0.000000 0.000000 
#    y 0.000000 1.907850 0.000000 
#    z 0.000000 0.000000 1.912500 
# 
# From -- ./inp_files/3770.got.cif
#   From: 2010.03.12/outbox.cif.g09.slc.cpg/sg18_2_cif.got.tgz:3770.got - 2010.04.10 18:53:55.
