data_PCOD8156573
_publ_section_title
;
Structure prediction by ZEFSAII (Michael W. Deem and Ramdas Pophale) SiO2 
 PCOD8156573
Probable space group: P 21 21 21
;
_chemical_formula_sum "Si O2"
_cell_formula_units_Z 32
_cell_length_a 22.157618
_cell_length_b 7.853125
_cell_length_c 9.540467
_cell_angle_alpha 90.000000
_cell_angle_beta 90.000000
_cell_angle_gamma 90.000000
_cell_volume 1660.103689
_symmetry_space_group_name_H-M "P 21 21 21"
_symmetry_group_IT_number 19
_symmetry_cell_setting 'orthorhombic'
loop_
_space_group_symop_operation_xyz
x,y,z
1/2-x,-y,1/2+z
1/2+x,1/2-y,-z
-x,1/2+y,1/2-z
loop_
_atom_site_type_symbol
_atom_site_label
_atom_site_fract_x
_atom_site_fract_y
_atom_site_fract_z
Si Si1 0.305220 0.551694 0.185224
Si Si2 0.491020 0.850087 0.629401
Si Si3 0.422827 0.650265 0.843399
Si Si4 0.601252 0.672029 0.546537
Si Si5 0.390975 0.831535 0.101310
Si Si6 0.810323 0.062067 0.122153
Si Si7 0.463560 0.010775 0.338567
Si Si8 0.581771 0.858773 0.258455
O O1 0.329486 0.739901 0.147902
O O2 0.246268 0.569014 0.277184
O O3 0.355128 0.450217 0.280583
O O4 0.289425 0.457178 0.039524
O O5 0.437086 0.804696 0.736723
O O6 0.534177 0.681796 0.615270
O O7 0.459922 0.919142 0.488211
O O8 0.532877 0.996756 0.693368
O O9 0.353044 0.594356 0.828371
O O10 0.432891 0.703843 0.007556
O O11 0.623637 0.484915 0.506589
O O12 0.653020 0.760393 0.640501
O O13 0.591431 0.791036 0.413103
O O14 0.422292 0.896315 0.239649
O O15 0.530029 0.004691 0.266984
O O16 0.438021 0.204751 0.345346
#
# Coordination Sequence:
#
# PCOD8156573 Si02
#       8
#     4   4   4   4   4   4   4   4
#     4  10  20  37  57  76 104 144 183 219 268 321
#     4  10  19  33  55  84 111 143 180 217 269 332
#     4  10  20  35  54  78 113 147 175 219 276 326
#     4   8  17  34  54  77 108 140 171 214 272 324
#     4  10  19  34  56  81 109 141 173 222 282 325
#     4   9  20  38  56  75 105 143 183 221 264 319
#     4  10  18  32  55  83 110 137 178 224 269 329
#     4   9  17  31  53  80 110 139 171 218 270 314
#
# _framework density 19.275903
#
# number of rings (size 3 to 8) (size 9 to 14) (size 15 to 20)
#    0.000    2.500    0.000    4.500    0.000    1.000 
#    0.000   15.000    0.000    1.500    0.000    0.000 
#    0.000    0.000    0.000    0.000    0.000    0.000 
#
# Total GULP energy -396542.799950 kJ/mol
# GULP energy per Si atom -12391.962498 kJ/mol
# Density = 1.923203 g / cm^3
# Si number density = 19.275903 Si / 1000 Ang^3
#
#
#
# Elastic Constant Matrix: (Units=GPa)
#
#
# Indices 1 2 3 4 5 6 
#
# 1 117.0974 48.9696 61.8619 0.0000 0.0000 0.0000
# 2 48.9696 98.3209 29.4853 0.0000 0.0000 0.0000
# 3 61.8619 29.4853 86.9628 0.0000 0.0000 0.0000
# 4 0.0000 0.0000 0.0000 27.8612 0.0000 0.0000
# 5 0.0000 0.0000 0.0000 0.0000 36.3769 0.0000
# 6 0.0000 0.0000 0.0000 0.0000 0.0000 22.2452
#
#
#
# Elastic Compliance Matrix: (Units=1/GPa)
#
#
# Indices 1 2 3 4 5 6 
#
# 1 0.015572 -0.004936 -0.009404 0.000000 0.000000 0.000000
# 2 -0.004936 0.012886 -0.000858 0.000000 0.000000 0.000000
# 3 -0.009404 -0.000858 0.018480 0.000000 0.000000 0.000000
# 4 0.000000 0.000000 0.000000 0.035892 0.000000 0.000000
# 5 0.000000 0.000000 0.000000 0.000000 0.027490 0.000000
# 6 0.000000 0.000000 0.000000 0.000000 0.000000 0.044954
#
#
# Mechanical properties :
#
#
# Convention : Reuss Voigt Hill
#
# Bulk Modulus (GPa) = 60.44965 64.77940 62.61452
# Shear Modulus (GPa) = 26.15292 28.10094 27.12693
#
# Velocity S-wave (km/s) = 3.68743 3.82229 3.75547
# Velocity P-wave (km/s) = 7.03973 7.29104 7.16649
#
# Compressibility (1/GPa) = 0.01654269
#
# Stress axis : x y z
#
# Youngs Moduli (GPa) = 64.21802 77.60122 54.11359
#
# Poissons Ratio (x) = 0.38301 0.50887
# Poissons Ratio (y) = 0.31696 0.04644
# Poissons Ratio (z) = 0.60389 0.06660
#
# Static dielectric constant tensor:
#      x y z
#    x 3.415120 0.000000 0.000000 
#    y 0.000000 3.787170 0.000000 
#    z 0.000000 0.000000 3.374500 
# 
# 
# High freq. dielectric constant tensor:
#      x y z
#    x 1.728280 0.000000 0.000000 
#    y 0.000000 1.758040 0.000000 
#    z 0.000000 0.000000 1.734280 
# 
# From -- ./inp_files/4374.got.cif
#   From: 2010.03.12/outbox.cif.g09.slc.cpg/sg19_3_cif.got.tgz:4374.got - 2010.04.10 18:59:41.
