data_PCOD8156916
_publ_section_title
;
Structure prediction by ZEFSAII (Michael W. Deem and Ramdas Pophale) SiO2 
 PCOD8156916
Probable space group: P 21 21 21
;
_chemical_formula_sum "Si O2"
_cell_formula_units_Z 16
_cell_length_a 5.107131
_cell_length_b 12.613078
_cell_length_c 11.139197
_cell_angle_alpha 90.000000
_cell_angle_beta 90.000000
_cell_angle_gamma 90.000000
_cell_volume 717.549662
_symmetry_space_group_name_H-M "P 21 21 21"
_symmetry_group_IT_number 19
_symmetry_cell_setting 'orthorhombic'
loop_
_space_group_symop_operation_xyz
x,y,z
1/2-x,-y,1/2+z
1/2+x,1/2-y,-z
-x,1/2+y,1/2-z
loop_
_atom_site_type_symbol
_atom_site_label
_atom_site_fract_x
_atom_site_fract_y
_atom_site_fract_z
Si Si1 0.493997 0.791309 0.679274
Si Si2 0.305243 0.720375 0.928775
Si Si3 0.785656 0.022132 0.053926
Si Si4 0.727468 0.618954 0.533506
O O1 0.373433 0.787300 0.810703
O O2 0.669989 0.898297 0.667360
O O3 0.669831 0.686706 0.653196
O O4 0.263217 0.796982 0.577827
O O5 0.312063 0.596395 0.897746
O O6 0.515028 0.746467 0.031704
O O7 0.504647 0.037201 0.994059
O O8 0.008932 0.048599 0.953054
#
# Coordination Sequence:
#
# PCOD8156916 Si02
#       4
#     4   4   4   4
#     4  10  23  44  70  98 128 174 228 273 316 399
#     4  12  29  44  63 100 146 174 210 273 344 403
#     4  10  22  42  68 100 126 176 217 272 338 370
#     4  10  20  42  71  98 120 166 239 272 308 380
#
# _framework density 22.298107999999999
#
# number of rings (size 3 to 8) (size 9 to 14) (size 15 to 20)
#    1.500    0.000    2.500    1.500    3.500    4.000 
#    0.000    0.000    0.000    0.000    0.000    0.000 
#    0.000    0.000    0.000    0.000    0.000    0.000 
#
# Total GULP energy -198345.290166 kJ/mol
# GULP energy per Si atom -12396.580635 kJ/mol
# Density = 2.224736 g / cm^3
# Si number density = 22.298108 Si / 1000 Ang^3
#
#
#
# Elastic Constant Matrix: (Units=GPa)
#
#
# Indices 1 2 3 4 5 6 
#
# 1 99.2807 5.4262 -14.5198 0.0000 0.0000 0.0000
# 2 5.4262 109.6565 -4.5505 0.0000 0.0000 0.0000
# 3 -14.5198 -4.5505 51.4522 0.0000 0.0000 0.0000
# 4 0.0000 0.0000 0.0000 21.2475 0.0000 0.0000
# 5 0.0000 0.0000 0.0000 0.0000 25.7322 0.0000
# 6 0.0000 0.0000 0.0000 0.0000 0.0000 34.9229
#
#
#
# Elastic Compliance Matrix: (Units=1/GPa)
#
#
# Indices 1 2 3 4 5 6 
#
# 1 0.010523 -0.000399 0.002934 0.000000 0.000000 0.000000
# 2 -0.000399 0.009168 0.000698 0.000000 0.000000 0.000000
# 3 0.002934 0.000698 0.020325 0.000000 0.000000 0.000000
# 4 0.000000 0.000000 0.000000 0.047064 0.000000 0.000000
# 5 0.000000 0.000000 0.000000 0.000000 0.038862 0.000000
# 6 0.000000 0.000000 0.000000 0.000000 0.000000 0.028634
#
#
# Mechanical properties :
#
#
# Convention : Reuss Voigt Hill
#
# Bulk Modulus (GPa) = 21.51263 25.90012 23.70638
# Shear Modulus (GPa) = 30.56143 34.64943 32.60543
#
# Velocity S-wave (km/s) = 3.70616 3.94625 3.82809
# Velocity P-wave (km/s) = 5.28988 5.69249 5.49487
#
# Compressibility (1/GPa) = 0.04648432
#
# Stress axis : x y z
#
# Youngs Moduli (GPa) = 95.02620 109.07377 49.19963
#
# Poissons Ratio (x) = 0.04352 -0.14437
# Poissons Ratio (y) = 0.03791 -0.03435
# Poissons Ratio (z) = -0.27885 -0.07616
#
# Static dielectric constant tensor:
#      x y z
#    x 4.067510 0.000000 0.000000 
#    y 0.000000 3.884650 0.000000 
#    z 0.000000 0.000000 3.425810 
# 
# 
# High freq. dielectric constant tensor:
#      x y z
#    x 1.887230 0.000000 0.000000 
#    y 0.000000 1.881780 0.000000 
#    z 0.000000 0.000000 1.833800 
# 
# From -- ./inp_files/761.got.cif
#   From: 2010.03.12/outbox.cif.g09.slc.cpg/sg19_1_cif.got.tgz:761.got - 2010.04.10 18:59:41.
