data_PCOD8156590
_publ_section_title
;
Structure prediction by ZEFSAII (Michael W. Deem and Ramdas Pophale) SiO2 
 PCOD8156590
Probable space group: P 21 21 21
;
_chemical_formula_sum "Si O2"
_cell_formula_units_Z 28
_cell_length_a 6.363618
_cell_length_b 12.420376
_cell_length_c 18.434263
_cell_angle_alpha 90.000000
_cell_angle_beta 90.000000
_cell_angle_gamma 90.000000
_cell_volume 1457.017017
_symmetry_space_group_name_H-M "P 21 21 21"
_symmetry_group_IT_number 19
_symmetry_cell_setting 'orthorhombic'
loop_
_space_group_symop_operation_xyz
x,y,z
1/2-x,-y,1/2+z
1/2+x,1/2-y,-z
-x,1/2+y,1/2-z
loop_
_atom_site_type_symbol
_atom_site_label
_atom_site_fract_x
_atom_site_fract_y
_atom_site_fract_z
Si Si1 0.666414 0.741898 0.830653
Si Si2 0.020307 0.478300 0.813170
Si Si3 0.990575 0.660468 0.931845
Si Si4 0.990049 0.742068 0.702629
Si Si5 0.737431 0.459489 0.174237
Si Si6 0.371962 0.599486 0.745813
Si Si7 0.672582 0.347295 0.587121
O O1 0.778415 0.719285 0.907062
O O2 0.537567 0.637093 0.806208
O O3 0.496731 0.834558 0.847630
O O4 0.845653 0.770936 0.772368
O O5 0.244881 0.495953 0.774006
O O6 0.018639 0.554497 0.883017
O O7 0.989532 0.355103 0.839826
O O8 0.841247 0.507137 0.754685
O O9 0.189314 0.739905 0.923187
O O10 0.953586 0.624184 0.014185
O O11 0.217086 0.699284 0.727655
O O12 0.882388 0.651157 0.651943
O O13 0.687794 0.550524 0.113727
O O14 0.988330 0.435872 0.176419
#
# Coordination Sequence:
#
# PCOD8156590 Si02
#       7
#     4   4   4   4   4   4   4
#     4  11  18  37  57  90 119 151 194 243 304 351
#     4  11  20  37  60  89 119 156 203 252 294 360
#     4  12  23  38  61  89 119 161 204 248 309 356
#     4  10  21  36  61  88 120 155 202 250 297 358
#     4  10  22  36  59  89 120 157 202 250 306 352
#     4  10  18  35  59  88 115 153 198 245 299 347
#     4  12  24  39  61  89 128 159 199 256 305 368
#
# _framework density 19.217347
#
# number of rings (size 3 to 8) (size 9 to 14) (size 15 to 20)
#    0.000    1.143    7.143    2.571    0.000    2.286 
#    0.000    0.000    3.143    0.000    0.000    0.000 
#    0.000    0.000    0.000    0.000    0.000    0.000 
#
# Total GULP energy -346990.517775 kJ/mol
# GULP energy per Si atom -12392.518492 kJ/mol
# Density = 1.917361 g / cm^3
# Si number density = 19.217347 Si / 1000 Ang^3
#
#
#
# Elastic Constant Matrix: (Units=GPa)
#
#
# Indices 1 2 3 4 5 6 
#
# 1 92.9680 28.0502 27.5430 0.0000 0.0000 0.0000
# 2 28.0502 141.2688 44.5440 0.0000 0.0000 0.0000
# 3 27.5430 44.5440 76.8996 0.0000 0.0000 0.0000
# 4 0.0000 0.0000 0.0000 26.3099 0.0000 0.0000
# 5 0.0000 0.0000 0.0000 0.0000 22.0393 0.0000
# 6 0.0000 0.0000 0.0000 0.0000 0.0000 17.7851
#
#
#
# Elastic Compliance Matrix: (Units=1/GPa)
#
#
# Indices 1 2 3 4 5 6 
#
# 1 0.012220 -0.001280 -0.003635 0.000000 0.000000 0.000000
# 2 -0.001280 0.008795 -0.004636 0.000000 0.000000 0.000000
# 3 -0.003635 -0.004636 0.016991 0.000000 0.000000 0.000000
# 4 0.000000 0.000000 0.000000 0.038009 0.000000 0.000000
# 5 0.000000 0.000000 0.000000 0.000000 0.045373 0.000000
# 6 0.000000 0.000000 0.000000 0.000000 0.000000 0.056227
#
#
# Mechanical properties :
#
#
# Convention : Reuss Voigt Hill
#
# Bulk Modulus (GPa) = 52.90069 56.82340 54.86204
# Shear Modulus (GPa) = 24.62840 27.29346 25.96093
#
# Velocity S-wave (km/s) = 3.58379 3.77271 3.67946
# Velocity P-wave (km/s) = 6.68671 6.97214 6.83092
#
# Compressibility (1/GPa) = 0.01890335
#
# Stress axis : x y z
#
# Youngs Moduli (GPa) = 81.83579 113.70615 58.85386
#
# Poissons Ratio (x) = 0.14555 0.21394
# Poissons Ratio (y) = 0.10476 0.27283
# Poissons Ratio (z) = 0.29749 0.52712
#
# Static dielectric constant tensor:
#      x y z
#    x 3.791990 0.000000 0.000000 
#    y 0.000000 3.607850 0.000000 
#    z 0.000000 0.000000 3.148900 
# 
# 
# High freq. dielectric constant tensor:
#      x y z
#    x 1.766540 0.000000 0.000000 
#    y 0.000000 1.747590 0.000000 
#    z 0.000000 0.000000 1.700050 
# 
# From -- ./inp_files/6877.got.cif
#   From: 2010.03.12/outbox.cif.g09.slc.cpg/sg19_4_cif.got.tgz:6877.got - 2010.04.10 18:59:41.
