data_PCOD8156121
_publ_section_title
;
Structure prediction by ZEFSAII (Michael W. Deem and Ramdas Pophale) SiO2 
 PCOD8156121
Probable space group: P 21 21 2
;
_chemical_formula_sum "Si O2"
_cell_formula_units_Z 32
_cell_length_a 11.944500
_cell_length_b 8.830705
_cell_length_c 13.715632
_cell_angle_alpha 90.000000
_cell_angle_beta 90.000000
_cell_angle_gamma 90.000000
_cell_volume 1446.702313
_symmetry_space_group_name_H-M "P 21 21 2"
_symmetry_group_IT_number 18
_symmetry_cell_setting 'orthorhombic'
loop_
_space_group_symop_operation_xyz
x,y,z
-x,-y,z
1/2+x,1/2-y,-z
1/2-x,1/2+y,-z
loop_
_atom_site_type_symbol
_atom_site_label
_atom_site_fract_x
_atom_site_fract_y
_atom_site_fract_z
Si Si1 0.219049 0.900667 0.155070
Si Si2 0.944467 0.656263 0.467364
Si Si3 0.139740 0.221931 0.163589
Si Si4 0.692812 0.024758 0.702622
Si Si5 0.531970 0.169523 0.178268
Si Si6 0.579926 0.366357 0.356136
Si Si7 0.470833 0.326937 0.992255
Si Si8 0.434705 0.264879 0.703101
O O1 0.339509 0.826488 0.143275
O O2 0.141352 0.821886 0.072969
O O3 0.170465 0.867137 0.264294
O O4 0.224275 0.082217 0.146493
O O5 0.843289 0.621341 0.392302
O O6 0.894079 0.749899 0.556789
O O7 0.000000 0.500000 0.505442
O O8 0.038473 0.761722 0.412849
O O9 0.209812 0.365100 0.203702
O O10 0.074007 0.255216 0.063315
O O11 0.044404 0.175328 0.241448
O O12 0.804745 0.933185 0.682758
O O13 0.593370 0.909598 0.731255
O O14 0.515066 0.276842 0.271148
O O15 0.500000 0.000000 0.207800
O O16 0.453306 0.233815 0.091844
O O17 0.500000 0.500000 0.393472
O O18 0.500000 0.500000 0.016703
#
# Coordination Sequence:
#
# PCOD8156121 Si02
#       8
#     4   4   4   4   4   4   4   4
#     4  10  21  41  68  99 132 173 222 275 331 393
#     4   9  21  42  67  95 128 167 224 284 321 391
#     4   9  19  37  67 102 128 164 217 285 329 383
#     4  10  21  40  67  98 127 170 222 279 342 387
#     4  12  27  45  64  99 139 183 222 272 331 398
#     4  12  27  45  61  93 138 187 216 267 342 407
#     4   9  21  43  66  98 132 170 226 270 325 393
#     4   9  17  39  68  98 126 164 224 281 330 379
#
# _framework density 22.119271999999999
#
# number of rings (size 3 to 8) (size 9 to 14) (size 15 to 20)
#    0.000    2.000    1.250    3.000    1.750    8.000 
#    9.000    0.000    0.000    0.000    0.000    0.000 
#    0.000    0.000    0.000    0.000    0.000    0.000 
#
# Total GULP energy -396690.641225 kJ/mol
# GULP energy per Si atom -12396.582538 kJ/mol
# Density = 2.206893 g / cm^3
# Si number density = 22.119272 Si / 1000 Ang^3
#
#
#
# Elastic Constant Matrix: (Units=GPa)
#
#
# Indices 1 2 3 4 5 6 
#
# 1 52.3806 19.3784 9.2872 0.0000 0.0000 0.0000
# 2 19.3784 89.4897 51.0308 0.0000 0.0000 0.0000
# 3 9.2872 51.0308 99.9862 0.0000 0.0000 0.0000
# 4 0.0000 0.0000 0.0000 39.7781 0.0000 0.0000
# 5 0.0000 0.0000 0.0000 0.0000 23.3692 0.0000
# 6 0.0000 0.0000 0.0000 0.0000 0.0000 39.2551
#
#
#
# Elastic Compliance Matrix: (Units=1/GPa)
#
#
# Indices 1 2 3 4 5 6 
#
# 1 0.020773 -0.004793 0.000517 0.000000 0.000000 0.000000
# 2 -0.004793 0.016868 -0.008164 0.000000 0.000000 0.000000
# 3 0.000517 -0.008164 0.014120 0.000000 0.000000 0.000000
# 4 0.000000 0.000000 0.000000 0.025139 0.000000 0.000000
# 5 0.000000 0.000000 0.000000 0.000000 0.042791 0.000000
# 6 0.000000 0.000000 0.000000 0.000000 0.000000 0.025474
#
#
# Mechanical properties :
#
#
# Convention : Reuss Voigt Hill
#
# Bulk Modulus (GPa) = 37.20167 44.58326 40.89246
# Shear Modulus (GPa) = 27.93216 31.29116 29.61166
#
# Velocity S-wave (km/s) = 3.55744 3.76527 3.66283
# Velocity P-wave (km/s) = 5.80767 6.25321 6.03455
#
# Compressibility (1/GPa) = 0.02688052
#
# Stress axis : x y z
#
# Youngs Moduli (GPa) = 48.14045 59.28522 70.82166
#
# Poissons Ratio (x) = 0.28414 -0.03659
# Poissons Ratio (y) = 0.23073 0.57817
# Poissons Ratio (z) = -0.02487 0.48399
#
# Static dielectric constant tensor:
#      x y z
#    x 3.801480 0.000000 0.000000 
#    y 0.000000 4.056430 0.000000 
#    z 0.000000 0.000000 3.871880 
# 
# 
# High freq. dielectric constant tensor:
#      x y z
#    x 1.857260 0.000000 0.000000 
#    y 0.000000 1.873700 0.000000 
#    z 0.000000 0.000000 1.857050 
# 
# From -- ./inp_files/6912.got.cif
#   From: 2010.03.12/outbox.cif.g09.slc.cpg/sg18_4_cif.got.tgz:6912.got - 2010.04.10 18:53:55.
