data_PCOD8156759
_publ_section_title
;
Structure prediction by ZEFSAII (Michael W. Deem and Ramdas Pophale) SiO2 
 PCOD8156759
Probable space group: P 21 21 21
;
_chemical_formula_sum "Si O2"
_cell_formula_units_Z 32
_cell_length_a 6.115072
_cell_length_b 13.859201
_cell_length_c 17.271174
_cell_angle_alpha 90.000000
_cell_angle_beta 90.000000
_cell_angle_gamma 90.000000
_cell_volume 1463.732203
_symmetry_space_group_name_H-M "P 21 21 21"
_symmetry_group_IT_number 19
_symmetry_cell_setting 'orthorhombic'
loop_
_space_group_symop_operation_xyz
x,y,z
1/2-x,-y,1/2+z
1/2+x,1/2-y,-z
-x,1/2+y,1/2-z
loop_
_atom_site_type_symbol
_atom_site_label
_atom_site_fract_x
_atom_site_fract_y
_atom_site_fract_z
Si Si1 0.550793 0.387384 0.289902
Si Si2 0.348642 0.047831 0.843285
Si Si3 0.720097 0.191082 0.821445
Si Si4 0.909666 0.694633 0.564087
Si Si5 0.265049 0.540683 0.911777
Si Si6 0.478460 0.891345 0.956873
Si Si7 0.560427 0.835277 0.601812
Si Si8 0.354420 0.184992 0.580353
O O1 0.673089 0.454510 0.226664
O O2 0.392060 0.308329 0.249227
O O3 0.412456 0.459143 0.343457
O O4 0.718839 0.325554 0.340606
O O5 0.567405 0.097600 0.810920
O O6 0.254848 0.108148 0.915320
O O7 0.401117 0.942146 0.877296
O O8 0.851816 0.178000 0.901127
O O9 0.574095 0.289806 0.825233
O O10 0.924628 0.700200 0.472321
O O11 0.806447 0.793293 0.598663
O O12 0.425952 0.450567 0.897046
O O13 0.409690 0.636875 0.908607
O O14 0.138217 0.537547 0.994020
O O15 0.617035 0.797783 0.934347
O O16 0.268101 0.863085 0.007716
#
# Coordination Sequence:
#
# PCOD8156759 Si02
#       8
#     4   4   4   4   4   4   4   4
#     4  10  24  46  65  93 144 178 219 278 338 408
#     4  10  22  42  67  96 132 180 220 274 337 408
#     4  10  21  41  63  94 135 174 217 264 338 405
#     4  10  20  35  61  99 133 165 211 269 329 395
#     4  11  24  42  69  98 137 170 228 287 333 397
#     4  11  23  42  73 103 128 175 238 283 341 388
#     4  11  21  36  66  98 131 172 214 273 335 398
#     4  11  23  46  70 101 132 178 229 294 333 389
#
# _framework density 21.861920999999999
#
# number of rings (size 3 to 8) (size 9 to 14) (size 15 to 20)
#    0.000    1.500    2.500    2.250    1.750    3.000 
#    0.000   16.250    0.000    0.000    0.000    0.000 
#    0.000    0.000    0.000    0.000    0.000    0.000 
#
# Total GULP energy -396829.678308 kJ/mol
# GULP energy per Si atom -12400.927447 kJ/mol
# Density = 2.181216 g / cm^3
# Si number density = 21.861921 Si / 1000 Ang^3
#
#
#
# Elastic Constant Matrix: (Units=GPa)
#
#
# Indices 1 2 3 4 5 6 
#
# 1 108.1349 31.7122 50.7817 0.0000 0.0000 0.0000
# 2 31.7122 102.5299 39.9594 0.0000 0.0000 0.0000
# 3 50.7817 39.9594 114.2828 0.0000 0.0000 0.0000
# 4 0.0000 0.0000 0.0000 20.1188 0.0000 0.0000
# 5 0.0000 0.0000 0.0000 0.0000 40.6946 0.0000
# 6 0.0000 0.0000 0.0000 0.0000 0.0000 30.4501
#
#
#
# Elastic Compliance Matrix: (Units=1/GPa)
#
#
# Indices 1 2 3 4 5 6 
#
# 1 0.011995 -0.001890 -0.004669 0.000000 0.000000 0.000000
# 2 -0.001890 0.011590 -0.003213 0.000000 0.000000 0.000000
# 3 -0.004669 -0.003213 0.011948 0.000000 0.000000 0.000000
# 4 0.000000 0.000000 0.000000 0.049705 0.000000 0.000000
# 5 0.000000 0.000000 0.000000 0.000000 0.024573 0.000000
# 6 0.000000 0.000000 0.000000 0.000000 0.000000 0.032841
#
#
# Mechanical properties :
#
#
# Convention : Reuss Voigt Hill
#
# Bulk Modulus (GPa) = 62.54172 63.31712 62.92942
# Shear Modulus (GPa) = 29.84636 31.75231 30.79934
#
# Velocity S-wave (km/s) = 3.69890 3.81517 3.75749
# Velocity P-wave (km/s) = 6.84925 6.95935 6.90452
#
# Compressibility (1/GPa) = 0.01598933
#
# Stress axis : x y z
#
# Youngs Moduli (GPa) = 83.37062 86.28173 83.69519
#
# Poissons Ratio (x) = 0.16310 0.39076
# Poissons Ratio (y) = 0.15759 0.26887
# Poissons Ratio (z) = 0.38925 0.27718
#
# Static dielectric constant tensor:
#      x y z
#    x 4.157100 0.000000 0.000000 
#    y 0.000000 3.636690 0.000000 
#    z 0.000000 0.000000 3.915180 
# 
# 
# High freq. dielectric constant tensor:
#      x y z
#    x 1.879140 0.000000 0.000000 
#    y 0.000000 1.834050 0.000000 
#    z 0.000000 0.000000 1.856260 
# 
# From -- ./inp_files/5767.got.cif
#   From: 2010.03.12/outbox.cif.g09.slc.cpg/sg19_3_cif.got.tgz:5767.got - 2010.04.10 18:59:41.
