data_PCOD8156833
_publ_section_title
;
Structure prediction by ZEFSAII (Michael W. Deem and Ramdas Pophale) SiO2 
 PCOD8156833
Probable space group: P 21 21 21
;
_chemical_formula_sum "Si O2"
_cell_formula_units_Z 32
_cell_length_a 10.565448
_cell_length_b 8.530823
_cell_length_c 14.691911
_cell_angle_alpha 90.000000
_cell_angle_beta 90.000000
_cell_angle_gamma 90.000000
_cell_volume 1324.210835
_symmetry_space_group_name_H-M "P 21 21 21"
_symmetry_group_IT_number 19
_symmetry_cell_setting 'orthorhombic'
loop_
_space_group_symop_operation_xyz
x,y,z
1/2-x,-y,1/2+z
1/2+x,1/2-y,-z
-x,1/2+y,1/2-z
loop_
_atom_site_type_symbol
_atom_site_label
_atom_site_fract_x
_atom_site_fract_y
_atom_site_fract_z
Si Si1 0.110886 0.606762 0.975303
Si Si2 0.523093 0.704440 0.456598
Si Si3 0.022784 0.028300 0.822845
Si Si4 0.039775 0.576876 0.169524
Si Si5 0.013467 0.228597 0.153487
Si Si6 0.244729 0.128848 0.397064
Si Si7 0.410385 0.780545 0.155212
Si Si8 0.758768 0.519271 0.410244
O O1 0.231435 0.687300 0.925637
O O2 0.095008 0.419803 0.957721
O O3 0.982484 0.692220 0.940840
O O4 0.121125 0.640004 0.083948
O O5 0.477111 0.863603 0.411654
O O6 0.565671 0.742078 0.560795
O O7 0.639966 0.636969 0.399719
O O8 0.009364 0.133301 0.733829
O O9 0.151518 0.924704 0.822279
O O10 0.904074 0.905762 0.824706
O O11 0.073894 0.665424 0.263686
O O12 0.891744 0.605075 0.146195
O O13 0.071474 0.394220 0.185165
O O14 0.120203 0.099631 0.133344
O O15 0.273044 0.020313 0.483998
O O16 0.271902 0.859515 0.146573
#
# Coordination Sequence:
#
# PCOD8156833 Si02
#       8
#     4   4   4   4   4   4   4   4
#     4   9  21  40  66  93 131 175 224 278 328 398
#     4  10  21  44  67  96 137 173 229 278 340 405
#     4  11  22  38  69 101 128 171 217 280 341 403
#     4  11  24  45  65 101 140 179 233 280 345 412
#     4  11  24  43  68  98 138 185 221 286 341 407
#     4  11  21  41  69  91 130 184 222 277 339 398
#     4  10  20  38  63  97 130 164 218 276 337 396
#     4  11  21  43  67  91 134 183 222 277 333 401
#
# _framework density 24.165337000000001
#
# number of rings (size 3 to 8) (size 9 to 14) (size 15 to 20)
#    0.000    1.500    5.000    2.250    1.750    1.000 
#    4.500    1.250    0.000    0.000    0.000    0.000 
#    0.000    0.000    0.000    0.000    0.000    0.000 
#
# Total GULP energy -396641.950318 kJ/mol
# GULP energy per Si atom -12395.060947 kJ/mol
# Density = 2.411034 g / cm^3
# Si number density = 24.165337 Si / 1000 Ang^3
#
#
#
# Elastic Constant Matrix: (Units=GPa)
#
#
# Indices 1 2 3 4 5 6 
#
# 1 37.9471 20.4493 -11.6247 0.0000 0.0000 0.0000
# 2 20.4493 142.1101 47.7299 0.0000 0.0000 0.0000
# 3 -11.6247 47.7299 102.9436 0.0000 0.0000 0.0000
# 4 0.0000 0.0000 0.0000 47.6287 0.0000 0.0000
# 5 0.0000 0.0000 0.0000 0.0000 22.9894 0.0000
# 6 0.0000 0.0000 0.0000 0.0000 0.0000 33.1270
#
#
#
# Elastic Compliance Matrix: (Units=1/GPa)
#
#
# Indices 1 2 3 4 5 6 
#
# 1 0.032186 -0.006932 0.006848 0.000000 0.000000 0.000000
# 2 -0.006932 0.009828 -0.005339 0.000000 0.000000 0.000000
# 3 0.006848 -0.005339 0.012963 0.000000 0.000000 0.000000
# 4 0.000000 0.000000 0.000000 0.020996 0.000000 0.000000
# 5 0.000000 0.000000 0.000000 0.000000 0.043498 0.000000
# 6 0.000000 0.000000 0.000000 0.000000 0.000000 0.030187
#
#
# Mechanical properties :
#
#
# Convention : Reuss Voigt Hill
#
# Bulk Modulus (GPa) = 22.65971 44.01218 33.33595
# Shear Modulus (GPa) = 28.53678 35.84545 32.19111
#
# Velocity S-wave (km/s) = 3.44015 3.85560 3.65378
# Velocity P-wave (km/s) = 5.01765 6.17036 5.62361
#
# Compressibility (1/GPa) = 0.04413119
#
# Stress axis : x y z
#
# Youngs Moduli (GPa) = 31.06967 101.75523 77.14299
#
# Poissons Ratio (x) = 0.70532 -0.52830
# Poissons Ratio (y) = 0.21536 0.41189
# Poissons Ratio (z) = -0.21278 0.54330
#
# Static dielectric constant tensor:
#      x y z
#    x 3.845680 0.000000 0.000000 
#    y 0.000000 4.620680 0.000000 
#    z 0.000000 0.000000 4.568730 
# 
# 
# High freq. dielectric constant tensor:
#      x y z
#    x 1.912070 0.000000 0.000000 
#    y 0.000000 1.970440 0.000000 
#    z 0.000000 0.000000 1.970820 
# 
# From -- ./inp_files/6165.got.cif
#   From: 2010.03.12/outbox.cif.g09.slc.cpg/sg19_4_cif.got.tgz:6165.got - 2010.04.10 18:59:41.
