data_PCOD8156171
_publ_section_title
;
Structure prediction by ZEFSAII (Michael W. Deem and Ramdas Pophale) SiO2 
 PCOD8156171
Probable space group: P 21 21 2
;
_chemical_formula_sum "Si O2"
_cell_formula_units_Z 32
_cell_length_a 13.734837
_cell_length_b 13.734478
_cell_length_c 9.365778
_cell_angle_alpha 90.000000
_cell_angle_beta 90.000000
_cell_angle_gamma 90.000000
_cell_volume 1766.768010
_symmetry_space_group_name_H-M "P 21 21 2"
_symmetry_group_IT_number 18
_symmetry_cell_setting 'orthorhombic'
loop_
_space_group_symop_operation_xyz
x,y,z
-x,-y,z
1/2+x,1/2-y,-z
1/2-x,1/2+y,-z
loop_
_atom_site_type_symbol
_atom_site_label
_atom_site_fract_x
_atom_site_fract_y
_atom_site_fract_z
Si Si1 0.188476 0.669052 0.888536
Si Si2 0.851728 0.540376 0.966542
Si Si3 0.672280 0.021343 0.701191
Si Si4 0.168990 0.688542 0.388541
Si Si5 0.021402 0.327723 0.798805
Si Si6 0.275444 0.772449 0.142240
Si Si7 0.459579 0.851739 0.533460
Si Si8 0.727615 0.224483 0.642239
O O1 0.180592 0.553199 0.875399
O O2 0.272221 0.713600 0.787988
O O3 0.082576 0.715704 0.848424
O O4 0.223303 0.690854 0.048019
O O5 0.954376 0.579671 0.901818
O O6 0.768488 0.622018 0.934363
O O7 0.862121 0.518875 0.134168
O O8 0.579679 0.045598 0.598190
O O9 0.750428 0.109806 0.677873
O O10 0.715671 0.917349 0.651562
O O11 0.213519 0.772294 0.287982
O O12 0.190780 0.723391 0.548019
O O13 0.053142 0.680620 0.375406
O O14 0.109889 0.249603 0.822117
O O15 0.018923 0.362132 0.634167
O O16 0.377911 0.768525 0.565632
#
# Coordination Sequence:
#
# PCOD8156171 Si02
#       8
#     4   4   4   4   4   4   4   4
#     4  12  21  36  66  81 120 158 183 247 306 319
#     4  10  22  38  57  90 119 145 200 241 289 346
#     4  10  22  38  57  90 119 143 201 241 288 350
#     4  12  21  36  66  81 120 158 183 247 306 319
#     4  10  22  38  57  90 119 143 201 241 288 350
#     4  10  22  37  55  92 114 152 194 241 283 362
#     4  10  22  38  57  90 119 145 200 241 289 346
#     4  10  22  37  55  92 114 152 194 241 283 362
#
# _framework density 18.112169999999999
#
# number of rings (size 3 to 8) (size 9 to 14) (size 15 to 20)
#    1.500    0.000    5.000    0.750    3.500    2.000 
#    0.000    0.000    0.000    9.000    0.000    0.000 
#    0.000    0.000    0.000    0.000    0.000    0.000 
#
# Total GULP energy -396431.269437 kJ/mol
# GULP energy per Si atom -12388.477170 kJ/mol
# Density = 1.807095 g / cm^3
# Si number density = 18.112170 Si / 1000 Ang^3
#
#
#
# Elastic Constant Matrix: (Units=GPa)
#
#
# Indices 1 2 3 4 5 6 
#
# 1 57.5795 31.6710 25.1777 0.0000 0.0000 0.0000
# 2 31.6710 57.5427 25.1666 0.0000 0.0000 0.0000
# 3 25.1777 25.1666 95.9281 0.0000 0.0000 0.0000
# 4 0.0000 0.0000 0.0000 28.1408 0.0000 0.0000
# 5 0.0000 0.0000 0.0000 0.0000 28.1484 0.0000
# 6 0.0000 0.0000 0.0000 0.0000 0.0000 25.7677
#
#
#
# Elastic Compliance Matrix: (Units=1/GPa)
#
#
# Indices 1 2 3 4 5 6 
#
# 1 0.025882 -0.012735 -0.003452 0.000000 0.000000 0.000000
# 2 -0.012735 0.025897 -0.003452 0.000000 0.000000 0.000000
# 3 -0.003452 -0.003452 0.012236 0.000000 0.000000 0.000000
# 4 0.000000 0.000000 0.000000 0.035536 0.000000 0.000000
# 5 0.000000 0.000000 0.000000 0.000000 0.035526 0.000000
# 6 0.000000 0.000000 0.000000 0.000000 0.000000 0.038808
#
#
# Mechanical properties :
#
#
# Convention : Reuss Voigt Hill
#
# Bulk Modulus (GPa) = 40.42462 41.67564 41.05013
# Shear Modulus (GPa) = 22.58272 25.01370 23.79821
#
# Velocity S-wave (km/s) = 3.53487 3.72027 3.62876
# Velocity P-wave (km/s) = 6.24723 6.44310 6.34592
#
# Compressibility (1/GPa) = 0.02473740
#
# Stress axis : x y z
#
# Youngs Moduli (GPa) = 38.63747 38.61405 81.72608
#
# Poissons Ratio (x) = 0.49176 0.28211
# Poissons Ratio (y) = 0.49206 0.28208
# Poissons Ratio (z) = 0.13337 0.13328
#
# Static dielectric constant tensor:
#      x y z
#    x 3.137760 0.000000 0.000000 
#    y 0.000000 3.137700 0.000000 
#    z 0.000000 0.000000 3.370310 
# 
# 
# High freq. dielectric constant tensor:
#      x y z
#    x 1.680300 0.000000 0.000000 
#    y 0.000000 1.680290 0.000000 
#    z 0.000000 0.000000 1.721310 
# 
# From -- ./inp_files/4303.got.cif
#   From: 2010.03.12/outbox.cif.g09.slc.cpg/sg18_3_cif.got.tgz:4303.got - 2010.04.10 18:53:55.
