data_PCOD8156412
_publ_section_title
;
Structure prediction by ZEFSAII (Michael W. Deem and Ramdas Pophale) SiO2 
 PCOD8156412
Probable space group: P 21 21 2
;
_chemical_formula_sum "Si O2"
_cell_formula_units_Z 24
_cell_length_a 12.646333
_cell_length_b 13.395655
_cell_length_c 6.382077
_cell_angle_alpha 90.000000
_cell_angle_beta 90.000000
_cell_angle_gamma 90.000000
_cell_volume 1081.161587
_symmetry_space_group_name_H-M "P 21 21 2"
_symmetry_group_IT_number 18
_symmetry_cell_setting 'orthorhombic'
loop_
_space_group_symop_operation_xyz
x,y,z
-x,-y,z
1/2+x,1/2-y,-z
1/2-x,1/2+y,-z
loop_
_atom_site_type_symbol
_atom_site_label
_atom_site_fract_x
_atom_site_fract_y
_atom_site_fract_z
Si Si1 0.369776 0.897488 0.369688
Si Si2 0.509629 0.817970 0.729554
Si Si3 0.316915 0.524224 0.502659
Si Si4 0.000000 0.500000 0.961404
Si Si5 0.500000 0.500000 0.204390
Si Si6 0.616874 0.366563 0.897402
Si Si7 0.747446 0.793925 0.755119
O O1 0.470731 0.866231 0.510846
O O2 0.401445 0.974145 0.187224
O O3 0.317609 0.804223 0.256543
O O4 0.283654 0.952180 0.513197
O O5 0.425710 0.733685 0.790279
O O6 0.624938 0.767394 0.714003
O O7 0.525602 0.904232 0.899570
O O8 0.402606 0.470505 0.354489
O O9 0.362510 0.542591 0.735915
O O10 0.284480 0.633251 0.427641
O O11 0.529295 0.404097 0.064264
O O12 0.727060 0.342491 0.017561
#
# Coordination Sequence:
#
# PCOD8156412 Si02
#       7
#     4   4   4   2   2   4   4
#     4  12  26  45  74 106 141 191 240 298 363 424
#     4  12  26  46  73 105 145 188 240 296 366 427
#     4  11  24  46  67 100 145 183 242 294 357 428
#     4  12  24  48  70 104 144 184 240 304 358 438
#     4  10  26  42  70 104 136 190 242 294 358 428
#     4  11  24  47  69 102 141 189 238 297 362 424
#     4  11  25  44  68 104 139 184 238 292 356 436
#
# _framework density 22.198345
#
# number of rings (size 3 to 8) (size 9 to 14) (size 15 to 20)
#    0.000    0.667    3.333    4.000    4.667    2.667 
#    3.000    0.000    0.000    0.000    0.000    0.000 
#    0.000    0.000    0.000    0.000    0.000    0.000 
#
# Total GULP energy -297683.746405 kJ/mol
# GULP energy per Si atom -12403.489434 kJ/mol
# Density = 2.214782 g / cm^3
# Si number density = 22.198345 Si / 1000 Ang^3
#
#
#
# Elastic Constant Matrix: (Units=GPa)
#
#
# Indices 1 2 3 4 5 6 
#
# 1 93.4082 4.2617 33.1269 0.0000 0.0000 0.0000
# 2 4.2617 62.7047 21.5791 0.0000 0.0000 0.0000
# 3 33.1269 21.5791 107.1956 0.0000 0.0000 0.0000
# 4 0.0000 0.0000 0.0000 42.4556 0.0000 0.0000
# 5 0.0000 0.0000 0.0000 0.0000 29.4363 0.0000
# 6 0.0000 0.0000 0.0000 0.0000 0.0000 41.4695
#
#
#
# Elastic Compliance Matrix: (Units=1/GPa)
#
#
# Indices 1 2 3 4 5 6 
#
# 1 0.012038 0.000496 -0.003820 0.000000 0.000000 0.000000
# 2 0.000496 0.017155 -0.003607 0.000000 0.000000 0.000000
# 3 -0.003820 -0.003607 0.011235 0.000000 0.000000 0.000000
# 4 0.000000 0.000000 0.000000 0.023554 0.000000 0.000000
# 5 0.000000 0.000000 0.000000 0.000000 0.033972 0.000000
# 6 0.000000 0.000000 0.000000 0.000000 0.000000 0.024114
#
#
# Mechanical properties :
#
#
# Convention : Reuss Voigt Hill
#
# Bulk Modulus (GPa) = 37.63987 42.36044 40.00016
# Shear Modulus (GPa) = 34.53399 36.29501 35.41450
#
# Velocity S-wave (km/s) = 3.94852 4.04794 3.99854
# Velocity P-wave (km/s) = 6.14660 6.40093 6.27505
#
# Compressibility (1/GPa) = 0.02656757
#
# Stress axis : x y z
#
# Youngs Moduli (GPa) = 83.07166 58.29103 89.00494
#
# Poissons Ratio (x) = -0.02894 0.34000
# Poissons Ratio (y) = -0.04124 0.32103
# Poissons Ratio (z) = 0.31733 0.21025
#
# Static dielectric constant tensor:
#      x y z
#    x 4.063200 0.000000 0.000000 
#    y 0.000000 4.338550 0.000000 
#    z 0.000000 0.000000 4.124380 
# 
# 
# High freq. dielectric constant tensor:
#      x y z
#    x 1.876520 0.000000 0.000000 
#    y 0.000000 1.875090 0.000000 
#    z 0.000000 0.000000 1.883620 
# 
# From -- ./inp_files/1499.got.cif
#   From: 2010.03.12/outbox.cif.g09.slc.cpg/sg18_1_cif.got.tgz:1499.got - 2010.04.10 18:53:55.
