data_PCOD8156508
_publ_section_title
;
Structure prediction by ZEFSAII (Michael W. Deem and Ramdas Pophale) SiO2 
 PCOD8156508
Probable space group: P 21 21 2
;
_chemical_formula_sum "Si O2"
_cell_formula_units_Z 14
_cell_length_a 7.281438
_cell_length_b 5.917397
_cell_length_c 11.911654
_cell_angle_alpha 90.000000
_cell_angle_beta 90.000000
_cell_angle_gamma 90.000000
_cell_volume 513.239334
_symmetry_space_group_name_H-M "P 21 21 2"
_symmetry_group_IT_number 18
_symmetry_cell_setting 'orthorhombic'
loop_
_space_group_symop_operation_xyz
x,y,z
-x,-y,z
1/2+x,1/2-y,-z
1/2-x,1/2+y,-z
loop_
_atom_site_type_symbol
_atom_site_label
_atom_site_fract_x
_atom_site_fract_y
_atom_site_fract_z
Si Si1 0.500000 0.000000 0.747603
Si Si2 0.724182 0.838105 0.354947
Si Si3 0.730448 0.154892 0.144605
Si Si4 0.500000 0.500000 0.472257
Si Si5 0.500000 0.500000 0.033007
O O1 0.362116 0.866574 0.668390
O O2 0.610939 0.831555 0.826220
O O3 0.531029 0.724927 0.395154
O O4 0.816557 0.986610 0.452729
O O5 0.686655 0.987998 0.246242
O O6 0.539287 0.280718 0.111950
O O7 0.813521 0.019467 0.039032
#
# Coordination Sequence:
#
# PCOD8156508 Si02
#       5
#     2   4   4   2   2
#     4  12  22  54  80 122 170 202 274 360 392 480
#     4  12  27  55  83 122 170 215 280 349 403 505
#     4  12  27  55  83 122 170 215 280 349 403 505
#     4  12  27  55  86 118 166 226 274 334 438 478
#     4  12  27  55  86 118 166 226 274 334 438 478
#
# _framework density 27.277725
#
# number of rings (size 3 to 8) (size 9 to 14) (size 15 to 20)
#    0.000    0.000    5.714    3.429    0.000    1.143 
#   10.286    0.000    0.000    0.000    0.000    0.000 
#    0.000    0.000    0.000    0.000    0.000    0.000 
#
# Total GULP energy -173723.918240 kJ/mol
# GULP energy per Si atom -12408.851303 kJ/mol
# Density = 2.721564 g / cm^3
# Si number density = 27.277725 Si / 1000 Ang^3
#
#
#
# Elastic Constant Matrix: (Units=GPa)
#
#
# Indices 1 2 3 4 5 6 
#
# 1 116.5146 38.7972 58.2665 0.0000 0.0000 0.0000
# 2 38.7972 125.4786 83.3986 0.0000 0.0000 0.0000
# 3 58.2665 83.3986 158.0820 0.0000 0.0000 0.0000
# 4 0.0000 0.0000 0.0000 61.9782 0.0000 0.0000
# 5 0.0000 0.0000 0.0000 0.0000 27.9932 0.0000
# 6 0.0000 0.0000 0.0000 0.0000 0.0000 74.8767
#
#
#
# Elastic Compliance Matrix: (Units=1/GPa)
#
#
# Indices 1 2 3 4 5 6 
#
# 1 0.010611 -0.001049 -0.003357 0.000000 0.000000 0.000000
# 2 -0.001049 0.012377 -0.006143 0.000000 0.000000 0.000000
# 3 -0.003357 -0.006143 0.010804 0.000000 0.000000 0.000000
# 4 0.000000 0.000000 0.000000 0.016135 0.000000 0.000000
# 5 0.000000 0.000000 0.000000 0.000000 0.035723 0.000000
# 6 0.000000 0.000000 0.000000 0.000000 0.000000 0.013355
#
#
# Mechanical properties :
#
#
# Convention : Reuss Voigt Hill
#
# Bulk Modulus (GPa) = 78.78573 84.55552 81.67063
# Shear Modulus (GPa) = 40.21409 47.61049 43.91229
#
# Velocity S-wave (km/s) = 3.84376 4.18233 4.01661
# Velocity P-wave (km/s) = 6.97458 7.37481 7.17749
#
# Compressibility (1/GPa) = 0.01269265
#
# Stress axis : x y z
#
# Youngs Moduli (GPa) = 94.24162 80.79727 92.55817
#
# Poissons Ratio (x) = 0.08478 0.31076
# Poissons Ratio (y) = 0.09889 0.56856
# Poissons Ratio (z) = 0.31641 0.49631
#
# Static dielectric constant tensor:
#      x y z
#    x 4.806500 0.000000 0.000000 
#    y 0.000000 5.328860 0.000000 
#    z 0.000000 0.000000 5.006450 
# 
# 
# High freq. dielectric constant tensor:
#      x y z
#    x 2.100060 0.000000 0.000000 
#    y 0.000000 2.113780 0.000000 
#    z 0.000000 0.000000 2.115160 
# 
# From -- ./inp_files/379.got.cif
#   From: 2010.03.12/outbox.cif.g09.slc.cpg/sg18_1_cif.got.tgz:379.got - 2010.04.10 18:53:55.
