data_PCOD8156041
_publ_section_title
;
Structure prediction by ZEFSAII (Michael W. Deem and Ramdas Pophale) SiO2 
 PCOD8156041
Probable space group: P 21 21 2
;
_chemical_formula_sum "Si O2"
_cell_formula_units_Z 22
_cell_length_a 9.946053
_cell_length_b 12.848878
_cell_length_c 8.752617
_cell_angle_alpha 90.000000
_cell_angle_beta 90.000000
_cell_angle_gamma 90.000000
_cell_volume 1118.546130
_symmetry_space_group_name_H-M "P 21 21 2"
_symmetry_group_IT_number 18
_symmetry_cell_setting 'orthorhombic'
loop_
_space_group_symop_operation_xyz
x,y,z
-x,-y,z
1/2+x,1/2-y,-z
1/2-x,1/2+y,-z
loop_
_atom_site_type_symbol
_atom_site_label
_atom_site_fract_x
_atom_site_fract_y
_atom_site_fract_z
Si Si1 0.703768 0.704979 0.819718
Si Si2 0.023376 0.381040 0.712020
Si Si3 0.500000 0.000000 0.816982
Si Si4 0.809115 0.383773 0.960692
Si Si5 0.997254 0.300529 0.381445
Si Si6 0.944968 0.896539 0.227628
O O1 0.748065 0.783267 0.952290
O O2 0.655391 0.772411 0.670722
O O3 0.572722 0.640074 0.876659
O O4 0.826097 0.630453 0.775435
O O5 0.001229 0.312987 0.561937
O O6 0.000000 0.500000 0.667662
O O7 0.920872 0.344341 0.841554
O O8 0.625840 0.969117 0.925303
O O9 0.453595 0.903320 0.710827
O O10 0.681552 0.431647 0.873757
O O11 0.092188 0.199867 0.340682
O O12 0.000000 0.000000 0.316519
#
# Coordination Sequence:
#
# PCOD8156041 Si02
#       6
#     4   4   2   4   4   4
#     4   9  23  41  59  93 131 160 216 274 326 377
#     4  12  22  39  70  97 122 177 231 258 337 401
#     4  10  20  42  60 100 124 164 218 272 312 384
#     4  11  22  38  69  92 123 173 217 267 325 399
#     4   9  23  39  63  91 139 164 212 277 321 380
#     4  10  22  38  59  88 132 168 209 267 332 376
#
# _framework density 19.668391
#
# number of rings (size 3 to 8) (size 9 to 14) (size 15 to 20)
#    1.091    0.727    1.818    2.182    2.545    0.000 
#    0.000    0.000    0.000    1.091    0.000    0.000 
#    0.000    0.000    0.000    0.000    0.000    0.000 
#
# Total GULP energy -272551.040958 kJ/mol
# GULP energy per Si atom -12388.683680 kJ/mol
# Density = 1.962363 g / cm^3
# Si number density = 19.668391 Si / 1000 Ang^3
#
#
#
# Elastic Constant Matrix: (Units=GPa)
#
#
# Indices 1 2 3 4 5 6 
#
# 1 117.6801 25.2958 32.2923 0.0000 0.0000 0.0000
# 2 25.2958 114.1270 24.5926 0.0000 0.0000 0.0000
# 3 32.2923 24.5926 80.6922 0.0000 0.0000 0.0000
# 4 0.0000 0.0000 0.0000 15.6019 0.0000 0.0000
# 5 0.0000 0.0000 0.0000 0.0000 17.2134 0.0000
# 6 0.0000 0.0000 0.0000 0.0000 0.0000 32.4831
#
#
#
# Elastic Compliance Matrix: (Units=1/GPa)
#
#
# Indices 1 2 3 4 5 6 
#
# 1 0.009754 -0.001414 -0.003473 0.000000 0.000000 0.000000
# 2 -0.001414 0.009583 -0.002355 0.000000 0.000000 0.000000
# 3 -0.003473 -0.002355 0.014500 0.000000 0.000000 0.000000
# 4 0.000000 0.000000 0.000000 0.064095 0.000000 0.000000
# 5 0.000000 0.000000 0.000000 0.000000 0.058094 0.000000
# 6 0.000000 0.000000 0.000000 0.000000 0.000000 0.030785
#
#
# Mechanical properties :
#
#
# Convention : Reuss Voigt Hill
#
# Bulk Modulus (GPa) = 51.66636 52.98453 52.32545
# Shear Modulus (GPa) = 24.06783 28.41426 26.24104
#
# Velocity S-wave (km/s) = 3.50191 3.80500 3.65660
# Velocity P-wave (km/s) = 6.53276 6.80452 6.67002
#
# Compressibility (1/GPa) = 0.01935495
#
# Stress axis : x y z
#
# Youngs Moduli (GPa) = 102.51720 104.35210 68.96436
#
# Poissons Ratio (x) = 0.14752 0.23950
# Poissons Ratio (y) = 0.14493 0.16240
# Poissons Ratio (z) = 0.35602 0.24573
#
# Static dielectric constant tensor:
#      x y z
#    x 3.380030 0.000000 0.000000 
#    y 0.000000 3.674120 0.000000 
#    z 0.000000 0.000000 3.369630 
# 
# 
# High freq. dielectric constant tensor:
#      x y z
#    x 1.756770 0.000000 0.000000 
#    y 0.000000 1.779040 0.000000 
#    z 0.000000 0.000000 1.743220 
# 
# From -- ./inp_files/3164.got.cif
#   From: 2010.03.12/outbox.cif.g09.slc.cpg/sg18_2_cif.got.tgz:3164.got - 2010.04.10 18:53:55.
