data_PCOD8156712
_publ_section_title
;
Structure prediction by ZEFSAII (Michael W. Deem and Ramdas Pophale) SiO2 
 PCOD8156712
Probable space group: P 21 21 21
;
_chemical_formula_sum "Si O2"
_cell_formula_units_Z 28
_cell_length_a 12.135625
_cell_length_b 11.955670
_cell_length_c 8.863503
_cell_angle_alpha 90.000000
_cell_angle_beta 90.000000
_cell_angle_gamma 90.000000
_cell_volume 1286.001464
_symmetry_space_group_name_H-M "P 21 21 21"
_symmetry_group_IT_number 19
_symmetry_cell_setting 'orthorhombic'
loop_
_space_group_symop_operation_xyz
x,y,z
1/2-x,-y,1/2+z
1/2+x,1/2-y,-z
-x,1/2+y,1/2-z
loop_
_atom_site_type_symbol
_atom_site_label
_atom_site_fract_x
_atom_site_fract_y
_atom_site_fract_z
Si Si1 0.984800 0.623607 0.466605
Si Si2 0.652801 0.177342 0.933333
Si Si3 0.560743 0.535739 0.219712
Si Si4 0.666649 0.150316 0.282539
Si Si5 0.456109 0.851355 0.068129
Si Si6 0.871903 0.224958 0.785399
Si Si7 0.094564 0.557565 0.176595
O O1 0.903959 0.707672 0.378660
O O2 0.916739 0.532743 0.565132
O O3 0.049609 0.713302 0.569769
O O4 0.065978 0.556784 0.354118
O O5 0.756990 0.168845 0.823700
O O6 0.583265 0.065627 0.897046
O O7 0.683758 0.191128 0.110315
O O8 0.428649 0.557239 0.218576
O O9 0.599195 0.463086 0.363989
O O10 0.634720 0.646174 0.231395
O O11 0.625270 0.247991 0.397327
O O12 0.781659 0.104399 0.348462
O O13 0.574304 0.843274 0.150602
O O14 0.496423 0.866077 0.895970
#
# Coordination Sequence:
#
# PCOD8156712 Si02
#       7
#     4   4   4   4   4   4   4
#     4  11  23  41  66  99 134 170 219 281 325 394
#     4  12  23  42  68  96 134 174 226 273 327 404
#     4  10  19  41  65  88 130 179 213 263 344 386
#     4  11  22  40  70  95 131 176 220 274 335 397
#     4  10  21  41  64  92 135 172 215 272 338 394
#     4  10  21  38  66  93 127 177 221 265 330 395
#     4  12  25  39  69 105 129 168 230 280 329 396
#
# _framework density 21.772914
#
# number of rings (size 3 to 8) (size 9 to 14) (size 15 to 20)
#    0.000    1.143    7.143    1.714    0.000    3.429 
#    0.000    7.143    0.000    0.000    0.000    0.000 
#    0.000    0.000    0.000    0.000    0.000    0.000 
#
# Total GULP energy -346994.339141 kJ/mol
# GULP energy per Si atom -12392.654969 kJ/mol
# Density = 2.172336 g / cm^3
# Si number density = 21.772914 Si / 1000 Ang^3
#
#
#
# Elastic Constant Matrix: (Units=GPa)
#
#
# Indices 1 2 3 4 5 6 
#
# 1 27.6641 7.3382 17.6641 0.0000 0.0000 0.0000
# 2 7.3382 113.3360 33.3956 0.0000 0.0000 0.0000
# 3 17.6641 33.3956 75.5102 0.0000 0.0000 0.0000
# 4 0.0000 0.0000 0.0000 32.0227 0.0000 0.0000
# 5 0.0000 0.0000 0.0000 0.0000 31.4085 0.0000
# 6 0.0000 0.0000 0.0000 0.0000 0.0000 26.9807
#
#
#
# Elastic Compliance Matrix: (Units=1/GPa)
#
#
# Indices 1 2 3 4 5 6 
#
# 1 0.042500 0.000204 -0.010032 0.000000 0.000000 0.000000
# 2 0.000204 0.010146 -0.004535 0.000000 0.000000 0.000000
# 3 -0.010032 -0.004535 0.017596 0.000000 0.000000 0.000000
# 4 0.000000 0.000000 0.000000 0.031228 0.000000 0.000000
# 5 0.000000 0.000000 0.000000 0.000000 0.031839 0.000000
# 6 0.000000 0.000000 0.000000 0.000000 0.000000 0.037063
#
#
# Mechanical properties :
#
#
# Convention : Reuss Voigt Hill
#
# Bulk Modulus (GPa) = 24.08737 37.03402 30.56070
# Shear Modulus (GPa) = 23.48116 28.62321 26.05219
#
# Velocity S-wave (km/s) = 3.28755 3.62971 3.46286
# Velocity P-wave (km/s) = 5.04952 5.88324 5.48225
#
# Compressibility (1/GPa) = 0.04151553
#
# Stress axis : x y z
#
# Youngs Moduli (GPa) = 23.52965 98.55674 56.83149
#
# Poissons Ratio (x) = -0.02014 0.57015
# Poissons Ratio (y) = -0.00481 0.25774
# Poissons Ratio (z) = 0.23606 0.44698
#
# Static dielectric constant tensor:
#      x y z
#    x 3.666230 0.000000 0.000000 
#    y 0.000000 3.980840 0.000000 
#    z 0.000000 0.000000 3.834690 
# 
# 
# High freq. dielectric constant tensor:
#      x y z
#    x 1.826200 0.000000 0.000000 
#    y 0.000000 1.865430 0.000000 
#    z 0.000000 0.000000 1.851400 
# 
# From -- ./inp_files/3897.got.cif
#   From: 2010.03.12/outbox.cif.g09.slc.cpg/sg19_2_cif.got.tgz:3897.got - 2010.04.10 18:59:41.
