data_PCOD8156221
_publ_section_title
;
Structure prediction by ZEFSAII (Michael W. Deem and Ramdas Pophale) SiO2 
 PCOD8156221
Probable space group: P 21 21 2
;
_chemical_formula_sum "Si O2"
_cell_formula_units_Z 32
_cell_length_a 12.135255
_cell_length_b 12.844297
_cell_length_c 9.121945
_cell_angle_alpha 90.000000
_cell_angle_beta 90.000000
_cell_angle_gamma 90.000000
_cell_volume 1421.826798
_symmetry_space_group_name_H-M "P 21 21 2"
_symmetry_group_IT_number 18
_symmetry_cell_setting 'orthorhombic'
loop_
_space_group_symop_operation_xyz
x,y,z
-x,-y,z
1/2+x,1/2-y,-z
1/2-x,1/2+y,-z
loop_
_atom_site_type_symbol
_atom_site_label
_atom_site_fract_x
_atom_site_fract_y
_atom_site_fract_z
Si Si1 0.232433 0.440446 0.977444
Si Si2 0.450048 0.683297 0.375795
Si Si3 0.732433 0.440446 0.522556
Si Si4 0.779611 0.855350 0.164508
Si Si5 0.407773 0.210688 0.604826
Si Si6 0.279611 0.855350 0.335492
Si Si7 0.950048 0.683297 0.124205
Si Si8 0.592227 0.710689 0.104826
O O1 0.254721 0.564020 0.968878
O O2 0.190767 0.410079 0.816179
O O3 0.131358 0.413902 0.087794
O O4 0.346013 0.383328 0.021390
O O5 0.368642 0.586097 0.412206
O O6 0.544060 0.701755 0.495825
O O7 0.385238 0.791663 0.385963
O O8 0.501611 0.662978 0.215511
O O9 0.690767 0.410079 0.683821
O O10 0.846012 0.383328 0.478610
O O11 0.754721 0.564020 0.531122
O O12 0.885238 0.791663 0.114038
O O13 0.680297 0.776370 0.197932
O O14 0.319703 0.276370 0.697932
O O15 0.498389 0.162977 0.715511
O O16 0.044060 0.701755 0.004175
#
# Coordination Sequence:
#
# PCOD8156221 Si02
#       8
#     4   4   4   4   4   4   4   4
#     4  10  22  41  66  97 128 172 218 272 317 397
#     4  11  22  41  66  95 132 172 214 272 331 385
#     4  10  22  41  66  97 128 172 218 272 317 397
#     4  10  22  41  66  95 130 169 224 264 326 393
#     4  11  22  41  66  95 132 172 214 272 331 385
#     4  10  22  41  66  95 130 169 224 264 326 393
#     4  11  22  41  66  95 132 172 214 272 331 385
#     4  11  22  41  66  95 132 172 214 272 331 385
#
# _framework density 22.506260000000001
#
# number of rings (size 3 to 8) (size 9 to 14) (size 15 to 20)
#    0.000    1.500    5.000    0.000    0.000    2.000 
#    0.000    7.500    0.000    0.000    0.000    0.000 
#    0.000    0.000    0.000    0.000    0.000    0.000 
#
# Total GULP energy -396784.502716 kJ/mol
# GULP energy per Si atom -12399.515710 kJ/mol
# Density = 2.245503 g / cm^3
# Si number density = 22.506260 Si / 1000 Ang^3
#
#
#
# Elastic Constant Matrix: (Units=GPa)
#
#
# Indices 1 2 3 4 5 6 
#
# 1 88.4909 25.6188 22.5098 0.0000 0.0000 0.0000
# 2 25.6188 83.0533 17.7206 0.0000 0.0000 0.0000
# 3 22.5098 17.7206 81.1596 0.0000 0.0000 0.0000
# 4 0.0000 0.0000 0.0000 33.8662 0.0000 0.0000
# 5 0.0000 0.0000 0.0000 0.0000 40.9306 0.0000
# 6 0.0000 0.0000 0.0000 0.0000 0.0000 21.9132
#
#
#
# Elastic Compliance Matrix: (Units=1/GPa)
#
#
# Indices 1 2 3 4 5 6 
#
# 1 0.013015 -0.003403 -0.002867 0.000000 0.000000 0.000000
# 2 -0.003403 0.013519 -0.002008 0.000000 0.000000 0.000000
# 3 -0.002867 -0.002008 0.013555 0.000000 0.000000 0.000000
# 4 0.000000 0.000000 0.000000 0.029528 0.000000 0.000000
# 5 0.000000 0.000000 0.000000 0.000000 0.024432 0.000000
# 6 0.000000 0.000000 0.000000 0.000000 0.000000 0.045635
#
#
# Mechanical properties :
#
#
# Convention : Reuss Voigt Hill
#
# Bulk Modulus (GPa) = 42.49292 42.71137 42.60214
# Shear Modulus (GPa) = 30.47252 31.79897 31.13575
#
# Velocity S-wave (km/s) = 3.68361 3.76293 3.72348
# Velocity P-wave (km/s) = 6.08387 6.15615 6.12012
#
# Compressibility (1/GPa) = 0.02353333
#
# Stress axis : x y z
#
# Youngs Moduli (GPa) = 76.83441 73.97242 73.77408
#
# Poissons Ratio (x) = 0.25173 0.21149
# Poissons Ratio (y) = 0.26147 0.14813
# Poissons Ratio (z) = 0.22026 0.14853
#
# Static dielectric constant tensor:
#      x y z
#    x 4.101320 0.000000 0.000000 
#    y 0.000000 3.944590 0.000000 
#    z 0.000000 0.000000 3.839890 
# 
# 
# High freq. dielectric constant tensor:
#      x y z
#    x 1.894950 0.000000 0.000000 
#    y 0.000000 1.873310 0.000000 
#    z 0.000000 0.000000 1.882720 
# 
# From -- ./inp_files/3965.got.cif
#   From: 2010.03.12/outbox.cif.g09.slc.cpg/sg18_2_cif.got.tgz:3965.got - 2010.04.10 18:53:55.
