data_PCOD8156972
_publ_section_title
;
Structure prediction by ZEFSAII (Michael W. Deem and Ramdas Pophale) SiO2 
 PCOD8156972
Probable space group: P 21 21 21
;
_chemical_formula_sum "Si O2"
_cell_formula_units_Z 28
_cell_length_a 13.649818
_cell_length_b 12.114387
_cell_length_c 8.010359
_cell_angle_alpha 90.000000
_cell_angle_beta 90.000000
_cell_angle_gamma 90.000000
_cell_volume 1324.586378
_symmetry_space_group_name_H-M "P 21 21 21"
_symmetry_group_IT_number 19
_symmetry_cell_setting 'orthorhombic'
loop_
_space_group_symop_operation_xyz
x,y,z
1/2-x,-y,1/2+z
1/2+x,1/2-y,-z
-x,1/2+y,1/2-z
loop_
_atom_site_type_symbol
_atom_site_label
_atom_site_fract_x
_atom_site_fract_y
_atom_site_fract_z
Si Si1 0.664633 0.877865 0.030193
Si Si2 0.458902 0.037715 0.467298
Si Si3 0.759371 0.227614 0.052859
Si Si4 0.365288 0.195465 0.230266
Si Si5 0.074355 0.766621 0.207848
Si Si6 0.670379 0.992924 0.368692
Si Si7 0.044153 0.215567 0.972488
O O1 0.693844 0.766478 0.130535
O O2 0.651180 0.973314 0.170154
O O3 0.567706 0.836840 0.925291
O O4 0.744075 0.917382 0.893646
O O5 0.401151 0.079508 0.303240
O O6 0.434071 0.113497 0.625326
O O7 0.574807 0.047765 0.445319
O O8 0.427800 0.912109 0.493092
O O9 0.789931 0.325139 0.921754
O O10 0.803032 0.117246 0.969003
O O11 0.814737 0.255792 0.223209
O O12 0.642959 0.219661 0.079284
O O13 0.461468 0.265531 0.167696
O O14 0.991675 0.759324 0.348272
#
# Coordination Sequence:
#
# PCOD8156972 Si02
#       7
#     4   4   4   4   4   4   4
#     4  10  21  38  59  96 131 158 215 275 321 380
#     4  11  23  42  64  91 134 173 216 261 342 388
#     4  10  22  42  63  95 132 163 222 268 319 396
#     4   9  22  42  59  92 131 166 216 274 315 392
#     4  10  23  42  62  99 135 166 218 274 323 393
#     4  11  22  38  69  97 123 172 223 277 327 378
#     4  11  23  42  66  94 134 172 216 271 329 381
#
# _framework density 21.138676
#
# number of rings (size 3 to 8) (size 9 to 14) (size 15 to 20)
#    0.000    1.714    4.286    0.857    8.000    1.143 
#    2.571    0.000    0.000    0.000    0.000    0.000 
#    0.000    0.000    0.000    0.000    0.000    0.000 
#
# Total GULP energy -346933.289406 kJ/mol
# GULP energy per Si atom -12390.474622 kJ/mol
# Density = 2.109056 g / cm^3
# Si number density = 21.138676 Si / 1000 Ang^3
#
#
#
# Elastic Constant Matrix: (Units=GPa)
#
#
# Indices 1 2 3 4 5 6 
#
# 1 65.3437 -7.6205 2.0863 0.0000 0.0000 0.0000
# 2 -7.6205 50.6127 19.6171 0.0000 0.0000 0.0000
# 3 2.0863 19.6171 72.7232 0.0000 0.0000 0.0000
# 4 0.0000 0.0000 0.0000 21.5774 0.0000 0.0000
# 5 0.0000 0.0000 0.0000 0.0000 33.6767 0.0000
# 6 0.0000 0.0000 0.0000 0.0000 0.0000 36.6572
#
#
#
# Elastic Compliance Matrix: (Units=1/GPa)
#
#
# Indices 1 2 3 4 5 6 
#
# 1 0.015672 0.002830 -0.001213 0.000000 0.000000 0.000000
# 2 0.002830 0.022576 -0.006171 0.000000 0.000000 0.000000
# 3 -0.001213 -0.006171 0.015450 0.000000 0.000000 0.000000
# 4 0.000000 0.000000 0.000000 0.046345 0.000000 0.000000
# 5 0.000000 0.000000 0.000000 0.000000 0.029694 0.000000
# 6 0.000000 0.000000 0.000000 0.000000 0.000000 0.027280
#
#
# Mechanical properties :
#
#
# Convention : Reuss Voigt Hill
#
# Bulk Modulus (GPa) = 22.42644 24.09393 23.26018
# Shear Modulus (GPa) = 27.62600 30.02204 28.82402
#
# Velocity S-wave (km/s) = 3.61902 3.77270 3.69666
# Velocity P-wave (km/s) = 5.30050 5.51366 5.40813
#
# Compressibility (1/GPa) = 0.04459023
#
# Stress axis : x y z
#
# Youngs Moduli (GPa) = 63.80620 44.29514 64.72403
#
# Poissons Ratio (x) = -0.12535 0.07851
# Poissons Ratio (y) = -0.18056 0.39941
# Poissons Ratio (z) = 0.07740 0.27335
#
# Static dielectric constant tensor:
#      x y z
#    x 3.795380 0.000000 0.000000 
#    y 0.000000 3.681910 0.000000 
#    z 0.000000 0.000000 4.163140 
# 
# 
# High freq. dielectric constant tensor:
#      x y z
#    x 1.808240 0.000000 0.000000 
#    y 0.000000 1.818690 0.000000 
#    z 0.000000 0.000000 1.845970 
# 
# From -- ./inp_files/3912.got.cif
#   From: 2010.03.12/outbox.cif.g09.slc.cpg/sg19_2_cif.got.tgz:3912.got - 2010.04.10 18:59:41.
