data_PCOD8156848
_publ_section_title
;
Structure prediction by ZEFSAII (Michael W. Deem and Ramdas Pophale) SiO2 
 PCOD8156848
Probable space group: P 21 21 21
;
_chemical_formula_sum "Si O2"
_cell_formula_units_Z 28
_cell_length_a 11.652182
_cell_length_b 8.302778
_cell_length_c 12.840069
_cell_angle_alpha 90.000000
_cell_angle_beta 90.000000
_cell_angle_gamma 90.000000
_cell_volume 1242.218643
_symmetry_space_group_name_H-M "P 21 21 21"
_symmetry_group_IT_number 19
_symmetry_cell_setting 'orthorhombic'
loop_
_space_group_symop_operation_xyz
x,y,z
1/2-x,-y,1/2+z
1/2+x,1/2-y,-z
-x,1/2+y,1/2-z
loop_
_atom_site_type_symbol
_atom_site_label
_atom_site_fract_x
_atom_site_fract_y
_atom_site_fract_z
Si Si1 0.733781 0.822688 0.458834
Si Si2 0.747124 0.327623 0.321920
Si Si3 0.386377 0.851133 0.693141
Si Si4 0.971659 0.194188 0.395476
Si Si5 0.913940 0.471559 0.954403
Si Si6 0.397063 0.727006 0.369593
Si Si7 0.509844 0.981654 0.498742
O O1 0.797337 0.784841 0.348895
O O2 0.672762 0.659582 0.500657
O O3 0.821784 0.872538 0.548008
O O4 0.638714 0.962750 0.453642
O O5 0.817476 0.483779 0.280968
O O6 0.837849 0.193743 0.362512
O O7 0.659502 0.378894 0.412355
O O8 0.668948 0.239644 0.237690
O O9 0.446093 0.779520 0.795764
O O10 0.484866 0.886260 0.607054
O O11 0.987857 0.331539 0.482733
O O12 0.003426 0.027209 0.451207
O O13 0.987098 0.381975 0.862326
O O14 0.424298 0.907265 0.412217
#
# Coordination Sequence:
#
# PCOD8156848 Si02
#       7
#     4   4   4   4   4   4   4
#     4   9  18  38  60  86 120 157 198 247 304 359
#     4  10  22  41  62  88 122 162 203 254 307 357
#     4   9  19  35  62  90 119 161 205 248 301 360
#     4  11  22  39  64  94 122 155 205 257 304 362
#     4  10  23  40  61  90 122 159 202 251 309 364
#     4  10  20  39  63  82 118 166 203 244 302 365
#     4   9  20  36  58  88 119 158 200 247 305 361
#
# _framework density 22.540313999999999
#
# number of rings (size 3 to 8) (size 9 to 14) (size 15 to 20)
#    0.000    2.286    0.000    2.571    0.000    8.000 
#    0.000   10.000    0.000    3.429    0.000    0.000 
#    0.000    0.000    0.000    0.000    0.000    0.000 
#
# Total GULP energy -347071.618467 kJ/mol
# GULP energy per Si atom -12395.414945 kJ/mol
# Density = 2.248901 g / cm^3
# Si number density = 22.540314 Si / 1000 Ang^3
#
#
#
# Elastic Constant Matrix: (Units=GPa)
#
#
# Indices 1 2 3 4 5 6 
#
# 1 112.4956 18.0330 32.7905 0.0000 0.0000 0.0000
# 2 18.0330 30.6687 19.9471 0.0000 0.0000 0.0000
# 3 32.7905 19.9471 60.3714 0.0000 0.0000 0.0000
# 4 0.0000 0.0000 0.0000 24.5180 0.0000 0.0000
# 5 0.0000 0.0000 0.0000 0.0000 43.1683 0.0000
# 6 0.0000 0.0000 0.0000 0.0000 0.0000 42.3130
#
#
#
# Elastic Compliance Matrix: (Units=1/GPa)
#
#
# Indices 1 2 3 4 5 6 
#
# 1 0.010807 -0.003231 -0.004802 0.000000 0.000000 0.000000
# 2 -0.003231 0.042497 -0.012286 0.000000 0.000000 0.000000
# 3 -0.004802 -0.012286 0.023232 0.000000 0.000000 0.000000
# 4 0.000000 0.000000 0.000000 0.040786 0.000000 0.000000
# 5 0.000000 0.000000 0.000000 0.000000 0.023165 0.000000
# 6 0.000000 0.000000 0.000000 0.000000 0.000000 0.023633
#
#
# Mechanical properties :
#
#
# Convention : Reuss Voigt Hill
#
# Bulk Modulus (GPa) = 27.85752 38.34187 33.09970
# Shear Modulus (GPa) = 23.07055 30.85086 26.96071
#
# Velocity S-wave (km/s) = 3.20273 3.70360 3.46224
# Velocity P-wave (km/s) = 5.10514 5.94443 5.54070
#
# Compressibility (1/GPa) = 0.03589695
#
# Stress axis : x y z
#
# Youngs Moduli (GPa) = 92.53325 23.53080 43.04413
#
# Poissons Ratio (x) = 0.07603 0.20671
# Poissons Ratio (y) = 0.29898 0.52886
# Poissons Ratio (z) = 0.44436 0.28911
#
# Static dielectric constant tensor:
#      x y z
#    x 4.397470 0.000000 0.000000 
#    y 0.000000 3.869220 0.000000 
#    z 0.000000 0.000000 3.700520 
# 
# 
# High freq. dielectric constant tensor:
#      x y z
#    x 1.910050 0.000000 0.000000 
#    y 0.000000 1.873160 0.000000 
#    z 0.000000 0.000000 1.858220 
# 
# From -- ./inp_files/4942.got.cif
#   From: 2010.03.12/outbox.cif.g09.slc.cpg/sg19_3_cif.got.tgz:4942.got - 2010.04.10 18:59:41.
