data_PCOD8156929
_publ_section_title
;
Structure prediction by ZEFSAII (Michael W. Deem and Ramdas Pophale) SiO2 
 PCOD8156929
Probable space group: P 21 21 21
;
_chemical_formula_sum "Si O2"
_cell_formula_units_Z 28
_cell_length_a 5.343999
_cell_length_b 10.666796
_cell_length_c 22.927447
_cell_angle_alpha 90.000000
_cell_angle_beta 90.000000
_cell_angle_gamma 90.000000
_cell_volume 1306.941221
_symmetry_space_group_name_H-M "P 21 21 21"
_symmetry_group_IT_number 19
_symmetry_cell_setting 'orthorhombic'
loop_
_space_group_symop_operation_xyz
x,y,z
1/2-x,-y,1/2+z
1/2+x,1/2-y,-z
-x,1/2+y,1/2-z
loop_
_atom_site_type_symbol
_atom_site_label
_atom_site_fract_x
_atom_site_fract_y
_atom_site_fract_z
Si Si1 0.439108 0.604273 0.854490
Si Si2 0.694712 0.371459 0.828690
Si Si3 0.891074 0.732923 0.036285
Si Si4 0.440845 0.363990 0.140480
Si Si5 0.572042 0.495258 0.617947
Si Si6 0.429076 0.324487 0.717363
Si Si7 0.560510 0.976200 0.240681
O O1 0.532877 0.462950 0.870515
O O2 0.341250 0.663477 0.914174
O O3 0.632287 0.700852 0.821447
O O4 0.217455 0.593244 0.808541
O O5 0.879838 0.285077 0.867321
O O6 0.539098 0.287885 0.781702
O O7 0.809340 0.479600 0.788812
O O8 0.919536 0.594435 0.062285
O O9 0.650619 0.733045 0.994967
O O10 0.698797 0.405473 0.109319
O O11 0.491948 0.375550 0.209331
O O12 0.198568 0.437871 0.117011
O O13 0.609557 0.415712 0.677814
O O14 0.177687 0.400438 0.729283
#
# Coordination Sequence:
#
# PCOD8156929 Si02
#       7
#     4   4   4   4   4   4   4
#     4  10  23  38  58  91 133 164 221 272 321 387
#     4  11  22  32  56  90 131 184 202 252 312 404
#     4  11  25  47  75  97 118 164 227 296 341 369
#     4  11  22  37  60  93 138 174 209 240 321 407
#     4  10  22  41  62  93 126 164 213 273 316 383
#     4   9  19  34  52  86 130 172 207 249 311 376
#     4  10  21  31  55  88 132 176 205 248 310 394
#
# _framework density 21.42407
#
# number of rings (size 3 to 8) (size 9 to 14) (size 15 to 20)
#    0.000    1.714    2.857    0.857    8.000    0.000 
#    0.000    0.000    0.000    3.429    0.000    0.000 
#    0.000    0.000    0.000    0.000    0.000    0.000 
#
# Total GULP energy -346929.006835 kJ/mol
# GULP energy per Si atom -12390.321673 kJ/mol
# Density = 2.137531 g / cm^3
# Si number density = 21.424070 Si / 1000 Ang^3
#
#
#
# Elastic Constant Matrix: (Units=GPa)
#
#
# Indices 1 2 3 4 5 6 
#
# 1 76.5428 8.2637 8.3126 0.0000 0.0000 0.0000
# 2 8.2637 90.7898 21.5226 0.0000 0.0000 0.0000
# 3 8.3126 21.5226 56.3768 0.0000 0.0000 0.0000
# 4 0.0000 0.0000 0.0000 20.6341 0.0000 0.0000
# 5 0.0000 0.0000 0.0000 0.0000 22.4624 0.0000
# 6 0.0000 0.0000 0.0000 0.0000 0.0000 26.3711
#
#
#
# Elastic Compliance Matrix: (Units=1/GPa)
#
#
# Indices 1 2 3 4 5 6 
#
# 1 0.013333 -0.000822 -0.001652 0.000000 0.000000 0.000000
# 2 -0.000822 0.012161 -0.004521 0.000000 0.000000 0.000000
# 3 -0.001652 -0.004521 0.019708 0.000000 0.000000 0.000000
# 4 0.000000 0.000000 0.000000 0.048463 0.000000 0.000000
# 5 0.000000 0.000000 0.000000 0.000000 0.044519 0.000000
# 6 0.000000 0.000000 0.000000 0.000000 0.000000 0.037920
#
#
# Mechanical properties :
#
#
# Convention : Reuss Voigt Hill
#
# Bulk Modulus (GPa) = 32.04057 33.32300 32.68179
# Shear Modulus (GPa) = 24.93785 26.26755 25.60270
#
# Velocity S-wave (km/s) = 3.41546 3.50534 3.46069
# Velocity P-wave (km/s) = 5.52646 5.65429 5.59074
#
# Compressibility (1/GPa) = 0.03121043
#
# Stress axis : x y z
#
# Youngs Moduli (GPa) = 75.00332 82.22924 50.74205
#
# Poissons Ratio (x) = 0.06758 0.08383
# Poissons Ratio (y) = 0.06165 0.22943
# Poissons Ratio (z) = 0.12391 0.37180
#
# Static dielectric constant tensor:
#      x y z
#    x 3.718240 0.000000 0.000000 
#    y 0.000000 4.125340 0.000000 
#    z 0.000000 0.000000 3.586110 
# 
# 
# High freq. dielectric constant tensor:
#      x y z
#    x 1.838360 0.000000 0.000000 
#    y 0.000000 1.852710 0.000000 
#    z 0.000000 0.000000 1.794450 
# 
# From -- ./inp_files/1095.got.cif
#   From: 2010.03.12/outbox.cif.g09.slc.cpg/sg19_1_cif.got.tgz:1095.got - 2010.04.10 18:59:41.
