data_PCOD8156307
_publ_section_title
;
Structure prediction by ZEFSAII (Michael W. Deem and Ramdas Pophale) SiO2 
 PCOD8156307
Probable space group: P 21 21 2
;
_chemical_formula_sum "Si O2"
_cell_formula_units_Z 26
_cell_length_a 17.677785
_cell_length_b 7.549647
_cell_length_c 9.455488
_cell_angle_alpha 90.000000
_cell_angle_beta 90.000000
_cell_angle_gamma 90.000000
_cell_volume 1261.939229
_symmetry_space_group_name_H-M "P 21 21 2"
_symmetry_group_IT_number 18
_symmetry_cell_setting 'orthorhombic'
loop_
_space_group_symop_operation_xyz
x,y,z
-x,-y,z
1/2+x,1/2-y,-z
1/2-x,1/2+y,-z
loop_
_atom_site_type_symbol
_atom_site_label
_atom_site_fract_x
_atom_site_fract_y
_atom_site_fract_z
Si Si1 0.342671 0.550843 0.376948
Si Si2 0.000000 0.000000 0.473287
Si Si3 0.227011 0.230002 0.361466
Si Si4 0.317037 0.710953 0.088157
Si Si5 0.809725 0.055242 0.157600
Si Si6 0.394820 0.886218 0.845688
Si Si7 0.456236 0.259675 0.767798
O O1 0.425532 0.513561 0.433462
O O2 0.297934 0.363851 0.357781
O O3 0.294624 0.682444 0.477607
O O4 0.359347 0.650264 0.229725
O O5 0.989388 0.182393 0.384272
O O6 0.156694 0.305404 0.275350
O O7 0.240316 0.044324 0.278507
O O8 0.231700 0.759220 0.133125
O O9 0.309640 0.543620 0.989552
O O10 0.356665 0.875029 0.002287
O O11 0.898249 0.083044 0.193947
O O12 0.470658 0.767445 0.867260
O O13 0.410426 0.077544 0.779341
#
# Coordination Sequence:
#
# PCOD8156307 Si02
#       7
#     4   2   4   4   4   4   4
#     4  12  25  40  65  98 141 167 228 276 349 395
#     4  12  24  44  64 102 132 184 220 286 336 406
#     4  11  23  41  65  96 126 185 220 271 331 410
#     4  11  23  40  62 101 133 169 223 286 342 393
#     4  11  21  41  68  92 133 179 234 273 336 412
#     4  10  23  41  71  96 128 176 233 275 334 408
#     4  11  21  43  71  94 126 180 235 271 324 424
#
# _framework density 20.603209
#
# number of rings (size 3 to 8) (size 9 to 14) (size 15 to 20)
#    0.000    0.923    3.077    5.538    2.154    1.231 
#    0.000    1.538    0.000    0.000    0.000    0.000 
#    0.000    0.000    0.000    0.000    0.000    0.000 
#
# Total GULP energy -322094.652540 kJ/mol
# GULP energy per Si atom -12388.255867 kJ/mol
# Density = 2.055631 g / cm^3
# Si number density = 20.603209 Si / 1000 Ang^3
#
#
#
# Elastic Constant Matrix: (Units=GPa)
#
#
# Indices 1 2 3 4 5 6 
#
# 1 116.6049 47.4214 34.1833 0.0000 0.0000 0.0000
# 2 47.4214 94.9907 47.5830 0.0000 0.0000 0.0000
# 3 34.1833 47.5830 134.7439 0.0000 0.0000 0.0000
# 4 0.0000 0.0000 0.0000 23.3330 0.0000 0.0000
# 5 0.0000 0.0000 0.0000 0.0000 29.6987 0.0000
# 6 0.0000 0.0000 0.0000 0.0000 0.0000 46.2397
#
#
#
# Elastic Compliance Matrix: (Units=1/GPa)
#
#
# Indices 1 2 3 4 5 6 
#
# 1 0.010875 -0.004917 -0.001023 0.000000 0.000000 0.000000
# 2 -0.004917 0.015013 -0.004054 0.000000 0.000000 0.000000
# 3 -0.001023 -0.004054 0.009113 0.000000 0.000000 0.000000
# 4 0.000000 0.000000 0.000000 0.042858 0.000000 0.000000
# 5 0.000000 0.000000 0.000000 0.000000 0.033672 0.000000
# 6 0.000000 0.000000 0.000000 0.000000 0.000000 0.021626
#
#
# Mechanical properties :
#
#
# Convention : Reuss Voigt Hill
#
# Bulk Modulus (GPa) = 66.60779 67.19055 66.89917
# Shear Modulus (GPa) = 31.61585 34.33107 32.97346
#
# Velocity S-wave (km/s) = 3.92153 4.08646 4.00484
# Velocity P-wave (km/s) = 7.27349 7.41269 7.34342
#
# Compressibility (1/GPa) = 0.01501326
#
# Stress axis : x y z
#
# Youngs Moduli (GPa) = 91.95056 66.60961 109.73810
#
# Poissons Ratio (x) = 0.32752 0.11222
# Poissons Ratio (y) = 0.45212 0.44490
# Poissons Ratio (z) = 0.09403 0.27005
#
# Static dielectric constant tensor:
#      x y z
#    x 3.990150 0.000000 0.000000 
#    y 0.000000 4.065750 0.000000 
#    z 0.000000 0.000000 3.916980 
# 
# 
# High freq. dielectric constant tensor:
#      x y z
#    x 1.814180 0.000000 0.000000 
#    y 0.000000 1.814870 0.000000 
#    z 0.000000 0.000000 1.800990 
# 
# From -- ./inp_files/4529.got.cif
#   From: 2010.03.12/outbox.cif.g09.slc.cpg/sg18_3_cif.got.tgz:4529.got - 2010.04.10 18:53:55.
