data_PCOD8156659
_publ_section_title
;
Structure prediction by ZEFSAII (Michael W. Deem and Ramdas Pophale) SiO2 
 PCOD8156659
Probable space group: P 21 21 21
;
_chemical_formula_sum "Si O2"
_cell_formula_units_Z 32
_cell_length_a 19.769996
_cell_length_b 16.698468
_cell_length_c 4.979715
_cell_angle_alpha 90.000000
_cell_angle_beta 90.000000
_cell_angle_gamma 90.000000
_cell_volume 1643.946568
_symmetry_space_group_name_H-M "P 21 21 21"
_symmetry_group_IT_number 19
_symmetry_cell_setting 'orthorhombic'
loop_
_space_group_symop_operation_xyz
x,y,z
1/2-x,-y,1/2+z
1/2+x,1/2-y,-z
-x,1/2+y,1/2-z
loop_
_atom_site_type_symbol
_atom_site_label
_atom_site_fract_x
_atom_site_fract_y
_atom_site_fract_z
Si Si1 0.058764 0.422876 0.285887
Si Si2 0.584744 0.525672 0.713010
Si Si3 0.732899 0.949504 0.309093
Si Si4 0.058764 0.077124 0.785889
Si Si5 0.584744 0.974328 0.213012
Si Si6 0.830011 0.697206 0.802466
Si Si7 0.830012 0.802795 0.302466
Si Si8 0.767100 0.449504 0.309092
O O1 0.074215 0.450441 0.588377
O O2 0.094537 0.338144 0.234345
O O3 0.978112 0.412881 0.240842
O O4 0.088776 0.490433 0.086975
O O5 0.588776 0.490433 0.413024
O O6 0.653732 0.572448 0.777402
O O7 0.574215 0.450441 0.911622
O O8 0.775182 0.870819 0.240238
O O9 0.747389 0.978294 0.610457
O O10 0.653731 0.927552 0.277405
O O11 0.094537 0.161856 0.734346
O O12 0.978112 0.087119 0.740844
O O13 0.819846 0.771315 0.602794
O O14 0.775182 0.629181 0.740238
O O15 0.819846 0.728685 0.102794
O O16 0.752612 0.478294 0.610456
#
# Coordination Sequence:
#
# PCOD8156659 Si02
#       8
#     4   4   4   4   4   4   4   4
#     4  10  20  36  59  85 113 147 194 245 284 348
#     4  10  19  36  61  87 108 143 204 247 278 326
#     4  12  21  38  62  88 116 155 202 248 286 350
#     4  10  20  36  59  85 113 147 194 245 284 348
#     4  10  19  36  61  87 108 143 204 247 278 326
#     4  12  24  38  56  88 125 159 190 240 312 358
#     4  12  24  38  56  88 125 159 190 240 312 358
#     4  12  21  38  62  88 116 155 202 248 286 350
#
# _framework density 19.465354000000001
#
# number of rings (size 3 to 8) (size 9 to 14) (size 15 to 20)
#    0.000    1.000    5.000    3.000    0.000    0.000 
#    0.000    2.500    0.000    0.000    0.000    0.000 
#    0.000    0.000    0.000    0.000    0.000    0.000 
#
# Total GULP energy -396972.175681 kJ/mol
# GULP energy per Si atom -12405.380490 kJ/mol
# Density = 1.942105 g / cm^3
# Si number density = 19.465354 Si / 1000 Ang^3
#
#
#
# Elastic Constant Matrix: (Units=GPa)
#
#
# Indices 1 2 3 4 5 6 
#
# 1 143.3958 42.5288 12.3443 0.0000 0.0000 0.0000
# 2 42.5288 71.4942 9.2293 0.0000 0.0000 0.0000
# 3 12.3443 9.2293 73.3236 0.0000 0.0000 0.0000
# 4 0.0000 0.0000 0.0000 32.5433 0.0000 0.0000
# 5 0.0000 0.0000 0.0000 0.0000 24.9511 0.0000
# 6 0.0000 0.0000 0.0000 0.0000 0.0000 35.4959
#
#
#
# Elastic Compliance Matrix: (Units=1/GPa)
#
#
# Indices 1 2 3 4 5 6 
#
# 1 0.008515 -0.004960 -0.000809 0.000000 0.000000 0.000000
# 2 -0.004960 0.017108 -0.001318 0.000000 0.000000 0.000000
# 3 -0.000809 -0.001318 0.013940 0.000000 0.000000 0.000000
# 4 0.000000 0.000000 0.000000 0.030728 0.000000 0.000000
# 5 0.000000 0.000000 0.000000 0.000000 0.040078 0.000000
# 6 0.000000 0.000000 0.000000 0.000000 0.000000 0.028172
#
#
# Mechanical properties :
#
#
# Convention : Reuss Voigt Hill
#
# Bulk Modulus (GPa) = 39.38984 46.26873 42.82929
# Shear Modulus (GPa) = 31.02119 33.53880 32.28000
#
# Velocity S-wave (km/s) = 3.99640 4.15541 4.07668
# Velocity P-wave (km/s) = 6.44785 6.84431 6.64904
#
# Compressibility (1/GPa) = 0.02538725
#
# Stress axis : x y z
#
# Youngs Moduli (GPa) = 117.44596 58.45184 71.73438
#
# Poissons Ratio (x) = 0.28995 0.05804
# Poissons Ratio (y) = 0.58259 0.09457
# Poissons Ratio (z) = 0.09502 0.07706
#
# Static dielectric constant tensor:
#      x y z
#    x 3.914340 0.000000 0.000000 
#    y 0.000000 3.133110 0.000000 
#    z 0.000000 0.000000 3.709140 
# 
# 
# High freq. dielectric constant tensor:
#      x y z
#    x 1.774640 0.000000 0.000000 
#    y 0.000000 1.708910 0.000000 
#    z 0.000000 0.000000 1.781310 
# 
# From -- ./inp_files/1774.got.cif
#   From: 2010.03.12/outbox.cif.g09.slc.cpg/sg19_1_cif.got.tgz:1774.got - 2010.04.10 18:59:41.
