data_PCOD8156438
_publ_section_title
;
Structure prediction by ZEFSAII (Michael W. Deem and Ramdas Pophale) SiO2 
 PCOD8156438
Probable space group: P 21 21 2
;
_chemical_formula_sum "Si O2"
_cell_formula_units_Z 22
_cell_length_a 11.704750
_cell_length_b 12.847997
_cell_length_c 6.379028
_cell_angle_alpha 90.000000
_cell_angle_beta 90.000000
_cell_angle_gamma 90.000000
_cell_volume 959.294771
_symmetry_space_group_name_H-M "P 21 21 2"
_symmetry_group_IT_number 18
_symmetry_cell_setting 'orthorhombic'
loop_
_space_group_symop_operation_xyz
x,y,z
-x,-y,z
1/2+x,1/2-y,-z
1/2-x,1/2+y,-z
loop_
_atom_site_type_symbol
_atom_site_label
_atom_site_fract_x
_atom_site_fract_y
_atom_site_fract_z
Si Si1 0.422995 0.667980 0.707090
Si Si2 0.500000 0.500000 0.978385
Si Si3 0.762829 0.398147 0.418037
Si Si4 0.666931 0.229740 0.101304
Si Si5 0.706734 0.584386 0.171573
Si Si6 0.558921 0.770856 0.361467
O O1 0.352185 0.591975 0.554701
O O2 0.493445 0.750765 0.577042
O O3 0.513655 0.602644 0.840052
O O4 0.337379 0.724736 0.865925
O O5 0.613524 0.494738 0.117303
O O6 0.743600 0.302948 0.251233
O O7 0.789463 0.512508 0.317703
O O8 0.865457 0.371420 0.579589
O O9 0.538227 0.207927 0.185436
O O10 0.731851 0.121425 0.044571
O O11 0.642318 0.676609 0.295168
#
# Coordination Sequence:
#
# PCOD8156438 Si02
#       6
#     4   2   4   4   4   4
#     4  11  21  41  70 102 136 181 232 294 355 425
#     4  12  20  40  76 102 132 180 238 294 352 416
#     4  11  24  43  72 104 139 187 242 297 354 435
#     4  11  24  44  71 105 141 186 237 303 360 426
#     4  12  23  44  75 106 140 187 247 291 359 438
#     4  11  24  43  73 101 146 187 234 299 364 426
#
# _framework density 22.933513999999999
#
# number of rings (size 3 to 8) (size 9 to 14) (size 15 to 20)
#    0.000    0.727    5.455    3.273    0.000    0.000 
#    0.000    0.909    8.000    0.000    0.000    0.000 
#    0.000    0.000    0.000    0.000    0.000    0.000 
#
# Total GULP energy -272628.950961 kJ/mol
# GULP energy per Si atom -12392.225044 kJ/mol
# Density = 2.288132 g / cm^3
# Si number density = 22.933514 Si / 1000 Ang^3
#
#
#
# Elastic Constant Matrix: (Units=GPa)
#
#
# Indices 1 2 3 4 5 6 
#
# 1 83.7158 44.4344 34.4043 0.0000 0.0000 0.0000
# 2 44.4344 82.7982 34.1896 0.0000 0.0000 0.0000
# 3 34.4043 34.1896 103.2818 0.0000 0.0000 0.0000
# 4 0.0000 0.0000 0.0000 45.1212 0.0000 0.0000
# 5 0.0000 0.0000 0.0000 0.0000 36.6822 0.0000
# 6 0.0000 0.0000 0.0000 0.0000 0.0000 35.9402
#
#
#
# Elastic Compliance Matrix: (Units=1/GPa)
#
#
# Indices 1 2 3 4 5 6 
#
# 1 0.017551 -0.008114 -0.003160 0.000000 0.000000 0.000000
# 2 -0.008114 0.017741 -0.003170 0.000000 0.000000 0.000000
# 3 -0.003160 -0.003170 0.011784 0.000000 0.000000 0.000000
# 4 0.000000 0.000000 0.000000 0.022163 0.000000 0.000000
# 5 0.000000 0.000000 0.000000 0.000000 0.027261 0.000000
# 6 0.000000 0.000000 0.000000 0.000000 0.000000 0.027824
#
#
# Mechanical properties :
#
#
# Convention : Reuss Voigt Hill
#
# Bulk Modulus (GPa) = 54.98257 55.09472 55.03864
# Shear Modulus (GPa) = 31.39243 33.99988 32.69616
#
# Velocity S-wave (km/s) = 3.70380 3.85456 3.77993
# Velocity P-wave (km/s) = 6.50521 6.62465 6.56520
#
# Compressibility (1/GPa) = 0.01818758
#
# Stress axis : x y z
#
# Youngs Moduli (GPa) = 56.97838 56.36725 84.85800
#
# Poissons Ratio (x) = 0.45734 0.26819
# Poissons Ratio (y) = 0.46230 0.26900
# Poissons Ratio (z) = 0.18007 0.17869
#
# Static dielectric constant tensor:
#      x y z
#    x 4.242410 0.000000 0.000000 
#    y 0.000000 4.081540 0.000000 
#    z 0.000000 0.000000 4.324700 
# 
# 
# High freq. dielectric constant tensor:
#      x y z
#    x 1.901720 0.000000 0.000000 
#    y 0.000000 1.883330 0.000000 
#    z 0.000000 0.000000 1.921040 
# 
# From -- ./inp_files/1043.got.cif
#   From: 2010.03.12/outbox.cif.g09.slc.cpg/sg18_1_cif.got.tgz:1043.got - 2010.04.10 18:53:55.
