data_PCOD8156697
_publ_section_title
;
Structure prediction by ZEFSAII (Michael W. Deem and Ramdas Pophale) SiO2 
 PCOD8156697
Probable space group: P 21 21 21
;
_chemical_formula_sum "Si O2"
_cell_formula_units_Z 20
_cell_length_a 17.348272
_cell_length_b 7.392057
_cell_length_c 7.329759
_cell_angle_alpha 90.000000
_cell_angle_beta 90.000000
_cell_angle_gamma 90.000000
_cell_volume 939.964010
_symmetry_space_group_name_H-M "P 21 21 21"
_symmetry_group_IT_number 19
_symmetry_cell_setting 'orthorhombic'
loop_
_space_group_symop_operation_xyz
x,y,z
1/2-x,-y,1/2+z
1/2+x,1/2-y,-z
-x,1/2+y,1/2-z
loop_
_atom_site_type_symbol
_atom_site_label
_atom_site_fract_x
_atom_site_fract_y
_atom_site_fract_z
Si Si1 0.461508 0.778629 0.474852
Si Si2 0.835030 0.104239 0.708310
Si Si3 0.184304 0.352148 0.119616
Si Si4 0.007435 0.639078 0.915503
Si Si5 0.085163 0.453891 0.445590
O O1 0.375091 0.805391 0.557911
O O2 0.482470 0.565186 0.486628
O O3 0.459796 0.860976 0.272641
O O4 0.525093 0.883821 0.592386
O O5 0.766583 0.222900 0.802564
O O6 0.906180 0.221954 0.626639
O O7 0.797216 0.983114 0.549788
O O8 0.872875 0.971597 0.859404
O O9 0.145194 0.465865 0.282140
O O10 0.962216 0.763986 0.059272
#
# Coordination Sequence:
#
# PCOD8156697 Si02
#       5
#     4   4   4   4   4
#     4  10  21  36  63  94 116 160 206 246 302 353
#     4  10  21  37  59  92 121 159 201 245 308 356
#     4  11  21  37  61  92 122 162 202 244 310 364
#     4  10  19  39  63  87 121 158 203 254 294 354
#     4  11  22  39  64  85 126 159 206 253 290 367
#
# _framework density 21.277412000000002
#
# number of rings (size 3 to 8) (size 9 to 14) (size 15 to 20)
#    0.000    1.600    8.000    0.000    5.600    0.000 
#    0.000    0.000    8.800    7.200    0.000    0.000 
#    0.000    0.000    0.000    0.000    0.000    0.000 
#
# Total GULP energy -247767.221789 kJ/mol
# GULP energy per Si atom -12388.361089 kJ/mol
# Density = 2.122898 g / cm^3
# Si number density = 21.277412 Si / 1000 Ang^3
#
#
#
# Elastic Constant Matrix: (Units=GPa)
#
#
# Indices 1 2 3 4 5 6 
#
# 1 92.1902 -4.0383 23.8041 0.0000 0.0000 0.0000
# 2 -4.0383 46.8245 0.7021 0.0000 0.0000 0.0000
# 3 23.8041 0.7021 58.5089 0.0000 0.0000 0.0000
# 4 0.0000 0.0000 0.0000 22.9776 0.0000 0.0000
# 5 0.0000 0.0000 0.0000 0.0000 42.3751 0.0000
# 6 0.0000 0.0000 0.0000 0.0000 0.0000 27.6357
#
#
#
# Elastic Compliance Matrix: (Units=1/GPa)
#
#
# Indices 1 2 3 4 5 6 
#
# 1 0.012179 0.001125 -0.004969 0.000000 0.000000 0.000000
# 2 0.001125 0.021464 -0.000715 0.000000 0.000000 0.000000
# 3 -0.004969 -0.000715 0.019121 0.000000 0.000000 0.000000
# 4 0.000000 0.000000 0.000000 0.043521 0.000000 0.000000
# 5 0.000000 0.000000 0.000000 0.000000 0.023599 0.000000
# 6 0.000000 0.000000 0.000000 0.000000 0.000000 0.036185
#
#
# Mechanical properties :
#
#
# Convention : Reuss Voigt Hill
#
# Bulk Modulus (GPa) = 22.91110 26.49549 24.70329
# Shear Modulus (GPa) = 27.81854 30.40140 29.10997
#
# Velocity S-wave (km/s) = 3.61975 3.78406 3.70282
# Velocity P-wave (km/s) = 5.31614 5.61886 5.46959
#
# Compressibility (1/GPa) = 0.04364697
#
# Stress axis : x y z
#
# Youngs Moduli (GPa) = 82.10625 46.58950 52.29722
#
# Poissons Ratio (x) = -0.05241 0.25984
# Poissons Ratio (y) = -0.09236 0.03741
# Poissons Ratio (z) = 0.40795 0.03332
#
# Static dielectric constant tensor:
#      x y z
#    x 4.245830 0.000000 0.000000 
#    y 0.000000 3.350150 0.000000 
#    z 0.000000 0.000000 4.020790 
# 
# 
# High freq. dielectric constant tensor:
#      x y z
#    x 1.846190 0.000000 0.000000 
#    y 0.000000 1.769960 0.000000 
#    z 0.000000 0.000000 1.853910 
# 
# From -- ./inp_files/2717.got.cif
#   From: 2010.03.12/outbox.cif.g09.slc.cpg/sg19_2_cif.got.tgz:2717.got - 2010.04.10 18:59:41.
