data_PCOD8156669
_publ_section_title
;
Structure prediction by ZEFSAII (Michael W. Deem and Ramdas Pophale) SiO2 
 PCOD8156669
Probable space group: P 21 21 21
;
_chemical_formula_sum "Si O2"
_cell_formula_units_Z 32
_cell_length_a 16.825025
_cell_length_b 17.766343
_cell_length_c 4.985982
_cell_angle_alpha 90.000000
_cell_angle_beta 90.000000
_cell_angle_gamma 90.000000
_cell_volume 1490.405577
_symmetry_space_group_name_H-M "P 21 21 21"
_symmetry_group_IT_number 19
_symmetry_cell_setting 'orthorhombic'
loop_
_space_group_symop_operation_xyz
x,y,z
1/2-x,-y,1/2+z
1/2+x,1/2-y,-z
-x,1/2+y,1/2-z
loop_
_atom_site_type_symbol
_atom_site_label
_atom_site_fract_x
_atom_site_fract_y
_atom_site_fract_z
Si Si1 0.714723 0.746396 0.323170
Si Si2 0.565618 0.144786 0.239755
Si Si3 0.847673 0.464440 0.092903
Si Si4 0.976755 0.948954 0.240197
Si Si5 0.753661 0.828836 0.817767
Si Si6 0.042040 0.710995 0.741882
Si Si7 0.229275 0.905786 0.908087
Si Si8 0.084357 0.614311 0.257179
O O1 0.748987 0.755403 0.623291
O O2 0.619145 0.737052 0.318764
O O3 0.756432 0.675964 0.183127
O O4 0.739408 0.815702 0.132727
O O5 0.522405 0.088616 0.446851
O O6 0.659401 0.136372 0.294032
O O7 0.532401 0.230843 0.261331
O O8 0.553316 0.115555 0.939843
O O9 0.807831 0.545316 0.127225
O O10 0.803848 0.404885 0.289559
O O11 0.936749 0.475640 0.177831
O O12 0.840429 0.435423 0.789591
O O13 0.925823 0.024844 0.258927
O O14 0.680159 0.879355 0.708817
O O15 0.035356 0.649213 0.506460
O O16 0.050858 0.662127 0.009237
#
# Coordination Sequence:
#
# PCOD8156669 Si02
#       8
#     4   4   4   4   4   4   4   4
#     4  10  19  37  60  81 111 149 189 235 292 349
#     4  12  25  40  63  91 120 155 201 249 292 351
#     4  10  21  35  53  84 117 150 193 230 292 361
#     4  12  24  39  61  88 121 161 201 247 297 351
#     4  10  23  39  58  86 112 149 200 241 289 344
#     4  10  21  39  62  86 118 155 193 243 297 353
#     4  10  20  35  57  84 117 151 186 241 292 354
#     4  10  23  42  62  86 120 158 197 244 299 351
#
# _framework density 21.470665
#
# number of rings (size 3 to 8) (size 9 to 14) (size 15 to 20)
#    0.000    1.500    0.000    5.250    0.000    5.000 
#    0.000    0.000    0.000    0.000    0.000    0.000 
#    0.000    0.000    0.000    0.000    0.000    0.000 
#
# Total GULP energy -396715.734122 kJ/mol
# GULP energy per Si atom -12397.366691 kJ/mol
# Density = 2.142180 g / cm^3
# Si number density = 21.470665 Si / 1000 Ang^3
#
#
#
# Elastic Constant Matrix: (Units=GPa)
#
#
# Indices 1 2 3 4 5 6 
#
# 1 102.4817 11.5524 12.3920 0.0000 0.0000 0.0000
# 2 11.5524 63.2757 9.9521 0.0000 0.0000 0.0000
# 3 12.3920 9.9521 78.5465 0.0000 0.0000 0.0000
# 4 0.0000 0.0000 0.0000 32.1247 0.0000 0.0000
# 5 0.0000 0.0000 0.0000 0.0000 12.3942 0.0000
# 6 0.0000 0.0000 0.0000 0.0000 0.0000 16.6993
#
#
#
# Elastic Compliance Matrix: (Units=1/GPa)
#
#
# Indices 1 2 3 4 5 6 
#
# 1 0.010109 -0.001627 -0.001389 0.000000 0.000000 0.000000
# 2 -0.001627 0.016387 -0.001820 0.000000 0.000000 0.000000
# 3 -0.001389 -0.001820 0.013181 0.000000 0.000000 0.000000
# 4 0.000000 0.000000 0.000000 0.031129 0.000000 0.000000
# 5 0.000000 0.000000 0.000000 0.000000 0.080683 0.000000
# 6 0.000000 0.000000 0.000000 0.000000 0.000000 0.059883
#
#
# Mechanical properties :
#
#
# Convention : Reuss Voigt Hill
#
# Bulk Modulus (GPa) = 33.32643 34.67743 34.00193
# Shear Modulus (GPa) = 21.64078 26.27078 23.95578
#
# Velocity S-wave (km/s) = 3.17822 3.50175 3.34390
# Velocity P-wave (km/s) = 5.38736 5.70401 5.54795
#
# Compressibility (1/GPa) = 0.03000621
#
# Stress axis : x y z
#
# Youngs Moduli (GPa) = 98.91988 61.02352 75.86704
#
# Poissons Ratio (x) = 0.09930 0.10536
# Poissons Ratio (y) = 0.16097 0.13805
# Poissons Ratio (z) = 0.13737 0.11104
#
# Static dielectric constant tensor:
#      x y z
#    x 3.777290 0.000000 0.000000 
#    y 0.000000 3.660750 0.000000 
#    z 0.000000 0.000000 4.200770 
# 
# 
# High freq. dielectric constant tensor:
#      x y z
#    x 1.833100 0.000000 0.000000 
#    y 0.000000 1.830730 0.000000 
#    z 0.000000 0.000000 1.864310 
# 
# From -- ./inp_files/1602.got.cif
#   From: 2010.03.12/outbox.cif.g09.slc.cpg/sg19_1_cif.got.tgz:1602.got - 2010.04.10 18:59:41.
