data_PCOD8156149
_publ_section_title
;
Structure prediction by ZEFSAII (Michael W. Deem and Ramdas Pophale) SiO2 
 PCOD8156149
Probable space group: P 21 21 2
;
_chemical_formula_sum "Si O2"
_cell_formula_units_Z 30
_cell_length_a 26.545463
_cell_length_b 5.560700
_cell_length_c 9.511298
_cell_angle_alpha 90.000000
_cell_angle_beta 90.000000
_cell_angle_gamma 90.000000
_cell_volume 1403.975596
_symmetry_space_group_name_H-M "P 21 21 2"
_symmetry_group_IT_number 18
_symmetry_cell_setting 'orthorhombic'
loop_
_space_group_symop_operation_xyz
x,y,z
-x,-y,z
1/2+x,1/2-y,-z
1/2-x,1/2+y,-z
loop_
_atom_site_type_symbol
_atom_site_label
_atom_site_fract_x
_atom_site_fract_y
_atom_site_fract_z
Si Si1 0.799060 0.163333 0.987098
Si Si2 0.088443 0.714001 0.544090
Si Si3 0.256468 0.100855 0.764470
Si Si4 0.639556 0.164603 0.985745
Si Si5 0.923933 0.661492 0.756980
Si Si6 0.500000 0.500000 0.377202
Si Si7 0.641064 0.093380 0.672451
Si Si8 0.837638 0.899032 0.580662
O O1 0.763128 0.175633 0.125736
O O2 0.829403 0.417144 0.981772
O O3 0.832026 0.917668 0.983036
O O4 0.761834 0.136503 0.852275
O O5 0.066865 0.596634 0.687068
O O6 0.095769 0.543403 0.409103
O O7 0.143002 0.826740 0.582291
O O8 0.043241 0.902709 0.515227
O O9 0.310232 0.071826 0.691832
O O10 0.218208 0.147462 0.637435
O O11 0.621079 0.174536 0.824526
O O12 0.588592 0.152177 0.077750
O O13 0.973451 0.815930 0.729404
O O14 0.873537 0.747522 0.679942
O O15 0.658520 0.321402 0.581664
#
# Coordination Sequence:
#
# PCOD8156149 Si02
#       8
#     4   4   4   4   4   2   4   4
#     4  11  24  41  61  98 136 191 233 279 324 385
#     4  10  22  44  65 101 131 175 227 283 350 405
#     4  11  22  39  61  95 139 187 241 270 326 394
#     4  11  24  44  68  98 140 179 228 283 340 400
#     4  10  21  42  71  98 123 167 223 286 345 405
#     4  10  22  42  78  98 124 162 230 292 348 424
#     4  10  25  37  60  97 138 185 219 278 335 405
#     4  10  22  39  61  92 135 182 225 276 325 396
#
# _framework density 21.367895000000001
#
# number of rings (size 3 to 8) (size 9 to 14) (size 15 to 20)
#    0.000    1.600    1.333    2.800    7.467    0.000 
#    7.200    0.000    0.000   19.200    0.000    0.000 
#    0.000    0.000    0.000    0.000    0.000    0.000 
#
# Total GULP energy -371645.903360 kJ/mol
# GULP energy per Si atom -12388.196779 kJ/mol
# Density = 2.131926 g / cm^3
# Si number density = 21.367895 Si / 1000 Ang^3
#
#
#
# Elastic Constant Matrix: (Units=GPa)
#
#
# Indices 1 2 3 4 5 6 
#
# 1 86.2870 26.1036 47.7920 0.0000 0.0000 0.0000
# 2 26.1036 101.7532 28.8303 0.0000 0.0000 0.0000
# 3 47.7920 28.8303 131.2070 0.0000 0.0000 0.0000
# 4 0.0000 0.0000 0.0000 20.6464 0.0000 0.0000
# 5 0.0000 0.0000 0.0000 0.0000 20.0767 0.0000
# 6 0.0000 0.0000 0.0000 0.0000 0.0000 29.5346
#
#
#
# Elastic Compliance Matrix: (Units=1/GPa)
#
#
# Indices 1 2 3 4 5 6 
#
# 1 0.015077 -0.002465 -0.004950 0.000000 0.000000 0.000000
# 2 -0.002465 0.010883 -0.001493 0.000000 0.000000 0.000000
# 3 -0.004950 -0.001493 0.009753 0.000000 0.000000 0.000000
# 4 0.000000 0.000000 0.000000 0.048434 0.000000 0.000000
# 5 0.000000 0.000000 0.000000 0.000000 0.049809 0.000000
# 6 0.000000 0.000000 0.000000 0.000000 0.000000 0.033859
#
#
# Mechanical properties :
#
#
# Convention : Reuss Voigt Hill
#
# Bulk Modulus (GPa) = 55.88035 58.29986 57.09011
# Shear Modulus (GPa) = 26.09642 28.48630 27.29136
#
# Velocity S-wave (km/s) = 3.49849 3.65517 3.57769
# Velocity P-wave (km/s) = 6.52132 6.71988 6.62134
#
# Compressibility (1/GPa) = 0.01789538
#
# Stress axis : x y z
#
# Youngs Moduli (GPa) = 66.32771 91.88412 102.53554
#
# Poissons Ratio (x) = 0.22652 0.50755
# Poissons Ratio (y) = 0.16351 0.15313
# Poissons Ratio (z) = 0.32832 0.13722
#
# Static dielectric constant tensor:
#      x y z
#    x 3.725390 0.000000 0.000000 
#    y 0.000000 4.176730 0.000000 
#    z 0.000000 0.000000 4.116250 
# 
# 
# High freq. dielectric constant tensor:
#      x y z
#    x 1.822810 0.000000 0.000000 
#    y 0.000000 1.843140 0.000000 
#    z 0.000000 0.000000 1.831740 
# 
# From -- ./inp_files/4854.got.cif
#   From: 2010.03.12/outbox.cif.g09.slc.cpg/sg18_3_cif.got.tgz:4854.got - 2010.04.10 18:53:55.
