data_PCOD8156301
_publ_section_title
;
Structure prediction by ZEFSAII (Michael W. Deem and Ramdas Pophale) SiO2 
 PCOD8156301
Probable space group: P 21 21 2
;
_chemical_formula_sum "Si O2"
_cell_formula_units_Z 24
_cell_length_a 8.876124
_cell_length_b 8.661777
_cell_length_c 15.747352
_cell_angle_alpha 90.000000
_cell_angle_beta 90.000000
_cell_angle_gamma 90.000000
_cell_volume 1210.703770
_symmetry_space_group_name_H-M "P 21 21 2"
_symmetry_group_IT_number 18
_symmetry_cell_setting 'orthorhombic'
loop_
_space_group_symop_operation_xyz
x,y,z
-x,-y,z
1/2+x,1/2-y,-z
1/2-x,1/2+y,-z
loop_
_atom_site_type_symbol
_atom_site_label
_atom_site_fract_x
_atom_site_fract_y
_atom_site_fract_z
Si Si1 0.692993 0.324735 0.390251
Si Si2 0.000000 0.000000 0.729044
Si Si3 0.246429 0.993195 0.866730
Si Si4 0.002413 0.741602 0.138668
Si Si5 0.992407 0.174595 0.324932
Si Si6 0.640417 0.107991 0.548498
Si Si7 0.500000 0.500000 0.995507
O O1 0.550533 0.351349 0.327707
O O2 0.832056 0.256758 0.337584
O O3 0.660696 0.203376 0.463221
O O4 0.720966 0.495951 0.429427
O O5 0.858146 0.050655 0.786523
O O6 0.352959 0.849786 0.888773
O O7 0.352071 0.136827 0.844146
O O8 0.145495 0.036030 0.947646
O O9 0.966785 0.830583 0.225773
O O10 0.040796 0.855214 0.062467
O O11 0.117807 0.274919 0.373511
O O12 0.000000 0.000000 0.360505
O O13 0.500000 0.000000 0.531695
#
# Coordination Sequence:
#
# PCOD8156301 Si02
#       7
#     4   2   4   4   4   4   2
#     4  11  23  40  62  90 126 166 213 265 320 370
#     4  11  22  38  63  90 122 164 209 254 318 367
#     4  10  23  40  64  89 126 163 202 254 314 384
#     4  11  21  41  63  92 122 164 206 252 312 383
#     4  11  22  40  63  90 122 166 218 260 314 379
#     4  10  24  39  61  89 122 166 216 258 316 373
#     4  11  22  40  65  96 120 156 205 258 312 371
#
# _framework density 19.823181999999999
#
# number of rings (size 3 to 8) (size 9 to 14) (size 15 to 20)
#    0.000    1.333    2.500    3.000   10.500    0.000 
#    3.000    0.000    0.000    0.000    0.000    0.000 
#    0.000    0.000    0.000    0.000    0.000    0.000 
#
# Total GULP energy -297607.665370 kJ/mol
# GULP energy per Si atom -12400.319390 kJ/mol
# Density = 1.977806 g / cm^3
# Si number density = 19.823182 Si / 1000 Ang^3
#
#
#
# Elastic Constant Matrix: (Units=GPa)
#
#
# Indices 1 2 3 4 5 6 
#
# 1 79.0039 27.6606 30.7976 0.0000 0.0000 0.0000
# 2 27.6606 115.2319 38.5291 0.0000 0.0000 0.0000
# 3 30.7976 38.5291 116.6243 0.0000 0.0000 0.0000
# 4 0.0000 0.0000 0.0000 33.1662 0.0000 0.0000
# 5 0.0000 0.0000 0.0000 0.0000 21.9576 0.0000
# 6 0.0000 0.0000 0.0000 0.0000 0.0000 17.7265
#
#
#
# Elastic Compliance Matrix: (Units=1/GPa)
#
#
# Indices 1 2 3 4 5 6 
#
# 1 0.014730 -0.002513 -0.003060 0.000000 0.000000 0.000000
# 2 -0.002513 0.010184 -0.002701 0.000000 0.000000 0.000000
# 3 -0.003060 -0.002701 0.010275 0.000000 0.000000 0.000000
# 4 0.000000 0.000000 0.000000 0.030151 0.000000 0.000000
# 5 0.000000 0.000000 0.000000 0.000000 0.045542 0.000000
# 6 0.000000 0.000000 0.000000 0.000000 0.000000 0.056413
#
#
# Mechanical properties :
#
#
# Convention : Reuss Voigt Hill
#
# Bulk Modulus (GPa) = 53.64143 56.09275 54.86709
# Shear Modulus (GPa) = 26.30792 28.82826 27.56809
#
# Velocity S-wave (km/s) = 3.64693 3.81763 3.73325
# Velocity P-wave (km/s) = 6.69718 6.91306 6.80597
#
# Compressibility (1/GPa) = 0.01864231
#
# Stress axis : x y z
#
# Youngs Moduli (GPa) = 67.88812 98.18874 97.32473
#
# Poissons Ratio (x) = 0.24673 0.29778
# Poissons Ratio (y) = 0.17059 0.26288
# Poissons Ratio (z) = 0.20772 0.26521
#
# Static dielectric constant tensor:
#      x y z
#    x 3.682910 0.000000 0.000000 
#    y 0.000000 3.706910 0.000000 
#    z 0.000000 0.000000 3.634630 
# 
# 
# High freq. dielectric constant tensor:
#      x y z
#    x 1.773770 0.000000 0.000000 
#    y 0.000000 1.770140 0.000000 
#    z 0.000000 0.000000 1.785080 
# 
# From -- ./inp_files/6685.got.cif
#   From: 2010.03.12/outbox.cif.g09.slc.cpg/sg18_4_cif.got.tgz:6685.got - 2010.04.10 18:53:55.
