data_PCOD8156943
_publ_section_title
;
Structure prediction by ZEFSAII (Michael W. Deem and Ramdas Pophale) SiO2 
 PCOD8156943
Probable space group: P 21 21 21
;
_chemical_formula_sum "Si O2"
_cell_formula_units_Z 28
_cell_length_a 10.914881
_cell_length_b 23.918594
_cell_length_c 5.163739
_cell_angle_alpha 90.000000
_cell_angle_beta 90.000000
_cell_angle_gamma 90.000000
_cell_volume 1348.090149
_symmetry_space_group_name_H-M "P 21 21 21"
_symmetry_group_IT_number 19
_symmetry_cell_setting 'orthorhombic'
loop_
_space_group_symop_operation_xyz
x,y,z
1/2-x,-y,1/2+z
1/2+x,1/2-y,-z
-x,1/2+y,1/2-z
loop_
_atom_site_type_symbol
_atom_site_label
_atom_site_fract_x
_atom_site_fract_y
_atom_site_fract_z
Si Si1 0.749848 0.964053 0.775945
Si Si2 0.111933 0.859036 0.318730
Si Si3 0.534294 0.878474 0.791003
Si Si4 0.615810 0.240438 0.321429
Si Si5 0.614429 0.759667 0.818898
Si Si6 0.034958 0.378290 0.706634
Si Si7 0.887388 0.640830 0.683576
O O1 0.629231 0.928057 0.823765
O O2 0.870119 0.927909 0.825133
O O3 0.750288 0.985915 0.482404
O O4 0.110417 0.791952 0.385440
O O5 0.249519 0.880244 0.268566
O O6 0.059895 0.892758 0.564252
O O7 0.033386 0.871605 0.064394
O O8 0.603611 0.821559 0.698531
O O9 0.439963 0.892991 0.561093
O O10 0.465154 0.871811 0.061141
O O11 0.750990 0.243811 0.460458
O O12 0.501305 0.250048 0.502990
O O13 0.604175 0.178620 0.200543
O O14 0.610690 0.292076 0.117256
#
# Coordination Sequence:
#
# PCOD8156943 Si02
#       7
#     4   4   4   4   4   4   4
#     4  12  26  44  66  90 118 164 222 276 308 346
#     4  10  21  36  62  94 128 160 195 241 313 395
#     4  11  21  40  61  88 123 164 204 259 309 361
#     4   9  18  34  56  92 128 167 201 243 309 390
#     4   9  18  34  56  92 128 167 201 243 309 390
#     4  11  21  40  61  88 123 164 204 259 309 361
#     4  10  21  36  62  94 128 160 195 241 313 395
#
# _framework density 20.770123000000002
#
# number of rings (size 3 to 8) (size 9 to 14) (size 15 to 20)
#    0.000    1.714    1.429    3.429    0.000    1.143 
#    2.571    2.857    0.000   17.143    0.000    0.000 
#    0.000    0.000    0.000    0.000    0.000    0.000 
#
# Total GULP energy -346945.134084 kJ/mol
# GULP energy per Si atom -12390.897646 kJ/mol
# Density = 2.072285 g / cm^3
# Si number density = 20.770123 Si / 1000 Ang^3
#
#
#
# Elastic Constant Matrix: (Units=GPa)
#
#
# Indices 1 2 3 4 5 6 
#
# 1 137.3280 53.5368 23.4478 0.0000 0.0000 0.0000
# 2 53.5368 70.4696 30.0854 0.0000 0.0000 0.0000
# 3 23.4478 30.0854 95.4268 0.0000 0.0000 0.0000
# 4 0.0000 0.0000 0.0000 21.6625 0.0000 0.0000
# 5 0.0000 0.0000 0.0000 0.0000 28.1882 0.0000
# 6 0.0000 0.0000 0.0000 0.0000 0.0000 22.6404
#
#
#
# Elastic Compliance Matrix: (Units=1/GPa)
#
#
# Indices 1 2 3 4 5 6 
#
# 1 0.010346 -0.007829 -0.000074 0.000000 0.000000 0.000000
# 2 -0.007829 0.022321 -0.005114 0.000000 0.000000 0.000000
# 3 -0.000074 -0.005114 0.012110 0.000000 0.000000 0.000000
# 4 0.000000 0.000000 0.000000 0.046163 0.000000 0.000000
# 5 0.000000 0.000000 0.000000 0.000000 0.035476 0.000000
# 6 0.000000 0.000000 0.000000 0.000000 0.000000 0.044169
#
#
# Mechanical properties :
#
#
# Convention : Reuss Voigt Hill
#
# Bulk Modulus (GPa) = 53.34917 57.48493 55.41705
# Shear Modulus (GPa) = 24.64681 27.57518 26.11100
#
# Velocity S-wave (km/s) = 3.44851 3.64763 3.54947
# Velocity P-wave (km/s) = 6.44962 6.74367 6.59828
#
# Compressibility (1/GPa) = 0.01874444
#
# Stress axis : x y z
#
# Youngs Moduli (GPa) = 96.65114 44.80029 82.57894
#
# Poissons Ratio (x) = 0.35073 0.00612
# Poissons Ratio (y) = 0.75666 0.42228
# Poissons Ratio (z) = 0.00716 0.22909
#
# Static dielectric constant tensor:
#      x y z
#    x 4.090150 0.000000 0.000000 
#    y 0.000000 3.917970 0.000000 
#    z 0.000000 0.000000 3.374300 
# 
# 
# High freq. dielectric constant tensor:
#      x y z
#    x 1.840740 0.000000 0.000000 
#    y 0.000000 1.789500 0.000000 
#    z 0.000000 0.000000 1.789470 
# 
# From -- ./inp_files/632.got.cif
#   From: 2010.03.12/outbox.cif.g09.slc.cpg/sg19_1_cif.got.tgz:632.got - 2010.04.10 18:59:41.
