data_PCOD8156959
_publ_section_title
;
Structure prediction by ZEFSAII (Michael W. Deem and Ramdas Pophale) SiO2 
 PCOD8156959
Probable space group: P 21 21 21
;
_chemical_formula_sum "Si O2"
_cell_formula_units_Z 28
_cell_length_a 20.429694
_cell_length_b 7.397228
_cell_length_c 8.901902
_cell_angle_alpha 90.000000
_cell_angle_beta 90.000000
_cell_angle_gamma 90.000000
_cell_volume 1345.283066
_symmetry_space_group_name_H-M "P 21 21 21"
_symmetry_group_IT_number 19
_symmetry_cell_setting 'orthorhombic'
loop_
_space_group_symop_operation_xyz
x,y,z
1/2-x,-y,1/2+z
1/2+x,1/2-y,-z
-x,1/2+y,1/2-z
loop_
_atom_site_type_symbol
_atom_site_label
_atom_site_fract_x
_atom_site_fract_y
_atom_site_fract_z
Si Si1 0.068804 0.955186 0.742609
Si Si2 0.353119 0.761718 0.433025
Si Si3 0.803544 0.512139 0.309518
Si Si4 0.175633 0.472218 0.565678
Si Si5 0.578100 0.938178 0.191224
Si Si6 0.673596 0.445301 0.463742
Si Si7 0.724839 0.858521 0.725551
O O1 0.076627 0.775295 0.845924
O O2 0.097835 0.123644 0.831264
O O3 0.107944 0.945607 0.582685
O O4 0.993590 0.980893 0.704713
O O5 0.382059 0.555375 0.434330
O O6 0.280259 0.755028 0.365117
O O7 0.352915 0.862259 0.594352
O O8 0.730831 0.548234 0.372831
O O9 0.811850 0.566532 0.138412
O O10 0.816941 0.293306 0.317688
O O11 0.113332 0.558173 0.646063
O O12 0.166603 0.259814 0.587122
O O13 0.179306 0.539493 0.394882
O O14 0.243868 0.507780 0.660058
#
# Coordination Sequence:
#
# PCOD8156959 Si02
#       7
#     4   4   4   4   4   4   4
#     4  12  21  44  71  91 128 170 233 272 336 387
#     4  11  23  41  60 101 125 166 225 262 329 401
#     4  11  21  37  62  92 134 168 212 263 341 387
#     4  10  22  37  59 100 130 164 226 261 336 397
#     4  11  23  40  73  92 123 176 223 278 319 411
#     4  11  21  38  65  94 132 178 206 282 328 397
#     4  10  21  37  60  96 134 170 211 270 337 392
#
# _framework density 20.813462000000001
#
# number of rings (size 3 to 8) (size 9 to 14) (size 15 to 20)
#    0.000    1.143    7.143    0.857    2.000    5.714 
#    0.000    0.000    6.286    0.000    0.000    0.000 
#    0.000    0.000    0.000    0.000    0.000    0.000 
#
# Total GULP energy -346927.721297 kJ/mol
# GULP energy per Si atom -12390.275761 kJ/mol
# Density = 2.076609 g / cm^3
# Si number density = 20.813462 Si / 1000 Ang^3
#
#
#
# Elastic Constant Matrix: (Units=GPa)
#
#
# Indices 1 2 3 4 5 6 
#
# 1 68.3731 24.1609 18.5305 0.0000 0.0000 0.0000
# 2 24.1609 82.9528 22.6160 0.0000 0.0000 0.0000
# 3 18.5305 22.6160 87.8830 0.0000 0.0000 0.0000
# 4 0.0000 0.0000 0.0000 41.7971 0.0000 0.0000
# 5 0.0000 0.0000 0.0000 0.0000 18.9395 0.0000
# 6 0.0000 0.0000 0.0000 0.0000 0.0000 27.1605
#
#
#
# Elastic Compliance Matrix: (Units=1/GPa)
#
#
# Indices 1 2 3 4 5 6 
#
# 1 0.016781 -0.004219 -0.002453 0.000000 0.000000 0.000000
# 2 -0.004219 0.014025 -0.002720 0.000000 0.000000 0.000000
# 3 -0.002453 -0.002720 0.012596 0.000000 0.000000 0.000000
# 4 0.000000 0.000000 0.000000 0.023925 0.000000 0.000000
# 5 0.000000 0.000000 0.000000 0.000000 0.052800 0.000000
# 6 0.000000 0.000000 0.000000 0.000000 0.000000 0.036818
#
#
# Mechanical properties :
#
#
# Convention : Reuss Voigt Hill
#
# Bulk Modulus (GPa) = 40.61803 41.09152 40.85477
# Shear Modulus (GPa) = 27.18355 29.17286 28.17820
#
# Velocity S-wave (km/s) = 3.61786 3.74790 3.68346
# Velocity P-wave (km/s) = 6.08354 6.20602 6.14509
#
# Compressibility (1/GPa) = 0.02461961
#
# Stress axis : x y z
#
# Youngs Moduli (GPa) = 59.59040 71.29934 79.39146
#
# Poissons Ratio (x) = 0.30081 0.19472
# Poissons Ratio (y) = 0.25141 0.21592
# Poissons Ratio (z) = 0.14616 0.19391
#
# Static dielectric constant tensor:
#      x y z
#    x 3.608800 0.000000 0.000000 
#    y 0.000000 4.057490 0.000000 
#    z 0.000000 0.000000 3.753830 
# 
# 
# High freq. dielectric constant tensor:
#      x y z
#    x 1.782350 0.000000 0.000000 
#    y 0.000000 1.836460 0.000000 
#    z 0.000000 0.000000 1.798340 
# 
# From -- ./inp_files/4300.got.cif
#   From: 2010.03.12/outbox.cif.g09.slc.cpg/sg19_3_cif.got.tgz:4300.got - 2010.04.10 18:59:41.
