data_PCOD8156140
_publ_section_title
;
Structure prediction by ZEFSAII (Michael W. Deem and Ramdas Pophale) SiO2 
 PCOD8156140
Probable space group: P 21 21 2
;
_chemical_formula_sum "Si O2"
_cell_formula_units_Z 24
_cell_length_a 9.540610
_cell_length_b 11.249485
_cell_length_c 9.905057
_cell_angle_alpha 90.000000
_cell_angle_beta 90.000000
_cell_angle_gamma 90.000000
_cell_volume 1063.079548
_symmetry_space_group_name_H-M "P 21 21 2"
_symmetry_group_IT_number 18
_symmetry_cell_setting 'orthorhombic'
loop_
_space_group_symop_operation_xyz
x,y,z
-x,-y,z
1/2+x,1/2-y,-z
1/2-x,1/2+y,-z
loop_
_atom_site_type_symbol
_atom_site_label
_atom_site_fract_x
_atom_site_fract_y
_atom_site_fract_z
Si Si1 0.105194 0.599389 0.403266
Si Si2 0.019011 0.643361 0.124934
Si Si3 0.788491 0.828401 0.047766
Si Si4 0.500000 0.500000 0.096402
Si Si5 0.683025 0.583710 0.324817
Si Si6 0.729184 0.332085 0.659100
Si Si7 0.000000 0.000000 0.451038
O O1 0.038310 0.680716 0.284303
O O2 0.236823 0.541275 0.324332
O O3 0.154387 0.660450 0.541564
O O4 0.000000 0.500000 0.456975
O O5 0.000000 0.500000 0.112437
O O6 0.880598 0.707452 0.065703
O O7 0.157655 0.691943 0.050565
O O8 0.720476 0.870163 0.191121
O O9 0.891755 0.930490 0.996513
O O10 0.585625 0.592153 0.191850
O O11 0.796907 0.689700 0.330827
O O12 0.589274 0.590473 0.458752
O O13 0.592696 0.411201 0.637045
#
# Coordination Sequence:
#
# PCOD8156140 Si02
#       7
#     4   4   4   2   4   4   2
#     4  10  22  43  68  99 135 179 235 287 351 433
#     4  11  26  48  72 106 145 193 241 286 366 437
#     4  12  26  43  73 104 143 187 238 303 348 428
#     4  11  23  46  70 102 140 190 240 282 372 430
#     4  10  21  41  69  92 137 184 229 278 359 430
#     4  11  23  41  66 101 135 178 233 294 353 401
#     4   9  23  40  60 106 130 174 234 292 330 432
#
# _framework density 22.575921000000001
#
# number of rings (size 3 to 8) (size 9 to 14) (size 15 to 20)
#    0.000    1.333    1.667    3.500    7.000    0.667 
#    0.000    0.000    0.000    0.000    0.000    0.000 
#    0.000    0.000    0.000    0.000    0.000    0.000 
#
# Total GULP energy -297329.569475 kJ/mol
# GULP energy per Si atom -12388.732061 kJ/mol
# Density = 2.252454 g / cm^3
# Si number density = 22.575921 Si / 1000 Ang^3
#
#
#
# Elastic Constant Matrix: (Units=GPa)
#
#
# Indices 1 2 3 4 5 6 
#
# 1 114.3173 34.4559 56.6458 0.0000 0.0000 0.0000
# 2 34.4559 92.5760 51.4641 0.0000 0.0000 0.0000
# 3 56.6458 51.4641 156.5607 0.0000 0.0000 0.0000
# 4 0.0000 0.0000 0.0000 9.0882 0.0000 0.0000
# 5 0.0000 0.0000 0.0000 0.0000 27.8538 0.0000
# 6 0.0000 0.0000 0.0000 0.0000 0.0000 40.4855
#
#
#
# Elastic Compliance Matrix: (Units=1/GPa)
#
#
# Indices 1 2 3 4 5 6 
#
# 1 0.011049 -0.002313 -0.003237 0.000000 0.000000 0.000000
# 2 -0.002313 0.013701 -0.003667 0.000000 0.000000 0.000000
# 3 -0.003237 -0.003667 0.008764 0.000000 0.000000 0.000000
# 4 0.000000 0.000000 0.000000 0.110033 0.000000 0.000000
# 5 0.000000 0.000000 0.000000 0.000000 0.035902 0.000000
# 6 0.000000 0.000000 0.000000 0.000000 0.000000 0.024700
#
#
# Mechanical properties :
#
#
# Convention : Reuss Voigt Hill
#
# Bulk Modulus (GPa) = 66.31320 72.06506 69.18913
# Shear Modulus (GPa) = 21.96745 30.21137 26.08941
#
# Velocity S-wave (km/s) = 3.12276 3.66213 3.40314
# Velocity P-wave (km/s) = 6.51455 7.06202 6.79380
#
# Compressibility (1/GPa) = 0.01507995
#
# Stress axis : x y z
#
# Youngs Moduli (GPa) = 90.50774 72.98612 114.10190
#
# Poissons Ratio (x) = 0.16878 0.36940
# Poissons Ratio (y) = 0.20930 0.41843
# Poissons Ratio (z) = 0.29301 0.26765
#
# Static dielectric constant tensor:
#      x y z
#    x 4.488930 0.000000 0.000000 
#    y 0.000000 3.786560 0.000000 
#    z 0.000000 0.000000 4.397220 
# 
# 
# High freq. dielectric constant tensor:
#      x y z
#    x 1.905280 0.000000 0.000000 
#    y 0.000000 1.870430 0.000000 
#    z 0.000000 0.000000 1.902670 
# 
# From -- ./inp_files/3788.got.cif
#   From: 2010.03.12/outbox.cif.g09.slc.cpg/sg18_2_cif.got.tgz:3788.got - 2010.04.10 18:53:55.
