data_PCOD8156196
_publ_section_title
;
Structure prediction by ZEFSAII (Michael W. Deem and Ramdas Pophale) SiO2 
 PCOD8156196
Probable space group: P 21 21 2
;
_chemical_formula_sum "Si O2"
_cell_formula_units_Z 30
_cell_length_a 15.226268
_cell_length_b 11.510195
_cell_length_c 8.811389
_cell_angle_alpha 90.000000
_cell_angle_beta 90.000000
_cell_angle_gamma 90.000000
_cell_volume 1544.260367
_symmetry_space_group_name_H-M "P 21 21 2"
_symmetry_group_IT_number 18
_symmetry_cell_setting 'orthorhombic'
loop_
_space_group_symop_operation_xyz
x,y,z
-x,-y,z
1/2+x,1/2-y,-z
1/2-x,1/2+y,-z
loop_
_atom_site_type_symbol
_atom_site_label
_atom_site_fract_x
_atom_site_fract_y
_atom_site_fract_z
Si Si1 0.221190 0.781729 0.081824
Si Si2 0.213895 0.366296 0.226599
Si Si3 0.420551 0.288727 0.692426
Si Si4 0.611324 0.316576 0.584754
Si Si5 0.361281 0.852090 0.313259
Si Si6 0.299966 0.440202 0.513615
Si Si7 0.114728 0.578813 0.127776
Si Si8 0.000000 0.500000 0.866123
O O1 0.135245 0.841929 0.163610
O O2 0.311689 0.794223 0.172243
O O3 0.204606 0.642574 0.075691
O O4 0.227706 0.834986 0.916882
O O5 0.177098 0.250323 0.303767
O O6 0.279084 0.437276 0.335572
O O7 0.131848 0.447063 0.178236
O O8 0.518300 0.336291 0.668776
O O9 0.360287 0.326447 0.549090
O O10 0.425852 0.149206 0.726110
O O11 0.600597 0.245341 0.427990
O O12 0.649464 0.442907 0.553427
O O13 0.293148 0.936401 0.399303
O O14 0.441136 0.924853 0.246804
O O15 0.053513 0.584168 0.979160
#
# Coordination Sequence:
#
# PCOD8156196 Si02
#       8
#     4   4   4   4   4   4   4   2
#     4   9  21  39  62  90 129 162 208 256 320 380
#     4  11  22  38  67  94 119 174 210 256 330 368
#     4   9  22  41  64  92 130 161 209 268 315 377
#     4  11  23  40  65  92 130 169 213 260 321 382
#     4  10  23  41  59  98 126 166 213 262 315 382
#     4  10  23  41  65  88 131 168 211 256 320 390
#     4  10  22  39  64  91 131 155 211 271 307 380
#     4  12  22  38  66  96 132 162 216 274 318 364
#
# _framework density 19.426776
#
# number of rings (size 3 to 8) (size 9 to 14) (size 15 to 20)
#    0.800    1.067    1.333    2.000    3.733    3.200 
#    0.000    0.000    2.933    0.000    0.000    0.000 
#    0.000    0.000    0.000    0.000    0.000    0.000 
#
# Total GULP energy -371718.676524 kJ/mol
# GULP energy per Si atom -12390.622551 kJ/mol
# Density = 1.938256 g / cm^3
# Si number density = 19.426776 Si / 1000 Ang^3
#
#
#
# Elastic Constant Matrix: (Units=GPa)
#
#
# Indices 1 2 3 4 5 6 
#
# 1 100.8069 34.3994 53.7201 0.0000 0.0000 0.0000
# 2 34.3994 73.8103 41.2349 0.0000 0.0000 0.0000
# 3 53.7201 41.2349 121.0343 0.0000 0.0000 0.0000
# 4 0.0000 0.0000 0.0000 31.3734 0.0000 0.0000
# 5 0.0000 0.0000 0.0000 0.0000 30.1399 0.0000
# 6 0.0000 0.0000 0.0000 0.0000 0.0000 37.3580
#
#
#
# Elastic Compliance Matrix: (Units=1/GPa)
#
#
# Indices 1 2 3 4 5 6 
#
# 1 0.013769 -0.003709 -0.004848 0.000000 0.000000 0.000000
# 2 -0.003709 0.017732 -0.004395 0.000000 0.000000 0.000000
# 3 -0.004848 -0.004395 0.011911 0.000000 0.000000 0.000000
# 4 0.000000 0.000000 0.000000 0.031874 0.000000 0.000000
# 5 0.000000 0.000000 0.000000 0.000000 0.033179 0.000000
# 6 0.000000 0.000000 0.000000 0.000000 0.000000 0.026768
#
#
# Mechanical properties :
#
#
# Convention : Reuss Voigt Hill
#
# Bulk Modulus (GPa) = 57.11323 61.59558 59.35440
# Shear Modulus (GPa) = 29.94516 30.86074 30.40295
#
# Velocity S-wave (km/s) = 3.93037 3.99001 3.96030
# Velocity P-wave (km/s) = 7.07532 7.28026 7.17852
#
# Compressibility (1/GPa) = 0.01750908
#
# Stress axis : x y z
#
# Youngs Moduli (GPa) = 72.62763 56.39508 83.95577
#
# Poissons Ratio (x) = 0.20916 0.40699
# Poissons Ratio (y) = 0.26936 0.36898
# Poissons Ratio (z) = 0.35207 0.24786
#
# Static dielectric constant tensor:
#      x y z
#    x 3.512590 0.000000 0.000000 
#    y 0.000000 3.437860 0.000000 
#    z 0.000000 0.000000 3.620750 
# 
# 
# High freq. dielectric constant tensor:
#      x y z
#    x 1.756200 0.000000 0.000000 
#    y 0.000000 1.743850 0.000000 
#    z 0.000000 0.000000 1.759640 
# 
# From -- ./inp_files/4291.got.cif
#   From: 2010.03.12/outbox.cif.g09.slc.cpg/sg18_3_cif.got.tgz:4291.got - 2010.04.10 18:53:55.
