data_PCOD8156615
_publ_section_title
;
Structure prediction by ZEFSAII (Michael W. Deem and Ramdas Pophale) SiO2 
 PCOD8156615
Probable space group: P 21 21 21
;
_chemical_formula_sum "Si O2"
_cell_formula_units_Z 12
_cell_length_a 15.206258
_cell_length_b 7.886922
_cell_length_c 4.948050
_cell_angle_alpha 90.000000
_cell_angle_beta 90.000000
_cell_angle_gamma 90.000000
_cell_volume 593.422461
_symmetry_space_group_name_H-M "P 21 21 21"
_symmetry_group_IT_number 19
_symmetry_cell_setting 'orthorhombic'
loop_
_space_group_symop_operation_xyz
x,y,z
1/2-x,-y,1/2+z
1/2+x,1/2-y,-z
-x,1/2+y,1/2-z
loop_
_atom_site_type_symbol
_atom_site_label
_atom_site_fract_x
_atom_site_fract_y
_atom_site_fract_z
Si Si1 0.552726 0.014840 0.549681
Si Si2 0.084926 0.710066 0.949972
Si Si3 0.264946 0.605224 0.060341
O O1 0.461893 0.111833 0.502448
O O2 0.563131 0.855713 0.348964
O O3 0.633498 0.150786 0.509430
O O4 0.553034 0.938304 0.848880
O O5 0.190478 0.745028 0.986326
O O6 0.258050 0.560644 0.376928
#
# Coordination Sequence:
#
# PCOD8156615 Si02
#       3
#     4   4   4
#     4  10  19  33  51  72  96 126 160 196 235 281
#     4  10  19  33  51  72  96 126 160 196 235 281
#     4   8  16  30  48  66  92 128 158 182 230 294
#
# _framework density 20.221679000000002
#
# number of rings (size 3 to 8) (size 9 to 14) (size 15 to 20)
#    0.000    2.667    0.000    2.000    0.000    0.000 
#    0.000    3.333    0.000    0.000    0.000    0.000 
#    0.000    0.000    0.000    0.000    0.000    0.000 
#
# Total GULP energy -148680.006241 kJ/mol
# GULP energy per Si atom -12390.000520 kJ/mol
# Density = 2.017565 g / cm^3
# Si number density = 20.221679 Si / 1000 Ang^3
#
#
#
# Elastic Constant Matrix: (Units=GPa)
#
#
# Indices 1 2 3 4 5 6 
#
# 1 28.2149 -3.0326 1.7277 0.0000 0.0000 0.0000
# 2 -3.0326 17.0626 -1.7687 0.0000 0.0000 0.0000
# 3 1.7277 -1.7687 72.6115 0.0000 0.0000 0.0000
# 4 0.0000 0.0000 0.0000 16.8446 0.0000 0.0000
# 5 0.0000 0.0000 0.0000 0.0000 25.4020 0.0000
# 6 0.0000 0.0000 0.0000 0.0000 0.0000 34.6842
#
#
#
# Elastic Compliance Matrix: (Units=1/GPa)
#
#
# Indices 1 2 3 4 5 6 
#
# 1 0.036169 0.006355 -0.000706 0.000000 0.000000 0.000000
# 2 0.006355 0.059873 0.001307 0.000000 0.000000 0.000000
# 3 -0.000706 0.001307 0.013821 0.000000 0.000000 0.000000
# 4 0.000000 0.000000 0.000000 0.059366 0.000000 0.000000
# 5 0.000000 0.000000 0.000000 0.000000 0.039367 0.000000
# 6 0.000000 0.000000 0.000000 0.000000 0.000000 0.028832
#
#
# Mechanical properties :
#
#
# Convention : Reuss Voigt Hill
#
# Bulk Modulus (GPa) = 8.07917 12.41576 10.24747
# Shear Modulus (GPa) = 18.88419 23.45034 21.16727
#
# Velocity S-wave (km/s) = 3.05923 3.40908 3.23888
# Velocity P-wave (km/s) = 4.05986 4.65284 4.36643
#
# Compressibility (1/GPa) = 0.12377504
#
# Stress axis : x y z
#
# Youngs Moduli (GPa) = 27.64834 16.70208 72.35595
#
# Poissons Ratio (x) = -0.10614 0.05107
# Poissons Ratio (y) = -0.17571 -0.09458
# Poissons Ratio (z) = 0.01951 -0.02183
#
# Static dielectric constant tensor:
#      x y z
#    x 4.194030 0.000000 0.000000 
#    y 0.000000 2.785770 0.000000 
#    z 0.000000 0.000000 3.816540 
# 
# 
# High freq. dielectric constant tensor:
#      x y z
#    x 1.809820 0.000000 0.000000 
#    y 0.000000 1.699600 0.000000 
#    z 0.000000 0.000000 1.816450 
# 
# From -- ./inp_files/5.got.cif
#   From: 2010.03.12/outbox.cif.g09.slc.cpg/sg19_1_cif.got.tgz:5.got - 2010.04.10 18:59:41.
