data_PCOD8156497
_publ_section_title
;
Structure prediction by ZEFSAII (Michael W. Deem and Ramdas Pophale) SiO2 
 PCOD8156497
Probable space group: P 21 21 2
;
_chemical_formula_sum "Si O2"
_cell_formula_units_Z 26
_cell_length_a 22.471567
_cell_length_b 7.980823
_cell_length_c 6.133658
_cell_angle_alpha 90.000000
_cell_angle_beta 90.000000
_cell_angle_gamma 90.000000
_cell_volume 1100.020032
_symmetry_space_group_name_H-M "P 21 21 2"
_symmetry_group_IT_number 18
_symmetry_cell_setting 'orthorhombic'
loop_
_space_group_symop_operation_xyz
x,y,z
-x,-y,z
1/2+x,1/2-y,-z
1/2-x,1/2+y,-z
loop_
_atom_site_type_symbol
_atom_site_label
_atom_site_fract_x
_atom_site_fract_y
_atom_site_fract_z
Si Si1 0.082977 0.324098 0.524097
Si Si2 0.610536 0.965705 0.080504
Si Si3 0.190868 0.752659 0.606636
Si Si4 0.082665 0.941409 0.556329
Si Si5 0.015120 0.708912 0.224310
Si Si6 0.500000 0.500000 0.066629
Si Si7 0.305577 0.947179 0.701321
O O1 0.150792 0.353849 0.462847
O O2 0.035650 0.405396 0.351566
O O3 0.065408 0.130416 0.498308
O O4 0.077202 0.394783 0.769722
O O5 0.558184 0.899154 0.928626
O O6 0.664664 0.040551 0.937842
O O7 0.642741 0.828971 0.230520
O O8 0.153717 0.916028 0.529908
O O9 0.248459 0.827035 0.726881
O O10 0.209033 0.629187 0.407345
O O11 0.055197 0.801362 0.401843
O O12 0.055472 0.922948 0.798576
O O13 0.978601 0.845435 0.082851
#
# Coordination Sequence:
#
# PCOD8156497 Si02
#       7
#     4   4   4   4   4   2   4
#     4  11  26  46  72 114 145 200 261 306 387 471
#     4  11  27  49  71 111 151 201 251 316 398 448
#     4  11  25  48  75 103 148 193 260 315 378 468
#     4  12  23  45  74 106 149 194 257 308 377 468
#     4  12  24  48  74 107 160 197 247 328 385 451
#     4  12  22  42  74 108 142 202 248 296 390 458
#     4  11  26  49  71 106 145 200 247 322 389 441
#
# _framework density 23.635933999999999
#
# number of rings (size 3 to 8) (size 9 to 14) (size 15 to 20)
#    0.000    0.615    6.154    0.923    2.154    4.308 
#    8.308    0.000    0.000    0.000    0.000    0.000 
#    0.000    0.000    0.000    0.000    0.000    0.000 
#
# Total GULP energy -322211.671280 kJ/mol
# GULP energy per Si atom -12392.756588 kJ/mol
# Density = 2.358214 g / cm^3
# Si number density = 23.635934 Si / 1000 Ang^3
#
#
#
# Elastic Constant Matrix: (Units=GPa)
#
#
# Indices 1 2 3 4 5 6 
#
# 1 129.6479 46.2779 43.2039 0.0000 0.0000 0.0000
# 2 46.2779 80.5235 49.6819 0.0000 0.0000 0.0000
# 3 43.2039 49.6819 131.8394 0.0000 0.0000 0.0000
# 4 0.0000 0.0000 0.0000 45.6514 0.0000 0.0000
# 5 0.0000 0.0000 0.0000 0.0000 41.8565 0.0000
# 6 0.0000 0.0000 0.0000 0.0000 0.0000 44.1235
#
#
#
# Elastic Compliance Matrix: (Units=1/GPa)
#
#
# Indices 1 2 3 4 5 6 
#
# 1 0.009908 -0.004809 -0.001435 0.000000 0.000000 0.000000
# 2 -0.004809 0.018515 -0.005401 0.000000 0.000000 0.000000
# 3 -0.001435 -0.005401 0.010090 0.000000 0.000000 0.000000
# 4 0.000000 0.000000 0.000000 0.021905 0.000000 0.000000
# 5 0.000000 0.000000 0.000000 0.000000 0.023891 0.000000
# 6 0.000000 0.000000 0.000000 0.000000 0.000000 0.022664
#
#
# Mechanical properties :
#
#
# Convention : Reuss Voigt Hill
#
# Bulk Modulus (GPa) = 65.68722 68.92647 67.30684
# Shear Modulus (GPa) = 36.94466 39.84942 38.39704
#
# Velocity S-wave (km/s) = 3.95786 4.11051 4.03491
# Velocity P-wave (km/s) = 6.98125 7.19398 7.08841
#
# Compressibility (1/GPa) = 0.01522366
#
# Stress axis : x y z
#
# Youngs Moduli (GPa) = 100.93008 54.01021 99.10338
#
# Poissons Ratio (x) = 0.25974 0.14217
# Poissons Ratio (y) = 0.48538 0.53528
# Poissons Ratio (z) = 0.14479 0.29172
#
# Static dielectric constant tensor:
#      x y z
#    x 4.174470 0.000000 0.000000 
#    y 0.000000 4.401580 0.000000 
#    z 0.000000 0.000000 4.464070 
# 
# 
# High freq. dielectric constant tensor:
#      x y z
#    x 1.937610 0.000000 0.000000 
#    y 0.000000 1.951320 0.000000 
#    z 0.000000 0.000000 1.945390 
# 
# From -- ./inp_files/2099.got.cif
#   From: 2010.03.12/outbox.cif.g09.slc.cpg/sg18_2_cif.got.tgz:2099.got - 2010.04.10 18:53:55.
