data_PCOD8156549
_publ_section_title
;
Structure prediction by ZEFSAII (Michael W. Deem and Ramdas Pophale) SiO2 
 PCOD8156549
Probable space group: P 21 21 21
;
_chemical_formula_sum "Si O2"
_cell_formula_units_Z 32
_cell_length_a 9.767348
_cell_length_b 11.819230
_cell_length_c 13.801063
_cell_angle_alpha 90.000000
_cell_angle_beta 90.000000
_cell_angle_gamma 90.000000
_cell_volume 1593.229664
_symmetry_space_group_name_H-M "P 21 21 21"
_symmetry_group_IT_number 19
_symmetry_cell_setting 'orthorhombic'
loop_
_space_group_symop_operation_xyz
x,y,z
1/2-x,-y,1/2+z
1/2+x,1/2-y,-z
-x,1/2+y,1/2-z
loop_
_atom_site_type_symbol
_atom_site_label
_atom_site_fract_x
_atom_site_fract_y
_atom_site_fract_z
Si Si1 0.558914 0.666233 0.904050
Si Si2 0.080157 0.018573 0.235216
Si Si3 0.280425 0.675105 0.164776
Si Si4 0.830841 0.127116 0.147351
Si Si5 0.991176 0.839034 0.375614
Si Si6 0.444836 0.279480 0.404620
Si Si7 0.812806 0.747630 0.211271
Si Si8 0.325894 0.490660 0.507351
O O1 0.603619 0.539691 0.870681
O O2 0.642377 0.753563 0.839256
O O3 0.401764 0.702503 0.878939
O O4 0.590333 0.679984 0.017812
O O5 0.186577 0.112915 0.269459
O O6 0.930040 0.072122 0.227894
O O7 0.087860 0.924054 0.317406
O O8 0.298665 0.652093 0.280906
O O9 0.402340 0.757293 0.131139
O O10 0.260724 0.563860 0.096460
O O11 0.788397 0.037692 0.066035
O O12 0.910656 0.233015 0.096355
O O13 0.860908 0.804722 0.310444
O O14 0.924131 0.903381 0.466488
O O15 0.343992 0.275098 0.313020
O O16 0.427928 0.399718 0.458281
#
# Coordination Sequence:
#
# PCOD8156549 Si02
#       8
#     4   4   4   4   4   4   4   4
#     4  10  18  36  63  86 112 162 215 252 293 368
#     4  10  16  36  65  82 112 165 209 247 298 364
#     4  11  21  40  63  93 126 158 208 256 311 371
#     4  11  21  40  64  92 125 166 209 254 310 374
#     4  10  20  39  64  86 114 167 217 244 298 378
#     4  11  23  37  60  97 125 151 206 263 311 370
#     4  10  20  37  60  88 118 161 207 249 304 376
#     4  11  23  41  65  90 126 168 205 263 315 359
#
# _framework density 20.084990000000001
#
# number of rings (size 3 to 8) (size 9 to 14) (size 15 to 20)
#    0.000    1.500    5.000    4.500    0.000    0.000 
#    4.500    5.000    0.000    0.000    0.000    0.000 
#    0.000    0.000    0.000    0.000    0.000    0.000 
#
# Total GULP energy -396502.830211 kJ/mol
# GULP energy per Si atom -12390.713444 kJ/mol
# Density = 2.003928 g / cm^3
# Si number density = 20.084990 Si / 1000 Ang^3
#
#
#
# Elastic Constant Matrix: (Units=GPa)
#
#
# Indices 1 2 3 4 5 6 
#
# 1 66.2127 27.1149 27.9653 0.0000 0.0000 0.0000
# 2 27.1149 98.0872 30.3774 0.0000 0.0000 0.0000
# 3 27.9653 30.3774 65.8187 0.0000 0.0000 0.0000
# 4 0.0000 0.0000 0.0000 36.5744 0.0000 0.0000
# 5 0.0000 0.0000 0.0000 0.0000 24.4957 0.0000
# 6 0.0000 0.0000 0.0000 0.0000 0.0000 30.4574
#
#
#
# Elastic Compliance Matrix: (Units=1/GPa)
#
#
# Indices 1 2 3 4 5 6 
#
# 1 0.019257 -0.003255 -0.006680 0.000000 0.000000 0.000000
# 2 -0.003255 0.012445 -0.004361 0.000000 0.000000 0.000000
# 3 -0.006680 -0.004361 0.020044 0.000000 0.000000 0.000000
# 4 0.000000 0.000000 0.000000 0.027342 0.000000 0.000000
# 5 0.000000 0.000000 0.000000 0.000000 0.040824 0.000000
# 6 0.000000 0.000000 0.000000 0.000000 0.000000 0.032833
#
#
# Mechanical properties :
#
#
# Convention : Reuss Voigt Hill
#
# Bulk Modulus (GPa) = 43.18651 44.55931 43.87291
# Shear Modulus (GPa) = 26.44752 27.94957 27.19855
#
# Velocity S-wave (km/s) = 3.63268 3.73442 3.68390
# Velocity P-wave (km/s) = 6.25650 6.38968 6.32344
#
# Compressibility (1/GPa) = 0.02315538
#
# Stress axis : x y z
#
# Youngs Moduli (GPa) = 51.92941 80.35154 49.88978
#
# Poissons Ratio (x) = 0.26151 0.33326
# Poissons Ratio (y) = 0.16901 0.21757
# Poissons Ratio (z) = 0.34688 0.35042
#
# Static dielectric constant tensor:
#      x y z
#    x 3.304700 0.000000 0.000000 
#    y 0.000000 4.059860 0.000000 
#    z 0.000000 0.000000 3.587310 
# 
# 
# High freq. dielectric constant tensor:
#      x y z
#    x 1.753550 0.000000 0.000000 
#    y 0.000000 1.794730 0.000000 
#    z 0.000000 0.000000 1.771350 
# 
# From -- ./inp_files/5911.got.cif
#   From: 2010.03.12/outbox.cif.g09.slc.cpg/sg19_3_cif.got.tgz:5911.got - 2010.04.10 18:59:41.
