data_PCOD8156626
_publ_section_title
;
Structure prediction by ZEFSAII (Michael W. Deem and Ramdas Pophale) SiO2 
 PCOD8156626
Probable space group: P 21 21 21
;
_chemical_formula_sum "Si O2"
_cell_formula_units_Z 32
_cell_length_a 13.239332
_cell_length_b 6.336297
_cell_length_c 19.343916
_cell_angle_alpha 90.000000
_cell_angle_beta 90.000000
_cell_angle_gamma 90.000000
_cell_volume 1622.728995
_symmetry_space_group_name_H-M "P 21 21 21"
_symmetry_group_IT_number 19
_symmetry_cell_setting 'orthorhombic'
loop_
_space_group_symop_operation_xyz
x,y,z
1/2-x,-y,1/2+z
1/2+x,1/2-y,-z
-x,1/2+y,1/2-z
loop_
_atom_site_type_symbol
_atom_site_label
_atom_site_fract_x
_atom_site_fract_y
_atom_site_fract_z
Si Si1 0.882335 0.521422 0.063578
Si Si2 0.358085 0.297014 0.214873
Si Si3 0.794057 0.255471 0.938592
Si Si4 0.428628 0.707543 0.528571
Si Si5 0.067449 0.411609 0.510886
Si Si6 0.078854 0.332501 0.786210
Si Si7 0.792675 0.445444 0.661241
Si Si8 0.573416 0.872804 0.089004
O O1 0.814494 0.477162 0.130986
O O2 0.988730 0.403946 0.077897
O O3 0.832882 0.432597 0.992097
O O4 0.902745 0.772634 0.056335
O O5 0.340158 0.213412 0.137784
O O6 0.354184 0.553663 0.225108
O O7 0.471278 0.243644 0.241630
O O8 0.279462 0.183347 0.267043
O O9 0.673361 0.260565 0.930235
O O10 0.831431 0.027649 0.964599
O O11 0.396598 0.548618 0.467417
O O12 0.476258 0.925447 0.501815
O O13 0.029322 0.246638 0.568279
O O14 0.051886 0.513878 0.840091
O O15 0.139466 0.148462 0.823901
O O16 0.838345 0.299855 0.600086
#
# Coordination Sequence:
#
# PCOD8156626 Si02
#       8
#     4   4   4   4   4   4   4   4
#     4  10  22  39  62  87 120 163 204 250 307 357
#     4  11  23  35  58  87 122 159 199 248 311 366
#     4  11  22  37  60  91 122 156 203 253 306 359
#     4  10  21  37  58  87 122 152 202 254 297 350
#     4  10  20  35  60  88 120 150 196 246 302 358
#     4  11  21  36  55  86 122 155 195 247 301 368
#     4  11  22  38  60  85 127 161 205 241 306 371
#     4  10  19  33  59  89 117 160 188 243 302 355
#
# _framework density 19.719868000000002
#
# number of rings (size 3 to 8) (size 9 to 14) (size 15 to 20)
#    0.000    1.500    1.250    6.000    1.750    5.000 
#    0.000    0.000    5.500    0.000    0.000    0.000 
#    0.000    0.000    0.000    0.000    0.000    0.000 
#
# Total GULP energy -396605.503836 kJ/mol
# GULP energy per Si atom -12393.921995 kJ/mol
# Density = 1.967498 g / cm^3
# Si number density = 19.719868 Si / 1000 Ang^3
#
#
#
# Elastic Constant Matrix: (Units=GPa)
#
#
# Indices 1 2 3 4 5 6 
#
# 1 106.4943 31.1723 27.5122 0.0000 0.0000 0.0000
# 2 31.1723 107.0180 29.6258 0.0000 0.0000 0.0000
# 3 27.5122 29.6258 62.5626 0.0000 0.0000 0.0000
# 4 0.0000 0.0000 0.0000 21.4205 0.0000 0.0000
# 5 0.0000 0.0000 0.0000 0.0000 32.0099 0.0000
# 6 0.0000 0.0000 0.0000 0.0000 0.0000 19.0107
#
#
#
# Elastic Compliance Matrix: (Units=1/GPa)
#
#
# Indices 1 2 3 4 5 6 
#
# 1 0.011007 -0.002148 -0.003823 0.000000 0.000000 0.000000
# 2 -0.002148 0.011173 -0.004346 0.000000 0.000000 0.000000
# 3 -0.003823 -0.004346 0.019723 0.000000 0.000000 0.000000
# 4 0.000000 0.000000 0.000000 0.046684 0.000000 0.000000
# 5 0.000000 0.000000 0.000000 0.000000 0.031240 0.000000
# 6 0.000000 0.000000 0.000000 0.000000 0.000000 0.052602
#
#
# Mechanical properties :
#
#
# Convention : Reuss Voigt Hill
#
# Bulk Modulus (GPa) = 47.01784 50.29949 48.65867
# Shear Modulus (GPa) = 24.98085 27.00587 25.99336
#
# Velocity S-wave (km/s) = 3.56305 3.70466 3.63455
# Velocity P-wave (km/s) = 6.38919 6.62282 6.50705
#
# Compressibility (1/GPa) = 0.02126852
#
# Stress axis : x y z
#
# Youngs Moduli (GPa) = 90.85538 89.50152 50.70107
#
# Poissons Ratio (x) = 0.19221 0.19384
# Poissons Ratio (y) = 0.19512 0.22037
# Poissons Ratio (z) = 0.34736 0.38901
#
# Static dielectric constant tensor:
#      x y z
#    x 3.459060 0.000000 0.000000 
#    y 0.000000 4.097550 0.000000 
#    z 0.000000 0.000000 3.350370 
# 
# 
# High freq. dielectric constant tensor:
#      x y z
#    x 1.747480 0.000000 0.000000 
#    y 0.000000 1.792400 0.000000 
#    z 0.000000 0.000000 1.741670 
# 
# From -- ./inp_files/1159.got.cif
#   From: 2010.03.12/outbox.cif.g09.slc.cpg/sg19_1_cif.got.tgz:1159.got - 2010.04.10 18:59:41.
