data_PCOD8156527
_publ_section_title
;
Structure prediction by ZEFSAII (Michael W. Deem and Ramdas Pophale) SiO2 
 PCOD8156527
Probable space group: P 21 21 2
;
_chemical_formula_sum "Si O2"
_cell_formula_units_Z 20
_cell_length_a 15.369302
_cell_length_b 10.192048
_cell_length_c 5.026438
_cell_angle_alpha 90.000000
_cell_angle_beta 90.000000
_cell_angle_gamma 90.000000
_cell_volume 787.364690
_symmetry_space_group_name_H-M "P 21 21 2"
_symmetry_group_IT_number 18
_symmetry_cell_setting 'orthorhombic'
loop_
_space_group_symop_operation_xyz
x,y,z
-x,-y,z
1/2+x,1/2-y,-z
1/2-x,1/2+y,-z
loop_
_atom_site_type_symbol
_atom_site_label
_atom_site_fract_x
_atom_site_fract_y
_atom_site_fract_z
Si Si1 0.248311 0.848078 0.404063
Si Si2 0.338185 0.592774 0.404061
Si Si3 0.099732 0.537139 0.625097
Si Si4 0.393400 0.205502 0.885204
Si Si5 0.053639 0.120568 0.093264
O O1 0.271697 0.703673 0.519314
O O2 0.174960 0.823611 0.175663
O O3 0.207698 0.950276 0.617715
O O4 0.338688 0.913127 0.304057
O O5 0.416538 0.583786 0.611117
O O6 0.367034 0.641947 0.112080
O O7 0.114097 0.586366 0.324310
O O8 0.000000 0.500000 0.678320
O O9 0.127583 0.654626 0.821048
O O10 0.493129 0.252815 0.880495
O O11 0.000000 0.000000 0.969734
#
# Coordination Sequence:
#
# PCOD8156527 Si02
#       5
#     4   4   4   4   4
#     4  12  28  51  80 116 158 202 260 325 388 462
#     4  12  29  48  78 111 154 200 257 317 388 457
#     4  12  28  52  79 113 158 208 259 323 393 468
#     4  12  27  47  78 115 155 201 266 316 386 470
#     4  12  26  47  76 110 153 203 253 316 386 459
#
# _framework density 25.401188000000001
#
# number of rings (size 3 to 8) (size 9 to 14) (size 15 to 20)
#    0.000    0.000    4.000    4.800    5.600    4.800 
#    0.000    0.000    0.000    0.000    0.000    0.000 
#    0.000    0.000    0.000    0.000    0.000    0.000 
#
# Total GULP energy -247996.820832 kJ/mol
# GULP energy per Si atom -12399.841042 kJ/mol
# Density = 2.534337 g / cm^3
# Si number density = 25.401188 Si / 1000 Ang^3
#
#
#
# Elastic Constant Matrix: (Units=GPa)
#
#
# Indices 1 2 3 4 5 6 
#
# 1 127.3210 17.3048 17.8877 0.0000 0.0000 0.0000
# 2 17.3048 105.2442 2.2626 0.0000 0.0000 0.0000
# 3 17.8877 2.2626 86.6894 0.0000 0.0000 0.0000
# 4 0.0000 0.0000 0.0000 33.7786 0.0000 0.0000
# 5 0.0000 0.0000 0.0000 0.0000 33.2294 0.0000
# 6 0.0000 0.0000 0.0000 0.0000 0.0000 59.7239
#
#
#
# Elastic Compliance Matrix: (Units=1/GPa)
#
#
# Indices 1 2 3 4 5 6 
#
# 1 0.008269 -0.001324 -0.001672 0.000000 0.000000 0.000000
# 2 -0.001324 0.009719 0.000019 0.000000 0.000000 0.000000
# 3 -0.001672 0.000019 0.011880 0.000000 0.000000 0.000000
# 4 0.000000 0.000000 0.000000 0.029605 0.000000 0.000000
# 5 0.000000 0.000000 0.000000 0.000000 0.030094 0.000000
# 6 0.000000 0.000000 0.000000 0.000000 0.000000 0.016744
#
#
# Mechanical properties :
#
#
# Convention : Reuss Voigt Hill
#
# Bulk Modulus (GPa) = 41.81310 43.79607 42.80459
# Shear Modulus (GPa) = 41.58571 44.13301 42.85936
#
# Velocity S-wave (km/s) = 4.05057 4.17278 4.11213
# Velocity P-wave (km/s) = 6.19459 6.36359 6.27966
#
# Compressibility (1/GPa) = 0.02391595
#
# Stress axis : x y z
#
# Youngs Moduli (GPa) = 120.93469 102.89189 84.17605
#
# Poissons Ratio (x) = 0.13620 0.14072
# Poissons Ratio (y) = 0.16008 -0.00164
# Poissons Ratio (z) = 0.20216 -0.00200
#
# Static dielectric constant tensor:
#      x y z
#    x 4.903640 0.000000 0.000000 
#    y 0.000000 4.574040 0.000000 
#    z 0.000000 0.000000 4.043720 
# 
# 
# High freq. dielectric constant tensor:
#      x y z
#    x 2.038670 0.000000 0.000000 
#    y 0.000000 2.023590 0.000000 
#    z 0.000000 0.000000 1.989690 
# 
# From -- ./inp_files/1439.got.cif
#   From: 2010.03.12/outbox.cif.g09.slc.cpg/sg18_1_cif.got.tgz:1439.got - 2010.04.10 18:53:55.
