data_PCOD8156416
_publ_section_title
;
Structure prediction by ZEFSAII (Michael W. Deem and Ramdas Pophale) SiO2 
 PCOD8156416
Probable space group: P 21 21 2
;
_chemical_formula_sum "Si O2"
_cell_formula_units_Z 30
_cell_length_a 6.377974
_cell_length_b 24.052548
_cell_length_c 9.411244
_cell_angle_alpha 90.000000
_cell_angle_beta 90.000000
_cell_angle_gamma 90.000000
_cell_volume 1443.746245
_symmetry_space_group_name_H-M "P 21 21 2"
_symmetry_group_IT_number 18
_symmetry_cell_setting 'orthorhombic'
loop_
_space_group_symop_operation_xyz
x,y,z
-x,-y,z
1/2+x,1/2-y,-z
1/2-x,1/2+y,-z
loop_
_atom_site_type_symbol
_atom_site_label
_atom_site_fract_x
_atom_site_fract_y
_atom_site_fract_z
Si Si1 0.309115 0.587945 0.144272
Si Si2 0.500001 0.178747 0.750002
Si Si3 0.000000 0.500000 0.249996
Si Si4 0.350819 0.739260 0.383438
Si Si5 0.649182 0.739260 0.116552
Si Si6 0.190887 0.912055 0.644275
Si Si7 0.912755 0.162961 0.405586
Si Si8 0.412756 0.662961 0.905582
O O1 0.500000 0.574286 0.249999
O O2 0.190048 0.643150 0.189750
O O3 0.146496 0.536583 0.145703
O O4 0.394251 0.603113 0.986728
O O5 0.389603 0.218809 0.636853
O O6 0.610398 0.218808 0.863153
O O7 0.690055 0.143152 0.689750
O O8 0.853509 0.536584 0.354290
O O9 0.499996 0.727889 0.249993
O O10 0.315322 0.805708 0.406450
O O11 0.424093 0.704077 0.517549
O O12 0.684680 0.805708 0.093543
O O13 0.575916 0.704076 0.982438
O O14 0.105754 0.896888 0.486729
O O15 0.000009 0.149132 0.250004
#
# Coordination Sequence:
#
# PCOD8156416 Si02
#       8
#     4   4   2   4   4   4   4   4
#     4  11  22  44  70  96 122 168 227 282 327 395
#     4  11  18  39  66  92 130 182 227 255 300 390
#     4  10  26  44  80  92 108 164 242 292 336 380
#     4  12  22  41  58  96 147 193 219 245 305 408
#     4  12  22  41  58  96 147 193 219 245 305 408
#     4  11  22  44  70  96 122 168 227 282 327 395
#     4  12  23  36  63 100 141 178 211 264 324 386
#     4  12  23  36  63 100 141 178 211 264 324 386
#
# _framework density 20.779274999999998
#
# number of rings (size 3 to 8) (size 9 to 14) (size 15 to 20)
#    0.000    0.533    6.667    3.600    0.000    0.000 
#    0.000    0.000    0.000    4.800    0.000    0.000 
#    0.000    0.000    0.000    0.000    0.000    0.000 
#
# Total GULP energy -371745.267228 kJ/mol
# GULP energy per Si atom -12391.508908 kJ/mol
# Density = 2.073198 g / cm^3
# Si number density = 20.779275 Si / 1000 Ang^3
#
#
#
# Elastic Constant Matrix: (Units=GPa)
#
#
# Indices 1 2 3 4 5 6 
#
# 1 113.9171 44.3065 51.3432 0.0000 0.0000 0.0000
# 2 44.3065 106.2973 54.8047 0.0000 0.0000 0.0000
# 3 51.3432 54.8047 145.9632 0.0000 0.0000 0.0000
# 4 0.0000 0.0000 0.0000 19.7350 0.0000 0.0000
# 5 0.0000 0.0000 0.0000 0.0000 23.5513 0.0000
# 6 0.0000 0.0000 0.0000 0.0000 0.0000 25.4388
#
#
#
# Elastic Compliance Matrix: (Units=1/GPa)
#
#
# Indices 1 2 3 4 5 6 
#
# 1 0.011293 -0.003297 -0.002734 0.000000 0.000000 0.000000
# 2 -0.003297 0.012629 -0.003582 0.000000 0.000000 0.000000
# 3 -0.002734 -0.003582 0.009158 0.000000 0.000000 0.000000
# 4 0.000000 0.000000 0.000000 0.050671 0.000000 0.000000
# 5 0.000000 0.000000 0.000000 0.000000 0.042460 0.000000
# 6 0.000000 0.000000 0.000000 0.000000 0.000000 0.039310
#
#
# Mechanical properties :
#
#
# Convention : Reuss Voigt Hill
#
# Bulk Modulus (GPa) = 72.18936 74.12073 73.15504
# Shear Modulus (GPa) = 26.40389 28.12657 27.26523
#
# Velocity S-wave (km/s) = 3.56853 3.68311 3.62627
# Velocity P-wave (km/s) = 7.19692 7.33723 7.26742
#
# Compressibility (1/GPa) = 0.01385246
#
# Stress axis : x y z
#
# Youngs Moduli (GPa) = 88.54887 79.18468 109.19743
#
# Poissons Ratio (x) = 0.26111 0.29858
# Poissons Ratio (y) = 0.29198 0.39112
# Poissons Ratio (z) = 0.24212 0.28362
#
# Static dielectric constant tensor:
#      x y z
#    x 4.008290 0.000000 0.000000 
#    y 0.000000 3.678240 0.000000 
#    z 0.000000 0.000000 3.719760 
# 
# 
# High freq. dielectric constant tensor:
#      x y z
#    x 1.834070 0.000000 0.000000 
#    y 0.000000 1.790760 0.000000 
#    z 0.000000 0.000000 1.800600 
# 
# From -- ./inp_files/2658.got.cif
#   From: 2010.03.12/outbox.cif.g09.slc.cpg/sg18_2_cif.got.tgz:2658.got - 2010.04.10 18:53:55.
