data_PCOD8156504
_publ_section_title
;
Structure prediction by ZEFSAII (Michael W. Deem and Ramdas Pophale) SiO2 
 PCOD8156504
Probable space group: P 21 21 2
;
_chemical_formula_sum "Si O2"
_cell_formula_units_Z 12
_cell_length_a 9.454960
_cell_length_b 9.445443
_cell_length_c 6.367496
_cell_angle_alpha 90.000000
_cell_angle_beta 90.000000
_cell_angle_gamma 90.000000
_cell_volume 568.657417
_symmetry_space_group_name_H-M "P 21 21 2"
_symmetry_group_IT_number 18
_symmetry_cell_setting 'orthorhombic'
loop_
_space_group_symop_operation_xyz
x,y,z
-x,-y,z
1/2+x,1/2-y,-z
1/2-x,1/2+y,-z
loop_
_atom_site_type_symbol
_atom_site_label
_atom_site_fract_x
_atom_site_fract_y
_atom_site_fract_z
Si Si1 0.000000 0.000000 0.844471
Si Si2 0.000000 0.500000 0.621873
Si Si3 0.196063 0.000030 0.224051
Si Si4 0.499974 0.302994 0.535192
O O1 0.000153 0.859112 0.703697
O O2 0.141606 0.000151 0.985428
O O3 0.864958 0.500007 0.774988
O O4 0.000000 0.633950 0.466203
O O5 0.138714 0.860308 0.343786
O O6 0.138779 0.139655 0.344108
#
# Coordination Sequence:
#
# PCOD8156504 Si02
#       4
#     2   2   4   4
#     4   8  18  40  52  70 112 148 174 208 268 314
#     4  12  20  32  58  88 104 134 184 220 266 312
#     4   9  20  38  57  75 109 145 173 219 264 314
#     4   9  20  38  57  75 109 145 173 219 264 314
#
# _framework density 21.102338
#
# number of rings (size 3 to 8) (size 9 to 14) (size 15 to 20)
#    0.000    3.333    0.000    2.000    0.000    2.667 
#    0.000   20.000    0.000    0.000    0.000    0.000 
#    0.000    0.000    0.000    0.000    0.000    0.000 
#
# Total GULP energy -148799.137917 kJ/mol
# GULP energy per Si atom -12399.928160 kJ/mol
# Density = 2.105431 g / cm^3
# Si number density = 21.102338 Si / 1000 Ang^3
#
#
#
# Elastic Constant Matrix: (Units=GPa)
#
#
# Indices 1 2 3 4 5 6 
#
# 1 176.0805 24.9314 39.3905 0.0000 0.0000 0.0000
# 2 24.9314 170.0204 42.9232 0.0000 0.0000 0.0000
# 3 39.3905 42.9232 132.1321 0.0000 0.0000 0.0000
# 4 0.0000 0.0000 0.0000 4.1965 0.0000 0.0000
# 5 0.0000 0.0000 0.0000 0.0000 7.1392 0.0000
# 6 0.0000 0.0000 0.0000 0.0000 0.0000 14.9787
#
#
#
# Elastic Compliance Matrix: (Units=1/GPa)
#
#
# Indices 1 2 3 4 5 6 
#
# 1 0.006120 -0.000476 -0.001670 0.000000 0.000000 0.000000
# 2 -0.000476 0.006444 -0.001952 0.000000 0.000000 0.000000
# 3 -0.001670 -0.001952 0.008700 0.000000 0.000000 0.000000
# 4 0.000000 0.000000 0.000000 0.238293 0.000000 0.000000
# 5 0.000000 0.000000 0.000000 0.000000 0.140071 0.000000
# 6 0.000000 0.000000 0.000000 0.000000 0.000000 0.066761
#
#
# Mechanical properties :
#
#
# Convention : Reuss Voigt Hill
#
# Bulk Modulus (GPa) = 76.51319 76.96924 76.74121
# Shear Modulus (GPa) = 10.43969 29.99542 20.21756
#
# Velocity S-wave (km/s) = 2.22664 3.77427 3.09863
# Velocity P-wave (km/s) = 6.55343 7.45298 7.01763
#
# Compressibility (1/GPa) = 0.01306964
#
# Stress axis : x y z
#
# Youngs Moduli (GPa) = 163.39410 155.18064 114.94303
#
# Poissons Ratio (x) = 0.07384 0.19195
# Poissons Ratio (y) = 0.07775 0.22431
# Poissons Ratio (z) = 0.27286 0.30284
#
# Static dielectric constant tensor:
#      x y z
#    x 3.731610 0.000000 0.000000 
#    y 0.000000 3.738140 0.000000 
#    z 0.000000 0.000000 3.599510 
# 
# 
# High freq. dielectric constant tensor:
#      x y z
#    x 1.824700 0.000000 0.000000 
#    y 0.000000 1.821640 0.000000 
#    z 0.000000 0.000000 1.814790 
# 
# From -- ./inp_files/365.got.cif
#   From: 2010.03.12/outbox.cif.g09.slc.cpg/sg18_1_cif.got.tgz:365.got - 2010.04.10 18:53:55.
