data_PCOD8156250
_publ_section_title
;
Structure prediction by ZEFSAII (Michael W. Deem and Ramdas Pophale) SiO2 
 PCOD8156250
Probable space group: P 21 21 2
;
_chemical_formula_sum "Si O2"
_cell_formula_units_Z 20
_cell_length_a 5.099367
_cell_length_b 13.067754
_cell_length_c 11.056424
_cell_angle_alpha 90.000000
_cell_angle_beta 90.000000
_cell_angle_gamma 90.000000
_cell_volume 736.769950
_symmetry_space_group_name_H-M "P 21 21 2"
_symmetry_group_IT_number 18
_symmetry_cell_setting 'orthorhombic'
loop_
_space_group_symop_operation_xyz
x,y,z
-x,-y,z
1/2+x,1/2-y,-z
1/2-x,1/2+y,-z
loop_
_atom_site_type_symbol
_atom_site_label
_atom_site_fract_x
_atom_site_fract_y
_atom_site_fract_z
Si Si1 0.144202 0.621471 0.967084
Si Si2 0.010304 0.118350 0.627831
Si Si3 0.391792 0.283628 0.612038
Si Si4 0.640397 0.642231 0.101694
Si Si5 0.088868 0.604437 0.702439
O O1 0.165345 0.567628 0.837154
O O2 0.148991 0.741551 0.940440
O O3 0.381344 0.587153 0.052799
O O4 0.886591 0.585355 0.040198
O O5 0.315698 0.161698 0.624632
O O6 0.855977 0.134485 0.753341
O O7 0.840871 0.182742 0.527569
O O8 0.000000 0.000000 0.590745
O O9 0.670813 0.330221 0.648804
O O10 0.167692 0.325249 0.702523
O O11 0.000000 0.500000 0.631684
#
# Coordination Sequence:
#
# PCOD8156250 Si02
#       5
#     4   4   4   4   4
#     4  10  22  42  71 109 153 204 258 326 406 483
#     4  12  28  51  82 117 160 218 277 339 417 494
#     4  12  28  50  76 114 162 206 273 347 408 482
#     4  10  23  42  71 107 154 204 260 331 404 477
#     4  12  25  47  79 113 155 210 268 331 411 491
#
# _framework density 27.145512
#
# number of rings (size 3 to 8) (size 9 to 14) (size 15 to 20)
#    0.000    0.800    2.000    4.200    5.600    3.200 
#    0.000   11.000    0.000    0.000    0.000    0.000 
#    0.000    0.000    0.000    0.000    0.000    0.000 
#
# Total GULP energy -247836.605474 kJ/mol
# GULP energy per Si atom -12391.830274 kJ/mol
# Density = 2.708373 g / cm^3
# Si number density = 27.145512 Si / 1000 Ang^3
#
#
#
# Elastic Constant Matrix: (Units=GPa)
#
#
# Indices 1 2 3 4 5 6 
#
# 1 136.7315 74.6694 35.8965 0.0000 0.0000 0.0000
# 2 74.6694 153.1157 18.7460 0.0000 0.0000 0.0000
# 3 35.8965 18.7460 175.5782 0.0000 0.0000 0.0000
# 4 0.0000 0.0000 0.0000 17.4204 0.0000 0.0000
# 5 0.0000 0.0000 0.0000 0.0000 42.8419 0.0000
# 6 0.0000 0.0000 0.0000 0.0000 0.0000 42.9847
#
#
#
# Elastic Compliance Matrix: (Units=1/GPa)
#
#
# Indices 1 2 3 4 5 6 
#
# 1 0.010396 -0.004873 -0.001605 0.000000 0.000000 0.000000
# 2 -0.004873 0.008902 0.000046 0.000000 0.000000 0.000000
# 3 -0.001605 0.000046 0.006019 0.000000 0.000000 0.000000
# 4 0.000000 0.000000 0.000000 0.057404 0.000000 0.000000
# 5 0.000000 0.000000 0.000000 0.000000 0.023342 0.000000
# 6 0.000000 0.000000 0.000000 0.000000 0.000000 0.023264
#
#
# Mechanical properties :
#
#
# Convention : Reuss Voigt Hill
#
# Bulk Modulus (GPa) = 80.31025 80.44990 80.38008
# Shear Modulus (GPa) = 34.16630 43.05697 38.61163
#
# Velocity S-wave (km/s) = 3.55157 3.98698 3.77556
# Velocity P-wave (km/s) = 6.81671 7.13411 6.97722
#
# Compressibility (1/GPa) = 0.01245171
#
# Stress axis : x y z
#
# Youngs Moduli (GPa) = 96.18684 112.33411 166.14768
#
# Poissons Ratio (x) = 0.54746 0.26670
# Poissons Ratio (y) = 0.46876 -0.00763
# Poissons Ratio (z) = 0.15440 -0.00516
#
# Static dielectric constant tensor:
#      x y z
#    x 5.504540 0.000000 0.000000 
#    y 0.000000 5.249060 0.000000 
#    z 0.000000 0.000000 5.144480 
# 
# 
# High freq. dielectric constant tensor:
#      x y z
#    x 2.092580 0.000000 0.000000 
#    y 0.000000 2.118990 0.000000 
#    z 0.000000 0.000000 2.095540 
# 
# From -- ./inp_files/5080.got.cif
#   From: 2010.03.12/outbox.cif.g09.slc.cpg/sg18_3_cif.got.tgz:5080.got - 2010.04.10 18:53:55.
