data_PCOD8156737
_publ_section_title
;
Structure prediction by ZEFSAII (Michael W. Deem and Ramdas Pophale) SiO2 
 PCOD8156737
Probable space group: P 21 21 21
;
_chemical_formula_sum "Si O2"
_cell_formula_units_Z 32
_cell_length_a 15.750495
_cell_length_b 9.165866
_cell_length_c 10.852856
_cell_angle_alpha 90.000000
_cell_angle_beta 90.000000
_cell_angle_gamma 90.000000
_cell_volume 1566.793466
_symmetry_space_group_name_H-M "P 21 21 21"
_symmetry_group_IT_number 19
_symmetry_cell_setting 'orthorhombic'
loop_
_space_group_symop_operation_xyz
x,y,z
1/2-x,-y,1/2+z
1/2+x,1/2-y,-z
-x,1/2+y,1/2-z
loop_
_atom_site_type_symbol
_atom_site_label
_atom_site_fract_x
_atom_site_fract_y
_atom_site_fract_z
Si Si1 0.579555 0.576705 0.928601
Si Si2 0.143456 0.659686 0.956423
Si Si3 0.732282 0.388833 0.998030
Si Si4 0.380147 0.661118 0.373385
Si Si5 0.625367 0.674415 0.672910
Si Si6 0.742420 0.892043 0.811605
Si Si7 0.194230 0.696978 0.694630
Si Si8 0.533229 0.828782 0.463019
O O1 0.570122 0.742489 0.978585
O O2 0.672103 0.526757 0.978766
O O3 0.581425 0.576701 0.779361
O O4 0.505060 0.477619 0.981641
O O5 0.226176 0.649539 0.045957
O O6 0.105469 0.501642 0.924582
O O7 0.168950 0.742633 0.831782
O O8 0.774103 0.346252 0.867230
O O9 0.680121 0.244224 0.031714
O O10 0.803888 0.422472 0.100924
O O11 0.335483 0.659664 0.238129
O O12 0.469567 0.745691 0.369196
O O13 0.669106 0.819625 0.728310
O O14 0.552791 0.723277 0.577942
O O15 0.736113 0.067369 0.797138
O O16 0.116086 0.630958 0.614765
#
# Coordination Sequence:
#
# PCOD8156737 Si02
#       8
#     4   4   4   4   4   4   4   4
#     4  10  22  37  58  88 119 150 194 251 290 344
#     4  10  20  34  59  87 114 148 201 241 280 349
#     4   9  18  36  58  83 111 153 196 237 295 342
#     4   9  18  36  60  79 118 154 185 240 300 349
#     4   9  20  37  61  83 119 155 200 242 293 349
#     4   9  18  36  60  86 109 152 204 242 273 353
#     4  10  20  35  63  83 117 154 201 235 298 354
#     4  10  22  39  59  87 121 162 189 238 315 362
#
# _framework density 20.423877999999998
#
# number of rings (size 3 to 8) (size 9 to 14) (size 15 to 20)
#    0.000    2.500    1.250    0.000    3.500    4.000 
#    0.000    0.000   11.000    0.000    0.000    0.000 
#    0.000    0.000    0.000    0.000    0.000    0.000 
#
# Total GULP energy -396630.027201 kJ/mol
# GULP energy per Si atom -12394.688350 kJ/mol
# Density = 2.037739 g / cm^3
# Si number density = 20.423878 Si / 1000 Ang^3
#
#
#
# Elastic Constant Matrix: (Units=GPa)
#
#
# Indices 1 2 3 4 5 6 
#
# 1 53.8262 11.7424 8.0175 0.0000 0.0000 0.0000
# 2 11.7424 52.6853 6.7749 0.0000 0.0000 0.0000
# 3 8.0175 6.7749 98.5335 0.0000 0.0000 0.0000
# 4 0.0000 0.0000 0.0000 29.0715 0.0000 0.0000
# 5 0.0000 0.0000 0.0000 0.0000 24.8360 0.0000
# 6 0.0000 0.0000 0.0000 0.0000 0.0000 23.2484
#
#
#
# Elastic Compliance Matrix: (Units=1/GPa)
#
#
# Indices 1 2 3 4 5 6 
#
# 1 0.019695 -0.004221 -0.001312 0.000000 0.000000 0.000000
# 2 -0.004221 0.020054 -0.001035 0.000000 0.000000 0.000000
# 3 -0.001312 -0.001035 0.010327 0.000000 0.000000 0.000000
# 4 0.000000 0.000000 0.000000 0.034398 0.000000 0.000000
# 5 0.000000 0.000000 0.000000 0.000000 0.040264 0.000000
# 6 0.000000 0.000000 0.000000 0.000000 0.000000 0.043014
#
#
# Mechanical properties :
#
#
# Convention : Reuss Voigt Hill
#
# Bulk Modulus (GPa) = 27.07177 28.67940 27.87558
# Shear Modulus (GPa) = 25.87970 27.33185 26.60578
#
# Velocity S-wave (km/s) = 3.56354 3.66215 3.61318
# Velocity P-wave (km/s) = 5.49686 5.65282 5.57539
#
# Compressibility (1/GPa) = 0.03693885
#
# Stress axis : x y z
#
# Youngs Moduli (GPa) = 50.77546 49.86416 96.83530
#
# Poissons Ratio (x) = 0.21046 0.12708
# Poissons Ratio (y) = 0.21431 0.10027
# Poissons Ratio (z) = 0.06663 0.05163
#
# Static dielectric constant tensor:
#      x y z
#    x 3.501490 0.000000 0.000000 
#    y 0.000000 3.553750 0.000000 
#    z 0.000000 0.000000 3.887820 
# 
# 
# High freq. dielectric constant tensor:
#      x y z
#    x 1.769930 0.000000 0.000000 
#    y 0.000000 1.788430 0.000000 
#    z 0.000000 0.000000 1.809370 
# 
# From -- ./inp_files/5429.got.cif
#   From: 2010.03.12/outbox.cif.g09.slc.cpg/sg19_3_cif.got.tgz:5429.got - 2010.04.10 18:59:41.
