data_PCOD8156827
_publ_section_title
;
Structure prediction by ZEFSAII (Michael W. Deem and Ramdas Pophale) SiO2 
 PCOD8156827
Probable space group: P 21 21 21
;
_chemical_formula_sum "Si O2"
_cell_formula_units_Z 32
_cell_length_a 10.056332
_cell_length_b 8.491817
_cell_length_c 19.453711
_cell_angle_alpha 90.000000
_cell_angle_beta 90.000000
_cell_angle_gamma 90.000000
_cell_volume 1661.279435
_symmetry_space_group_name_H-M "P 21 21 21"
_symmetry_group_IT_number 19
_symmetry_cell_setting 'orthorhombic'
loop_
_space_group_symop_operation_xyz
x,y,z
1/2-x,-y,1/2+z
1/2+x,1/2-y,-z
-x,1/2+y,1/2-z
loop_
_atom_site_type_symbol
_atom_site_label
_atom_site_fract_x
_atom_site_fract_y
_atom_site_fract_z
Si Si1 0.806088 0.377130 0.233031
Si Si2 0.020806 0.102421 0.781745
Si Si3 0.029482 0.931319 0.651163
Si Si4 0.982195 0.070751 0.509836
Si Si5 0.460770 0.624576 0.628198
Si Si6 0.333768 0.950137 0.632498
Si Si7 0.731699 0.087457 0.323224
Si Si8 0.260355 0.216543 0.541537
O O1 0.671132 0.463374 0.205971
O O2 0.877040 0.472215 0.294953
O O3 0.764921 0.202650 0.259772
O O4 0.902037 0.374168 0.168716
O O5 0.025048 0.280915 0.808220
O O6 0.003500 0.087096 0.698395
O O7 0.910073 0.998072 0.817950
O O8 0.182471 0.895821 0.637568
O O9 0.961777 0.963755 0.577628
O O10 0.122609 0.163003 0.506396
O O11 0.856074 0.188827 0.510018
O O12 0.979231 0.959744 0.444014
O O13 0.426001 0.804791 0.613970
O O14 0.347719 0.542411 0.674090
O O15 0.347977 0.070499 0.569106
O O16 0.718850 0.181147 0.393364
#
# Coordination Sequence:
#
# PCOD8156827 Si02
#       8
#     4   4   4   4   4   4   4   4
#     4  10  21  36  58  92 119 151 207 252 289 359
#     4  11  20  38  61  90 114 153 204 257 299 339
#     4  10  21  40  61  89 117 154 204 251 294 355
#     4  10  23  43  60  88 124 160 202 241 299 373
#     4  11  21  39  59  91 123 157 197 244 305 361
#     4   9  19  39  61  82 123 161 191 244 306 349
#     4  10  20  38  63  82 118 163 197 241 315 353
#     4   9  21  43  61  82 120 165 196 240 303 363
#
# _framework density 19.262260999999999
#
# number of rings (size 3 to 8) (size 9 to 14) (size 15 to 20)
#    0.000    2.000    2.500    1.500    0.000    1.000 
#   11.250    1.250    0.000    0.000    0.000    0.000 
#    0.000    0.000    0.000    0.000    0.000    0.000 
#
# Total GULP energy -396625.532285 kJ/mol
# GULP energy per Si atom -12394.547884 kJ/mol
# Density = 1.921842 g / cm^3
# Si number density = 19.262261 Si / 1000 Ang^3
#
#
#
# Elastic Constant Matrix: (Units=GPa)
#
#
# Indices 1 2 3 4 5 6 
#
# 1 107.5293 57.5915 61.3543 0.0000 0.0000 0.0000
# 2 57.5915 107.0720 51.9756 0.0000 0.0000 0.0000
# 3 61.3543 51.9756 96.8881 0.0000 0.0000 0.0000
# 4 0.0000 0.0000 0.0000 24.8658 0.0000 0.0000
# 5 0.0000 0.0000 0.0000 0.0000 30.9555 0.0000
# 6 0.0000 0.0000 0.0000 0.0000 0.0000 33.8648
#
#
#
# Elastic Compliance Matrix: (Units=1/GPa)
#
#
# Indices 1 2 3 4 5 6 
#
# 1 0.016397 -0.005110 -0.007642 0.000000 0.000000 0.000000
# 2 -0.005110 0.014220 -0.004393 0.000000 0.000000 0.000000
# 3 -0.007642 -0.004393 0.017517 0.000000 0.000000 0.000000
# 4 0.000000 0.000000 0.000000 0.040216 0.000000 0.000000
# 5 0.000000 0.000000 0.000000 0.000000 0.032304 0.000000
# 6 0.000000 0.000000 0.000000 0.000000 0.000000 0.029529
#
#
# Mechanical properties :
#
#
# Convention : Reuss Voigt Hill
#
# Bulk Modulus (GPa) = 72.22870 72.59247 72.41059
# Shear Modulus (GPa) = 26.44265 27.30844 26.87554
#
# Velocity S-wave (km/s) = 3.70911 3.76934 3.73935
# Velocity P-wave (km/s) = 7.47812 7.53074 7.50448
#
# Compressibility (1/GPa) = 0.01384491
#
# Stress axis : x y z
#
# Youngs Moduli (GPa) = 60.98631 70.32195 57.08711
#
# Poissons Ratio (x) = 0.35934 0.43628
# Poissons Ratio (y) = 0.31163 0.25076
# Poissons Ratio (z) = 0.46607 0.30890
#
# Static dielectric constant tensor:
#      x y z
#    x 3.534290 0.000000 0.000000 
#    y 0.000000 3.706230 0.000000 
#    z 0.000000 0.000000 3.457220 
# 
# 
# High freq. dielectric constant tensor:
#      x y z
#    x 1.751060 0.000000 0.000000 
#    y 0.000000 1.752060 0.000000 
#    z 0.000000 0.000000 1.740720 
# 
# From -- ./inp_files/7046.got.cif
#   From: 2010.03.12/outbox.cif.g09.slc.cpg/sg19_4_cif.got.tgz:7046.got - 2010.04.10 18:59:41.
