data_PCOD8156566
_publ_section_title
;
Structure prediction by ZEFSAII (Michael W. Deem and Ramdas Pophale) SiO2 
 PCOD8156566
Probable space group: P 21 21 21
;
_chemical_formula_sum "Si O2"
_cell_formula_units_Z 32
_cell_length_a 18.147646
_cell_length_b 13.413518
_cell_length_c 7.674654
_cell_angle_alpha 90.000000
_cell_angle_beta 90.000000
_cell_angle_gamma 90.000000
_cell_volume 1868.193258
_symmetry_space_group_name_H-M "P 21 21 21"
_symmetry_group_IT_number 19
_symmetry_cell_setting 'orthorhombic'
loop_
_space_group_symop_operation_xyz
x,y,z
1/2-x,-y,1/2+z
1/2+x,1/2-y,-z
-x,1/2+y,1/2-z
loop_
_atom_site_type_symbol
_atom_site_label
_atom_site_fract_x
_atom_site_fract_y
_atom_site_fract_z
Si Si1 0.765844 0.890622 0.691890
Si Si2 0.499728 0.387434 0.124450
Si Si3 0.908192 0.201007 0.573792
Si Si4 0.098772 0.616938 0.299036
Si Si5 0.400946 0.615058 0.779167
Si Si6 0.996558 0.883776 0.887372
Si Si7 0.591913 0.203836 0.079866
Si Si8 0.254869 0.389022 0.410246
O O1 0.682633 0.861231 0.642434
O O2 0.820661 0.811747 0.602546
O O3 0.786619 0.000892 0.625589
O O4 0.777923 0.886930 0.897166
O O5 0.456135 0.372214 0.304708
O O6 0.523071 0.502061 0.103146
O O7 0.572812 0.319100 0.120397
O O8 0.449946 0.351379 0.962770
O O9 0.924315 0.178308 0.371435
O O10 0.821583 0.188489 0.616327
O O11 0.930555 0.315282 0.610767
O O12 0.089381 0.502001 0.248432
O O13 0.433004 0.675311 0.615513
O O14 0.313519 0.639838 0.787995
O O15 0.444492 0.647801 0.951673
O O16 0.951527 0.868795 0.710357
#
# Coordination Sequence:
#
# PCOD8156566 Si02
#       8
#     4   4   4   4   4   4   4   4
#     4  10  18  30  49  78 104 126 160 209 259 296
#     4  10  21  33  52  73 100 134 168 201 247 297
#     4  10  20  32  51  75 102 130 164 203 248 302
#     4   9  19  32  49  79 100 127 158 206 256 294
#     4  10  19  31  53  76 106 126 159 211 254 297
#     4  10  20  36  50  72 104 134 166 206 248 294
#     4  11  20  32  51  78 100 132 166 201 250 302
#     4  10  19  30  51  79 102 129 159 209 260 296
#
# _framework density 17.12885
#
# number of rings (size 3 to 8) (size 9 to 14) (size 15 to 20)
#    0.000    2.000    1.250    4.500    5.250    0.000 
#    0.000    0.000    0.000    3.000    0.000    0.000 
#    0.000    0.000    0.000    0.000    0.000    0.000 
#
# Total GULP energy -396823.224052 kJ/mol
# GULP energy per Si atom -12400.725752 kJ/mol
# Density = 1.708986 g / cm^3
# Si number density = 17.128850 Si / 1000 Ang^3
#
#
#
# Elastic Constant Matrix: (Units=GPa)
#
#
# Indices 1 2 3 4 5 6 
#
# 1 75.6103 48.7853 35.5625 0.0000 0.0000 0.0000
# 2 48.7853 84.8416 36.1653 0.0000 0.0000 0.0000
# 3 35.5625 36.1653 89.3581 0.0000 0.0000 0.0000
# 4 0.0000 0.0000 0.0000 19.4990 0.0000 0.0000
# 5 0.0000 0.0000 0.0000 0.0000 43.7162 0.0000
# 6 0.0000 0.0000 0.0000 0.0000 0.0000 26.4264
#
#
#
# Elastic Compliance Matrix: (Units=1/GPa)
#
#
# Indices 1 2 3 4 5 6 
#
# 1 0.022417 -0.010982 -0.004477 0.000000 0.000000 0.000000
# 2 -0.010982 0.019624 -0.003572 0.000000 0.000000 0.000000
# 3 -0.004477 -0.003572 0.014418 0.000000 0.000000 0.000000
# 4 0.000000 0.000000 0.000000 0.051285 0.000000 0.000000
# 5 0.000000 0.000000 0.000000 0.000000 0.022875 0.000000
# 6 0.000000 0.000000 0.000000 0.000000 0.000000 0.037841
#
#
# Mechanical properties :
#
#
# Convention : Reuss Voigt Hill
#
# Bulk Modulus (GPa) = 54.35292 54.53737 54.44514
# Shear Modulus (GPa) = 23.51244 26.54810 25.03027
#
# Velocity S-wave (km/s) = 3.70899 3.94115 3.82683
# Velocity P-wave (km/s) = 7.08116 7.25389 7.16804
#
# Compressibility (1/GPa) = 0.01839828
#
# Stress axis : x y z
#
# Youngs Moduli (GPa) = 44.60886 50.95816 69.35681
#
# Poissons Ratio (x) = 0.55961 0.31050
# Poissons Ratio (y) = 0.48989 0.24773
# Poissons Ratio (z) = 0.19971 0.18201
#
# Static dielectric constant tensor:
#      x y z
#    x 3.105540 0.000000 0.000000 
#    y 0.000000 2.928790 0.000000 
#    z 0.000000 0.000000 3.369340 
# 
# 
# High freq. dielectric constant tensor:
#      x y z
#    x 1.649290 0.000000 0.000000 
#    y 0.000000 1.631590 0.000000 
#    z 0.000000 0.000000 1.683540 
# 
# From -- ./inp_files/3701.got.cif
#   From: 2010.03.12/outbox.cif.g09.slc.cpg/sg19_2_cif.got.tgz:3701.got - 2010.04.10 18:59:41.
