data_PCOD8156914
_publ_section_title
;
Structure prediction by ZEFSAII (Michael W. Deem and Ramdas Pophale) SiO2 
 PCOD8156914
Probable space group: P 21 21 21
;
_chemical_formula_sum "Si O2"
_cell_formula_units_Z 28
_cell_length_a 9.092235
_cell_length_b 16.709241
_cell_length_c 8.282645
_cell_angle_alpha 90.000000
_cell_angle_beta 90.000000
_cell_angle_gamma 90.000000
_cell_volume 1258.335423
_symmetry_space_group_name_H-M "P 21 21 21"
_symmetry_group_IT_number 19
_symmetry_cell_setting 'orthorhombic'
loop_
_space_group_symop_operation_xyz
x,y,z
1/2-x,-y,1/2+z
1/2+x,1/2-y,-z
-x,1/2+y,1/2-z
loop_
_atom_site_type_symbol
_atom_site_label
_atom_site_fract_x
_atom_site_fract_y
_atom_site_fract_z
Si Si1 0.616641 0.962806 0.422938
Si Si2 0.954563 0.681521 0.464543
Si Si3 0.630057 0.943914 0.061057
Si Si4 0.136392 0.127127 0.369625
Si Si5 0.315723 0.701780 0.022721
Si Si6 0.322511 0.209055 0.804646
Si Si7 0.577961 0.598542 0.973786
O O1 0.584712 0.869530 0.452674
O O2 0.587793 0.979931 0.234439
O O3 0.783981 0.986405 0.464280
O O4 0.509717 0.015465 0.537859
O O5 0.892031 0.628383 0.319377
O O6 0.820460 0.694763 0.586391
O O7 0.034085 0.763604 0.406849
O O8 0.486252 0.922370 0.962469
O O9 0.728119 0.863537 0.083744
O O10 0.153886 0.218183 0.426024
O O11 0.287328 0.081579 0.406509
O O12 0.221370 0.718631 0.183772
O O13 0.475979 0.665414 0.060825
O O14 0.366257 0.129503 0.702787
#
# Coordination Sequence:
#
# PCOD8156914 Si02
#       7
#     4   4   4   4   4   4   4
#     4  11  26  43  68 100 141 187 237 303 359 436
#     4  12  26  42  67 108 141 182 246 293 359 422
#     4  11  23  44  70  99 141 188 237 286 367 432
#     4  11  21  41  68 100 135 183 231 292 344 425
#     4  10  20  42  69  94 135 180 234 285 355 419
#     4  11  25  43  70 102 142 187 238 297 351 439
#     4  10  23  43  66  97 137 189 233 288 369 415
#
# _framework density 22.251619000000002
#
# number of rings (size 3 to 8) (size 9 to 14) (size 15 to 20)
#    0.000    1.143    2.857    3.429    6.000    2.286 
#    0.000    4.286    0.000    0.000    0.000    0.000 
#    0.000    0.000    0.000    0.000    0.000    0.000 
#
# Total GULP energy -347172.296246 kJ/mol
# GULP energy per Si atom -12399.010580 kJ/mol
# Density = 2.220097 g / cm^3
# Si number density = 22.251619 Si / 1000 Ang^3
#
#
#
# Elastic Constant Matrix: (Units=GPa)
#
#
# Indices 1 2 3 4 5 6 
#
# 1 119.5863 23.6708 31.2654 0.0000 0.0000 0.0000
# 2 23.6708 48.7267 29.3507 0.0000 0.0000 0.0000
# 3 31.2654 29.3507 107.3151 0.0000 0.0000 0.0000
# 4 0.0000 0.0000 0.0000 31.8586 0.0000 0.0000
# 5 0.0000 0.0000 0.0000 0.0000 46.5750 0.0000
# 6 0.0000 0.0000 0.0000 0.0000 0.0000 33.0075
#
#
#
# Elastic Compliance Matrix: (Units=1/GPa)
#
#
# Indices 1 2 3 4 5 6 
#
# 1 0.009536 -0.003543 -0.001809 0.000000 0.000000 0.000000
# 2 -0.003543 0.025887 -0.006048 0.000000 0.000000 0.000000
# 3 -0.001809 -0.006048 0.011500 0.000000 0.000000 0.000000
# 4 0.000000 0.000000 0.000000 0.031389 0.000000 0.000000
# 5 0.000000 0.000000 0.000000 0.000000 0.021471 0.000000
# 6 0.000000 0.000000 0.000000 0.000000 0.000000 0.030296
#
#
# Mechanical properties :
#
#
# Convention : Reuss Voigt Hill
#
# Bulk Modulus (GPa) = 41.45489 49.35576 45.40533
# Shear Modulus (GPa) = 31.07149 35.04429 33.05789
#
# Velocity S-wave (km/s) = 3.74086 3.97282 3.85858
# Velocity P-wave (km/s) = 6.10976 6.57824 6.34833
#
# Compressibility (1/GPa) = 0.02412261
#
# Stress axis : x y z
#
# Youngs Moduli (GPa) = 104.86040 38.63003 86.95959
#
# Poissons Ratio (x) = 0.13686 0.15735
# Poissons Ratio (y) = 0.37150 0.52592
# Poissons Ratio (z) = 0.18974 0.23363
#
# Static dielectric constant tensor:
#      x y z
#    x 4.334900 0.000000 0.000000 
#    y 0.000000 3.897330 0.000000 
#    z 0.000000 0.000000 4.062040 
# 
# 
# High freq. dielectric constant tensor:
#      x y z
#    x 1.893850 0.000000 0.000000 
#    y 0.000000 1.865710 0.000000 
#    z 0.000000 0.000000 1.868190 
# 
# From -- ./inp_files/2985.got.cif
#   From: 2010.03.12/outbox.cif.g09.slc.cpg/sg19_2_cif.got.tgz:2985.got - 2010.04.10 18:59:41.
