data_PCOD8156607
_publ_section_title
;
Structure prediction by ZEFSAII (Michael W. Deem and Ramdas Pophale) SiO2 
 PCOD8156607
Probable space group: P 21 21 21
;
_chemical_formula_sum "Si O2"
_cell_formula_units_Z 28
_cell_length_a 12.278561
_cell_length_b 9.251113
_cell_length_c 11.978021
_cell_angle_alpha 90.000000
_cell_angle_beta 90.000000
_cell_angle_gamma 90.000000
_cell_volume 1360.587661
_symmetry_space_group_name_H-M "P 21 21 21"
_symmetry_group_IT_number 19
_symmetry_cell_setting 'orthorhombic'
loop_
_space_group_symop_operation_xyz
x,y,z
1/2-x,-y,1/2+z
1/2+x,1/2-y,-z
-x,1/2+y,1/2-z
loop_
_atom_site_type_symbol
_atom_site_label
_atom_site_fract_x
_atom_site_fract_y
_atom_site_fract_z
Si Si1 0.101855 0.519859 0.267375
Si Si2 0.713317 0.027677 0.078660
Si Si3 0.521621 0.896243 0.375709
Si Si4 0.692031 0.780298 0.912636
Si Si5 0.101163 0.027905 0.092950
Si Si6 0.403880 0.668196 0.226100
Si Si7 0.728605 0.202936 0.871845
O O1 0.163342 0.563433 0.382116
O O2 0.107494 0.642084 0.171680
O O3 0.163775 0.373949 0.228801
O O4 0.976186 0.497503 0.299967
O O5 0.635464 0.049385 0.183950
O O6 0.677594 0.142026 0.985770
O O7 0.702605 0.866418 0.028897
O O8 0.457890 0.806295 0.282148
O O9 0.643757 0.833085 0.374546
O O10 0.462821 0.886477 0.495464
O O11 0.516861 0.068272 0.348270
O O12 0.650784 0.622977 0.947208
O O13 0.807763 0.771485 0.851198
O O14 0.202622 0.126832 0.133683
#
# Coordination Sequence:
#
# PCOD8156607 Si02
#       7
#     4   4   4   4   4   4   4
#     4  10  20  42  66  85 128 173 209 259 327 377
#     4  10  18  43  64  86 127 170 206 261 324 383
#     4  12  25  41  69  93 131 172 212 270 324 387
#     4  10  23  41  64  93 128 168 216 266 314 385
#     4  12  24  39  65 100 126 165 227 261 315 387
#     4  11  24  43  65  94 128 170 216 261 329 381
#     4  11  22  41  63  93 128 172 208 268 325 374
#
# _framework density 20.579343999999999
#
# number of rings (size 3 to 8) (size 9 to 14) (size 15 to 20)
#    0.000    1.143    7.143    0.857    4.000    0.000 
#    0.000    0.000    0.000    0.000    0.000    0.000 
#    0.000    0.000    0.000    0.000    0.000    0.000 
#
# Total GULP energy -347080.988135 kJ/mol
# GULP energy per Si atom -12395.749576 kJ/mol
# Density = 2.053250 g / cm^3
# Si number density = 20.579344 Si / 1000 Ang^3
#
#
#
# Elastic Constant Matrix: (Units=GPa)
#
#
# Indices 1 2 3 4 5 6 
#
# 1 76.9313 48.4015 31.6641 0.0000 0.0000 0.0000
# 2 48.4015 104.6139 14.7107 0.0000 0.0000 0.0000
# 3 31.6641 14.7107 63.2901 0.0000 0.0000 0.0000
# 4 0.0000 0.0000 0.0000 28.7282 0.0000 0.0000
# 5 0.0000 0.0000 0.0000 0.0000 21.2027 0.0000
# 6 0.0000 0.0000 0.0000 0.0000 0.0000 28.9228
#
#
#
# Elastic Compliance Matrix: (Units=1/GPa)
#
#
# Indices 1 2 3 4 5 6 
#
# 1 0.022500 -0.009125 -0.009136 0.000000 0.000000 0.000000
# 2 -0.009125 0.013583 0.001408 0.000000 0.000000 0.000000
# 3 -0.009136 0.001408 0.020044 0.000000 0.000000 0.000000
# 4 0.000000 0.000000 0.000000 0.034809 0.000000 0.000000
# 5 0.000000 0.000000 0.000000 0.000000 0.047164 0.000000
# 6 0.000000 0.000000 0.000000 0.000000 0.000000 0.034575
#
#
# Mechanical properties :
#
#
# Convention : Reuss Voigt Hill
#
# Bulk Modulus (GPa) = 44.60125 48.26531 46.43328
# Shear Modulus (GPa) = 23.38051 25.77468 24.57759
#
# Velocity S-wave (km/s) = 3.37429 3.54284 3.45959
# Velocity P-wave (km/s) = 6.07462 6.34349 6.21051
#
# Compressibility (1/GPa) = 0.02242090
#
# Stress axis : x y z
#
# Youngs Moduli (GPa) = 44.44436 73.62166 49.89138
#
# Poissons Ratio (x) = 0.67183 0.45579
# Poissons Ratio (y) = 0.40557 -0.07026
# Poissons Ratio (z) = 0.40603 -0.10368
#
# Static dielectric constant tensor:
#      x y z
#    x 3.663050 0.000000 0.000000 
#    y 0.000000 3.571160 0.000000 
#    z 0.000000 0.000000 3.822040 
# 
# 
# High freq. dielectric constant tensor:
#      x y z
#    x 1.794140 0.000000 0.000000 
#    y 0.000000 1.796730 0.000000 
#    z 0.000000 0.000000 1.815380 
# 
# From -- ./inp_files/4595.got.cif
#   From: 2010.03.12/outbox.cif.g09.slc.cpg/sg19_3_cif.got.tgz:4595.got - 2010.04.10 18:59:41.
