data_PCOD8156832
_publ_section_title
;
Structure prediction by ZEFSAII (Michael W. Deem and Ramdas Pophale) SiO2 
 PCOD8156832
Probable space group: P 21 21 21
;
_chemical_formula_sum "Si O2"
_cell_formula_units_Z 28
_cell_length_a 8.745507
_cell_length_b 30.969067
_cell_length_c 5.025100
_cell_angle_alpha 90.000000
_cell_angle_beta 90.000000
_cell_angle_gamma 90.000000
_cell_volume 1360.999050
_symmetry_space_group_name_H-M "P 21 21 21"
_symmetry_group_IT_number 19
_symmetry_cell_setting 'orthorhombic'
loop_
_space_group_symop_operation_xyz
x,y,z
1/2-x,-y,1/2+z
1/2+x,1/2-y,-z
-x,1/2+y,1/2-z
loop_
_atom_site_type_symbol
_atom_site_label
_atom_site_fract_x
_atom_site_fract_y
_atom_site_fract_z
Si Si1 0.923478 0.047452 0.128986
Si Si2 0.246892 0.274092 0.722340
Si Si3 0.203171 0.631674 0.290985
Si Si4 0.603443 0.121680 0.704758
Si Si5 0.350301 0.997989 0.313531
Si Si6 0.537682 0.215604 0.772507
Si Si7 0.925197 0.963399 0.466338
O O1 0.932008 0.096089 0.252013
O O2 0.962237 0.009644 0.335221
O O3 0.753491 0.040063 0.019086
O O4 0.049668 0.044138 0.896004
O O5 0.342346 0.319394 0.718270
O O6 0.371857 0.237239 0.759500
O O7 0.155151 0.267197 0.449722
O O8 0.117728 0.273909 0.948453
O O9 0.251711 0.629180 0.599639
O O10 0.343182 0.617101 0.100459
O O11 0.499984 0.164574 0.736414
O O12 0.519000 0.077182 0.787073
O O13 0.255984 0.015444 0.566392
O O14 0.469707 0.036162 0.231236
#
# Coordination Sequence:
#
# PCOD8156832 Si02
#       7
#     4   4   4   4   4   4   4
#     4  11  21  37  66  87 111 155 213 244 277 352
#     4  10  20  38  63  89 121 156 194 245 299 354
#     4   9  20  34  58  92 118 146 198 255 292 330
#     4   9  20  34  58  92 118 146 198 255 292 330
#     4  12  26  40  56  84 124 160 190 242 312 346
#     4  10  20  38  63  89 121 156 194 245 299 354
#     4  11  21  37  66  87 111 155 213 244 277 352
#
# _framework density 20.573122999999999
#
# number of rings (size 3 to 8) (size 9 to 14) (size 15 to 20)
#    0.000    1.714    2.857    1.714    4.000    0.000 
#    0.000    1.429    6.286    0.000    0.000    0.000 
#    0.000    0.000    0.000    0.000    0.000    0.000 
#
# Total GULP energy -346933.472694 kJ/mol
# GULP energy per Si atom -12390.481168 kJ/mol
# Density = 2.052630 g / cm^3
# Si number density = 20.573123 Si / 1000 Ang^3
#
#
#
# Elastic Constant Matrix: (Units=GPa)
#
#
# Indices 1 2 3 4 5 6 
#
# 1 65.2696 -8.0449 15.6540 0.0000 0.0000 0.0000
# 2 -8.0449 33.1447 -3.3442 0.0000 0.0000 0.0000
# 3 15.6540 -3.3442 83.9718 0.0000 0.0000 0.0000
# 4 0.0000 0.0000 0.0000 25.6222 0.0000 0.0000
# 5 0.0000 0.0000 0.0000 0.0000 28.5630 0.0000
# 6 0.0000 0.0000 0.0000 0.0000 0.0000 19.0311
#
#
#
# Elastic Compliance Matrix: (Units=1/GPa)
#
#
# Indices 1 2 3 4 5 6 
#
# 1 0.016479 0.003705 -0.002924 0.000000 0.000000 0.000000
# 2 0.003705 0.031125 0.000549 0.000000 0.000000 0.000000
# 3 -0.002924 0.000549 0.012476 0.000000 0.000000 0.000000
# 4 0.000000 0.000000 0.000000 0.039029 0.000000 0.000000
# 5 0.000000 0.000000 0.000000 0.000000 0.035010 0.000000
# 6 0.000000 0.000000 0.000000 0.000000 0.000000 0.052545
#
#
# Mechanical properties :
#
#
# Convention : Reuss Voigt Hill
#
# Bulk Modulus (GPa) = 15.93912 21.21286 18.57599
# Shear Modulus (GPa) = 24.39986 26.51801 25.45894
#
# Velocity S-wave (km/s) = 3.44758 3.59411 3.52161
# Velocity P-wave (km/s) = 4.85923 5.24946 5.05811
#
# Compressibility (1/GPa) = 0.06273870
#
# Stress axis : x y z
#
# Youngs Moduli (GPa) = 60.68295 32.12812 80.15512
#
# Poissons Ratio (x) = -0.11903 0.23441
# Poissons Ratio (y) = -0.22481 -0.04400
# Poissons Ratio (z) = 0.17747 -0.01764
#
# Static dielectric constant tensor:
#      x y z
#    x 3.505830 0.000000 0.000000 
#    y 0.000000 4.130770 0.000000 
#    z 0.000000 0.000000 3.975530 
# 
# 
# High freq. dielectric constant tensor:
#      x y z
#    x 1.767910 0.000000 0.000000 
#    y 0.000000 1.801610 0.000000 
#    z 0.000000 0.000000 1.825320 
# 
# From -- ./inp_files/659.got.cif
#   From: 2010.03.12/outbox.cif.g09.slc.cpg/sg19_1_cif.got.tgz:659.got - 2010.04.10 18:59:41.
