data_PCOD8156859
_publ_section_title
;
Structure prediction by ZEFSAII (Michael W. Deem and Ramdas Pophale) SiO2 
 PCOD8156859
Probable space group: P 21 21 21
;
_chemical_formula_sum "Si O2"
_cell_formula_units_Z 20
_cell_length_a 9.525441
_cell_length_b 9.940327
_cell_length_c 7.891706
_cell_angle_alpha 90.000000
_cell_angle_beta 90.000000
_cell_angle_gamma 90.000000
_cell_volume 747.234061
_symmetry_space_group_name_H-M "P 21 21 21"
_symmetry_group_IT_number 19
_symmetry_cell_setting 'orthorhombic'
loop_
_space_group_symop_operation_xyz
x,y,z
1/2-x,-y,1/2+z
1/2+x,1/2-y,-z
-x,1/2+y,1/2-z
loop_
_atom_site_type_symbol
_atom_site_label
_atom_site_fract_x
_atom_site_fract_y
_atom_site_fract_z
Si Si1 0.732007 0.711765 0.456121
Si Si2 0.077777 0.975863 0.027015
Si Si3 0.530394 0.849113 0.236748
Si Si4 0.190271 0.455279 0.237013
Si Si5 0.750687 0.247595 0.346852
O O1 0.806523 0.575953 0.389240
O O2 0.578286 0.732641 0.371832
O O3 0.713063 0.703741 0.657587
O O4 0.831696 0.839483 0.405274
O O5 0.940466 0.974066 0.142452
O O6 0.148947 0.827235 0.020165
O O7 0.039282 0.026684 0.840447
O O8 0.413749 0.784350 0.111414
O O9 0.672461 0.908026 0.149143
O O10 0.224774 0.590252 0.134658
#
# Coordination Sequence:
#
# PCOD8156859 Si02
#       5
#     4   4   4   4   4
#     4   9  22  40  66  93 132 166 221 268 322 397
#     4  11  21  41  67  98 126 179 215 266 338 386
#     4   9  23  40  62  93 134 162 227 255 326 390
#     4  10  20  39  66  91 132 169 215 271 330 379
#     4  11  22  40  67  93 130 176 218 268 328 390
#
# _framework density 26.765376
#
# number of rings (size 3 to 8) (size 9 to 14) (size 15 to 20)
#    1.200    0.800    2.000    1.200    5.600    0.000 
#    0.000   16.000    0.000    0.000    0.000    0.000 
#    0.000    0.000    0.000    0.000    0.000    0.000 
#
# Total GULP energy -247812.658918 kJ/mol
# GULP energy per Si atom -12390.632946 kJ/mol
# Density = 2.670446 g / cm^3
# Si number density = 26.765376 Si / 1000 Ang^3
#
#
#
# Elastic Constant Matrix: (Units=GPa)
#
#
# Indices 1 2 3 4 5 6 
#
# 1 104.1035 14.8285 -4.1438 0.0000 0.0000 0.0000
# 2 14.8285 139.6449 -25.7105 0.0000 0.0000 0.0000
# 3 -4.1438 -25.7105 16.9962 0.0000 0.0000 0.0000
# 4 0.0000 0.0000 0.0000 5.2908 0.0000 0.0000
# 5 0.0000 0.0000 0.0000 0.0000 6.4584 0.0000
# 6 0.0000 0.0000 0.0000 0.0000 0.0000 60.3499
#
#
#
# Elastic Compliance Matrix: (Units=1/GPa)
#
#
# Indices 1 2 3 4 5 6 
#
# 1 0.009769 -0.000830 0.001126 0.000000 0.000000 0.000000
# 2 -0.000830 0.009996 0.014919 0.000000 0.000000 0.000000
# 3 0.001126 0.014919 0.081679 0.000000 0.000000 0.000000
# 4 0.000000 0.000000 0.000000 0.189008 0.000000 0.000000
# 5 0.000000 0.000000 0.000000 0.000000 0.154837 0.000000
# 6 0.000000 0.000000 0.000000 0.000000 0.000000 0.016570
#
#
# Mechanical properties :
#
#
# Convention : Reuss Voigt Hill
#
# Bulk Modulus (GPa) = 7.58305 25.63257 16.60781
# Shear Modulus (GPa) = 10.51775 32.80452 21.66113
#
# Velocity S-wave (km/s) = 1.98447 3.50470 2.84790
# Velocity P-wave (km/s) = 2.84432 5.09655 4.12704
#
# Compressibility (1/GPa) = 0.13187298
#
# Stress axis : x y z
#
# Youngs Moduli (GPa) = 102.36594 100.04144 12.24310
#
# Poissons Ratio (x) = 0.08303 -0.01379
# Poissons Ratio (y) = 0.08496 -0.18265
# Poissons Ratio (z) = -0.11529 -1.49247
#
# Static dielectric constant tensor:
#      x y z
#    x 5.084060 0.000000 0.000000 
#    y 0.000000 5.106430 0.000000 
#    z 0.000000 0.000000 4.193170 
# 
# 
# High freq. dielectric constant tensor:
#      x y z
#    x 2.082500 0.000000 0.000000 
#    y 0.000000 2.087600 0.000000 
#    z 0.000000 0.000000 2.046160 
# 
# From -- ./inp_files/3309.got.cif
#   From: 2010.03.12/outbox.cif.g09.slc.cpg/sg19_2_cif.got.tgz:3309.got - 2010.04.10 18:59:41.
