data_PCOD8156831
_publ_section_title
;
Structure prediction by ZEFSAII (Michael W. Deem and Ramdas Pophale) SiO2 
 PCOD8156831
Probable space group: P 21 21 21
;
_chemical_formula_sum "Si O2"
_cell_formula_units_Z 32
_cell_length_a 7.843708
_cell_length_b 12.277763
_cell_length_c 15.085628
_cell_angle_alpha 90.000000
_cell_angle_beta 90.000000
_cell_angle_gamma 90.000000
_cell_volume 1452.794067
_symmetry_space_group_name_H-M "P 21 21 21"
_symmetry_group_IT_number 19
_symmetry_cell_setting 'orthorhombic'
loop_
_space_group_symop_operation_xyz
x,y,z
1/2-x,-y,1/2+z
1/2+x,1/2-y,-z
-x,1/2+y,1/2-z
loop_
_atom_site_type_symbol
_atom_site_label
_atom_site_fract_x
_atom_site_fract_y
_atom_site_fract_z
Si Si1 0.422950 0.445428 0.533701
Si Si2 0.949870 0.085758 0.815617
Si Si3 0.048128 0.376946 0.586795
Si Si4 0.169626 0.318479 0.067368
Si Si5 0.796864 0.734915 0.776723
Si Si6 0.003673 0.275037 0.408032
Si Si7 0.733274 0.942700 0.140105
Si Si8 0.635952 0.833945 0.608101
O O1 0.240825 0.395199 0.557019
O O2 0.440598 0.568254 0.571851
O O3 0.547546 0.355136 0.578460
O O4 0.431475 0.446439 0.426072
O O5 0.835348 0.173248 0.869450
O O6 0.830214 0.034076 0.739244
O O7 0.118955 0.134477 0.773538
O O8 0.023571 0.993499 0.881660
O O9 0.050480 0.294783 0.670335
O O10 0.948151 0.326552 0.503286
O O11 0.050893 0.218813 0.098015
O O12 0.236958 0.291908 0.968849
O O13 0.650664 0.695445 0.843115
O O14 0.712610 0.811235 0.703761
O O15 0.173561 0.326166 0.365689
O O16 0.869975 0.034060 0.105656
#
# Coordination Sequence:
#
# PCOD8156831 Si02
#       8
#     4   4   4   4   4   4   4   4
#     4   8  18  36  62  88 118 164 207 259 320 380
#     4  11  21  40  62  91 126 176 207 263 332 383
#     4   9  19  38  60  84 126 162 202 256 332 378
#     4  10  22  40  64  89 129 175 212 257 325 391
#     4  11  22  39  64  93 128 160 220 269 312 396
#     4  10  20  39  65  95 119 164 216 270 319 381
#     4  10  20  38  63  88 130 169 211 264 330 382
#     4  11  22  42  62  94 130 174 215 262 322 393
#
# _framework density 22.026520999999999
#
# number of rings (size 3 to 8) (size 9 to 14) (size 15 to 20)
#    0.000    2.000    1.250    3.000    0.000    0.000 
#    2.250   11.250    0.000    0.000    0.000    0.000 
#    0.000    0.000    0.000    0.000    0.000    0.000 
#
# Total GULP energy -396637.451474 kJ/mol
# GULP energy per Si atom -12394.920359 kJ/mol
# Density = 2.197639 g / cm^3
# Si number density = 22.026521 Si / 1000 Ang^3
#
#
#
# Elastic Constant Matrix: (Units=GPa)
#
#
# Indices 1 2 3 4 5 6 
#
# 1 24.0556 -0.2418 12.5710 0.0000 0.0000 0.0000
# 2 -0.2418 43.8472 6.6858 0.0000 0.0000 0.0000
# 3 12.5710 6.6858 117.9156 0.0000 0.0000 0.0000
# 4 0.0000 0.0000 0.0000 37.2292 0.0000 0.0000
# 5 0.0000 0.0000 0.0000 0.0000 36.8376 0.0000
# 6 0.0000 0.0000 0.0000 0.0000 0.0000 32.5432
#
#
#
# Elastic Compliance Matrix: (Units=1/GPa)
#
#
# Indices 1 2 3 4 5 6 
#
# 1 0.044064 0.000968 -0.004752 0.000000 0.000000 0.000000
# 2 0.000968 0.023027 -0.001409 0.000000 0.000000 0.000000
# 3 -0.004752 -0.001409 0.009067 0.000000 0.000000 0.000000
# 4 0.000000 0.000000 0.000000 0.026861 0.000000 0.000000
# 5 0.000000 0.000000 0.000000 0.000000 0.027146 0.000000
# 6 0.000000 0.000000 0.000000 0.000000 0.000000 0.030728
#
#
# Mechanical properties :
#
#
# Convention : Reuss Voigt Hill
#
# Bulk Modulus (GPa) = 15.20445 24.87205 20.03825
# Shear Modulus (GPa) = 25.87947 32.44222 29.16085
#
# Velocity S-wave (km/s) = 3.43143 3.84196 3.64249
# Velocity P-wave (km/s) = 4.75578 5.56752 5.17758
#
# Compressibility (1/GPa) = 0.06577024
#
# Stress axis : x y z
#
# Youngs Moduli (GPa) = 22.69443 43.42803 110.28780
#
# Poissons Ratio (x) = -0.04202 0.52414
# Poissons Ratio (y) = -0.02196 0.15537
# Poissons Ratio (z) = 0.10786 0.06118
#
# Static dielectric constant tensor:
#      x y z
#    x 3.417300 0.000000 0.000000 
#    y 0.000000 4.108430 0.000000 
#    z 0.000000 0.000000 4.457670 
# 
# 
# High freq. dielectric constant tensor:
#      x y z
#    x 1.818340 0.000000 0.000000 
#    y 0.000000 1.866360 0.000000 
#    z 0.000000 0.000000 1.890540 
# 
# From -- ./inp_files/5247.got.cif
#   From: 2010.03.12/outbox.cif.g09.slc.cpg/sg19_3_cif.got.tgz:5247.got - 2010.04.10 18:59:41.
