data_PCOD8156734
_publ_section_title
;
Structure prediction by ZEFSAII (Michael W. Deem and Ramdas Pophale) SiO2 
 PCOD8156734
Probable space group: P 21 21 21
;
_chemical_formula_sum "Si O2"
_cell_formula_units_Z 32
_cell_length_a 8.239849
_cell_length_b 18.025922
_cell_length_c 10.648579
_cell_angle_alpha 90.000000
_cell_angle_beta 90.000000
_cell_angle_gamma 90.000000
_cell_volume 1581.642760
_symmetry_space_group_name_H-M "P 21 21 21"
_symmetry_group_IT_number 19
_symmetry_cell_setting 'orthorhombic'
loop_
_space_group_symop_operation_xyz
x,y,z
1/2-x,-y,1/2+z
1/2+x,1/2-y,-z
-x,1/2+y,1/2-z
loop_
_atom_site_type_symbol
_atom_site_label
_atom_site_fract_x
_atom_site_fract_y
_atom_site_fract_z
Si Si1 0.001893 0.565298 0.614143
Si Si2 0.996866 0.271097 0.564893
Si Si3 0.155949 0.738121 0.176914
Si Si4 0.063847 0.325779 0.071650
Si Si5 0.887660 0.179439 0.068523
Si Si6 0.979473 0.919390 0.034812
Si Si7 0.164323 0.902711 0.276695
Si Si8 0.275489 0.343204 0.296610
O O1 0.828465 0.557191 0.681766
O O2 0.990783 0.620670 0.494714
O O3 0.057721 0.486595 0.558715
O O4 0.131025 0.594433 0.715350
O O5 0.990127 0.236802 0.423984
O O6 0.897622 0.221494 0.662088
O O7 0.181700 0.280555 0.602677
O O8 0.928714 0.355494 0.547469
O O9 0.112767 0.675487 0.280277
O O10 0.189935 0.815995 0.245658
O O11 0.143174 0.302876 0.207118
O O12 0.947409 0.260231 0.021411
O O13 0.960126 0.400918 0.103088
O O14 0.203486 0.340060 0.971039
O O15 0.810197 0.885136 0.087635
O O16 0.091341 0.944113 0.153847
#
# Coordination Sequence:
#
# PCOD8156734 Si02
#       8
#     4   4   4   4   4   4   4   4
#     4  11  22  41  64  91 129 166 194 266 333 370
#     4  11  20  38  63  86 117 163 217 254 295 361
#     4  10  20  34  60  88 113 155 211 256 293 362
#     4   9  19  34  60  86 119 158 200 249 300 371
#     4  10  20  34  57  92 122 154 201 252 312 365
#     4  10  23  41  59  92 124 160 216 255 307 386
#     4   9  19  40  59  84 123 161 200 246 313 372
#     4  10  21  40  66  85 121 169 205 260 315 365
#
# _framework density 20.232130000000002
#
# number of rings (size 3 to 8) (size 9 to 14) (size 15 to 20)
#    0.000    2.000    2.500    2.250    1.750    1.000 
#    2.250    3.750    0.000    0.000    0.000    0.000 
#    0.000    0.000    0.000    0.000    0.000    0.000 
#
# Total GULP energy -396511.511280 kJ/mol
# GULP energy per Si atom -12390.984728 kJ/mol
# Density = 2.018608 g / cm^3
# Si number density = 20.232130 Si / 1000 Ang^3
#
#
#
# Elastic Constant Matrix: (Units=GPa)
#
#
# Indices 1 2 3 4 5 6 
#
# 1 74.1842 23.0190 27.7911 0.0000 0.0000 0.0000
# 2 23.0190 85.0214 45.6526 0.0000 0.0000 0.0000
# 3 27.7911 45.6526 93.9287 0.0000 0.0000 0.0000
# 4 0.0000 0.0000 0.0000 40.7639 0.0000 0.0000
# 5 0.0000 0.0000 0.0000 0.0000 34.7714 0.0000
# 6 0.0000 0.0000 0.0000 0.0000 0.0000 19.5623
#
#
#
# Elastic Compliance Matrix: (Units=1/GPa)
#
#
# Indices 1 2 3 4 5 6 
#
# 1 0.015499 -0.002346 -0.003445 0.000000 0.000000 0.000000
# 2 -0.002346 0.016270 -0.007214 0.000000 0.000000 0.000000
# 3 -0.003445 -0.007214 0.015172 0.000000 0.000000 0.000000
# 4 0.000000 0.000000 0.000000 0.024532 0.000000 0.000000
# 5 0.000000 0.000000 0.000000 0.000000 0.028759 0.000000
# 6 0.000000 0.000000 0.000000 0.000000 0.000000 0.051119
#
#
# Mechanical properties :
#
#
# Convention : Reuss Voigt Hill
#
# Bulk Modulus (GPa) = 47.77745 49.56218 48.66982
# Shear Modulus (GPa) = 27.12407 29.46428 28.29417
#
# Velocity S-wave (km/s) = 3.66545 3.82030 3.74368
# Velocity P-wave (km/s) = 6.44825 6.63397 6.54177
#
# Compressibility (1/GPa) = 0.02093037
#
# Stress axis : x y z
#
# Youngs Moduli (GPa) = 64.52165 61.46107 65.91117
#
# Poissons Ratio (x) = 0.14420 0.22709
# Poissons Ratio (y) = 0.15138 0.47547
# Poissons Ratio (z) = 0.22230 0.44337
#
# Static dielectric constant tensor:
#      x y z
#    x 3.857100 0.000000 0.000000 
#    y 0.000000 3.305880 0.000000 
#    z 0.000000 0.000000 3.899060 
# 
# 
# High freq. dielectric constant tensor:
#      x y z
#    x 1.794850 0.000000 0.000000 
#    y 0.000000 1.746590 0.000000 
#    z 0.000000 0.000000 1.798650 
# 
# From -- ./inp_files/4799.got.cif
#   From: 2010.03.12/outbox.cif.g09.slc.cpg/sg19_3_cif.got.tgz:4799.got - 2010.04.10 18:59:41.
