data_PCOD8156638
_publ_section_title
;
Structure prediction by ZEFSAII (Michael W. Deem and Ramdas Pophale) SiO2 
 PCOD8156638
Probable space group: P 21 21 21
;
_chemical_formula_sum "Si O2"
_cell_formula_units_Z 28
_cell_length_a 8.738989
_cell_length_b 5.341821
_cell_length_c 27.829871
_cell_angle_alpha 90.000000
_cell_angle_beta 90.000000
_cell_angle_gamma 90.000000
_cell_volume 1299.157237
_symmetry_space_group_name_H-M "P 21 21 21"
_symmetry_group_IT_number 19
_symmetry_cell_setting 'orthorhombic'
loop_
_space_group_symop_operation_xyz
x,y,z
1/2-x,-y,1/2+z
1/2+x,1/2-y,-z
-x,1/2+y,1/2-z
loop_
_atom_site_type_symbol
_atom_site_label
_atom_site_fract_x
_atom_site_fract_y
_atom_site_fract_z
Si Si1 0.650245 0.671039 0.564024
Si Si2 0.700842 0.117092 0.932348
Si Si3 0.153707 0.379480 0.651209
Si Si4 0.357561 0.817297 0.353936
Si Si5 0.904393 0.853579 0.747267
Si Si6 0.290403 0.324018 0.477693
Si Si7 0.562493 0.495010 0.422473
O O1 0.469737 0.714459 0.561878
O O2 0.700686 0.604704 0.619186
O O3 0.705359 0.434367 0.532660
O O4 0.716131 0.931839 0.545857
O O5 0.824798 0.319654 0.952183
O O6 0.740287 0.082840 0.875667
O O7 0.717937 0.863099 0.964317
O O8 0.209224 0.332967 0.706177
O O9 0.973396 0.452615 0.655076
O O10 0.167440 0.141212 0.617021
O O11 0.315663 0.686681 0.303016
O O12 0.435729 0.637277 0.392003
O O13 0.029470 0.634424 0.753337
O O14 0.468581 0.314065 0.459378
#
# Coordination Sequence:
#
# PCOD8156638 Si02
#       7
#     4   4   4   4   4   4   4
#     4  11  25  42  63  94 125 166 212 263 315 380
#     4  11  26  37  63  89 132 162 211 259 322 371
#     4  10  20  37  62  89 124 157 208 257 309 371
#     4   9  19  38  63  89 121 159 204 260 309 370
#     4  10  19  34  64  95 117 156 210 257 308 367
#     4  11  25  42  63  88 125 171 213 251 312 379
#     4  10  20  40  60  90 120 163 204 263 297 374
#
# _framework density 21.552436
#
# number of rings (size 3 to 8) (size 9 to 14) (size 15 to 20)
#    0.000    1.714    2.857    0.857    6.000    0.000 
#    0.000    0.000    3.143    0.000    0.000    0.000 
#    0.000    0.000    0.000    0.000    0.000    0.000 
#
# Total GULP energy -346904.142155 kJ/mol
# GULP energy per Si atom -12389.433648 kJ/mol
# Density = 2.150338 g / cm^3
# Si number density = 21.552436 Si / 1000 Ang^3
#
#
#
# Elastic Constant Matrix: (Units=GPa)
#
#
# Indices 1 2 3 4 5 6 
#
# 1 72.8599 23.9971 45.1040 0.0000 0.0000 0.0000
# 2 23.9971 58.5820 -9.6951 0.0000 0.0000 0.0000
# 3 45.1040 -9.6951 114.0943 0.0000 0.0000 0.0000
# 4 0.0000 0.0000 0.0000 30.9403 0.0000 0.0000
# 5 0.0000 0.0000 0.0000 0.0000 24.7009 0.0000
# 6 0.0000 0.0000 0.0000 0.0000 0.0000 7.8712
#
#
#
# Elastic Compliance Matrix: (Units=1/GPa)
#
#
# Indices 1 2 3 4 5 6 
#
# 1 0.024027 -0.011577 -0.010482 0.000000 0.000000 0.000000
# 2 -0.011577 0.022892 0.006522 0.000000 0.000000 0.000000
# 3 -0.010482 0.006522 0.013463 0.000000 0.000000 0.000000
# 4 0.000000 0.000000 0.000000 0.032320 0.000000 0.000000
# 5 0.000000 0.000000 0.000000 0.000000 0.040484 0.000000
# 6 0.000000 0.000000 0.000000 0.000000 0.000000 0.127045
#
#
# Mechanical properties :
#
#
# Convention : Reuss Voigt Hill
#
# Bulk Modulus (GPa) = 34.12172 40.48312 37.30242
# Shear Modulus (GPa) = 16.60719 25.11117 20.85918
#
# Velocity S-wave (km/s) = 2.77889 3.41709 3.11438
# Velocity P-wave (km/s) = 5.11494 5.86455 5.50253
#
# Compressibility (1/GPa) = 0.02930685
#
# Stress axis : x y z
#
# Youngs Moduli (GPa) = 41.62005 43.68398 74.27950
#
# Poissons Ratio (x) = 0.50573 0.77860
# Poissons Ratio (y) = 0.48183 -0.48444
# Poissons Ratio (z) = 0.43627 -0.28490
#
# Static dielectric constant tensor:
#      x y z
#    x 3.982340 0.000000 0.000000 
#    y 0.000000 3.860530 0.000000 
#    z 0.000000 0.000000 4.452540 
# 
# 
# High freq. dielectric constant tensor:
#      x y z
#    x 1.801050 0.000000 0.000000 
#    y 0.000000 1.850670 0.000000 
#    z 0.000000 0.000000 1.864040 
# 
# From -- ./inp_files/605.got.cif
#   From: 2010.03.12/outbox.cif.g09.slc.cpg/sg19_1_cif.got.tgz:605.got - 2010.04.10 18:59:41.
