data_PCOD8156423
_publ_section_title
;
Structure prediction by ZEFSAII (Michael W. Deem and Ramdas Pophale) SiO2 
 PCOD8156423
Probable space group: P 21 21 2
;
_chemical_formula_sum "Si O2"
_cell_formula_units_Z 20
_cell_length_a 13.408387
_cell_length_b 9.445083
_cell_length_c 6.321636
_cell_angle_alpha 90.000000
_cell_angle_beta 90.000000
_cell_angle_gamma 90.000000
_cell_volume 800.593022
_symmetry_space_group_name_H-M "P 21 21 2"
_symmetry_group_IT_number 18
_symmetry_cell_setting 'orthorhombic'
loop_
_space_group_symop_operation_xyz
x,y,z
-x,-y,z
1/2+x,1/2-y,-z
1/2-x,1/2+y,-z
loop_
_atom_site_type_symbol
_atom_site_label
_atom_site_fract_x
_atom_site_fract_y
_atom_site_fract_z
Si Si1 0.699703 0.843376 0.964537
Si Si2 0.500000 0.000000 0.338089
Si Si3 0.336148 0.956895 0.634832
Si Si4 0.031541 0.303143 0.022929
Si Si5 0.213060 0.935705 0.251933
Si Si6 0.000000 0.000000 0.140262
O O1 0.580526 0.860286 0.945723
O O2 0.736823 0.682047 0.932845
O O3 0.735550 0.939788 0.768893
O O4 0.742058 0.911784 0.179775
O O5 0.412139 0.052815 0.493372
O O6 0.442512 0.877560 0.201267
O O7 0.396968 0.845551 0.781700
O O8 0.258894 0.881178 0.472981
O O9 0.035388 0.132886 0.995512
O O10 0.093319 0.948909 0.282370
#
# Coordination Sequence:
#
# PCOD8156423 Si02
#       6
#     4   2   4   4   4   2
#     4  11  24  45  67 106 137 189 242 290 358 428
#     4  12  20  42  78 102 134 188 238 296 346 432
#     4  12  23  42  76 104 138 184 246 291 353 438
#     4  11  22  46  71 103 143 185 240 293 364 428
#     4  11  27  45  73 102 147 192 236 300 357 425
#     4  10  28  48  68 102 156 186 236 306 360 418
#
# _framework density 24.981480000000001
#
# number of rings (size 3 to 8) (size 9 to 14) (size 15 to 20)
#    0.000    0.800    6.000    0.000    8.400    0.000 
#    0.000    2.000    0.000    0.000    0.000    0.000 
#    0.000    0.000    0.000    0.000    0.000    0.000 
#
# Total GULP energy -247780.380727 kJ/mol
# GULP energy per Si atom -12389.019036 kJ/mol
# Density = 2.492462 g / cm^3
# Si number density = 24.981480 Si / 1000 Ang^3
#
#
#
# Elastic Constant Matrix: (Units=GPa)
#
#
# Indices 1 2 3 4 5 6 
#
# 1 80.2326 32.1737 35.4524 0.0000 0.0000 0.0000
# 2 32.1737 131.5736 29.8580 0.0000 0.0000 0.0000
# 3 35.4524 29.8580 88.0191 0.0000 0.0000 0.0000
# 4 0.0000 0.0000 0.0000 21.3911 0.0000 0.0000
# 5 0.0000 0.0000 0.0000 0.0000 36.0151 0.0000
# 6 0.0000 0.0000 0.0000 0.0000 0.0000 34.4554
#
#
#
# Elastic Compliance Matrix: (Units=1/GPa)
#
#
# Indices 1 2 3 4 5 6 
#
# 1 0.015972 -0.002650 -0.005534 0.000000 0.000000 0.000000
# 2 -0.002650 0.008674 -0.001875 0.000000 0.000000 0.000000
# 3 -0.005534 -0.001875 0.014226 0.000000 0.000000 0.000000
# 4 0.000000 0.000000 0.000000 0.046748 0.000000 0.000000
# 5 0.000000 0.000000 0.000000 0.000000 0.027766 0.000000
# 6 0.000000 0.000000 0.000000 0.000000 0.000000 0.029023
#
#
# Mechanical properties :
#
#
# Convention : Reuss Voigt Hill
#
# Bulk Modulus (GPa) = 53.32270 54.97706 54.14988
# Shear Modulus (GPa) = 29.62460 31.86174 30.74317
#
# Velocity S-wave (km/s) = 3.44737 3.57517 3.51185
# Velocity P-wave (km/s) = 6.10222 6.25279 6.17796
#
# Compressibility (1/GPa) = 0.01875374
#
# Stress axis : x y z
#
# Youngs Moduli (GPa) = 62.61065 115.29044 70.29209
#
# Poissons Ratio (x) = 0.30548 0.38902
# Poissons Ratio (y) = 0.16590 0.13180
# Poissons Ratio (z) = 0.34650 0.21618
#
# Static dielectric constant tensor:
#      x y z
#    x 4.737850 0.000000 0.000000 
#    y 0.000000 4.411670 0.000000 
#    z 0.000000 0.000000 4.423370 
# 
# 
# High freq. dielectric constant tensor:
#      x y z
#    x 2.013450 0.000000 0.000000 
#    y 0.000000 1.980050 0.000000 
#    z 0.000000 0.000000 1.976040 
# 
# From -- ./inp_files/1419.got.cif
#   From: 2010.03.12/outbox.cif.g09.slc.cpg/sg18_1_cif.got.tgz:1419.got - 2010.04.10 18:53:55.
