data_PCOD8156640
_publ_section_title
;
Structure prediction by ZEFSAII (Michael W. Deem and Ramdas Pophale) SiO2 
 PCOD8156640
Probable space group: P 21 21 21
;
_chemical_formula_sum "Si O2"
_cell_formula_units_Z 32
_cell_length_a 7.902774
_cell_length_b 8.756267
_cell_length_c 22.167441
_cell_angle_alpha 90.000000
_cell_angle_beta 90.000000
_cell_angle_gamma 90.000000
_cell_volume 1533.960298
_symmetry_space_group_name_H-M "P 21 21 21"
_symmetry_group_IT_number 19
_symmetry_cell_setting 'orthorhombic'
loop_
_space_group_symop_operation_xyz
x,y,z
1/2-x,-y,1/2+z
1/2+x,1/2-y,-z
-x,1/2+y,1/2-z
loop_
_atom_site_type_symbol
_atom_site_label
_atom_site_fract_x
_atom_site_fract_y
_atom_site_fract_z
Si Si1 0.989679 0.038166 0.567643
Si Si2 0.699130 0.503112 0.859786
Si Si3 0.293693 0.482500 0.265018
Si Si4 0.306043 0.368950 0.647854
Si Si5 0.122517 0.847282 0.740648
Si Si6 0.350124 0.539067 0.893321
Si Si7 0.062575 0.866041 0.877825
Si Si8 0.894734 0.623596 0.064966
O O1 0.806914 0.949929 0.573269
O O2 0.945660 0.186260 0.608073
O O3 0.144521 0.948665 0.598164
O O4 0.042767 0.078721 0.500630
O O5 0.692545 0.685692 0.852679
O O6 0.720829 0.425044 0.794563
O O7 0.526715 0.444689 0.892803
O O8 0.180016 0.573847 0.216536
O O9 0.370912 0.334205 0.231924
O O10 0.446816 0.590654 0.287372
O O11 0.182796 0.431416 0.322010
O O12 0.464079 0.438597 0.611489
O O13 0.129364 0.429894 0.617084
O O14 0.132738 0.890949 0.810722
O O15 0.384466 0.694143 0.930321
O O16 0.205340 0.944107 0.921213
#
# Coordination Sequence:
#
# PCOD8156640 Si02
#       8
#     4   4   4   4   4   4   4   4
#     4  10  19  35  51  85 119 148 188 243 293 339
#     4  10  21  34  57  86 117 150 188 235 300 342
#     4  11  20  36  59  82 125 148 192 238 291 352
#     4   9  21  35  53  87 113 150 185 236 294 344
#     4  11  19  38  56  84 122 150 189 240 289 353
#     4  10  21  33  53  87 115 147 188 238 290 346
#     4   9  19  31  49  79 115 139 183 231 286 335
#     4  10  20  32  56  80 118 146 189 241 287 337
#
# _framework density 20.861034
#
# number of rings (size 3 to 8) (size 9 to 14) (size 15 to 20)
#    0.000    2.000    3.750    1.500   12.250    0.000 
#    0.000    0.000    0.000    0.000    9.750    0.000 
#    0.000    0.000    0.000    0.000    0.000    0.000 
#
# Total GULP energy -396427.180146 kJ/mol
# GULP energy per Si atom -12388.349380 kJ/mol
# Density = 2.081355 g / cm^3
# Si number density = 20.861034 Si / 1000 Ang^3
#
#
#
# Elastic Constant Matrix: (Units=GPa)
#
#
# Indices 1 2 3 4 5 6 
#
# 1 152.0653 -0.9526 22.2926 0.0000 0.0000 0.0000
# 2 -0.9526 22.3938 -8.3150 0.0000 0.0000 0.0000
# 3 22.2926 -8.3150 48.3705 0.0000 0.0000 0.0000
# 4 0.0000 0.0000 0.0000 20.3374 0.0000 0.0000
# 5 0.0000 0.0000 0.0000 0.0000 34.2840 0.0000
# 6 0.0000 0.0000 0.0000 0.0000 0.0000 11.7910
#
#
#
# Elastic Compliance Matrix: (Units=1/GPa)
#
#
# Indices 1 2 3 4 5 6 
#
# 1 0.007072 -0.000971 -0.003426 0.000000 0.000000 0.000000
# 2 -0.000971 0.047833 0.008670 0.000000 0.000000 0.000000
# 3 -0.003426 0.008670 0.023743 0.000000 0.000000 0.000000
# 4 0.000000 0.000000 0.000000 0.049171 0.000000 0.000000
# 5 0.000000 0.000000 0.000000 0.000000 0.029168 0.000000
# 6 0.000000 0.000000 0.000000 0.000000 0.000000 0.084810
#
#
# Mechanical properties :
#
#
# Convention : Reuss Voigt Hill
#
# Bulk Modulus (GPa) = 11.46868 27.65329 19.56099
# Shear Modulus (GPa) = 19.06087 27.26946 23.16517
#
# Velocity S-wave (km/s) = 3.02604 3.61944 3.33596
# Velocity P-wave (km/s) = 4.20937 5.54544 4.92294
#
# Compressibility (1/GPa) = 0.08719399
#
# Stress axis : x y z
#
# Youngs Moduli (GPa) = 141.39579 20.90592 42.11705
#
# Poissons Ratio (x) = 0.02031 0.14431
# Poissons Ratio (y) = 0.13736 -0.36517
# Poissons Ratio (z) = 0.48448 -0.18126
#
# Static dielectric constant tensor:
#      x y z
#    x 4.734730 0.000000 0.000000 
#    y 0.000000 3.173670 0.000000 
#    z 0.000000 0.000000 3.638410 
# 
# 
# High freq. dielectric constant tensor:
#      x y z
#    x 1.846850 0.000000 0.000000 
#    y 0.000000 1.739470 0.000000 
#    z 0.000000 0.000000 1.811090 
# 
# From -- ./inp_files/7080.got.cif
#   From: 2010.03.12/outbox.cif.g09.slc.cpg/sg19_4_cif.got.tgz:7080.got - 2010.04.10 18:59:41.
