data_PCOD8156360
_publ_section_title
;
Structure prediction by ZEFSAII (Michael W. Deem and Ramdas Pophale) SiO2 
 PCOD8156360
Probable space group: P 21 21 2
;
_chemical_formula_sum "Si O2"
_cell_formula_units_Z 30
_cell_length_a 19.078091
_cell_length_b 8.290444
_cell_length_c 8.703468
_cell_angle_alpha 90.000000
_cell_angle_beta 90.000000
_cell_angle_gamma 90.000000
_cell_volume 1376.591371
_symmetry_space_group_name_H-M "P 21 21 2"
_symmetry_group_IT_number 18
_symmetry_cell_setting 'orthorhombic'
loop_
_space_group_symop_operation_xyz
x,y,z
-x,-y,z
1/2+x,1/2-y,-z
1/2-x,1/2+y,-z
loop_
_atom_site_type_symbol
_atom_site_label
_atom_site_fract_x
_atom_site_fract_y
_atom_site_fract_z
Si Si1 0.266340 0.555994 0.672020
Si Si2 0.478660 0.816976 0.207840
Si Si3 0.493683 0.687834 0.882278
Si Si4 0.791805 0.396382 0.355756
Si Si5 0.316837 0.815765 0.167334
Si Si6 0.158119 0.316406 0.181474
Si Si7 0.104974 0.863203 0.365487
Si Si8 0.000000 0.000000 0.594228
O O1 0.247800 0.514847 0.495319
O O2 0.204196 0.496295 0.782600
O O3 0.283954 0.741361 0.702628
O O4 0.338211 0.468382 0.726969
O O5 0.396271 0.791002 0.216172
O O6 0.505249 0.668581 0.312593
O O7 0.500000 0.000000 0.262931
O O8 0.508412 0.793748 0.034771
O O9 0.500000 0.500000 0.928105
O O10 0.418906 0.737719 0.810396
O O11 0.550644 0.721489 0.751128
O O12 0.732642 0.311106 0.253263
O O13 0.840741 0.501660 0.242678
O O14 0.847766 0.278186 0.440597
O O15 0.309010 0.797968 0.986257
O O16 0.068164 0.984345 0.485924
#
# Coordination Sequence:
#
# PCOD8156360 Si02
#       8
#     4   4   4   4   4   4   4   2
#     4  11  22  43  65  93 138 176 231 284 353 427
#     4  11  27  46  71 105 140 184 238 297 357 424
#     4  11  22  46  69  97 136 185 235 297 352 426
#     4  11  25  42  66 100 139 186 232 299 352 426
#     4  10  24  43  63  98 136 175 236 290 352 423
#     4  11  22  41  69  98 132 182 237 291 353 431
#     4  11  24  42  67  98 134 187 233 279 360 426
#     4  12  24  46  68 100 146 184 228 298 360 414
#
# _framework density 21.792959
#
# number of rings (size 3 to 8) (size 9 to 14) (size 15 to 20)
#    0.000    1.067    2.667    3.200    5.600    1.067 
#    0.000    0.000    0.000    0.000    0.000    0.000 
#    0.000    0.000    0.000    0.000    0.000    0.000 
#
# Total GULP energy -371687.818766 kJ/mol
# GULP energy per Si atom -12389.593959 kJ/mol
# Density = 2.174336 g / cm^3
# Si number density = 21.792959 Si / 1000 Ang^3
#
#
#
# Elastic Constant Matrix: (Units=GPa)
#
#
# Indices 1 2 3 4 5 6 
#
# 1 86.6019 38.4112 63.6980 0.0000 0.0000 0.0000
# 2 38.4112 103.9145 26.5710 0.0000 0.0000 0.0000
# 3 63.6980 26.5710 98.8825 0.0000 0.0000 0.0000
# 4 0.0000 0.0000 0.0000 39.8009 0.0000 0.0000
# 5 0.0000 0.0000 0.0000 0.0000 29.0013 0.0000
# 6 0.0000 0.0000 0.0000 0.0000 0.0000 39.0498
#
#
#
# Elastic Compliance Matrix: (Units=1/GPa)
#
#
# Indices 1 2 3 4 5 6 
#
# 1 0.024460 -0.005382 -0.014310 0.000000 0.000000 0.000000
# 2 -0.005382 0.011518 0.000372 0.000000 0.000000 0.000000
# 3 -0.014310 0.000372 0.019231 0.000000 0.000000 0.000000
# 4 0.000000 0.000000 0.000000 0.025125 0.000000 0.000000
# 5 0.000000 0.000000 0.000000 0.000000 0.034481 0.000000
# 6 0.000000 0.000000 0.000000 0.000000 0.000000 0.025608
#
#
# Mechanical properties :
#
#
# Convention : Reuss Voigt Hill
#
# Bulk Modulus (GPa) = 60.35639 60.75102 60.55371
# Shear Modulus (GPa) = 27.08749 32.28498 29.68624
#
# Velocity S-wave (km/s) = 3.52937 3.85312 3.69480
# Velocity P-wave (km/s) = 6.66064 6.90886 6.78589
#
# Compressibility (1/GPa) = 0.01656825
#
# Stress axis : x y z
#
# Youngs Moduli (GPa) = 40.88315 86.82333 51.99831
#
# Poissons Ratio (x) = 0.46731 0.74411
# Poissons Ratio (y) = 0.22004 -0.01935
# Poissons Ratio (z) = 0.58505 -0.03232
#
# Static dielectric constant tensor:
#      x y z
#    x 3.989050 0.000000 0.000000 
#    y 0.000000 4.096220 0.000000 
#    z 0.000000 0.000000 3.795110 
# 
# 
# High freq. dielectric constant tensor:
#      x y z
#    x 1.866050 0.000000 0.000000 
#    y 0.000000 1.862950 0.000000 
#    z 0.000000 0.000000 1.851320 
# 
# From -- ./inp_files/4694.got.cif
#   From: 2010.03.12/outbox.cif.g09.slc.cpg/sg18_3_cif.got.tgz:4694.got - 2010.04.10 18:53:55.
