data_PCOD8156597
_publ_section_title
;
Structure prediction by ZEFSAII (Michael W. Deem and Ramdas Pophale) SiO2 
 PCOD8156597
Probable space group: P 21 21 21
;
_chemical_formula_sum "Si O2"
_cell_formula_units_Z 32
_cell_length_a 12.274245
_cell_length_b 10.988345
_cell_length_c 12.024163
_cell_angle_alpha 90.000000
_cell_angle_beta 90.000000
_cell_angle_gamma 90.000000
_cell_volume 1621.742616
_symmetry_space_group_name_H-M "P 21 21 21"
_symmetry_group_IT_number 19
_symmetry_cell_setting 'orthorhombic'
loop_
_space_group_symop_operation_xyz
x,y,z
1/2-x,-y,1/2+z
1/2+x,1/2-y,-z
-x,1/2+y,1/2-z
loop_
_atom_site_type_symbol
_atom_site_label
_atom_site_fract_x
_atom_site_fract_y
_atom_site_fract_z
Si Si1 0.520905 0.836196 0.358642
Si Si2 0.308531 0.283219 0.324359
Si Si3 0.944717 0.425518 0.924837
Si Si4 0.672786 0.502677 0.213289
Si Si5 0.385251 0.572272 0.733769
Si Si6 0.650492 0.895844 0.579559
Si Si7 0.122904 0.859558 0.345204
Si Si8 0.655332 0.965586 0.995100
O O1 0.593507 0.846207 0.246460
O O2 0.494230 0.693505 0.375269
O O3 0.583736 0.884039 0.466451
O O4 0.411336 0.916272 0.352738
O O5 0.321054 0.138299 0.338261
O O6 0.198235 0.316191 0.256475
O O7 0.305707 0.337072 0.450917
O O8 0.866164 0.490427 0.838893
O O9 0.865337 0.390899 0.025105
O O10 0.031450 0.521744 0.967433
O O11 0.792308 0.443549 0.220325
O O12 0.404141 0.502682 0.848766
O O13 0.499859 0.627250 0.696877
O O14 0.337960 0.479111 0.638979
O O15 0.653889 0.781396 0.662455
O O16 0.774530 0.926728 0.549605
#
# Coordination Sequence:
#
# PCOD8156597 Si02
#       8
#     4   4   4   4   4   4   4   4
#     4  10  19  38  62  91 111 160 199 254 296 356
#     4  10  21  38  62  89 119 155 199 257 301 350
#     4   9  20  37  62  85 121 155 208 250 291 367
#     4  11  22  38  62  91 125 155 205 257 307 357
#     4  10  22  39  62  83 124 159 196 251 302 361
#     4  10  21  38  62  87 115 160 208 241 294 380
#     4  10  23  39  58  89 118 166 199 248 309 355
#     4  10  18  39  60  85 117 160 204 244 302 358
#
# _framework density 19.731860000000001
#
# number of rings (size 3 to 8) (size 9 to 14) (size 15 to 20)
#    0.000    2.000    2.500    0.750    1.750    1.000 
#    4.500    1.250    0.000    0.000    0.000    0.000 
#    0.000    0.000    0.000    0.000    0.000    0.000 
#
# Total GULP energy -396622.364571 kJ/mol
# GULP energy per Si atom -12394.448893 kJ/mol
# Density = 1.968695 g / cm^3
# Si number density = 19.731860 Si / 1000 Ang^3
#
#
#
# Elastic Constant Matrix: (Units=GPa)
#
#
# Indices 1 2 3 4 5 6 
#
# 1 89.9503 34.1827 13.5601 0.0000 0.0000 0.0000
# 2 34.1827 71.7390 15.4615 0.0000 0.0000 0.0000
# 3 13.5601 15.4615 56.8672 0.0000 0.0000 0.0000
# 4 0.0000 0.0000 0.0000 23.8995 0.0000 0.0000
# 5 0.0000 0.0000 0.0000 0.0000 22.7565 0.0000
# 6 0.0000 0.0000 0.0000 0.0000 0.0000 34.2327
#
#
#
# Elastic Compliance Matrix: (Units=1/GPa)
#
#
# Indices 1 2 3 4 5 6 
#
# 1 0.013709 -0.006190 -0.001586 0.000000 0.000000 0.000000
# 2 -0.006190 0.017602 -0.003310 0.000000 0.000000 0.000000
# 3 -0.001586 -0.003310 0.018863 0.000000 0.000000 0.000000
# 4 0.000000 0.000000 0.000000 0.041842 0.000000 0.000000
# 5 0.000000 0.000000 0.000000 0.000000 0.043943 0.000000
# 6 0.000000 0.000000 0.000000 0.000000 0.000000 0.029212
#
#
# Mechanical properties :
#
#
# Convention : Reuss Voigt Hill
#
# Bulk Modulus (GPa) = 35.71145 38.32945 37.02045
# Shear Modulus (GPa) = 25.42242 26.53457 25.97850
#
# Velocity S-wave (km/s) = 3.59332 3.67107 3.63240
# Velocity P-wave (km/s) = 5.94589 6.11853 6.03282
#
# Compressibility (1/GPa) = 0.02800222
#
# Stress axis : x y z
#
# Youngs Moduli (GPa) = 72.94625 56.81063 53.01426
#
# Poissons Ratio (x) = 0.35167 0.08407
# Poissons Ratio (y) = 0.45156 0.17547
# Poissons Ratio (z) = 0.11568 0.18803
#
# Static dielectric constant tensor:
#      x y z
#    x 3.491180 0.000000 0.000000 
#    y 0.000000 3.534130 0.000000 
#    z 0.000000 0.000000 3.687920 
# 
# 
# High freq. dielectric constant tensor:
#      x y z
#    x 1.766800 0.000000 0.000000 
#    y 0.000000 1.761690 0.000000 
#    z 0.000000 0.000000 1.769760 
# 
# From -- ./inp_files/5023.got.cif
#   From: 2010.03.12/outbox.cif.g09.slc.cpg/sg19_3_cif.got.tgz:5023.got - 2010.04.10 18:59:41.
