data_PCOD8156728
_publ_section_title
;
Structure prediction by ZEFSAII (Michael W. Deem and Ramdas Pophale) SiO2 
 PCOD8156728
Probable space group: P 21 21 21
;
_chemical_formula_sum "Si O2"
_cell_formula_units_Z 32
_cell_length_a 12.641883
_cell_length_b 22.345954
_cell_length_c 6.450972
_cell_angle_alpha 90.000000
_cell_angle_beta 90.000000
_cell_angle_gamma 90.000000
_cell_volume 1822.366922
_symmetry_space_group_name_H-M "P 21 21 21"
_symmetry_group_IT_number 19
_symmetry_cell_setting 'orthorhombic'
loop_
_space_group_symop_operation_xyz
x,y,z
1/2-x,-y,1/2+z
1/2+x,1/2-y,-z
-x,1/2+y,1/2-z
loop_
_atom_site_type_symbol
_atom_site_label
_atom_site_fract_x
_atom_site_fract_y
_atom_site_fract_z
Si Si1 0.571978 0.843066 0.486744
Si Si2 0.663114 0.239173 0.384700
Si Si3 0.796071 0.139377 0.617813
Si Si4 0.808965 0.274541 0.042499
Si Si5 0.885908 0.722298 0.298423
Si Si6 0.664499 0.945160 0.737840
Si Si7 0.468774 0.674137 0.461809
Si Si8 0.845060 0.933710 0.430119
O O1 0.592586 0.844162 0.237239
O O2 0.656178 0.794634 0.572072
O O3 0.455989 0.821886 0.558578
O O4 0.587509 0.908550 0.585962
O O5 0.741429 0.196181 0.513007
O O6 0.734435 0.283945 0.244414
O O7 0.599722 0.281696 0.549015
O O8 0.575263 0.201852 0.254650
O O9 0.820554 0.090448 0.447875
O O10 0.722241 0.111942 0.794295
O O11 0.737454 0.288306 0.843153
O O12 0.906562 0.318620 0.003862
O O13 0.910850 0.790903 0.354450
O O14 0.776327 0.956876 0.624966
O O15 0.614588 0.009759 0.795440
O O16 0.444234 0.603453 0.477996
#
# Coordination Sequence:
#
# PCOD8156728 Si02
#       8
#     4   4   4   4   4   4   4   4
#     4  10  21  33  51  81 110 139 184 224 273 328
#     4  11  18  34  58  76 112 149 175 218 284 321
#     4  11  18  33  53  77 112 137 173 223 270 328
#     4  10  20  34  50  79 112 141 179 226 268 326
#     4  10  20  35  52  78 109 148 179 224 269 339
#     4  11  20  31  53  77 107 144 172 225 272 333
#     4  10  21  33  51  82 113 140 181 231 270 329
#     4  11  20  33  50  82 109 138 185 221 276 324
#
# _framework density 17.559581999999999
#
# number of rings (size 3 to 8) (size 9 to 14) (size 15 to 20)
#    0.000    1.500    6.250    1.500    0.000    5.000 
#    0.000    0.000    0.000    0.000    6.500    0.000 
#    0.000    0.000    0.000    0.000    0.000    0.000 
#
# Total GULP energy -396439.145934 kJ/mol
# GULP energy per Si atom -12388.723310 kJ/mol
# Density = 1.751962 g / cm^3
# Si number density = 17.559582 Si / 1000 Ang^3
#
#
#
# Elastic Constant Matrix: (Units=GPa)
#
#
# Indices 1 2 3 4 5 6 
#
# 1 80.3632 34.2203 28.2910 0.0000 0.0000 0.0000
# 2 34.2203 73.6507 14.5591 0.0000 0.0000 0.0000
# 3 28.2910 14.5591 85.9698 0.0000 0.0000 0.0000
# 4 0.0000 0.0000 0.0000 27.6872 0.0000 0.0000
# 5 0.0000 0.0000 0.0000 0.0000 21.2802 0.0000
# 6 0.0000 0.0000 0.0000 0.0000 0.0000 21.0721
#
#
#
# Elastic Compliance Matrix: (Units=1/GPa)
#
#
# Indices 1 2 3 4 5 6 
#
# 1 0.016982 -0.007021 -0.004399 0.000000 0.000000 0.000000
# 2 -0.007021 0.016950 -0.000560 0.000000 0.000000 0.000000
# 3 -0.004399 -0.000560 0.013175 0.000000 0.000000 0.000000
# 4 0.000000 0.000000 0.000000 0.036118 0.000000 0.000000
# 5 0.000000 0.000000 0.000000 0.000000 0.046992 0.000000
# 6 0.000000 0.000000 0.000000 0.000000 0.000000 0.047456
#
#
# Mechanical properties :
#
#
# Convention : Reuss Voigt Hill
#
# Bulk Modulus (GPa) = 43.20348 43.79159 43.49754
# Shear Modulus (GPa) = 23.88364 24.86881 24.37622
#
# Velocity S-wave (km/s) = 3.69202 3.76740 3.72990
# Velocity P-wave (km/s) = 6.54462 6.62702 6.58595
#
# Compressibility (1/GPa) = 0.02314628
#
# Stress axis : x y z
#
# Youngs Moduli (GPa) = 58.88669 58.99600 75.90342
#
# Poissons Ratio (x) = 0.41418 0.33393
# Poissons Ratio (y) = 0.41342 0.04252
# Poissons Ratio (z) = 0.25907 0.03305
#
# Static dielectric constant tensor:
#      x y z
#    x 3.138360 0.000000 0.000000 
#    y 0.000000 3.095900 0.000000 
#    z 0.000000 0.000000 3.577740 
# 
# 
# High freq. dielectric constant tensor:
#      x y z
#    x 1.651730 0.000000 0.000000 
#    y 0.000000 1.647160 0.000000 
#    z 0.000000 0.000000 1.698710 
# 
# From -- ./inp_files/1291.got.cif
#   From: 2010.03.12/outbox.cif.g09.slc.cpg/sg19_1_cif.got.tgz:1291.got - 2010.04.10 18:59:41.
