data_PCOD8156824
_publ_section_title
;
Structure prediction by ZEFSAII (Michael W. Deem and Ramdas Pophale) SiO2 
 PCOD8156824
Probable space group: P 21 21 21
;
_chemical_formula_sum "Si O2"
_cell_formula_units_Z 32
_cell_length_a 15.302119
_cell_length_b 9.220391
_cell_length_c 11.054106
_cell_angle_alpha 90.000000
_cell_angle_beta 90.000000
_cell_angle_gamma 90.000000
_cell_volume 1559.640621
_symmetry_space_group_name_H-M "P 21 21 21"
_symmetry_group_IT_number 19
_symmetry_cell_setting 'orthorhombic'
loop_
_space_group_symop_operation_xyz
x,y,z
1/2-x,-y,1/2+z
1/2+x,1/2-y,-z
-x,1/2+y,1/2-z
loop_
_atom_site_type_symbol
_atom_site_label
_atom_site_fract_x
_atom_site_fract_y
_atom_site_fract_z
Si Si1 0.446534 0.155721 0.921477
Si Si2 0.963136 0.282351 0.583722
Si Si3 0.781513 0.788092 0.458912
Si Si4 0.198948 0.705726 0.297328
Si Si5 0.863033 0.347942 0.819914
Si Si6 0.564935 0.387640 0.025280
Si Si7 0.378022 0.827180 0.221109
Si Si8 0.904261 0.046451 0.397373
O O1 0.368525 0.161552 0.822441
O O2 0.500049 0.017693 0.872341
O O3 0.417358 0.129615 0.058343
O O4 0.502446 0.305761 0.929078
O O5 0.914088 0.271115 0.711479
O O6 0.962354 0.443914 0.528614
O O7 0.912038 0.180924 0.489180
O O8 0.063132 0.228148 0.607870
O O9 0.719381 0.844609 0.566538
O O10 0.722078 0.753351 0.342129
O O11 0.833338 0.637573 0.487604
O O12 0.850359 0.915449 0.452312
O O13 0.288918 0.734289 0.226029
O O14 0.144172 0.586453 0.225857
O O15 0.839664 0.511018 0.783683
O O16 0.560036 0.315987 0.159907
#
# Coordination Sequence:
#
# PCOD8156824 Si02
#       8
#     4   4   4   4   4   4   4   4
#     4  10  20  43  64  83 126 167 207 251 330 369
#     4  11  22  36  69  97 124 160 218 262 307 371
#     4   9  22  41  64  88 131 169 203 255 324 370
#     4  10  24  40  62  90 129 163 205 263 314 378
#     4  10  20  38  65  89 122 171 203 256 315 373
#     4   9  20  37  63  94 121 167 204 258 313 374
#     4  10  20  38  62  96 124 158 213 264 305 367
#     4  11  24  41  63  97 125 163 213 265 302 386
#
# _framework density 20.517548000000001
#
# number of rings (size 3 to 8) (size 9 to 14) (size 15 to 20)
#    0.000    2.000    2.500    0.000    3.500    3.000 
#    2.250    0.000    0.000    0.000    0.000    0.000 
#    0.000    0.000    0.000    0.000    0.000    0.000 
#
# Total GULP energy -396450.502566 kJ/mol
# GULP energy per Si atom -12389.078205 kJ/mol
# Density = 2.047085 g / cm^3
# Si number density = 20.517548 Si / 1000 Ang^3
#
#
#
# Elastic Constant Matrix: (Units=GPa)
#
#
# Indices 1 2 3 4 5 6 
#
# 1 79.2157 36.0023 31.4896 0.0000 0.0000 0.0000
# 2 36.0023 82.7623 23.2137 0.0000 0.0000 0.0000
# 3 31.4896 23.2137 47.0117 0.0000 0.0000 0.0000
# 4 0.0000 0.0000 0.0000 24.0742 0.0000 0.0000
# 5 0.0000 0.0000 0.0000 0.0000 22.7098 0.0000
# 6 0.0000 0.0000 0.0000 0.0000 0.0000 26.1319
#
#
#
# Elastic Compliance Matrix: (Units=1/GPa)
#
#
# Indices 1 2 3 4 5 6 
#
# 1 0.019137 -0.005490 -0.010107 0.000000 0.000000 0.000000
# 2 -0.005490 0.015600 -0.004026 0.000000 0.000000 0.000000
# 3 -0.010107 -0.004026 0.030030 0.000000 0.000000 0.000000
# 4 0.000000 0.000000 0.000000 0.041538 0.000000 0.000000
# 5 0.000000 0.000000 0.000000 0.000000 0.044034 0.000000
# 6 0.000000 0.000000 0.000000 0.000000 0.000000 0.038267
#
#
# Mechanical properties :
#
#
# Convention : Reuss Voigt Hill
#
# Bulk Modulus (GPa) = 39.18496 43.37789 41.28142
# Shear Modulus (GPa) = 21.15432 22.46880 21.81156
#
# Velocity S-wave (km/s) = 3.21446 3.31282 3.26401
# Velocity P-wave (km/s) = 5.73731 5.98505 5.86249
#
# Compressibility (1/GPa) = 0.02552000
#
# Stress axis : x y z
#
# Youngs Moduli (GPa) = 52.25593 64.10242 33.30058
#
# Poissons Ratio (x) = 0.35189 0.33659
# Poissons Ratio (y) = 0.28686 0.13407
# Poissons Ratio (z) = 0.52818 0.25808
#
# Static dielectric constant tensor:
#      x y z
#    x 3.953680 0.000000 0.000000 
#    y 0.000000 3.609030 0.000000 
#    z 0.000000 0.000000 3.621300 
# 
# 
# High freq. dielectric constant tensor:
#      x y z
#    x 1.814340 0.000000 0.000000 
#    y 0.000000 1.788320 0.000000 
#    z 0.000000 0.000000 1.788170 
# 
# From -- ./inp_files/5217.got.cif
#   From: 2010.03.12/outbox.cif.g09.slc.cpg/sg19_3_cif.got.tgz:5217.got - 2010.04.10 18:59:41.
