data_PCOD8156616
_publ_section_title
;
Structure prediction by ZEFSAII (Michael W. Deem and Ramdas Pophale) SiO2 
 PCOD8156616
Probable space group: P 21 21 21
;
_chemical_formula_sum "Si O2"
_cell_formula_units_Z 28
_cell_length_a 21.359887
_cell_length_b 5.059068
_cell_length_c 13.028933
_cell_angle_alpha 90.000000
_cell_angle_beta 90.000000
_cell_angle_gamma 90.000000
_cell_volume 1407.921103
_symmetry_space_group_name_H-M "P 21 21 21"
_symmetry_group_IT_number 19
_symmetry_cell_setting 'orthorhombic'
loop_
_space_group_symop_operation_xyz
x,y,z
1/2-x,-y,1/2+z
1/2+x,1/2-y,-z
-x,1/2+y,1/2-z
loop_
_atom_site_type_symbol
_atom_site_label
_atom_site_fract_x
_atom_site_fract_y
_atom_site_fract_z
Si Si1 0.737812 0.707361 0.636587
Si Si2 0.673513 0.209862 0.555343
Si Si3 0.674354 0.296626 0.948908
Si Si4 0.538337 0.306154 0.250258
Si Si5 0.738237 0.793878 0.868162
Si Si6 0.043163 0.291821 0.971017
Si Si7 0.958061 0.791281 0.971705
O O1 0.702758 0.427909 0.630074
O O2 0.798432 0.718354 0.564141
O O3 0.761517 0.750765 0.752259
O O4 0.687665 0.925874 0.603037
O O5 0.701912 0.238896 0.441310
O O6 0.598633 0.243786 0.551070
O O7 0.685343 0.582633 0.899734
O O8 0.600078 0.244911 0.950301
O O9 0.707859 0.082093 0.877244
O O10 0.523997 0.619295 0.249619
O O11 0.572719 0.234662 0.357052
O O12 0.573267 0.231212 0.144236
O O13 0.012097 0.575813 0.989863
O O14 0.989115 0.076163 0.987836
#
# Coordination Sequence:
#
# PCOD8156616 Si02
#       7
#     4   4   4   4   4   4   4
#     4  10  21  38  58  81 110 143 184 233 269 314
#     4  10  21  36  58  85 107 145 186 217 279 329
#     4  10  21  36  58  85 107 145 186 217 279 329
#     4   8  16  28  44  72 104 138 168 200 260 320
#     4  10  21  38  58  81 110 143 184 233 269 314
#     4  10  19  33  53  79 112 142 174 221 271 327
#     4  10  19  33  53  79 112 142 174 221 271 327
#
# _framework density 19.887477000000001
#
# number of rings (size 3 to 8) (size 9 to 14) (size 15 to 20)
#    0.000    2.286    0.000    2.571    2.000    0.000 
#    0.000    0.000    0.000   17.143    0.000    0.000 
#    0.000    0.000    0.000    0.000    0.000    0.000 
#
# Total GULP energy -347115.310620 kJ/mol
# GULP energy per Si atom -12396.975379 kJ/mol
# Density = 1.984221 g / cm^3
# Si number density = 19.887477 Si / 1000 Ang^3
#
#
#
# Elastic Constant Matrix: (Units=GPa)
#
#
# Indices 1 2 3 4 5 6 
#
# 1 61.2062 7.6965 6.4152 0.0000 0.0000 0.0000
# 2 7.6965 83.8431 2.8206 0.0000 0.0000 0.0000
# 3 6.4152 2.8206 75.5855 0.0000 0.0000 0.0000
# 4 0.0000 0.0000 0.0000 15.7947 0.0000 0.0000
# 5 0.0000 0.0000 0.0000 0.0000 16.6981 0.0000
# 6 0.0000 0.0000 0.0000 0.0000 0.0000 17.2573
#
#
#
# Elastic Compliance Matrix: (Units=1/GPa)
#
#
# Indices 1 2 3 4 5 6 
#
# 1 0.016667 -0.001484 -0.001359 0.000000 0.000000 0.000000
# 2 -0.001484 0.012074 -0.000325 0.000000 0.000000 0.000000
# 3 -0.001359 -0.000325 0.013358 0.000000 0.000000 0.000000
# 4 0.000000 0.000000 0.000000 0.063312 0.000000 0.000000
# 5 0.000000 0.000000 0.000000 0.000000 0.059887 0.000000
# 6 0.000000 0.000000 0.000000 0.000000 0.000000 0.057947
#
#
# Mechanical properties :
#
#
# Convention : Reuss Voigt Hill
#
# Bulk Modulus (GPa) = 27.96196 28.27772 28.11984
# Shear Modulus (GPa) = 20.70377 23.53019 22.11698
#
# Velocity S-wave (km/s) = 3.23002 3.44345 3.33844
# Velocity P-wave (km/s) = 5.29163 5.48266 5.38799
#
# Compressibility (1/GPa) = 0.03576287
#
# Stress axis : x y z
#
# Youngs Moduli (GPa) = 59.99759 82.82113 74.86420
#
# Poissons Ratio (x) = 0.12293 0.10176
# Poissons Ratio (y) = 0.08905 0.02430
# Poissons Ratio (z) = 0.08155 0.02688
#
# Static dielectric constant tensor:
#      x y z
#    x 3.140150 0.000000 0.000000 
#    y 0.000000 3.750190 0.000000 
#    z 0.000000 0.000000 3.516620 
# 
# 
# High freq. dielectric constant tensor:
#      x y z
#    x 1.744220 0.000000 0.000000 
#    y 0.000000 1.795780 0.000000 
#    z 0.000000 0.000000 1.759990 
# 
# From -- ./inp_files/1748.got.cif
#   From: 2010.03.12/outbox.cif.g09.slc.cpg/sg19_1_cif.got.tgz:1748.got - 2010.04.10 18:59:41.
