data_PCOD8156045
_publ_section_title
;
Structure prediction by ZEFSAII (Michael W. Deem and Ramdas Pophale) SiO2 
 PCOD8156045
Probable space group: P 21 21 2
;
_chemical_formula_sum "Si O2"
_cell_formula_units_Z 24
_cell_length_a 11.575985
_cell_length_b 11.745106
_cell_length_c 8.104958
_cell_angle_alpha 90.000000
_cell_angle_beta 90.000000
_cell_angle_gamma 90.000000
_cell_volume 1101.959580
_symmetry_space_group_name_H-M "P 21 21 2"
_symmetry_group_IT_number 18
_symmetry_cell_setting 'orthorhombic'
loop_
_space_group_symop_operation_xyz
x,y,z
-x,-y,z
1/2+x,1/2-y,-z
1/2-x,1/2+y,-z
loop_
_atom_site_type_symbol
_atom_site_label
_atom_site_fract_x
_atom_site_fract_y
_atom_site_fract_z
Si Si1 0.428603 0.858771 0.918570
Si Si2 0.351369 0.840776 0.428112
Si Si3 0.740550 0.282595 0.731513
Si Si4 0.500000 0.500000 0.021792
Si Si5 0.254504 0.470620 0.859658
Si Si6 0.000000 0.500000 0.365029
Si Si7 0.018316 0.777705 0.800280
O O1 0.362032 0.747054 0.856304
O O2 0.513066 0.897755 0.768820
O O3 0.334748 0.952703 0.986551
O O4 0.510730 0.822771 0.065743
O O5 0.288616 0.749497 0.543922
O O6 0.268148 0.870932 0.274907
O O7 0.392533 0.958278 0.521498
O O8 0.462056 0.769961 0.366434
O O9 0.772169 0.413637 0.760065
O O10 0.847378 0.200158 0.771800
O O11 0.461432 0.604724 0.138444
O O12 0.388934 0.464119 0.912395
#
# Coordination Sequence:
#
# PCOD8156045 Si02
#       7
#     4   4   4   2   4   2   4
#     4  10  21  41  69  91 120 170 220 260 301 388
#     4  10  25  43  64  93 130 169 210 265 318 387
#     4  11  22  40  66  93 129 163 213 264 322 377
#     4  12  24  40  70  92 128 168 210 268 316 380
#     4  11  23  44  64  95 125 169 215 259 318 375
#     4  10  20  42  66  94 118 164 214 260 314 362
#     4  11  23  44  64  95 125 169 215 259 318 375
#
# _framework density 21.779384
#
# number of rings (size 3 to 8) (size 9 to 14) (size 15 to 20)
#    0.000    1.333    3.333    2.000    0.000    5.333 
#    6.000    0.000    0.000    0.000    0.000    0.000 
#    0.000    0.000    0.000    0.000    0.000    0.000 
#
# Total GULP energy -297346.289832 kJ/mol
# GULP energy per Si atom -12389.428743 kJ/mol
# Density = 2.172981 g / cm^3
# Si number density = 21.779384 Si / 1000 Ang^3
#
#
#
# Elastic Constant Matrix: (Units=GPa)
#
#
# Indices 1 2 3 4 5 6 
#
# 1 69.6258 19.0281 42.8765 0.0000 0.0000 0.0000
# 2 19.0281 86.1489 30.8316 0.0000 0.0000 0.0000
# 3 42.8765 30.8316 118.1524 0.0000 0.0000 0.0000
# 4 0.0000 0.0000 0.0000 27.1513 0.0000 0.0000
# 5 0.0000 0.0000 0.0000 0.0000 24.9516 0.0000
# 6 0.0000 0.0000 0.0000 0.0000 0.0000 31.2472
#
#
#
# Elastic Compliance Matrix: (Units=1/GPa)
#
#
# Indices 1 2 3 4 5 6 
#
# 1 0.018769 -0.001884 -0.006320 0.000000 0.000000 0.000000
# 2 -0.001884 0.012993 -0.002707 0.000000 0.000000 0.000000
# 3 -0.006320 -0.002707 0.011463 0.000000 0.000000 0.000000
# 4 0.000000 0.000000 0.000000 0.036831 0.000000 0.000000
# 5 0.000000 0.000000 0.000000 0.000000 0.040078 0.000000
# 6 0.000000 0.000000 0.000000 0.000000 0.000000 0.032003
#
#
# Mechanical properties :
#
#
# Convention : Reuss Voigt Hill
#
# Bulk Modulus (GPa) = 46.71904 51.04437 48.88170
# Shear Modulus (GPa) = 27.61041 28.74942 28.17991
#
# Velocity S-wave (km/s) = 3.56438 3.63716 3.60096
# Velocity P-wave (km/s) = 6.19979 6.41299 6.30729
#
# Compressibility (1/GPa) = 0.02140455
#
# Stress axis : x y z
#
# Youngs Moduli (GPa) = 53.27938 76.96673 87.23523
#
# Poissons Ratio (x) = 0.14500 0.55128
# Poissons Ratio (y) = 0.10037 0.23612
# Poissons Ratio (z) = 0.33670 0.20833
#
# Static dielectric constant tensor:
#      x y z
#    x 3.772700 0.000000 0.000000 
#    y 0.000000 3.818340 0.000000 
#    z 0.000000 0.000000 4.060130 
# 
# 
# High freq. dielectric constant tensor:
#      x y z
#    x 1.844210 0.000000 0.000000 
#    y 0.000000 1.851640 0.000000 
#    z 0.000000 0.000000 1.867190 
# 
# From -- ./inp_files/3767.got.cif
#   From: 2010.03.12/outbox.cif.g09.slc.cpg/sg18_2_cif.got.tgz:3767.got - 2010.04.10 18:53:55.
