data_PCOD8156652
_publ_section_title
;
Structure prediction by ZEFSAII (Michael W. Deem and Ramdas Pophale) SiO2 
 PCOD8156652
Probable space group: P 21 21 21
;
_chemical_formula_sum "Si O2"
_cell_formula_units_Z 32
_cell_length_a 9.842896
_cell_length_b 20.387913
_cell_length_c 7.729083
_cell_angle_alpha 90.000000
_cell_angle_beta 90.000000
_cell_angle_gamma 90.000000
_cell_volume 1551.042290
_symmetry_space_group_name_H-M "P 21 21 21"
_symmetry_group_IT_number 19
_symmetry_cell_setting 'orthorhombic'
loop_
_space_group_symop_operation_xyz
x,y,z
1/2-x,-y,1/2+z
1/2+x,1/2-y,-z
-x,1/2+y,1/2-z
loop_
_atom_site_type_symbol
_atom_site_label
_atom_site_fract_x
_atom_site_fract_y
_atom_site_fract_z
Si Si1 0.468437 0.569504 0.972649
Si Si2 0.320581 0.430839 0.608717
Si Si3 0.618314 0.795495 0.882123
Si Si4 0.369892 0.694900 0.368052
Si Si5 0.876160 0.317657 0.642407
Si Si6 0.843313 0.925129 0.401702
Si Si7 0.382934 0.808023 0.638525
Si Si8 0.439232 0.426036 0.981514
O O1 0.425276 0.584149 0.775754
O O2 0.519302 0.494815 0.007539
O O3 0.339484 0.583500 0.093431
O O4 0.588936 0.617895 0.030673
O O5 0.400962 0.367793 0.527635
O O6 0.363477 0.500367 0.522905
O O7 0.349843 0.436346 0.810904
O O8 0.731540 0.808618 0.737433
O O9 0.479257 0.776359 0.785802
O O10 0.667934 0.740429 0.013294
O O11 0.496880 0.711345 0.247077
O O12 0.403821 0.626707 0.463671
O O13 0.344529 0.751959 0.505647
O O14 0.752896 0.334857 0.770112
O O15 0.679039 0.913184 0.373372
O O16 0.453382 0.867425 0.533490
#
# Coordination Sequence:
#
# PCOD8156652 Si02
#       8
#     4   4   4   4   4   4   4   4
#     4  10  20  36  64  94 121 162 207 259 317 363
#     4   9  18  36  62  91 120 153 211 262 299 353
#     4  11  22  42  61  89 125 164 212 253 308 370
#     4  12  23  41  61  91 123 162 215 258 308 370
#     4  12  25  40  60  91 128 165 206 257 317 377
#     4  10  19  35  67  92 117 155 210 265 303 354
#     4  11  24  40  60  91 129 168 200 256 315 375
#     4   9  19  40  61  91 125 163 207 260 307 366
#
# _framework density 20.631288999999999
#
# number of rings (size 3 to 8) (size 9 to 14) (size 15 to 20)
#    0.000    1.500    3.750    2.250    1.750    0.000 
#    0.000    5.000    0.000    0.000    0.000    0.000 
#    0.000    0.000    0.000    0.000    0.000    0.000 
#
# Total GULP energy -396661.157737 kJ/mol
# GULP energy per Si atom -12395.661179 kJ/mol
# Density = 2.058433 g / cm^3
# Si number density = 20.631289 Si / 1000 Ang^3
#
#
#
# Elastic Constant Matrix: (Units=GPa)
#
#
# Indices 1 2 3 4 5 6 
#
# 1 61.5896 15.6774 14.7156 0.0000 0.0000 0.0000
# 2 15.6774 135.4266 35.6192 0.0000 0.0000 0.0000
# 3 14.7156 35.6192 45.3769 0.0000 0.0000 0.0000
# 4 0.0000 0.0000 0.0000 25.8701 0.0000 0.0000
# 5 0.0000 0.0000 0.0000 0.0000 34.7676 0.0000
# 6 0.0000 0.0000 0.0000 0.0000 0.0000 26.7265
#
#
#
# Elastic Compliance Matrix: (Units=1/GPa)
#
#
# Indices 1 2 3 4 5 6 
#
# 1 0.017649 -0.000678 -0.005192 0.000000 0.000000 0.000000
# 2 -0.000678 0.009331 -0.007105 0.000000 0.000000 0.000000
# 3 -0.005192 -0.007105 0.029298 0.000000 0.000000 0.000000
# 4 0.000000 0.000000 0.000000 0.038655 0.000000 0.000000
# 5 0.000000 0.000000 0.000000 0.000000 0.028762 0.000000
# 6 0.000000 0.000000 0.000000 0.000000 0.000000 0.037416
#
#
# Mechanical properties :
#
#
# Convention : Reuss Voigt Hill
#
# Bulk Modulus (GPa) = 32.97010 41.60194 37.28602
# Shear Modulus (GPa) = 25.35871 29.23156 27.29514
#
# Velocity S-wave (km/s) = 3.50971 3.76820 3.64125
# Velocity P-wave (km/s) = 5.69556 6.25625 5.98248
#
# Compressibility (1/GPa) = 0.03033051
#
# Stress axis : x y z
#
# Youngs Moduli (GPa) = 56.65895 107.16720 34.13158
#
# Poissons Ratio (x) = 0.07262 0.17720
# Poissons Ratio (y) = 0.03840 0.24250
# Poissons Ratio (z) = 0.29416 0.76141
#
# Static dielectric constant tensor:
#      x y z
#    x 3.489410 0.000000 0.000000 
#    y 0.000000 4.168480 0.000000 
#    z 0.000000 0.000000 3.653390 
# 
# 
# High freq. dielectric constant tensor:
#      x y z
#    x 1.776650 0.000000 0.000000 
#    y 0.000000 1.829700 0.000000 
#    z 0.000000 0.000000 1.800500 
# 
# From -- ./inp_files/3193.got.cif
#   From: 2010.03.12/outbox.cif.g09.slc.cpg/sg19_2_cif.got.tgz:3193.got - 2010.04.10 18:59:41.
