data_PCOD8156097
_publ_section_title
;
Structure prediction by ZEFSAII (Michael W. Deem and Ramdas Pophale) SiO2 
 PCOD8156097
Probable space group: P 21 21 2
;
_chemical_formula_sum "Si O2"
_cell_formula_units_Z 32
_cell_length_a 9.796725
_cell_length_b 14.006305
_cell_length_c 11.539069
_cell_angle_alpha 90.000000
_cell_angle_beta 90.000000
_cell_angle_gamma 90.000000
_cell_volume 1583.343950
_symmetry_space_group_name_H-M "P 21 21 2"
_symmetry_group_IT_number 18
_symmetry_cell_setting 'orthorhombic'
loop_
_space_group_symop_operation_xyz
x,y,z
-x,-y,z
1/2+x,1/2-y,-z
1/2-x,1/2+y,-z
loop_
_atom_site_type_symbol
_atom_site_label
_atom_site_fract_x
_atom_site_fract_y
_atom_site_fract_z
Si Si1 0.585634 0.199566 0.446298
Si Si2 0.280332 0.165812 0.441205
Si Si3 0.742687 0.785644 0.179770
Si Si4 0.904293 0.645408 0.025108
Si Si5 0.655034 0.015412 0.571938
Si Si6 0.193802 0.565320 0.008978
Si Si7 0.142267 0.052147 0.764756
Si Si8 0.934497 0.742981 0.795835
O O1 0.425228 0.214860 0.473850
O O2 0.664037 0.297622 0.471992
O O3 0.665510 0.122187 0.523619
O O4 0.589233 0.167928 0.309663
O O5 0.225630 0.184283 0.311368
O O6 0.299795 0.053409 0.466703
O O7 0.757397 0.882317 0.103552
O O8 0.592239 0.742390 0.172592
O O9 0.840750 0.698700 0.136994
O O10 0.847585 0.543330 0.984931
O O11 0.863820 0.711478 0.914915
O O12 0.065137 0.630316 0.050672
O O13 0.500000 0.000000 0.612836
O O14 0.748122 0.001274 0.684584
O O15 0.310532 0.554687 0.103264
O O16 0.125025 0.162822 0.735267
O O17 0.000000 0.000000 0.751725
#
# Coordination Sequence:
#
# PCOD8156097 Si02
#       8
#     4   4   4   4   4   4   4   4
#     4  10  22  39  62  88 121 162 205 254 306 361
#     4  10  22  40  62  89 121 160 207 250 309 368
#     4  10  21  39  64  88 124 162 207 255 311 367
#     4  10  21  39  62  91 125 161 209 258 307 378
#     4  10  24  40  62  92 125 163 207 257 309 371
#     4  10  23  38  62  93 123 164 208 251 316 372
#     4  12  24  40  65  90 127 159 209 258 314 370
#     4  10  21  40  61  88 122 167 203 256 311 371
#
# _framework density 20.21039
#
# number of rings (size 3 to 8) (size 9 to 14) (size 15 to 20)
#    0.000    1.750    2.500    0.750    8.750    1.000 
#    0.000    0.000    0.000    0.750    0.000    0.000 
#    0.000    0.000    0.000    0.000    0.000    0.000 
#
# Total GULP energy -396559.382496 kJ/mol
# GULP energy per Si atom -12392.480703 kJ/mol
# Density = 2.016439 g / cm^3
# Si number density = 20.210390 Si / 1000 Ang^3
#
#
#
# Elastic Constant Matrix: (Units=GPa)
#
#
# Indices 1 2 3 4 5 6 
#
# 1 77.2404 37.1517 49.2201 0.0000 0.0000 0.0000
# 2 37.1517 85.0434 33.7739 0.0000 0.0000 0.0000
# 3 49.2201 33.7739 116.2110 0.0000 0.0000 0.0000
# 4 0.0000 0.0000 0.0000 29.6555 0.0000 0.0000
# 5 0.0000 0.0000 0.0000 0.0000 29.1769 0.0000
# 6 0.0000 0.0000 0.0000 0.0000 0.0000 23.0266
#
#
#
# Elastic Compliance Matrix: (Units=1/GPa)
#
#
# Indices 1 2 3 4 5 6 
#
# 1 0.020220 -0.006141 -0.006779 0.000000 0.000000 0.000000
# 2 -0.006141 0.015158 -0.001804 0.000000 0.000000 0.000000
# 3 -0.006779 -0.001804 0.012001 0.000000 0.000000 0.000000
# 4 0.000000 0.000000 0.000000 0.033721 0.000000 0.000000
# 5 0.000000 0.000000 0.000000 0.000000 0.034274 0.000000
# 6 0.000000 0.000000 0.000000 0.000000 0.000000 0.043428
#
#
# Mechanical properties :
#
#
# Convention : Reuss Voigt Hill
#
# Bulk Modulus (GPa) = 55.77361 57.64292 56.70826
# Shear Modulus (GPa) = 25.74300 26.92842 26.33571
#
# Velocity S-wave (km/s) = 3.57284 3.65417 3.61373
# Velocity P-wave (km/s) = 6.68406 6.81082 6.74774
#
# Compressibility (1/GPa) = 0.01792963
#
# Stress axis : x y z
#
# Youngs Moduli (GPa) = 49.45493 65.97170 83.32784
#
# Poissons Ratio (x) = 0.40514 0.56492
# Poissons Ratio (y) = 0.30371 0.15035
# Poissons Ratio (z) = 0.33528 0.11903
#
# Static dielectric constant tensor:
#      x y z
#    x 3.663890 0.000000 0.000000 
#    y 0.000000 3.809800 0.000000 
#    z 0.000000 0.000000 3.637770 
# 
# 
# High freq. dielectric constant tensor:
#      x y z
#    x 1.780070 0.000000 0.000000 
#    y 0.000000 1.790070 0.000000 
#    z 0.000000 0.000000 1.795520 
# 
# From -- ./inp_files/5678.got.cif
#   From: 2010.03.12/outbox.cif.g09.slc.cpg/sg18_3_cif.got.tgz:5678.got - 2010.04.10 18:53:55.
