data_PCOD8156618
_publ_section_title
;
Structure prediction by ZEFSAII (Michael W. Deem and Ramdas Pophale) SiO2 
 PCOD8156618
Probable space group: P 21 21 21
;
_chemical_formula_sum "Si O2"
_cell_formula_units_Z 32
_cell_length_a 9.371506
_cell_length_b 20.094255
_cell_length_c 9.007903
_cell_angle_alpha 90.000000
_cell_angle_beta 90.000000
_cell_angle_gamma 90.000000
_cell_volume 1696.309123
_symmetry_space_group_name_H-M "P 21 21 21"
_symmetry_group_IT_number 19
_symmetry_cell_setting 'orthorhombic'
loop_
_space_group_symop_operation_xyz
x,y,z
1/2-x,-y,1/2+z
1/2+x,1/2-y,-z
-x,1/2+y,1/2-z
loop_
_atom_site_type_symbol
_atom_site_label
_atom_site_fract_x
_atom_site_fract_y
_atom_site_fract_z
Si Si1 0.408104 0.179416 0.323213
Si Si2 0.411359 0.572494 0.326886
Si Si3 0.412536 0.804727 0.175833
Si Si4 0.412536 0.804727 0.824167
Si Si5 0.118495 0.579818 0.173128
Si Si6 0.411359 0.572494 0.673114
Si Si7 0.381505 0.420182 0.326872
Si Si8 0.908104 0.320584 0.323213
O O1 0.460325 0.110410 0.253568
O O2 0.508510 0.238934 0.264123
O O3 0.248521 0.193237 0.263649
O O4 0.411159 0.173190 0.500000
O O5 0.261215 0.597168 0.262055
O O6 0.414272 0.588403 0.500000
O O7 0.434655 0.494592 0.293751
O O8 0.496063 0.870415 0.229991
O O9 0.251479 0.806763 0.236350
O O10 0.411405 0.802469 1.000000
O O11 0.496063 0.870415 0.770009
O O12 0.491490 0.738934 0.764123
O O13 0.065345 0.505408 0.206249
O O14 0.153330 0.590350 0.000000
O O15 0.261215 0.597168 0.737945
O O16 0.539675 0.610410 0.753568
#
# Coordination Sequence:
#
# PCOD8156618 Si02
#       8
#     4   4   4   4   4   4   4   4
#     4  10  19  33  54  76  99 130 170 212 252 298
#     4  10  20  33  51  77 107 136 166 205 255 305
#     4   9  18  33  55  78  97 128 175 217 249 292
#     4   9  18  33  55  78  97 128 175 217 249 292
#     4   9  18  35  56  76 101 134 173 212 248 295
#     4  10  20  33  51  77 107 136 166 205 255 305
#     4   9  18  35  56  76 101 134 173 212 248 295
#     4  10  19  33  54  76  99 130 170 212 252 298
#
# _framework density 18.864485999999999
#
# number of rings (size 3 to 8) (size 9 to 14) (size 15 to 20)
#    0.000    2.500    0.000    2.250    0.000    6.000 
#    0.000    6.250    0.000    0.000    0.000    0.000 
#    0.000    0.000    0.000    0.000    0.000    0.000 
#
# Total GULP energy -396874.259940 kJ/mol
# GULP energy per Si atom -12402.320623 kJ/mol
# Density = 1.882155 g / cm^3
# Si number density = 18.864486 Si / 1000 Ang^3
#
#
#
# Elastic Constant Matrix: (Units=GPa)
#
#
# Indices 1 2 3 4 5 6 
#
# 1 132.3251 60.7248 32.7498 0.0000 0.0000 0.0000
# 2 60.7248 97.2119 28.0536 0.0000 0.0000 0.0000
# 3 32.7498 28.0536 38.8430 0.0000 0.0000 0.0000
# 4 0.0000 0.0000 0.0000 27.3029 0.0000 0.0000
# 5 0.0000 0.0000 0.0000 0.0000 21.5857 0.0000
# 6 0.0000 0.0000 0.0000 0.0000 0.0000 43.0667
#
#
#
# Elastic Compliance Matrix: (Units=1/GPa)
#
#
# Indices 1 2 3 4 5 6 
#
# 1 0.011514 -0.005547 -0.005701 0.000000 0.000000 0.000000
# 2 -0.005547 0.015668 -0.006639 0.000000 0.000000 0.000000
# 3 -0.005701 -0.006639 0.035347 0.000000 0.000000 0.000000
# 4 0.000000 0.000000 0.000000 0.036626 0.000000 0.000000
# 5 0.000000 0.000000 0.000000 0.000000 0.046327 0.000000
# 6 0.000000 0.000000 0.000000 0.000000 0.000000 0.023220
#
#
# Mechanical properties :
#
#
# Convention : Reuss Voigt Hill
#
# Bulk Modulus (GPa) = 37.37838 56.82628 47.10233
# Shear Modulus (GPa) = 23.43094 28.18117 25.80606
#
# Velocity S-wave (km/s) = 3.52812 3.86926 3.70262
# Velocity P-wave (km/s) = 6.03771 7.08169 6.58044
#
# Compressibility (1/GPa) = 0.02675343
#
# Stress axis : x y z
#
# Youngs Moduli (GPa) = 86.85294 63.82605 28.29129
#
# Poissons Ratio (x) = 0.35403 0.16130
# Poissons Ratio (y) = 0.48176 0.18782
# Poissons Ratio (z) = 0.49519 0.42373
#
# Static dielectric constant tensor:
#      x y z
#    x 3.617710 0.000000 0.000000 
#    y 0.000000 3.580410 0.000000 
#    z 0.000000 0.000000 3.142260 
# 
# 
# High freq. dielectric constant tensor:
#      x y z
#    x 1.736830 0.000000 0.000000 
#    y 0.000000 1.744800 0.000000 
#    z 0.000000 0.000000 1.700110 
# 
# From -- ./inp_files/3138.got.cif
#   From: 2010.03.12/outbox.cif.g09.slc.cpg/sg19_2_cif.got.tgz:3138.got - 2010.04.10 18:59:41.
