data_PCOD8156806
_publ_section_title
;
Structure prediction by ZEFSAII (Michael W. Deem and Ramdas Pophale) SiO2 
 PCOD8156806
Probable space group: P 21 21 21
;
_chemical_formula_sum "Si O2"
_cell_formula_units_Z 32
_cell_length_a 7.482478
_cell_length_b 9.439596
_cell_length_c 20.351913
_cell_angle_alpha 90.000000
_cell_angle_beta 90.000000
_cell_angle_gamma 90.000000
_cell_volume 1437.487555
_symmetry_space_group_name_H-M "P 21 21 21"
_symmetry_group_IT_number 19
_symmetry_cell_setting 'orthorhombic'
loop_
_space_group_symop_operation_xyz
x,y,z
1/2-x,-y,1/2+z
1/2+x,1/2-y,-z
-x,1/2+y,1/2-z
loop_
_atom_site_type_symbol
_atom_site_label
_atom_site_fract_x
_atom_site_fract_y
_atom_site_fract_z
Si Si1 0.591091 0.427659 0.982028
Si Si2 0.963565 0.323393 0.934908
Si Si3 0.257419 0.551695 0.910114
Si Si4 0.420642 0.566362 0.772623
Si Si5 0.990814 0.708631 0.707886
Si Si6 0.825023 0.640978 0.227347
Si Si7 0.863205 0.920229 0.798009
Si Si8 0.864948 0.363757 0.599318
O O1 0.495038 0.282597 0.004320
O O2 0.655929 0.521802 0.042737
O O3 0.764310 0.388407 0.938223
O O4 0.450703 0.521872 0.941638
O O5 0.995113 0.232324 0.869469
O O6 0.108642 0.447262 0.938288
O O7 0.283759 0.532001 0.832023
O O8 0.186799 0.708588 0.927552
O O9 0.608271 0.483923 0.774909
O O10 0.472690 0.731943 0.773430
O O11 0.322899 0.509509 0.704448
O O12 0.155695 0.779761 0.744581
O O13 0.983548 0.539669 0.722011
O O14 0.832669 0.793704 0.744645
O O15 0.781003 0.588700 0.153850
O O16 0.931290 0.862751 0.869219
#
# Coordination Sequence:
#
# PCOD8156806 Si02
#       8
#     4   4   4   4   4   4   4   4
#     4  12  26  46  69  99 135 187 232 286 341 402
#     4  12  24  44  69  98 134 180 231 284 339 411
#     4  11  25  47  68  98 138 176 240 282 340 418
#     4  10  20  40  61  97 129 171 214 280 340 409
#     4  10  20  38  61  93 125 170 212 274 335 405
#     4   9  21  38  62  93 132 166 217 275 344 406
#     4  10  20  37  66  90 130 164 213 271 344 401
#     4  10  24  46  62  98 135 174 229 286 339 420
#
# _framework density 22.261061000000002
#
# number of rings (size 3 to 8) (size 9 to 14) (size 15 to 20)
#    0.000    1.500    3.750    1.500    1.750    3.000 
#   11.250    0.000    0.000    0.000    0.000    0.000 
#    0.000    0.000    0.000    0.000    0.000    0.000 
#
# Total GULP energy -396498.464206 kJ/mol
# GULP energy per Si atom -12390.577006 kJ/mol
# Density = 2.221039 g / cm^3
# Si number density = 22.261061 Si / 1000 Ang^3
#
#
#
# Elastic Constant Matrix: (Units=GPa)
#
#
# Indices 1 2 3 4 5 6 
#
# 1 65.0811 11.1422 14.0317 0.0000 0.0000 0.0000
# 2 11.1422 81.5670 11.3428 0.0000 0.0000 0.0000
# 3 14.0317 11.3428 38.7404 0.0000 0.0000 0.0000
# 4 0.0000 0.0000 0.0000 32.2963 0.0000 0.0000
# 5 0.0000 0.0000 0.0000 0.0000 27.1734 0.0000
# 6 0.0000 0.0000 0.0000 0.0000 0.0000 35.9063
#
#
#
# Elastic Compliance Matrix: (Units=1/GPa)
#
#
# Indices 1 2 3 4 5 6 
#
# 1 0.016844 -0.001514 -0.005658 0.000000 0.000000 0.000000
# 2 -0.001514 0.012916 -0.003233 0.000000 0.000000 0.000000
# 3 -0.005658 -0.003233 0.028809 0.000000 0.000000 0.000000
# 4 0.000000 0.000000 0.000000 0.030963 0.000000 0.000000
# 5 0.000000 0.000000 0.000000 0.000000 0.036801 0.000000
# 6 0.000000 0.000000 0.000000 0.000000 0.000000 0.027850
#
#
# Mechanical properties :
#
#
# Convention : Reuss Voigt Hill
#
# Bulk Modulus (GPa) = 26.48368 28.71354 27.59861
# Shear Modulus (GPa) = 26.65519 28.99999 27.82759
#
# Velocity S-wave (km/s) = 3.46409 3.61324 3.53945
# Velocity P-wave (km/s) = 5.28418 5.50762 5.39706
#
# Compressibility (1/GPa) = 0.03775910
#
# Stress axis : x y z
#
# Youngs Moduli (GPa) = 59.36659 77.42131 34.71165
#
# Poissons Ratio (x) = 0.11723 0.19639
# Poissons Ratio (y) = 0.08989 0.11223
# Poissons Ratio (z) = 0.33588 0.25033
#
# Static dielectric constant tensor:
#      x y z
#    x 3.862130 0.000000 0.000000 
#    y 0.000000 5.189810 0.000000 
#    z 0.000000 0.000000 3.932620 
# 
# 
# High freq. dielectric constant tensor:
#      x y z
#    x 1.867680 0.000000 0.000000 
#    y 0.000000 1.901250 0.000000 
#    z 0.000000 0.000000 1.851760 
# 
# From -- ./inp_files/7087.got.cif
#   From: 2010.03.12/outbox.cif.g09.slc.cpg/sg19_4_cif.got.tgz:7087.got - 2010.04.10 18:59:41.
