data_PCOD8156150
_publ_section_title
;
Structure prediction by ZEFSAII (Michael W. Deem and Ramdas Pophale) SiO2 
 PCOD8156150
Probable space group: P 21 21 2
;
_chemical_formula_sum "Si O2"
_cell_formula_units_Z 28
_cell_length_a 17.360999
_cell_length_b 9.110508
_cell_length_c 8.326598
_cell_angle_alpha 90.000000
_cell_angle_beta 90.000000
_cell_angle_gamma 90.000000
_cell_volume 1316.997358
_symmetry_space_group_name_H-M "P 21 21 2"
_symmetry_group_IT_number 18
_symmetry_cell_setting 'orthorhombic'
loop_
_space_group_symop_operation_xyz
x,y,z
-x,-y,z
1/2+x,1/2-y,-z
1/2-x,1/2+y,-z
loop_
_atom_site_type_symbol
_atom_site_label
_atom_site_fract_x
_atom_site_fract_y
_atom_site_fract_z
Si Si1 0.106867 0.137826 0.010450
Si Si2 0.653504 0.588136 0.742785
Si Si3 0.757516 0.358912 0.196190
Si Si4 0.088958 0.769724 0.561262
Si Si5 0.364939 0.882584 0.755241
Si Si6 0.500000 0.500000 0.231720
Si Si7 0.258254 0.660466 0.571547
Si Si8 0.500000 0.000000 0.540788
O O1 0.189415 0.130553 0.928861
O O2 0.041726 0.121230 0.877267
O O3 0.094941 0.291008 0.102457
O O4 0.100698 0.007080 0.139811
O O5 0.696584 0.711107 0.847042
O O6 0.596371 0.668204 0.618652
O O7 0.719400 0.494602 0.650686
O O8 0.810841 0.498168 0.161825
O O9 0.730359 0.354740 0.381192
O O10 0.062156 0.908461 0.666708
O O11 0.171076 0.705174 0.620314
O O12 0.024773 0.640309 0.567206
O O13 0.316312 0.782288 0.635033
O O14 0.427778 0.964340 0.650682
#
# Coordination Sequence:
#
# PCOD8156150 Si02
#       8
#     4   4   4   4   4   2   4   2
#     4  11  26  40  64  96 136 179 216 274 347 419
#     4  10  22  41  69  92 127 177 226 275 332 407
#     4  11  20  41  66  98 127 170 229 283 327 404
#     4  11  26  43  72  98 134 180 236 292 334 412
#     4  11  24  43  68  95 139 178 226 281 349 418
#     4  12  28  44  64 100 140 178 228 286 348 410
#     4  10  21  42  71  99 124 176 238 287 326 401
#     4  12  26  44  68 104 136 180 230 290 360 402
#
# _framework density 21.260484000000002
#
# number of rings (size 3 to 8) (size 9 to 14) (size 15 to 20)
#    0.000    1.143    2.857    4.286    8.000    1.143 
#    0.000    3.571    0.000    0.000    0.000    0.000 
#    0.000    0.000    0.000    0.000    0.000    0.000 
#
# Total GULP energy -347297.909136 kJ/mol
# GULP energy per Si atom -12403.496755 kJ/mol
# Density = 2.121209 g / cm^3
# Si number density = 21.260484 Si / 1000 Ang^3
#
#
#
# Elastic Constant Matrix: (Units=GPa)
#
#
# Indices 1 2 3 4 5 6 
#
# 1 49.2000 9.5720 15.5822 0.0000 0.0000 0.0000
# 2 9.5720 108.2043 21.6287 0.0000 0.0000 0.0000
# 3 15.5822 21.6287 53.7102 0.0000 0.0000 0.0000
# 4 0.0000 0.0000 0.0000 -13.5190 0.0000 0.0000
# 5 0.0000 0.0000 0.0000 0.0000 28.9236 0.0000
# 6 0.0000 0.0000 0.0000 0.0000 0.0000 36.8067
#
#
#
# Elastic Compliance Matrix: (Units=1/GPa)
#
#
# Indices 1 2 3 4 5 6 
#
# 1 0.022437 -0.000744 -0.006210 0.000000 0.000000 0.000000
# 2 -0.000744 0.010075 -0.003842 0.000000 0.000000 0.000000
# 3 -0.006210 -0.003842 0.021967 0.000000 0.000000 0.000000
# 4 0.000000 0.000000 0.000000 -0.073970 0.000000 0.000000
# 5 0.000000 0.000000 0.000000 0.000000 0.034574 0.000000
# 6 0.000000 0.000000 0.000000 0.000000 0.000000 0.027169
#
#
# Mechanical properties :
#
#
# Convention : Reuss Voigt Hill
#
# Bulk Modulus (GPa) = 30.40515 33.85335 32.12925
# Shear Modulus (GPa) = 66.84070 21.39772 44.11921
#
# Velocity S-wave (km/s) = 5.61313 3.17591 4.56035
# Velocity P-wave (km/s) = 7.50612 5.42275 6.54783
#
# Compressibility (1/GPa) = 0.03288916
#
# Stress axis : x y z
#
# Youngs Moduli (GPa) = 44.57010 99.25132 45.52291
#
# Poissons Ratio (x) = 0.07380 0.28269
# Poissons Ratio (y) = 0.03314 0.17488
# Poissons Ratio (z) = 0.27677 0.38128
#
# Static dielectric constant tensor:
#      x y z
#    x 3.969170 0.000000 0.000000 
#    y 0.000000 4.196500 0.000000 
#    z 0.000000 0.000000 3.792690 
# 
# 
# High freq. dielectric constant tensor:
#      x y z
#    x 1.831630 0.000000 0.000000 
#    y 0.000000 1.855480 0.000000 
#    z 0.000000 0.000000 1.824630 
# 
# From -- ./inp_files/4546.got.cif
#   From: 2010.03.12/outbox.cif.g09.slc.cpg/sg18_3_cif.got.tgz:4546.got - 2010.04.10 18:53:55.
