data_PCOD8156117
_publ_section_title
;
Structure prediction by ZEFSAII (Michael W. Deem and Ramdas Pophale) SiO2 
 PCOD8156117
Probable space group: P 21 21 2
;
_chemical_formula_sum "Si O2"
_cell_formula_units_Z 24
_cell_length_a 8.543241
_cell_length_b 13.677941
_cell_length_c 9.328501
_cell_angle_alpha 90.000000
_cell_angle_beta 90.000000
_cell_angle_gamma 90.000000
_cell_volume 1090.072155
_symmetry_space_group_name_H-M "P 21 21 2"
_symmetry_group_IT_number 18
_symmetry_cell_setting 'orthorhombic'
loop_
_space_group_symop_operation_xyz
x,y,z
-x,-y,z
1/2+x,1/2-y,-z
1/2-x,1/2+y,-z
loop_
_atom_site_type_symbol
_atom_site_label
_atom_site_fract_x
_atom_site_fract_y
_atom_site_fract_z
Si Si1 0.321721 0.534271 0.229208
Si Si2 0.939237 0.774644 0.877395
Si Si3 0.128638 0.302518 0.578747
Si Si4 0.768418 0.117310 0.993595
Si Si5 0.824899 0.029121 0.294364
Si Si6 0.312484 0.118568 0.491276
O O1 0.500000 0.500000 0.253882
O O2 0.317918 0.634833 0.137613
O O3 0.237153 0.546345 0.380657
O O4 0.228300 0.451549 0.141088
O O5 0.968185 0.737268 0.715857
O O6 0.878231 0.685027 0.972307
O O7 0.093469 0.808652 0.956777
O O8 0.271649 0.372437 0.624378
O O9 0.205252 0.215296 0.488298
O O10 0.996069 0.357341 0.485951
O O11 0.814978 0.046208 0.124628
O O12 0.712520 0.939553 0.341883
O O13 0.000000 0.000000 0.340456
#
# Coordination Sequence:
#
# PCOD8156117 Si02
#       6
#     4   4   4   4   4   4
#     4   9  19  39  63  89 123 164 206 255 312 374
#     4   9  20  39  61  89 123 159 205 253 308 376
#     4  10  23  40  63  93 128 168 210 260 312 369
#     4  10  21  40  65  91 122 163 205 256 316 372
#     4  11  22  39  64  94 127 165 210 258 312 374
#     4  11  22  41  64  90 126 165 209 260 314 373
#
# _framework density 22.016891000000001
#
# number of rings (size 3 to 8) (size 9 to 14) (size 15 to 20)
#    0.000    2.000    0.000    3.500    0.000    5.333 
#    0.000   12.500    0.000    0.000    0.000    0.000 
#    0.000    0.000    0.000    0.000    0.000    0.000 
#
# Total GULP energy -297620.878822 kJ/mol
# GULP energy per Si atom -12400.869951 kJ/mol
# Density = 2.196678 g / cm^3
# Si number density = 22.016891 Si / 1000 Ang^3
#
#
#
# Elastic Constant Matrix: (Units=GPa)
#
#
# Indices 1 2 3 4 5 6 
#
# 1 60.7368 37.5539 37.0999 0.0000 0.0000 0.0000
# 2 37.5539 120.1443 52.8963 0.0000 0.0000 0.0000
# 3 37.0999 52.8963 82.3781 0.0000 0.0000 0.0000
# 4 0.0000 0.0000 0.0000 37.1430 0.0000 0.0000
# 5 0.0000 0.0000 0.0000 0.0000 20.5726 0.0000
# 6 0.0000 0.0000 0.0000 0.0000 0.0000 40.7914
#
#
#
# Elastic Compliance Matrix: (Units=1/GPa)
#
#
# Indices 1 2 3 4 5 6 
#
# 1 0.023900 -0.003808 -0.008318 0.000000 0.000000 0.000000
# 2 -0.003808 0.012211 -0.006126 0.000000 0.000000 0.000000
# 3 -0.008318 -0.006126 0.019819 0.000000 0.000000 0.000000
# 4 0.000000 0.000000 0.000000 0.026923 0.000000 0.000000
# 5 0.000000 0.000000 0.000000 0.000000 0.048608 0.000000
# 6 0.000000 0.000000 0.000000 0.000000 0.000000 0.024515
#
#
# Mechanical properties :
#
#
# Convention : Reuss Voigt Hill
#
# Bulk Modulus (GPa) = 51.47945 57.59550 54.53748
# Shear Modulus (GPa) = 25.13125 28.74867 26.93996
#
# Velocity S-wave (km/s) = 3.38221 3.61744 3.50180
# Velocity P-wave (km/s) = 6.21972 6.60790 6.41675
#
# Compressibility (1/GPa) = 0.01942523
#
# Stress axis : x y z
#
# Youngs Moduli (GPa) = 41.84052 81.89624 50.45722
#
# Poissons Ratio (x) = 0.31188 0.41973
# Poissons Ratio (y) = 0.15934 0.30908
# Poissons Ratio (z) = 0.34805 0.50166
#
# Static dielectric constant tensor:
#      x y z
#    x 3.633460 0.000000 0.000000 
#    y 0.000000 4.272980 0.000000 
#    z 0.000000 0.000000 3.899590 
# 
# 
# High freq. dielectric constant tensor:
#      x y z
#    x 1.846500 0.000000 0.000000 
#    y 0.000000 1.888800 0.000000 
#    z 0.000000 0.000000 1.857820 
# 
# From -- ./inp_files/3139.got.cif
#   From: 2010.03.12/outbox.cif.g09.slc.cpg/sg18_2_cif.got.tgz:3139.got - 2010.04.10 18:53:55.
