data_PCOD8156240
_publ_section_title
;
Structure prediction by ZEFSAII (Michael W. Deem and Ramdas Pophale) SiO2 
 PCOD8156240
Probable space group: P 21 21 2
;
_chemical_formula_sum "Si O2"
_cell_formula_units_Z 24
_cell_length_a 8.982073
_cell_length_b 20.961127
_cell_length_c 5.437067
_cell_angle_alpha 90.000000
_cell_angle_beta 90.000000
_cell_angle_gamma 90.000000
_cell_volume 1023.660380
_symmetry_space_group_name_H-M "P 21 21 2"
_symmetry_group_IT_number 18
_symmetry_cell_setting 'orthorhombic'
loop_
_space_group_symop_operation_xyz
x,y,z
-x,-y,z
1/2+x,1/2-y,-z
1/2-x,1/2+y,-z
loop_
_atom_site_type_symbol
_atom_site_label
_atom_site_fract_x
_atom_site_fract_y
_atom_site_fract_z
Si Si1 0.761225 0.681506 0.738743
Si Si2 0.500000 0.500000 0.716160
Si Si3 0.531325 0.615856 0.413369
Si Si4 0.000000 0.500000 0.861917
Si Si5 0.913810 0.369966 0.678888
Si Si6 0.770675 0.062647 0.950812
Si Si7 0.248597 0.171153 0.816779
O O1 0.626548 0.672197 0.541704
O O2 0.724654 0.636320 0.967040
O O3 0.759285 0.753115 0.832524
O O4 0.925583 0.663623 0.641716
O O5 0.444752 0.565977 0.586903
O O6 0.355170 0.485268 0.872159
O O7 0.420739 0.643992 0.204751
O O8 0.653066 0.564668 0.312711
O O9 0.069279 0.553569 0.683520
O O10 0.105721 0.464442 0.056968
O O11 0.824642 0.350404 0.436630
O O12 0.830305 0.350593 0.934019
#
# Coordination Sequence:
#
# PCOD8156240 Si02
#       7
#     4   2   4   2   4   4   4
#     4  10  26  46  69 101 149 189 246 300 373 443
#     4  10  22  42  66 104 140 178 246 300 364 432
#     4  11  25  43  73 103 143 194 240 308 368 435
#     4  10  24  48  70 102 152 186 250 294 372 448
#     4  11  28  48  74 112 143 202 242 311 370 441
#     4  10  23  43  69 101 141 191 235 306 364 432
#     4  12  28  45  76 107 147 190 253 298 373 444
#
# _framework density 23.445274000000001
#
# number of rings (size 3 to 8) (size 9 to 14) (size 15 to 20)
#    0.000    1.333    0.000    2.500   18.667    0.667 
#    0.000    0.000    0.000    0.000    0.000    0.000 
#    0.000    0.000    0.000    0.000    0.000    0.000 
#
# Total GULP energy -297396.533741 kJ/mol
# GULP energy per Si atom -12391.522239 kJ/mol
# Density = 2.339191 g / cm^3
# Si number density = 23.445274 Si / 1000 Ang^3
#
#
#
# Elastic Constant Matrix: (Units=GPa)
#
#
# Indices 1 2 3 4 5 6 
#
# 1 91.1004 37.2005 27.5721 0.0000 0.0000 0.0000
# 2 37.2005 140.5366 31.5725 0.0000 0.0000 0.0000
# 3 27.5721 31.5725 97.7008 0.0000 0.0000 0.0000
# 4 0.0000 0.0000 0.0000 71.5419 0.0000 0.0000
# 5 0.0000 0.0000 0.0000 0.0000 34.5398 0.0000
# 6 0.0000 0.0000 0.0000 0.0000 0.0000 29.0920
#
#
#
# Elastic Compliance Matrix: (Units=1/GPa)
#
#
# Indices 1 2 3 4 5 6 
#
# 1 0.012957 -0.002812 -0.002748 0.000000 0.000000 0.000000
# 2 -0.002812 0.008283 -0.001883 0.000000 0.000000 0.000000
# 3 -0.002748 -0.001883 0.011619 0.000000 0.000000 0.000000
# 4 0.000000 0.000000 0.000000 0.013978 0.000000 0.000000
# 5 0.000000 0.000000 0.000000 0.000000 0.028952 0.000000
# 6 0.000000 0.000000 0.000000 0.000000 0.000000 0.034374
#
#
# Mechanical properties :
#
#
# Convention : Reuss Voigt Hill
#
# Bulk Modulus (GPa) = 55.63923 58.00312 56.82118
# Shear Modulus (GPa) = 38.15620 42.56759 40.36189
#
# Velocity S-wave (km/s) = 4.03855 4.26563 4.15364
# Velocity P-wave (km/s) = 6.74756 7.00387 6.87691
#
# Compressibility (1/GPa) = 0.01797293
#
# Stress axis : x y z
#
# Youngs Moduli (GPa) = 77.17857 120.72791 86.06396
#
# Poissons Ratio (x) = 0.33954 0.23648
# Poissons Ratio (y) = 0.21706 0.16206
# Poissons Ratio (z) = 0.21206 0.22733
#
# Static dielectric constant tensor:
#      x y z
#    x 4.343910 0.000000 0.000000 
#    y 0.000000 4.306090 0.000000 
#    z 0.000000 0.000000 4.009160 
# 
# 
# High freq. dielectric constant tensor:
#      x y z
#    x 1.947270 0.000000 0.000000 
#    y 0.000000 1.942510 0.000000 
#    z 0.000000 0.000000 1.913560 
# 
# From -- ./inp_files/650.got.cif
#   From: 2010.03.12/outbox.cif.g09.slc.cpg/sg18_1_cif.got.tgz:650.got - 2010.04.10 18:53:55.
