data_PCOD8156928
_publ_section_title
;
Structure prediction by ZEFSAII (Michael W. Deem and Ramdas Pophale) SiO2 
 PCOD8156928
Probable space group: P 21 21 21
;
_chemical_formula_sum "Si O2"
_cell_formula_units_Z 28
_cell_length_a 7.505045
_cell_length_b 8.726925
_cell_length_c 17.632893
_cell_angle_alpha 90.000000
_cell_angle_beta 90.000000
_cell_angle_gamma 90.000000
_cell_volume 1154.883340
_symmetry_space_group_name_H-M "P 21 21 21"
_symmetry_group_IT_number 19
_symmetry_cell_setting 'orthorhombic'
loop_
_space_group_symop_operation_xyz
x,y,z
1/2-x,-y,1/2+z
1/2+x,1/2-y,-z
-x,1/2+y,1/2-z
loop_
_atom_site_type_symbol
_atom_site_label
_atom_site_fract_x
_atom_site_fract_y
_atom_site_fract_z
Si Si1 0.901072 0.509695 0.667962
Si Si2 0.133975 0.910935 0.073995
Si Si3 0.141731 0.471310 0.022354
Si Si4 0.594949 0.645508 0.762442
Si Si5 0.009864 0.739629 0.934762
Si Si6 0.290718 0.478175 0.690173
Si Si7 0.257804 0.161627 0.971926
O O1 0.752549 0.536115 0.731624
O O2 0.894479 0.337437 0.632022
O O3 0.869606 0.632931 0.600607
O O4 0.090192 0.530680 0.710682
O O5 0.038095 0.915822 0.154827
O O6 0.312077 0.810016 0.087210
O O7 0.999718 0.838557 0.012353
O O8 0.182455 0.080984 0.047214
O O9 0.216872 0.549973 0.098819
O O10 0.951244 0.403441 0.046753
O O11 0.129609 0.591776 0.953750
O O12 0.272523 0.340896 0.990450
O O13 0.421383 0.618909 0.710278
O O14 0.650031 0.824546 0.764965
#
# Coordination Sequence:
#
# PCOD8156928 Si02
#       7
#     4   4   4   4   4   4   4
#     4  11  24  49  74 110 149 196 254 313 374 458
#     4  10  22  43  71 106 143 191 245 307 367 443
#     4  11  21  44  72 110 149 198 250 315 376 442
#     4  12  27  49  73 112 156 199 250 304 398 451
#     4  10  20  44  74 100 140 193 257 299 364 447
#     4  12  27  50  73 106 156 198 248 315 380 463
#     4  10  23  41  75 110 151 189 254 311 365 444
#
# _framework density 24.244872999999998
#
# number of rings (size 3 to 8) (size 9 to 14) (size 15 to 20)
#    0.000    1.143    4.286    0.857    2.000    2.286 
#    7.714    0.000    0.000    0.000    0.000    0.000 
#    0.000    0.000    0.000    0.000    0.000    0.000 
#
# Total GULP energy -347217.086657 kJ/mol
# GULP energy per Si atom -12400.610238 kJ/mol
# Density = 2.418969 g / cm^3
# Si number density = 24.244873 Si / 1000 Ang^3
#
#
#
# Elastic Constant Matrix: (Units=GPa)
#
#
# Indices 1 2 3 4 5 6 
#
# 1 85.7407 21.3714 13.3110 0.0000 0.0000 0.0000
# 2 21.3714 100.8118 26.1934 0.0000 0.0000 0.0000
# 3 13.3110 26.1934 85.9091 0.0000 0.0000 0.0000
# 4 0.0000 0.0000 0.0000 34.0301 0.0000 0.0000
# 5 0.0000 0.0000 0.0000 0.0000 36.0343 0.0000
# 6 0.0000 0.0000 0.0000 0.0000 0.0000 33.5528
#
#
#
# Elastic Compliance Matrix: (Units=1/GPa)
#
#
# Indices 1 2 3 4 5 6 
#
# 1 0.012430 -0.002318 -0.001219 0.000000 0.000000 0.000000
# 2 -0.002318 0.011205 -0.003057 0.000000 0.000000 0.000000
# 3 -0.001219 -0.003057 0.012761 0.000000 0.000000 0.000000
# 4 0.000000 0.000000 0.000000 0.029386 0.000000 0.000000
# 5 0.000000 0.000000 0.000000 0.000000 0.027751 0.000000
# 6 0.000000 0.000000 0.000000 0.000000 0.000000 0.029804
#
#
# Mechanical properties :
#
#
# Convention : Reuss Voigt Hill
#
# Bulk Modulus (GPa) = 43.08987 43.80147 43.44567
# Shear Modulus (GPa) = 34.65899 34.82918 34.74408
#
# Velocity S-wave (km/s) = 3.78503 3.79431 3.78967
# Velocity P-wave (km/s) = 6.07563 6.10747 6.09157
#
# Compressibility (1/GPa) = 0.02320731
#
# Stress axis : x y z
#
# Youngs Moduli (GPa) = 80.44923 89.24354 78.36226
#
# Poissons Ratio (x) = 0.20690 0.09553
# Poissons Ratio (y) = 0.18651 0.23957
# Poissons Ratio (z) = 0.09808 0.27284
#
# Static dielectric constant tensor:
#      x y z
#    x 4.314450 0.000000 0.000000 
#    y 0.000000 4.421650 0.000000 
#    z 0.000000 0.000000 4.207540 
# 
# 
# High freq. dielectric constant tensor:
#      x y z
#    x 1.966290 0.000000 0.000000 
#    y 0.000000 1.964490 0.000000 
#    z 0.000000 0.000000 1.949410 
# 
# From -- ./inp_files/6615.got.cif
#   From: 2010.03.12/outbox.cif.g09.slc.cpg/sg19_4_cif.got.tgz:6615.got - 2010.04.10 18:59:41.
