data_PCOD8156319
_publ_section_title
;
Structure prediction by ZEFSAII (Michael W. Deem and Ramdas Pophale) SiO2 
 PCOD8156319
Probable space group: P 21 21 2
;
_chemical_formula_sum "Si O2"
_cell_formula_units_Z 12
_cell_length_a 8.792202
_cell_length_b 5.083610
_cell_length_c 11.384470
_cell_angle_alpha 90.000000
_cell_angle_beta 90.000000
_cell_angle_gamma 90.000000
_cell_volume 508.841706
_symmetry_space_group_name_H-M "P 21 21 2"
_symmetry_group_IT_number 18
_symmetry_cell_setting 'orthorhombic'
loop_
_space_group_symop_operation_xyz
x,y,z
-x,-y,z
1/2+x,1/2-y,-z
1/2-x,1/2+y,-z
loop_
_atom_site_type_symbol
_atom_site_label
_atom_site_fract_x
_atom_site_fract_y
_atom_site_fract_z
Si Si1 0.395269 0.750644 0.447730
Si Si2 0.823545 0.552659 0.315504
Si Si3 0.676878 0.076165 0.945891
O O1 0.500000 0.500000 0.450713
O O2 0.273046 0.713097 0.342008
O O3 0.298965 0.757116 0.571083
O O4 0.500000 0.000000 0.421166
O O5 0.781330 0.665090 0.187602
O O6 0.000000 0.500000 0.313875
O O7 0.500000 0.000000 0.962110
O O8 0.718627 0.324109 0.025895
#
# Coordination Sequence:
#
# PCOD8156319 Si02
#       3
#     4   4   4
#     4  11  24  41  66 102 135 168 212 267 330 393
#     4  10  23  43  67  95 133 172 214 266 328 390
#     4  11  26  46  68  95 131 176 223 271 323 383
#
# _framework density 23.582974
#
# number of rings (size 3 to 8) (size 9 to 14) (size 15 to 20)
#    0.000    1.333    0.000    5.000    0.000   17.333 
#    0.000    1.667    0.000    0.000    0.000    0.000 
#    0.000    0.000    0.000    0.000    0.000    0.000 
#
# Total GULP energy -148688.465822 kJ/mol
# GULP energy per Si atom -12390.705485 kJ/mol
# Density = 2.352930 g / cm^3
# Si number density = 23.582974 Si / 1000 Ang^3
#
#
#
# Elastic Constant Matrix: (Units=GPa)
#
#
# Indices 1 2 3 4 5 6 
#
# 1 119.8641 54.1536 59.8693 0.0000 0.0000 0.0000
# 2 54.1536 119.5684 17.9672 0.0000 0.0000 0.0000
# 3 59.8693 17.9672 126.2312 0.0000 0.0000 0.0000
# 4 0.0000 0.0000 0.0000 42.6438 0.0000 0.0000
# 5 0.0000 0.0000 0.0000 0.0000 52.2456 0.0000
# 6 0.0000 0.0000 0.0000 0.0000 0.0000 34.5463
#
#
#
# Elastic Compliance Matrix: (Units=1/GPa)
#
#
# Indices 1 2 3 4 5 6 
#
# 1 0.013573 -0.005293 -0.005684 0.000000 0.000000 0.000000
# 2 -0.005293 0.010611 0.001000 0.000000 0.000000 0.000000
# 3 -0.005684 0.001000 0.010476 0.000000 0.000000 0.000000
# 4 0.000000 0.000000 0.000000 0.023450 0.000000 0.000000
# 5 0.000000 0.000000 0.000000 0.000000 0.019140 0.000000
# 6 0.000000 0.000000 0.000000 0.000000 0.000000 0.028947
#
#
# Mechanical properties :
#
#
# Convention : Reuss Voigt Hill
#
# Bulk Modulus (GPa) = 68.00454 69.96041 68.98248
# Shear Modulus (GPa) = 38.15261 41.46538 39.80900
#
# Velocity S-wave (km/s) = 4.02656 4.19773 4.11303
# Velocity P-wave (km/s) = 7.10749 7.29552 7.20212
#
# Compressibility (1/GPa) = 0.01470490
#
# Stress axis : x y z
#
# Youngs Moduli (GPa) = 73.67357 94.24615 95.46079
#
# Poissons Ratio (x) = 0.49888 0.54262
# Poissons Ratio (y) = 0.38998 -0.09549
# Poissons Ratio (z) = 0.41877 -0.09427
#
# Static dielectric constant tensor:
#      x y z
#    x 5.524370 0.000000 0.000000 
#    y 0.000000 4.413830 0.000000 
#    z 0.000000 0.000000 5.213740 
# 
# 
# High freq. dielectric constant tensor:
#      x y z
#    x 1.961170 0.000000 0.000000 
#    y 0.000000 1.923320 0.000000 
#    z 0.000000 0.000000 1.933010 
# 
# From -- ./inp_files/4900.got.cif
#   From: 2010.03.12/outbox.cif.g09.slc.cpg/sg18_3_cif.got.tgz:4900.got - 2010.04.10 18:53:55.
