data_PCOD8156570
_publ_section_title
;
Structure prediction by ZEFSAII (Michael W. Deem and Ramdas Pophale) SiO2 
 PCOD8156570
Probable space group: P 21 21 21
;
_chemical_formula_sum "Si O2"
_cell_formula_units_Z 32
_cell_length_a 12.765268
_cell_length_b 6.706032
_cell_length_c 21.904228
_cell_angle_alpha 90.000000
_cell_angle_beta 90.000000
_cell_angle_gamma 90.000000
_cell_volume 1875.096011
_symmetry_space_group_name_H-M "P 21 21 21"
_symmetry_group_IT_number 19
_symmetry_cell_setting 'orthorhombic'
loop_
_space_group_symop_operation_xyz
x,y,z
1/2-x,-y,1/2+z
1/2+x,1/2-y,-z
-x,1/2+y,1/2-z
loop_
_atom_site_type_symbol
_atom_site_label
_atom_site_fract_x
_atom_site_fract_y
_atom_site_fract_z
Si Si1 0.542979 0.807490 0.881790
Si Si2 0.597413 0.423656 0.812675
Si Si3 0.576568 0.412399 0.503532
Si Si4 0.305963 0.641159 0.597667
Si Si5 0.883591 0.005499 0.975477
Si Si6 0.587139 0.618848 0.690531
Si Si7 0.425261 0.739845 0.475587
Si Si8 0.205185 0.766252 0.425477
O O1 0.556299 0.582879 0.860944
O O2 0.496928 0.795391 0.949292
O O3 0.653611 0.924272 0.881531
O O4 0.461481 0.924996 0.840018
O O5 0.688829 0.293766 0.845031
O O6 0.641031 0.541348 0.753187
O O7 0.500923 0.281973 0.793510
O O8 0.630300 0.232864 0.465413
O O9 0.501957 0.551783 0.461982
O O10 0.666569 0.542638 0.535809
O O11 0.187570 0.621723 0.574254
O O12 0.383386 0.725018 0.544993
O O13 0.004949 0.062853 0.966509
O O14 0.845114 0.069598 0.043475
O O15 0.672428 0.717867 0.645321
O O16 0.330867 0.749474 0.427398
#
# Coordination Sequence:
#
# PCOD8156570 Si02
#       8
#     4   4   4   4   4   4   4   4
#     4   9  17  30  45  69  97 129 162 199 240 297
#     4  11  18  31  49  71 102 134 161 206 245 291
#     4   9  17  29  49  68  99 134 162 193 245 298
#     4   9  20  30  46  74 100 129 167 197 246 302
#     4  10  18  32  48  72 102 133 164 201 245 295
#     4  10  19  30  48  75 100 131 167 200 249 293
#     4   9  18  32  48  70 102 131 160 201 247 292
#     4   9  19  32  47  75 104 129 165 205 245 296
#
# _framework density 17.065792999999999
#
# number of rings (size 3 to 8) (size 9 to 14) (size 15 to 20)
#    0.000    2.500    1.250    3.750    0.000    6.000 
#    0.000    0.000    0.000    0.000    3.250    0.000 
#    0.000    0.000    0.000    0.000    0.000    0.000 
#
# Total GULP energy -396652.529828 kJ/mol
# GULP energy per Si atom -12395.391557 kJ/mol
# Density = 1.702695 g / cm^3
# Si number density = 17.065793 Si / 1000 Ang^3
#
#
#
# Elastic Constant Matrix: (Units=GPa)
#
#
# Indices 1 2 3 4 5 6 
#
# 1 77.6883 24.7112 28.3555 0.0000 0.0000 0.0000
# 2 24.7112 88.7995 22.9358 0.0000 0.0000 0.0000
# 3 28.3555 22.9358 72.1787 0.0000 0.0000 0.0000
# 4 0.0000 0.0000 0.0000 25.1737 0.0000 0.0000
# 5 0.0000 0.0000 0.0000 0.0000 18.7431 0.0000
# 6 0.0000 0.0000 0.0000 0.0000 0.0000 15.4550
#
#
#
# Elastic Compliance Matrix: (Units=1/GPa)
#
#
# Indices 1 2 3 4 5 6 
#
# 1 0.015742 -0.003032 -0.005221 0.000000 0.000000 0.000000
# 2 -0.003032 0.012852 -0.002893 0.000000 0.000000 0.000000
# 3 -0.005221 -0.002893 0.016825 0.000000 0.000000 0.000000
# 4 0.000000 0.000000 0.000000 0.039724 0.000000 0.000000
# 5 0.000000 0.000000 0.000000 0.000000 0.053353 0.000000
# 6 0.000000 0.000000 0.000000 0.000000 0.000000 0.064704
#
#
# Mechanical properties :
#
#
# Convention : Reuss Voigt Hill
#
# Bulk Modulus (GPa) = 43.23857 43.40792 43.32325
# Shear Modulus (GPa) = 21.44077 22.71862 22.07969
#
# Velocity S-wave (km/s) = 3.54836 3.65257 3.60084
# Velocity P-wave (km/s) = 6.49455 6.57869 6.53676
#
# Compressibility (1/GPa) = 0.02312750
#
# Stress axis : x y z
#
# Youngs Moduli (GPa) = 63.52452 77.80702 59.43652
#
# Poissons Ratio (x) = 0.23593 0.31030
# Poissons Ratio (y) = 0.19262 0.17194
# Poissons Ratio (z) = 0.33164 0.22508
#
# Static dielectric constant tensor:
#      x y z
#    x 3.010720 0.000000 0.000000 
#    y 0.000000 3.271150 0.000000 
#    z 0.000000 0.000000 3.021130 
# 
# 
# High freq. dielectric constant tensor:
#      x y z
#    x 1.631220 0.000000 0.000000 
#    y 0.000000 1.672920 0.000000 
#    z 0.000000 0.000000 1.624240 
# 
# From -- ./inp_files/5587.got.cif
#   From: 2010.03.12/outbox.cif.g09.slc.cpg/sg19_3_cif.got.tgz:5587.got - 2010.04.10 18:59:41.
