data_PCOD8156373
_publ_section_title
;
Structure prediction by ZEFSAII (Michael W. Deem and Ramdas Pophale) SiO2 
 PCOD8156373
Probable space group: P 21 21 2
;
_chemical_formula_sum "Si O2"
_cell_formula_units_Z 22
_cell_length_a 5.516798
_cell_length_b 13.904349
_cell_length_c 12.240840
_cell_angle_alpha 90.000000
_cell_angle_beta 90.000000
_cell_angle_gamma 90.000000
_cell_volume 938.964048
_symmetry_space_group_name_H-M "P 21 21 2"
_symmetry_group_IT_number 18
_symmetry_cell_setting 'orthorhombic'
loop_
_space_group_symop_operation_xyz
x,y,z
-x,-y,z
1/2+x,1/2-y,-z
1/2-x,1/2+y,-z
loop_
_atom_site_type_symbol
_atom_site_label
_atom_site_fract_x
_atom_site_fract_y
_atom_site_fract_z
Si Si1 0.150211 0.595202 0.288666
Si Si2 0.459633 0.611374 0.486946
Si Si3 0.665816 0.635358 0.968789
Si Si4 0.500000 0.500000 0.137071
Si Si5 0.793689 0.741872 0.336682
Si Si6 0.841216 0.319187 0.881560
O O1 0.218709 0.610703 0.414746
O O2 0.383551 0.584604 0.211228
O O3 0.000000 0.500000 0.271833
O O4 0.995510 0.689415 0.260244
O O5 0.500000 0.500000 0.518832
O O6 0.673074 0.661610 0.415723
O O7 0.414409 0.672362 0.595108
O O8 0.413400 0.621913 0.898634
O O9 0.910144 0.620452 0.897943
O O10 0.693369 0.553278 0.061115
O O11 0.658853 0.737653 0.027140
O O12 0.620441 0.786069 0.244719
#
# Coordination Sequence:
#
# PCOD8156373 Si02
#       6
#     4   4   4   2   4   4
#     4  12  23  41  74 111 144 190 256 320 376 456
#     4  12  25  46  71 113 146 195 262 313 385 465
#     4  10  24  44  72 103 147 185 248 316 364 454
#     4  12  26  42  78 110 146 188 262 316 382 454
#     4  12  26  44  77 104 155 204 246 321 390 463
#     4  10  24  45  69 104 144 197 246 296 390 451
#
# _framework density 23.430078999999999
#
# number of rings (size 3 to 8) (size 9 to 14) (size 15 to 20)
#    0.000    0.727    4.545    2.182   12.727    0.000 
#    1.636    0.000    4.000    0.000    0.000    0.000 
#    0.000    0.000    0.000    0.000    0.000    0.000 
#
# Total GULP energy -272660.696747 kJ/mol
# GULP energy per Si atom -12393.668034 kJ/mol
# Density = 2.337675 g / cm^3
# Si number density = 23.430079 Si / 1000 Ang^3
#
#
#
# Elastic Constant Matrix: (Units=GPa)
#
#
# Indices 1 2 3 4 5 6 
#
# 1 150.3516 44.9956 66.7853 0.0000 0.0000 0.0000
# 2 44.9956 91.1790 54.9619 0.0000 0.0000 0.0000
# 3 66.7853 54.9619 116.9067 0.0000 0.0000 0.0000
# 4 0.0000 0.0000 0.0000 -103.8249 0.0000 0.0000
# 5 0.0000 0.0000 0.0000 0.0000 25.4525 0.0000
# 6 0.0000 0.0000 0.0000 0.0000 0.0000 28.7788
#
#
#
# Elastic Compliance Matrix: (Units=1/GPa)
#
#
# Indices 1 2 3 4 5 6 
#
# 1 0.009143 -0.001903 -0.004329 0.000000 0.000000 0.000000
# 2 -0.001903 0.015701 -0.006294 0.000000 0.000000 0.000000
# 3 -0.004329 -0.006294 0.013986 0.000000 0.000000 0.000000
# 4 0.000000 0.000000 0.000000 -0.009632 0.000000 0.000000
# 5 0.000000 0.000000 0.000000 0.000000 0.039289 0.000000
# 6 0.000000 0.000000 0.000000 0.000000 0.000000 0.034748
#
#
# Mechanical properties :
#
#
# Convention : Reuss Voigt Hill
#
# Bulk Modulus (GPa) = 72.57935 76.88033 74.72984
# Shear Modulus (GPa) = 37.62806 2.86092 20.24449
#
# Velocity S-wave (km/s) = 4.01181 1.10621 2.94264
# Velocity P-wave (km/s) = 7.24594 5.87499 6.59618
#
# Compressibility (1/GPa) = 0.01377802
#
# Stress axis : x y z
#
# Youngs Moduli (GPa) = 109.36939 63.69160 71.50033
#
# Poissons Ratio (x) = 0.12119 0.30951
# Poissons Ratio (y) = 0.20811 0.45005
# Poissons Ratio (z) = 0.47343 0.40090
#
# Static dielectric constant tensor:
#      x y z
#    x 5.138380 0.000000 0.000000 
#    y 0.000000 4.132630 0.000000 
#    z 0.000000 0.000000 4.057750 
# 
# 
# High freq. dielectric constant tensor:
#      x y z
#    x 1.935600 0.000000 0.000000 
#    y 0.000000 1.916990 0.000000 
#    z 0.000000 0.000000 1.917620 
# 
# From -- ./inp_files/5100.got.cif
#   From: 2010.03.12/outbox.cif.g09.slc.cpg/sg18_3_cif.got.tgz:5100.got - 2010.04.10 18:53:55.
