data_PCOD8156862
_publ_section_title
;
Structure prediction by ZEFSAII (Michael W. Deem and Ramdas Pophale) SiO2 
 PCOD8156862
Probable space group: P 21 21 21
;
_chemical_formula_sum "Si O2"
_cell_formula_units_Z 32
_cell_length_a 21.112664
_cell_length_b 6.017345
_cell_length_c 11.023845
_cell_angle_alpha 90.000000
_cell_angle_beta 90.000000
_cell_angle_gamma 90.000000
_cell_volume 1400.493336
_symmetry_space_group_name_H-M "P 21 21 21"
_symmetry_group_IT_number 19
_symmetry_cell_setting 'orthorhombic'
loop_
_space_group_symop_operation_xyz
x,y,z
1/2-x,-y,1/2+z
1/2+x,1/2-y,-z
-x,1/2+y,1/2-z
loop_
_atom_site_type_symbol
_atom_site_label
_atom_site_fract_x
_atom_site_fract_y
_atom_site_fract_z
Si Si1 0.877572 0.760379 0.936477
Si Si2 0.265424 0.973156 0.977083
Si Si3 0.310991 0.352046 0.151612
Si Si4 0.692291 0.884340 0.877348
Si Si5 0.100745 0.253264 0.028345
Si Si6 0.338806 0.974763 0.308562
Si Si7 0.419704 0.125557 0.714327
Si Si8 0.489042 0.937587 0.932500
O O1 0.831061 0.661966 0.041785
O O2 0.854159 0.673680 0.806634
O O3 0.866747 0.025484 0.925411
O O4 0.949493 0.694834 0.964520
O O5 0.211067 0.811705 0.030746
O O6 0.277280 0.172693 0.067919
O O7 0.234794 0.062361 0.851425
O O8 0.255104 0.523508 0.190720
O O9 0.343472 0.235122 0.268433
O O10 0.642506 0.782334 0.780656
O O11 0.659535 0.080669 0.954800
O O12 0.037517 0.395789 0.001869
O O13 0.092710 0.108637 0.149284
O O14 0.112402 0.088003 0.915179
O O15 0.476079 0.254509 0.647563
O O16 0.440652 0.080640 0.851478
#
# Coordination Sequence:
#
# PCOD8156862 Si02
#       8
#     4   4   4   4   4   4   4   4
#     4  10  26  42  65 102 144 182 229 301 355 420
#     4  10  21  42  66  99 138 182 225 275 353 434
#     4  10  22  41  66 104 140 182 227 287 352 433
#     4  10  20  39  69 103 136 177 232 283 356 415
#     4  11  23  43  73  97 139 188 242 291 347 434
#     4  11  23  43  69 101 143 184 234 283 362 437
#     4  11  22  42  73  96 134 188 238 298 345 419
#     4  11  25  46  65 104 138 183 245 294 352 410
#
# _framework density 22.849091000000001
#
# number of rings (size 3 to 8) (size 9 to 14) (size 15 to 20)
#    0.000    1.500    3.750    0.000    1.750    6.000 
#    2.250    3.750    0.000    0.000    0.000    0.000 
#    0.000    0.000    0.000    0.000    0.000    0.000 
#
# Total GULP energy -396685.989066 kJ/mol
# GULP energy per Si atom -12396.437158 kJ/mol
# Density = 2.279709 g / cm^3
# Si number density = 22.849091 Si / 1000 Ang^3
#
#
#
# Elastic Constant Matrix: (Units=GPa)
#
#
# Indices 1 2 3 4 5 6 
#
# 1 119.4553 63.5205 39.8087 0.0000 0.0000 0.0000
# 2 63.5205 128.0127 40.0779 0.0000 0.0000 0.0000
# 3 39.8087 40.0779 70.6544 0.0000 0.0000 0.0000
# 4 0.0000 0.0000 0.0000 31.3482 0.0000 0.0000
# 5 0.0000 0.0000 0.0000 0.0000 35.5566 0.0000
# 6 0.0000 0.0000 0.0000 0.0000 0.0000 39.8606
#
#
#
# Elastic Compliance Matrix: (Units=1/GPa)
#
#
# Indices 1 2 3 4 5 6 
#
# 1 0.012330 -0.004795 -0.004227 0.000000 0.000000 0.000000
# 2 -0.004795 0.011363 -0.003744 0.000000 0.000000 0.000000
# 3 -0.004227 -0.003744 0.018659 0.000000 0.000000 0.000000
# 4 0.000000 0.000000 0.000000 0.031900 0.000000 0.000000
# 5 0.000000 0.000000 0.000000 0.000000 0.028124 0.000000
# 6 0.000000 0.000000 0.000000 0.000000 0.000000 0.025087
#
#
# Mechanical properties :
#
#
# Convention : Reuss Voigt Hill
#
# Bulk Modulus (GPa) = 59.45389 67.21517 63.33453
# Shear Modulus (GPa) = 31.52563 33.00078 32.26321
#
# Velocity S-wave (km/s) = 3.71850 3.80451 3.76175
# Velocity P-wave (km/s) = 6.67181 6.98426 6.82982
#
# Compressibility (1/GPa) = 0.01681976
#
# Stress axis : x y z
#
# Youngs Moduli (GPa) = 81.10594 88.00475 53.59367
#
# Poissons Ratio (x) = 0.42194 0.22655
# Poissons Ratio (y) = 0.38887 0.20066
# Poissons Ratio (z) = 0.34285 0.32950
#
# Static dielectric constant tensor:
#      x y z
#    x 4.257500 0.000000 0.000000 
#    y 0.000000 4.528600 0.000000 
#    z 0.000000 0.000000 3.813490 
# 
# 
# High freq. dielectric constant tensor:
#      x y z
#    x 1.900760 0.000000 0.000000 
#    y 0.000000 1.922150 0.000000 
#    z 0.000000 0.000000 1.871820 
# 
# From -- ./inp_files/5474.got.cif
#   From: 2010.03.12/outbox.cif.g09.slc.cpg/sg19_3_cif.got.tgz:5474.got - 2010.04.10 18:59:41.
