data_PCOD8156650
_publ_section_title
;
Structure prediction by ZEFSAII (Michael W. Deem and Ramdas Pophale) SiO2 
 PCOD8156650
Probable space group: P 21 21 21
;
_chemical_formula_sum "Si O2"
_cell_formula_units_Z 28
_cell_length_a 7.493964
_cell_length_b 8.682397
_cell_length_c 19.333170
_cell_angle_alpha 90.000000
_cell_angle_beta 90.000000
_cell_angle_gamma 90.000000
_cell_volume 1257.923737
_symmetry_space_group_name_H-M "P 21 21 21"
_symmetry_group_IT_number 19
_symmetry_cell_setting 'orthorhombic'
loop_
_space_group_symop_operation_xyz
x,y,z
1/2-x,-y,1/2+z
1/2+x,1/2-y,-z
-x,1/2+y,1/2-z
loop_
_atom_site_type_symbol
_atom_site_label
_atom_site_fract_x
_atom_site_fract_y
_atom_site_fract_z
Si Si1 0.130622 0.351818 0.368500
Si Si2 0.799988 0.518320 0.314879
Si Si3 0.912857 0.524468 0.168583
Si Si4 0.398225 0.783410 0.331278
Si Si5 0.273791 0.368058 0.950423
Si Si6 0.413143 0.471944 0.264997
Si Si7 0.865836 0.796704 0.403163
O O1 0.202830 0.449528 0.433679
O O2 0.257639 0.381361 0.303038
O O3 0.925107 0.396271 0.353766
O O4 0.134099 0.168258 0.381925
O O5 0.914756 0.579637 0.248413
O O6 0.611292 0.439373 0.297386
O O7 0.754403 0.668197 0.361306
O O8 0.772158 0.389546 0.164792
O O9 0.098717 0.448055 0.144197
O O10 0.397377 0.695579 0.405739
O O11 0.378528 0.655424 0.269313
O O12 0.568150 0.895278 0.312747
O O13 0.449847 0.278355 0.927944
O O14 0.247431 0.350853 0.031402
#
# Coordination Sequence:
#
# PCOD8156650 Si02
#       7
#     4   4   4   4   4   4   4
#     4  10  21  38  59  90 125 157 196 261 297 360
#     4  10  21  37  62  92 118 157 206 250 301 362
#     4  10  20  39  62  90 125 159 200 257 312 349
#     4   9  19  34  58  91 117 157 196 245 297 360
#     4   9  21  38  60  86 119 162 206 241 306 366
#     4  10  19  35  61  89 126 153 200 249 308 353
#     4  10  21  39  64  86 122 161 204 249 301 374
#
# _framework density 22.258901000000002
#
# number of rings (size 3 to 8) (size 9 to 14) (size 15 to 20)
#    0.000    2.286    0.000    3.429    4.000    2.286 
#    0.000    7.143    0.000    0.000    0.000    0.000 
#    0.000    0.000    0.000    0.000    0.000    0.000 
#
# Total GULP energy -346884.874334 kJ/mol
# GULP energy per Si atom -12388.745512 kJ/mol
# Density = 2.220824 g / cm^3
# Si number density = 22.258901 Si / 1000 Ang^3
#
#
#
# Elastic Constant Matrix: (Units=GPa)
#
#
# Indices 1 2 3 4 5 6 
#
# 1 57.1532 16.4198 -20.9940 0.0000 0.0000 0.0000
# 2 16.4198 122.9502 3.9745 0.0000 0.0000 0.0000
# 3 -20.9940 3.9745 30.1827 0.0000 0.0000 0.0000
# 4 0.0000 0.0000 0.0000 23.2426 0.0000 0.0000
# 5 0.0000 0.0000 0.0000 0.0000 22.5487 0.0000
# 6 0.0000 0.0000 0.0000 0.0000 0.0000 26.7342
#
#
#
# Elastic Compliance Matrix: (Units=1/GPa)
#
#
# Indices 1 2 3 4 5 6 
#
# 1 0.025288 -0.003963 0.018111 0.000000 0.000000 0.000000
# 2 -0.003963 0.008789 -0.003914 0.000000 0.000000 0.000000
# 3 0.018111 -0.003914 0.046244 0.000000 0.000000 0.000000
# 4 0.000000 0.000000 0.000000 0.043025 0.000000 0.000000
# 5 0.000000 0.000000 0.000000 0.000000 0.044348 0.000000
# 6 0.000000 0.000000 0.000000 0.000000 0.000000 0.037405
#
#
# Mechanical properties :
#
#
# Convention : Reuss Voigt Hill
#
# Bulk Modulus (GPa) = 9.92147 23.23185 16.57666
# Shear Modulus (GPa) = 22.91193 28.56415 25.73804
#
# Velocity S-wave (km/s) = 3.21181 3.58616 3.40413
# Velocity P-wave (km/s) = 4.26864 5.25425 4.78688
#
# Compressibility (1/GPa) = 0.10079156
#
# Stress axis : x y z
#
# Youngs Moduli (GPa) = 39.54436 113.77743 21.62423
#
# Poissons Ratio (x) = 0.45086 -0.39164
# Poissons Ratio (y) = 0.15670 0.08463
# Poissons Ratio (z) = -0.71620 0.44528
#
# Static dielectric constant tensor:
#      x y z
#    x 4.019020 0.000000 0.000000 
#    y 0.000000 4.321280 0.000000 
#    z 0.000000 0.000000 4.149790 
# 
# 
# High freq. dielectric constant tensor:
#      x y z
#    x 1.887040 0.000000 0.000000 
#    y 0.000000 1.881540 0.000000 
#    z 0.000000 0.000000 1.841550 
# 
# From -- ./inp_files/2987.got.cif
#   From: 2010.03.12/outbox.cif.g09.slc.cpg/sg19_2_cif.got.tgz:2987.got - 2010.04.10 18:59:41.
