data_PCOD8156175
_publ_section_title
;
Structure prediction by ZEFSAII (Michael W. Deem and Ramdas Pophale) SiO2 
 PCOD8156175
Probable space group: P 21 21 2
;
_chemical_formula_sum "Si O2"
_cell_formula_units_Z 26
_cell_length_a 16.519819
_cell_length_b 5.362432
_cell_length_c 14.191241
_cell_angle_alpha 90.000000
_cell_angle_beta 90.000000
_cell_angle_gamma 90.000000
_cell_volume 1257.151037
_symmetry_space_group_name_H-M "P 21 21 2"
_symmetry_group_IT_number 18
_symmetry_cell_setting 'orthorhombic'
loop_
_space_group_symop_operation_xyz
x,y,z
-x,-y,z
1/2+x,1/2-y,-z
1/2-x,1/2+y,-z
loop_
_atom_site_type_symbol
_atom_site_label
_atom_site_fract_x
_atom_site_fract_y
_atom_site_fract_z
Si Si1 0.145678 0.357684 0.970340
Si Si2 0.784565 0.503898 0.541113
Si Si3 0.212234 0.181353 0.279188
Si Si4 0.582252 0.644512 0.771805
Si Si5 0.094838 0.523954 0.394714
Si Si6 0.000000 0.500000 0.085440
Si Si7 0.796206 0.138691 0.891319
O O1 0.149091 0.614619 0.910074
O O2 0.151674 0.112415 0.905001
O O3 0.218112 0.362176 0.043544
O O4 0.058157 0.329643 0.021508
O O5 0.764948 0.790537 0.515806
O O6 0.774573 0.468555 0.652992
O O7 0.875965 0.451658 0.503014
O O8 0.142739 0.300605 0.344001
O O9 0.266691 0.367722 0.217652
O O10 0.161510 0.018306 0.200748
O O11 0.500000 0.500000 0.757554
O O12 0.612628 0.736864 0.669480
O O13 0.564943 0.851017 0.850648
O O14 0.000000 0.500000 0.393032
#
# Coordination Sequence:
#
# PCOD8156175 Si02
#       7
#     4   4   4   4   4   2   4
#     4  10  24  41  61  92 127 167 209 266 331 384
#     4  10  22  38  60  91 132 168 209 253 315 382
#     4  11  23  38  64  91 129 170 221 261 316 392
#     4  12  21  34  60  98 131 160 205 272 330 386
#     4  11  21  38  57  98 131 163 203 266 328 378
#     4  12  26  38  64 100 128 168 214 280 340 386
#     4  10  23  41  61  90 127 170 214 259 318 389
#
# _framework density 20.681681999999999
#
# number of rings (size 3 to 8) (size 9 to 14) (size 15 to 20)
#    0.000    1.231    3.846    1.846   10.769    0.000 
#    0.000    0.000    1.692    0.000   16.000    0.000 
#    0.000    0.000    0.000    0.000    0.000    0.000 
#
# Total GULP energy -322105.037787 kJ/mol
# GULP energy per Si atom -12388.655299 kJ/mol
# Density = 2.063461 g / cm^3
# Si number density = 20.681682 Si / 1000 Ang^3
#
#
#
# Elastic Constant Matrix: (Units=GPa)
#
#
# Indices 1 2 3 4 5 6 
#
# 1 55.1803 27.0274 55.7883 0.0000 0.0000 0.0000
# 2 27.0274 107.4123 32.8573 0.0000 0.0000 0.0000
# 3 55.7883 32.8573 91.7619 0.0000 0.0000 0.0000
# 4 0.0000 0.0000 0.0000 18.5761 0.0000 0.0000
# 5 0.0000 0.0000 0.0000 0.0000 29.0278 0.0000
# 6 0.0000 0.0000 0.0000 0.0000 0.0000 31.1988
#
#
#
# Elastic Compliance Matrix: (Units=1/GPa)
#
#
# Indices 1 2 3 4 5 6 
#
# 1 0.048209 -0.003554 -0.028037 0.000000 0.000000 0.000000
# 2 -0.003554 0.010717 -0.001677 0.000000 0.000000 0.000000
# 3 -0.028037 -0.001677 0.028544 0.000000 0.000000 0.000000
# 4 0.000000 0.000000 0.000000 0.053833 0.000000 0.000000
# 5 0.000000 0.000000 0.000000 0.000000 0.034450 0.000000
# 6 0.000000 0.000000 0.000000 0.000000 0.000000 0.032053
#
#
# Mechanical properties :
#
#
# Convention : Reuss Voigt Hill
#
# Bulk Modulus (GPa) = 47.76824 53.96674 50.86749
# Shear Modulus (GPa) = 17.77343 25.00598 21.38971
#
# Velocity S-wave (km/s) = 2.93470 3.48097 3.21944
# Velocity P-wave (km/s) = 5.88475 6.50437 6.20230
#
# Compressibility (1/GPa) = 0.02093441
#
# Stress axis : x y z
#
# Youngs Moduli (GPa) = 20.74293 93.30871 35.03389
#
# Poissons Ratio (x) = 0.33163 0.98225
# Poissons Ratio (y) = 0.07372 0.05874
# Poissons Ratio (z) = 0.58157 0.15645
#
# Static dielectric constant tensor:
#      x y z
#    x 3.829910 0.000000 0.000000 
#    y 0.000000 4.092900 0.000000 
#    z 0.000000 0.000000 3.865640 
# 
# 
# High freq. dielectric constant tensor:
#      x y z
#    x 1.790380 0.000000 0.000000 
#    y 0.000000 1.821860 0.000000 
#    z 0.000000 0.000000 1.790130 
# 
# From -- ./inp_files/6191.got.cif
#   From: 2010.03.12/outbox.cif.g09.slc.cpg/sg18_4_cif.got.tgz:6191.got - 2010.04.10 18:53:55.
