data_PCOD8156847
_publ_section_title
;
Structure prediction by ZEFSAII (Michael W. Deem and Ramdas Pophale) SiO2 
 PCOD8156847
Probable space group: P 21 21 21
;
_chemical_formula_sum "Si O2"
_cell_formula_units_Z 32
_cell_length_a 6.820150
_cell_length_b 26.612997
_cell_length_c 9.009727
_cell_angle_alpha 90.000000
_cell_angle_beta 90.000000
_cell_angle_gamma 90.000000
_cell_volume 1635.307179
_symmetry_space_group_name_H-M "P 21 21 21"
_symmetry_group_IT_number 19
_symmetry_cell_setting 'orthorhombic'
loop_
_space_group_symop_operation_xyz
x,y,z
1/2-x,-y,1/2+z
1/2+x,1/2-y,-z
-x,1/2+y,1/2-z
loop_
_atom_site_type_symbol
_atom_site_label
_atom_site_fract_x
_atom_site_fract_y
_atom_site_fract_z
Si Si1 0.928816 0.548957 0.162941
Si Si2 0.651615 0.633698 0.104343
Si Si3 0.473322 0.812922 0.419300
Si Si4 0.864178 0.940797 0.744078
Si Si5 0.336892 0.982849 0.158689
Si Si6 0.678687 0.624144 0.767998
Si Si7 0.640370 0.706852 0.358696
Si Si8 0.863717 0.869070 0.474934
O O1 0.854718 0.606292 0.149060
O O2 0.839399 0.521676 0.307497
O O3 0.159124 0.549791 0.178964
O O4 0.860953 0.518376 0.017979
O O5 0.475846 0.596699 0.146851
O O6 0.646311 0.686366 0.190742
O O7 0.629280 0.644885 0.930805
O O8 0.318205 0.834352 0.303339
O O9 0.578468 0.764555 0.349886
O O10 0.356502 0.798900 0.569571
O O11 0.638751 0.854311 0.449281
O O12 0.858303 0.917875 0.579097
O O13 0.967716 0.995144 0.735360
O O14 0.293150 0.928444 0.226226
O O15 0.476032 0.617100 0.677437
O O16 0.476922 0.676791 0.449298
#
# Coordination Sequence:
#
# PCOD8156847 Si02
#       8
#     4   4   4   4   4   4   4   4
#     4  10  21  38  59  86 116 161 196 241 298 349
#     4   9  21  41  57  84 125 151 192 247 296 353
#     4  11  21  38  63  86 115 152 198 246 299 352
#     4  10  21  37  63  88 111 163 204 238 293 350
#     4  10  22  38  57  83 125 153 197 244 289 352
#     4  10  23  39  55  86 123 155 186 246 301 350
#     4  10  20  39  62  85 114 153 197 248 293 354
#     4  10  21  38  62  88 115 150 208 246 289 358
#
# _framework density 19.568189
#
# number of rings (size 3 to 8) (size 9 to 14) (size 15 to 20)
#    0.000    2.000    1.250    1.500    0.000   10.000 
#    2.250    0.000    0.000    0.000    0.000    0.000 
#    0.000    0.000    0.000    0.000    0.000    0.000 
#
# Total GULP energy -396871.027873 kJ/mol
# GULP energy per Si atom -12402.219621 kJ/mol
# Density = 1.952365 g / cm^3
# Si number density = 19.568189 Si / 1000 Ang^3
#
#
#
# Elastic Constant Matrix: (Units=GPa)
#
#
# Indices 1 2 3 4 5 6 
#
# 1 117.9005 20.9415 49.4090 0.0000 0.0000 0.0000
# 2 20.9415 64.4218 41.9493 0.0000 0.0000 0.0000
# 3 49.4090 41.9493 125.7035 0.0000 0.0000 0.0000
# 4 0.0000 0.0000 0.0000 21.9270 0.0000 0.0000
# 5 0.0000 0.0000 0.0000 0.0000 22.4345 0.0000
# 6 0.0000 0.0000 0.0000 0.0000 0.0000 19.9504
#
#
#
# Elastic Compliance Matrix: (Units=1/GPa)
#
#
# Indices 1 2 3 4 5 6 
#
# 1 0.010195 -0.000900 -0.003707 0.000000 0.000000 0.000000
# 2 -0.000900 0.019912 -0.006291 0.000000 0.000000 0.000000
# 3 -0.003707 -0.006291 0.011512 0.000000 0.000000 0.000000
# 4 0.000000 0.000000 0.000000 0.045606 0.000000 0.000000
# 5 0.000000 0.000000 0.000000 0.000000 0.044574 0.000000
# 6 0.000000 0.000000 0.000000 0.000000 0.000000 0.050124
#
#
# Mechanical properties :
#
#
# Convention : Reuss Voigt Hill
#
# Bulk Modulus (GPa) = 50.44845 59.18061 54.81453
# Shear Modulus (GPa) = 23.77253 25.91077 24.84165
#
# Velocity S-wave (km/s) = 3.48926 3.64280 3.56686
# Velocity P-wave (km/s) = 6.48614 6.92837 6.71090
#
# Compressibility (1/GPa) = 0.01982221
#
# Stress axis : x y z
#
# Youngs Moduli (GPa) = 98.08647 50.22132 86.86853
#
# Poissons Ratio (x) = 0.04522 0.32201
# Poissons Ratio (y) = 0.08831 0.54649
# Poissons Ratio (z) = 0.36359 0.31594
#
# Static dielectric constant tensor:
#      x y z
#    x 3.594710 0.000000 0.000000 
#    y 0.000000 3.499020 0.000000 
#    z 0.000000 0.000000 3.543690 
# 
# 
# High freq. dielectric constant tensor:
#      x y z
#    x 1.767690 0.000000 0.000000 
#    y 0.000000 1.759690 0.000000 
#    z 0.000000 0.000000 1.759960 
# 
# From -- ./inp_files/2524.got.cif
#   From: 2010.03.12/outbox.cif.g09.slc.cpg/sg19_2_cif.got.tgz:2524.got - 2010.04.10 18:59:41.
