data_PCOD8156203
_publ_section_title
;
Structure prediction by ZEFSAII (Michael W. Deem and Ramdas Pophale) SiO2 
 PCOD8156203
Probable space group: P 21 21 2
;
_chemical_formula_sum "Si O2"
_cell_formula_units_Z 24
_cell_length_a 19.761564
_cell_length_b 8.983692
_cell_length_c 5.510491
_cell_angle_alpha 90.000000
_cell_angle_beta 90.000000
_cell_angle_gamma 90.000000
_cell_volume 978.287410
_symmetry_space_group_name_H-M "P 21 21 2"
_symmetry_group_IT_number 18
_symmetry_cell_setting 'orthorhombic'
loop_
_space_group_symop_operation_xyz
x,y,z
-x,-y,z
1/2+x,1/2-y,-z
1/2-x,1/2+y,-z
loop_
_atom_site_type_symbol
_atom_site_label
_atom_site_fract_x
_atom_site_fract_y
_atom_site_fract_z
Si Si1 0.281317 0.499932 0.977348
Si Si2 0.245361 0.260603 0.319381
Si Si3 0.577808 0.045936 0.153750
Si Si4 0.625570 0.619049 0.605537
Si Si5 0.573795 0.928591 0.650515
Si Si6 0.364751 0.668882 0.341161
O O1 0.239976 0.590760 0.771567
O O2 0.351651 0.434925 0.870830
O O3 0.235746 0.368647 0.086507
O O4 0.301367 0.616296 0.183580
O O5 0.307301 0.312318 0.482896
O O6 0.172021 0.264352 0.447953
O O7 0.584852 0.225688 0.186042
O O8 0.500000 0.000000 0.137061
O O9 0.610934 0.974196 0.397709
O O10 0.611118 0.985665 0.899449
O O11 0.569694 0.747753 0.644765
O O12 0.596883 0.477891 0.451016
O O13 0.500000 0.000000 0.643397
#
# Coordination Sequence:
#
# PCOD8156203 Si02
#       6
#     4   4   4   4   4   4
#     4  10  22  40  62  93 143 180 232 278 354 428
#     4  10  22  40  60 102 134 186 224 282 352 432
#     4  10  24  46  72 100 135 180 243 298 352 416
#     4  10  23  42  66  99 142 184 233 292 359 428
#     4  10  24  46  72 100 135 180 243 298 352 416
#     4  10  23  42  66  99 142 184 233 292 359 428
#
# _framework density 24.532668999999999
#
# number of rings (size 3 to 8) (size 9 to 14) (size 15 to 20)
#    0.000    2.000    0.000    1.000    9.333    6.667 
#    3.000    3.333    0.000    0.000    0.000    0.000 
#    0.000    0.000    0.000    0.000    0.000    0.000 
#
# Total GULP energy -297336.238031 kJ/mol
# GULP energy per Si atom -12389.009918 kJ/mol
# Density = 2.447683 g / cm^3
# Si number density = 24.532669 Si / 1000 Ang^3
#
#
#
# Elastic Constant Matrix: (Units=GPa)
#
#
# Indices 1 2 3 4 5 6 
#
# 1 39.2668 33.7764 -2.9499 0.0000 0.0000 0.0000
# 2 33.7764 157.3208 34.4111 0.0000 0.0000 0.0000
# 3 -2.9499 34.4111 141.7644 0.0000 0.0000 0.0000
# 4 0.0000 0.0000 0.0000 53.7592 0.0000 0.0000
# 5 0.0000 0.0000 0.0000 0.0000 12.3871 0.0000
# 6 0.0000 0.0000 0.0000 0.0000 0.0000 49.5140
#
#
#
# Elastic Compliance Matrix: (Units=1/GPa)
#
#
# Indices 1 2 3 4 5 6 
#
# 1 0.032032 -0.007417 0.002467 0.000000 0.000000 0.000000
# 2 -0.007417 0.008430 -0.002201 0.000000 0.000000 0.000000
# 3 0.002467 -0.002201 0.007639 0.000000 0.000000 0.000000
# 4 0.000000 0.000000 0.000000 0.018601 0.000000 0.000000
# 5 0.000000 0.000000 0.000000 0.000000 0.080729 0.000000
# 6 0.000000 0.000000 0.000000 0.000000 0.000000 0.020196
#
#
# Mechanical properties :
#
#
# Convention : Reuss Voigt Hill
#
# Bulk Modulus (GPa) = 29.58543 52.09189 40.83866
# Shear Modulus (GPa) = 25.88040 41.33968 33.61004
#
# Velocity S-wave (km/s) = 3.25150 4.10943 3.70538
# Velocity P-wave (km/s) = 5.11685 6.61788 5.91517
#
# Compressibility (1/GPa) = 0.03380043
#
# Stress axis : x y z
#
# Youngs Moduli (GPa) = 31.21889 118.62193 130.89942
#
# Poissons Ratio (x) = 0.87979 -0.32291
# Poissons Ratio (y) = 0.23154 0.28806
# Poissons Ratio (z) = -0.07701 0.26104
#
# Static dielectric constant tensor:
#      x y z
#    x 3.563580 0.000000 0.000000 
#    y 0.000000 4.836990 0.000000 
#    z 0.000000 0.000000 5.673470 
# 
# 
# High freq. dielectric constant tensor:
#      x y z
#    x 1.913360 0.000000 0.000000 
#    y 0.000000 1.992690 0.000000 
#    z 0.000000 0.000000 2.002140 
# 
# From -- ./inp_files/2072.got.cif
#   From: 2010.03.12/outbox.cif.g09.slc.cpg/sg18_2_cif.got.tgz:2072.got - 2010.04.10 18:53:55.
