data_PCOD8156282
_publ_section_title
;
Structure prediction by ZEFSAII (Michael W. Deem and Ramdas Pophale) SiO2 
 PCOD8156282
Probable space group: P 21 21 2
;
_chemical_formula_sum "Si O2"
_cell_formula_units_Z 32
_cell_length_a 8.671438
_cell_length_b 14.380654
_cell_length_c 11.575237
_cell_angle_alpha 90.000000
_cell_angle_beta 90.000000
_cell_angle_gamma 90.000000
_cell_volume 1443.443045
_symmetry_space_group_name_H-M "P 21 21 2"
_symmetry_group_IT_number 18
_symmetry_cell_setting 'orthorhombic'
loop_
_space_group_symop_operation_xyz
x,y,z
-x,-y,z
1/2+x,1/2-y,-z
1/2-x,1/2+y,-z
loop_
_atom_site_type_symbol
_atom_site_label
_atom_site_fract_x
_atom_site_fract_y
_atom_site_fract_z
Si Si1 0.068271 0.274440 0.668627
Si Si2 0.154657 0.051632 0.380626
Si Si3 0.264263 0.748869 0.551512
Si Si4 0.649563 0.043313 0.207796
Si Si5 0.871405 0.816265 0.913430
Si Si6 0.311471 0.354697 0.992612
Si Si7 0.683847 0.501777 0.180479
Si Si8 0.165945 0.459515 0.416056
O O1 0.213411 0.242509 0.588407
O O2 0.092683 0.382529 0.696433
O O3 0.063270 0.218632 0.789287
O O4 0.912903 0.258695 0.593067
O O5 0.136590 0.162559 0.397716
O O6 0.271781 0.041057 0.274812
O O7 0.210940 0.997951 0.494021
O O8 0.000000 0.000000 0.342882
O O9 0.336342 0.847329 0.590744
O O10 0.770321 0.085496 0.118977
O O11 0.500000 0.000000 0.143262
O O12 0.768517 0.744552 0.983583
O O13 0.773098 0.909505 0.892405
O O14 0.006694 0.838981 0.003145
O O15 0.261928 0.408243 0.108660
O O16 0.500000 0.500000 0.205922
O O17 0.783132 0.498946 0.294617
O O18 0.000000 0.500000 0.449399
#
# Coordination Sequence:
#
# PCOD8156282 Si02
#       8
#     4   4   4   4   4   4   4   4
#     4  11  23  42  69 101 143 182 233 293 350 434
#     4  12  25  43  65 101 145 183 231 286 357 430
#     4  12  23  41  70  99 138 191 230 281 360 425
#     4  11  23  47  67  99 143 182 229 297 359 417
#     4  10  23  46  68  99 138 182 236 293 357 418
#     4  10  24  44  73  99 133 183 235 289 356 418
#     4  10  22  45  68  97 136 178 233 295 350 413
#     4  12  25  43  69 103 141 183 239 292 352 432
#
# _framework density 22.169215000000001
#
# number of rings (size 3 to 8) (size 9 to 14) (size 15 to 20)
#    0.000    1.000    2.500    4.500    0.000    5.000 
#    9.000    0.000    0.000    0.000    0.000    0.000 
#    0.000    0.000    0.000    0.000    0.000    0.000 
#
# Total GULP energy -396747.953540 kJ/mol
# GULP energy per Si atom -12398.373548 kJ/mol
# Density = 2.211876 g / cm^3
# Si number density = 22.169215 Si / 1000 Ang^3
#
#
#
# Elastic Constant Matrix: (Units=GPa)
#
#
# Indices 1 2 3 4 5 6 
#
# 1 72.5917 39.2210 41.6975 0.0000 0.0000 0.0000
# 2 39.2210 142.1377 19.5669 0.0000 0.0000 0.0000
# 3 41.6975 19.5669 67.9789 0.0000 0.0000 0.0000
# 4 0.0000 0.0000 0.0000 28.0086 0.0000 0.0000
# 5 0.0000 0.0000 0.0000 0.0000 42.0462 0.0000
# 6 0.0000 0.0000 0.0000 0.0000 0.0000 37.6254
#
#
#
# Elastic Compliance Matrix: (Units=1/GPa)
#
#
# Indices 1 2 3 4 5 6 
#
# 1 0.024046 -0.004795 -0.013369 0.000000 0.000000 0.000000
# 2 -0.004795 0.008282 0.000557 0.000000 0.000000 0.000000
# 3 -0.013369 0.000557 0.022751 0.000000 0.000000 0.000000
# 4 0.000000 0.000000 0.000000 0.035703 0.000000 0.000000
# 5 0.000000 0.000000 0.000000 0.000000 0.023783 0.000000
# 6 0.000000 0.000000 0.000000 0.000000 0.000000 0.026578
#
#
# Mechanical properties :
#
#
# Convention : Reuss Voigt Hill
#
# Bulk Modulus (GPa) = 50.34084 53.74212 52.04148
# Shear Modulus (GPa) = 27.32576 33.68422 30.50499
#
# Velocity S-wave (km/s) = 3.51465 3.90220 3.71348
# Velocity P-wave (km/s) = 6.26316 6.67812 6.47396
#
# Compressibility (1/GPa) = 0.01986459
#
# Stress axis : x y z
#
# Youngs Moduli (GPa) = 41.58752 120.74751 43.95485
#
# Poissons Ratio (x) = 0.57894 0.58764
# Poissons Ratio (y) = 0.19940 -0.02449
# Poissons Ratio (z) = 0.55599 -0.06728
#
# Static dielectric constant tensor:
#      x y z
#    x 3.998010 0.000000 0.000000 
#    y 0.000000 4.369510 0.000000 
#    z 0.000000 0.000000 3.927500 
# 
# 
# High freq. dielectric constant tensor:
#      x y z
#    x 1.861220 0.000000 0.000000 
#    y 0.000000 1.895320 0.000000 
#    z 0.000000 0.000000 1.870510 
# 
# From -- ./inp_files/5684.got.cif
#   From: 2010.03.12/outbox.cif.g09.slc.cpg/sg18_3_cif.got.tgz:5684.got - 2010.04.10 18:53:55.
