data_PCOD8156937
_publ_section_title
;
Structure prediction by ZEFSAII (Michael W. Deem and Ramdas Pophale) SiO2 
 PCOD8156937
Probable space group: P 21 21 21
;
_chemical_formula_sum "Si O2"
_cell_formula_units_Z 20
_cell_length_a 24.683070
_cell_length_b 7.852757
_cell_length_c 5.022604
_cell_angle_alpha 90.000000
_cell_angle_beta 90.000000
_cell_angle_gamma 90.000000
_cell_volume 973.532090
_symmetry_space_group_name_H-M "P 21 21 21"
_symmetry_group_IT_number 19
_symmetry_cell_setting 'orthorhombic'
loop_
_space_group_symop_operation_xyz
x,y,z
1/2-x,-y,1/2+z
1/2+x,1/2-y,-z
-x,1/2+y,1/2-z
loop_
_atom_site_type_symbol
_atom_site_label
_atom_site_fract_x
_atom_site_fract_y
_atom_site_fract_z
Si Si1 0.668155 0.899580 0.993128
Si Si2 0.242619 0.114089 0.585033
Si Si3 0.965234 0.952139 0.938020
Si Si4 0.845109 0.876491 0.993226
Si Si5 0.952265 0.167152 0.437783
O O1 0.671143 0.052314 0.781388
O O2 0.715321 0.765845 0.951418
O O3 0.611597 0.798154 0.971409
O O4 0.674985 0.983607 0.281628
O O5 0.182762 0.193594 0.550566
O O6 0.247911 0.037705 0.878566
O O7 0.909678 0.845274 0.972325
O O8 0.965216 0.112477 0.136830
O O9 0.017167 0.840075 0.999952
O O10 0.970892 0.017969 0.637436
#
# Coordination Sequence:
#
# PCOD8156937 Si02
#       5
#     4   4   4   4   4
#     4  10  21  39  58  77 108 150 182 211 266 335
#     4  12  24  36  56  86 110 136 180 234 274 304
#     4  10  21  36  57  82 109 143 181 220 267 318
#     4  10  21  39  58  77 108 150 182 211 266 335
#     4  10  21  36  57  82 109 143 181 220 267 318
#
# _framework density 20.543748999999998
#
# number of rings (size 3 to 8) (size 9 to 14) (size 15 to 20)
#    0.000    1.600    0.000    4.800    0.000    3.200 
#    0.000    0.000    0.000    0.000    0.000    0.000 
#    0.000    0.000    0.000    0.000    0.000    0.000 
#
# Total GULP energy -248128.541775 kJ/mol
# GULP energy per Si atom -12406.427089 kJ/mol
# Density = 2.049699 g / cm^3
# Si number density = 20.543749 Si / 1000 Ang^3
#
#
#
# Elastic Constant Matrix: (Units=GPa)
#
#
# Indices 1 2 3 4 5 6 
#
# 1 40.8864 3.0397 5.0043 0.0000 0.0000 0.0000
# 2 3.0397 25.1000 -8.8139 0.0000 0.0000 0.0000
# 3 5.0043 -8.8139 67.7017 0.0000 0.0000 0.0000
# 4 0.0000 0.0000 0.0000 20.5077 0.0000 0.0000
# 5 0.0000 0.0000 0.0000 0.0000 24.1729 0.0000
# 6 0.0000 0.0000 0.0000 0.0000 0.0000 41.7290
#
#
#
# Elastic Compliance Matrix: (Units=1/GPa)
#
#
# Indices 1 2 3 4 5 6 
#
# 1 0.025033 -0.003858 -0.002353 0.000000 0.000000 0.000000
# 2 -0.003858 0.042344 0.005798 0.000000 0.000000 0.000000
# 3 -0.002353 0.005798 0.015699 0.000000 0.000000 0.000000
# 4 0.000000 0.000000 0.000000 0.048762 0.000000 0.000000
# 5 0.000000 0.000000 0.000000 0.000000 0.041369 0.000000
# 6 0.000000 0.000000 0.000000 0.000000 0.000000 0.023964
#
#
# Mechanical properties :
#
#
# Convention : Reuss Voigt Hill
#
# Bulk Modulus (GPa) = 12.15792 14.68315 13.42053
# Shear Modulus (GPa) = 22.18153 26.24578 24.21365
#
# Velocity S-wave (km/s) = 3.28948 3.57817 3.43685
# Velocity P-wave (km/s) = 4.51203 4.92279 4.72188
#
# Compressibility (1/GPa) = 0.08225090
#
# Stress axis : x y z
#
# Youngs Moduli (GPa) = 39.94765 23.61625 63.69686
#
# Poissons Ratio (x) = 0.09110 0.14985
# Poissons Ratio (y) = 0.15410 -0.36930
# Poissons Ratio (z) = 0.09398 -0.13692
#
# Static dielectric constant tensor:
#      x y z
#    x 3.901060 0.000000 0.000000 
#    y 0.000000 3.367330 0.000000 
#    z 0.000000 0.000000 3.992620 
# 
# 
# High freq. dielectric constant tensor:
#      x y z
#    x 1.813120 0.000000 0.000000 
#    y 0.000000 1.781360 0.000000 
#    z 0.000000 0.000000 1.825140 
# 
# From -- ./inp_files/146.got.cif
#   From: 2010.03.12/outbox.cif.g09.slc.cpg/sg19_1_cif.got.tgz:146.got - 2010.04.10 18:59:41.
