data_PCOD8156467
_publ_section_title
;
Structure prediction by ZEFSAII (Michael W. Deem and Ramdas Pophale) SiO2 
 PCOD8156467
Probable space group: P 21 21 2
;
_chemical_formula_sum "Si O2"
_cell_formula_units_Z 32
_cell_length_a 11.480106
_cell_length_b 11.772943
_cell_length_c 11.022641
_cell_angle_alpha 90.000000
_cell_angle_beta 90.000000
_cell_angle_gamma 90.000000
_cell_volume 1489.761005
_symmetry_space_group_name_H-M "P 21 21 2"
_symmetry_group_IT_number 18
_symmetry_cell_setting 'orthorhombic'
loop_
_space_group_symop_operation_xyz
x,y,z
-x,-y,z
1/2+x,1/2-y,-z
1/2-x,1/2+y,-z
loop_
_atom_site_type_symbol
_atom_site_label
_atom_site_fract_x
_atom_site_fract_y
_atom_site_fract_z
Si Si1 0.089929 0.688205 0.945309
Si Si2 0.699493 0.899040 0.823407
Si Si3 0.332971 0.041849 0.556689
Si Si4 0.378366 0.453377 0.053430
Si Si5 0.543661 0.175620 0.473937
Si Si6 0.600340 0.410020 0.572188
Si Si7 0.271417 0.538051 0.814543
Si Si8 0.367265 0.811965 0.211374
O O1 0.122957 0.819074 0.958991
O O2 0.179017 0.634108 0.849784
O O3 0.958319 0.672827 0.898663
O O4 0.100283 0.625181 0.075549
O O5 0.638612 0.926442 0.695938
O O6 0.782196 0.789918 0.820415
O O7 0.775062 0.009823 0.856893
O O8 0.415709 0.120453 0.474325
O O9 0.199590 0.068888 0.528153
O O10 0.360150 0.910857 0.527499
O O11 0.500000 0.500000 0.106517
O O12 0.358836 0.511426 0.923522
O O13 0.544982 0.286188 0.557718
O O14 0.567282 0.213373 0.336492
O O15 0.500000 0.500000 0.549027
O O16 0.650111 0.416082 0.706612
O O17 0.204248 0.426666 0.770728
#
# Coordination Sequence:
#
# PCOD8156467 Si02
#       8
#     4   4   4   4   4   4   4   4
#     4  11  25  43  72 100 136 186 232 289 361 426
#     4  11  25  44  68 101 142 180 225 304 342 427
#     4  11  26  49  69 106 146 183 243 297 357 422
#     4  11  23  43  65 102 137 177 230 281 358 417
#     4  11  27  47  74 103 142 197 235 303 357 423
#     4  12  27  44  76 106 140 191 243 293 360 427
#     4  11  25  44  68 101 140 183 235 292 343 436
#     4  12  22  46  73  97 144 184 231 289 354 428
#
# _framework density 21.479955
#
# number of rings (size 3 to 8) (size 9 to 14) (size 15 to 20)
#    0.000    0.750    5.000    1.500    7.000    2.500 
#    9.000    0.000    0.000    0.000    0.000    0.000 
#    0.000    0.000    0.000    0.000    0.000    0.000 
#
# Total GULP energy -397035.843793 kJ/mol
# GULP energy per Si atom -12407.370119 kJ/mol
# Density = 2.143107 g / cm^3
# Si number density = 21.479955 Si / 1000 Ang^3
#
#
#
# Elastic Constant Matrix: (Units=GPa)
#
#
# Indices 1 2 3 4 5 6 
#
# 1 67.5439 9.4738 20.4493 0.0000 0.0000 0.0000
# 2 9.4738 84.8037 0.9962 0.0000 0.0000 0.0000
# 3 20.4493 0.9962 100.8136 0.0000 0.0000 0.0000
# 4 0.0000 0.0000 0.0000 -29.2127 0.0000 0.0000
# 5 0.0000 0.0000 0.0000 0.0000 23.3679 0.0000
# 6 0.0000 0.0000 0.0000 0.0000 0.0000 27.9765
#
#
#
# Elastic Compliance Matrix: (Units=1/GPa)
#
#
# Indices 1 2 3 4 5 6 
#
# 1 0.016030 -0.001753 -0.003234 0.000000 0.000000 0.000000
# 2 -0.001753 0.011985 0.000237 0.000000 0.000000 0.000000
# 3 -0.003234 0.000237 0.010573 0.000000 0.000000 0.000000
# 4 0.000000 0.000000 0.000000 -0.034232 0.000000 0.000000
# 5 0.000000 0.000000 0.000000 0.000000 0.042794 0.000000
# 6 0.000000 0.000000 0.000000 0.000000 0.000000 0.035744
#
#
# Mechanical properties :
#
#
# Convention : Reuss Voigt Hill
#
# Bulk Modulus (GPa) = 34.37817 34.99997 34.68907
# Shear Modulus (GPa) = 48.97614 19.24248 34.10931
#
# Velocity S-wave (km/s) = 4.78020 2.99630 3.98924
# Velocity P-wave (km/s) = 6.81958 5.31977 6.11583
#
# Compressibility (1/GPa) = 0.02908823
#
# Stress axis : x y z
#
# Youngs Moduli (GPa) = 62.38208 83.43780 94.58051
#
# Poissons Ratio (x) = 0.14625 0.30590
# Poissons Ratio (y) = 0.10934 -0.02243
# Poissons Ratio (z) = 0.20176 -0.01978
#
# Static dielectric constant tensor:
#      x y z
#    x 4.580980 0.000000 0.000000 
#    y 0.000000 3.980760 0.000000 
#    z 0.000000 0.000000 3.965160 
# 
# 
# High freq. dielectric constant tensor:
#      x y z
#    x 1.844870 0.000000 0.000000 
#    y 0.000000 1.854990 0.000000 
#    z 0.000000 0.000000 1.850480 
# 
# From -- ./inp_files/5970.got.cif
#   From: 2010.03.12/outbox.cif.g09.slc.cpg/sg18_3_cif.got.tgz:5970.got - 2010.04.10 18:53:55.
