data_PCOD8156111
_publ_section_title
;
Structure prediction by ZEFSAII (Michael W. Deem and Ramdas Pophale) SiO2 
 PCOD8156111
Probable space group: P 21 21 2
;
_chemical_formula_sum "Si O2"
_cell_formula_units_Z 18
_cell_length_a 5.262043
_cell_length_b 14.382786
_cell_length_c 10.659006
_cell_angle_alpha 90.000000
_cell_angle_beta 90.000000
_cell_angle_gamma 90.000000
_cell_volume 806.703829
_symmetry_space_group_name_H-M "P 21 21 2"
_symmetry_group_IT_number 18
_symmetry_cell_setting 'orthorhombic'
loop_
_space_group_symop_operation_xyz
x,y,z
-x,-y,z
1/2+x,1/2-y,-z
1/2-x,1/2+y,-z
loop_
_atom_site_type_symbol
_atom_site_label
_atom_site_fract_x
_atom_site_fract_y
_atom_site_fract_z
Si Si1 0.000000 0.000000 0.259021
Si Si2 0.239468 0.909375 0.487469
Si Si3 0.282121 0.668644 0.875825
Si Si4 0.245147 0.609694 0.407698
Si Si5 0.721987 0.282851 0.158066
O O1 0.182692 0.064124 0.174321
O O2 0.798188 0.057628 0.344096
O O3 0.498872 0.852521 0.513919
O O4 0.994825 0.847295 0.524356
O O5 0.248785 0.998118 0.580986
O O6 0.523427 0.724448 0.825993
O O7 0.022814 0.715851 0.825855
O O8 0.284560 0.663852 0.026253
O O9 0.258277 0.638394 0.263368
#
# Coordination Sequence:
#
# PCOD8156111 Si02
#       5
#     2   4   4   4   4
#     4  10  22  42  62  88 126 164 200 254 320 368
#     4   9  20  34  56  87 115 152 203 239 279 360
#     4  10  23  38  61  88 123 157 199 254 306 377
#     4   9  17  35  58  79 116 152 188 248 286 333
#     4  10  21  40  59  90 121 156 204 252 307 360
#
# _framework density 22.313023999999999
#
# number of rings (size 3 to 8) (size 9 to 14) (size 15 to 20)
#    0.000    2.667    0.000    1.333    0.000    9.778 
#    0.000   17.778    0.000    0.000    0.000    0.000 
#    0.000    0.000    0.000    0.000    0.000    0.000 
#
# Total GULP energy -223013.816997 kJ/mol
# GULP energy per Si atom -12389.656500 kJ/mol
# Density = 2.226224 g / cm^3
# Si number density = 22.313024 Si / 1000 Ang^3
#
#
#
# Elastic Constant Matrix: (Units=GPa)
#
#
# Indices 1 2 3 4 5 6 
#
# 1 191.4003 4.7234 28.0718 0.0000 0.0000 0.0000
# 2 4.7234 46.2112 44.6855 0.0000 0.0000 0.0000
# 3 28.0718 44.6855 105.5809 0.0000 0.0000 0.0000
# 4 0.0000 0.0000 0.0000 41.4666 0.0000 0.0000
# 5 0.0000 0.0000 0.0000 0.0000 16.4368 0.0000
# 6 0.0000 0.0000 0.0000 0.0000 0.0000 10.6441
#
#
#
# Elastic Compliance Matrix: (Units=1/GPa)
#
#
# Indices 1 2 3 4 5 6 
#
# 1 0.005493 0.001440 -0.002070 0.000000 0.000000 0.000000
# 2 0.001440 0.037009 -0.016046 0.000000 0.000000 0.000000
# 3 -0.002070 -0.016046 0.016813 0.000000 0.000000 0.000000
# 4 0.000000 0.000000 0.000000 0.024116 0.000000 0.000000
# 5 0.000000 0.000000 0.000000 0.000000 0.060839 0.000000
# 6 0.000000 0.000000 0.000000 0.000000 0.000000 0.093949
#
#
# Mechanical properties :
#
#
# Convention : Reuss Voigt Hill
#
# Bulk Modulus (GPa) = 38.51693 55.35041 46.93367
# Shear Modulus (GPa) = 17.84275 31.42361 24.63318
#
# Velocity S-wave (km/s) = 2.83089 3.75681 3.32623
# Velocity P-wave (km/s) = 5.29006 6.60896 5.98595
#
# Compressibility (1/GPa) = 0.02596261
#
# Stress axis : x y z
#
# Youngs Moduli (GPa) = 182.05989 27.02028 59.47711
#
# Poissons Ratio (x) = -0.03891 0.12311
# Poissons Ratio (y) = -0.26219 0.95440
# Poissons Ratio (z) = 0.37685 0.43358
#
# Static dielectric constant tensor:
#      x y z
#    x 5.684780 0.000000 0.000000 
#    y 0.000000 3.616730 0.000000 
#    z 0.000000 0.000000 3.952720 
# 
# 
# High freq. dielectric constant tensor:
#      x y z
#    x 1.912450 0.000000 0.000000 
#    y 0.000000 1.844330 0.000000 
#    z 0.000000 0.000000 1.875200 
# 
# From -- ./inp_files/2475.got.cif
#   From: 2010.03.12/outbox.cif.g09.slc.cpg/sg18_2_cif.got.tgz:2475.got - 2010.04.10 18:53:55.
