data_PCOD8156369
_publ_section_title
;
Structure prediction by ZEFSAII (Michael W. Deem and Ramdas Pophale) SiO2 
 PCOD8156369
Probable space group: P 21 21 2
;
_chemical_formula_sum "Si O2"
_cell_formula_units_Z 24
_cell_length_a 9.095634
_cell_length_b 10.250266
_cell_length_c 11.549493
_cell_angle_alpha 90.000000
_cell_angle_beta 90.000000
_cell_angle_gamma 90.000000
_cell_volume 1076.790046
_symmetry_space_group_name_H-M "P 21 21 2"
_symmetry_group_IT_number 18
_symmetry_cell_setting 'orthorhombic'
loop_
_space_group_symop_operation_xyz
x,y,z
-x,-y,z
1/2+x,1/2-y,-z
1/2-x,1/2+y,-z
loop_
_atom_site_type_symbol
_atom_site_label
_atom_site_fract_x
_atom_site_fract_y
_atom_site_fract_z
Si Si1 0.898996 0.125127 0.596889
Si Si2 0.336117 0.988491 0.748625
Si Si3 0.382567 0.113670 0.276426
Si Si4 0.829523 0.241328 0.143403
Si Si5 0.173197 0.252264 0.096420
Si Si6 0.348737 0.439798 0.653161
O O1 0.741665 0.080234 0.641468
O O2 0.954250 0.257259 0.662430
O O3 0.880724 0.150019 0.459428
O O4 0.000000 0.000000 0.622849
O O5 0.311489 0.898733 0.859941
O O6 0.500000 0.000000 0.703782
O O7 0.285036 0.128724 0.788868
O O8 0.283608 0.153885 0.164303
O O9 0.500000 0.000000 0.243071
O O10 0.269892 0.054059 0.372305
O O11 0.781559 0.134742 0.237002
O O12 0.999776 0.217122 0.107372
O O13 0.719491 0.239177 0.036318
O O14 0.500000 0.500000 0.695847
#
# Coordination Sequence:
#
# PCOD8156369 Si02
#       6
#     4   4   4   4   4   4
#     4  10  25  46  69 102 143 184 236 286 351 424
#     4   9  22  43  67  95 133 180 231 284 348 411
#     4  11  26  45  70 106 141 184 240 290 346 419
#     4  11  24  41  70  95 139 182 225 293 348 412
#     4  10  24  44  67 102 136 179 236 286 347 418
#     4  11  25  44  69 100 143 183 231 287 354 414
#
# _framework density 22.288468000000002
#
# number of rings (size 3 to 8) (size 9 to 14) (size 15 to 20)
#    0.000    1.667    1.667    0.000    9.333    4.000 
#    0.000    0.833    0.000    0.000    0.000    0.000 
#    0.000    0.000    0.000    0.000    0.000    0.000 
#
# Total GULP energy -297350.046963 kJ/mol
# GULP energy per Si atom -12389.585290 kJ/mol
# Density = 2.223774 g / cm^3
# Si number density = 22.288468 Si / 1000 Ang^3
#
#
#
# Elastic Constant Matrix: (Units=GPa)
#
#
# Indices 1 2 3 4 5 6 
#
# 1 67.4415 43.6345 14.5655 0.0000 0.0000 0.0000
# 2 43.6345 120.2258 41.9139 0.0000 0.0000 0.0000
# 3 14.5655 41.9139 99.8426 0.0000 0.0000 0.0000
# 4 0.0000 0.0000 0.0000 25.7943 0.0000 0.0000
# 5 0.0000 0.0000 0.0000 0.0000 37.6317 0.0000
# 6 0.0000 0.0000 0.0000 0.0000 0.0000 89.7731
#
#
#
# Elastic Compliance Matrix: (Units=1/GPa)
#
#
# Indices 1 2 3 4 5 6 
#
# 1 0.019380 -0.007085 0.000147 0.000000 0.000000 0.000000
# 2 -0.007085 0.012334 -0.004144 0.000000 0.000000 0.000000
# 3 0.000147 -0.004144 0.011734 0.000000 0.000000 0.000000
# 4 0.000000 0.000000 0.000000 0.038768 0.000000 0.000000
# 5 0.000000 0.000000 0.000000 0.000000 0.026573 0.000000
# 6 0.000000 0.000000 0.000000 0.000000 0.000000 0.011139
#
#
# Mechanical properties :
#
#
# Convention : Reuss Voigt Hill
#
# Bulk Modulus (GPa) = 46.98455 54.19308 50.58882
# Shear Modulus (GPa) = 33.51494 43.13289 38.32391
#
# Velocity S-wave (km/s) = 3.88195 4.40388 4.15112
# Velocity P-wave (km/s) = 6.42018 7.08703 6.76183
#
# Compressibility (1/GPa) = 0.02128359
#
# Stress axis : x y z
#
# Youngs Moduli (GPa) = 51.59993 81.07772 85.22223
#
# Poissons Ratio (x) = 0.57443 -0.01253
# Poissons Ratio (y) = 0.36558 0.35317
# Poissons Ratio (z) = -0.00759 0.33600
#
# Static dielectric constant tensor:
#      x y z
#    x 4.098920 0.000000 0.000000 
#    y 0.000000 4.281130 0.000000 
#    z 0.000000 0.000000 3.769960 
# 
# 
# High freq. dielectric constant tensor:
#      x y z
#    x 1.882540 0.000000 0.000000 
#    y 0.000000 1.890100 0.000000 
#    z 0.000000 0.000000 1.869260 
# 
# From -- ./inp_files/5518.got.cif
#   From: 2010.03.12/outbox.cif.g09.slc.cpg/sg18_3_cif.got.tgz:5518.got - 2010.04.10 18:53:55.
