data_PCOD8156722
_publ_section_title
;
Structure prediction by ZEFSAII (Michael W. Deem and Ramdas Pophale) SiO2 
 PCOD8156722
Probable space group: P 21 21 21
;
_chemical_formula_sum "Si O2"
_cell_formula_units_Z 24
_cell_length_a 12.765198
_cell_length_b 6.493593
_cell_length_c 14.387834
_cell_angle_alpha 90.000000
_cell_angle_beta 90.000000
_cell_angle_gamma 90.000000
_cell_volume 1192.636341
_symmetry_space_group_name_H-M "P 21 21 21"
_symmetry_group_IT_number 19
_symmetry_cell_setting 'orthorhombic'
loop_
_space_group_symop_operation_xyz
x,y,z
1/2-x,-y,1/2+z
1/2+x,1/2-y,-z
-x,1/2+y,1/2-z
loop_
_atom_site_type_symbol
_atom_site_label
_atom_site_fract_x
_atom_site_fract_y
_atom_site_fract_z
Si Si1 0.776380 0.739874 0.097964
Si Si2 0.658912 0.856193 0.276702
Si Si3 0.700467 0.019705 0.935252
Si Si4 0.379210 0.903214 0.471998
Si Si5 0.497127 0.573136 0.355627
Si Si6 0.996625 0.213953 0.467253
O O1 0.747762 0.799858 0.202501
O O2 0.714076 0.535895 0.070805
O O3 0.899410 0.694407 0.093711
O O4 0.747102 0.928877 0.030723
O O5 0.713557 0.998731 0.354547
O O6 0.611476 0.648928 0.322755
O O7 0.563403 0.982166 0.232577
O O8 0.596431 0.891819 0.908175
O O9 0.670199 0.258689 0.948511
O O10 0.431608 0.766493 0.392576
O O11 0.469238 0.047270 0.515748
O O12 0.510447 0.398559 0.433573
#
# Coordination Sequence:
#
# PCOD8156722 Si02
#       6
#     4   4   4   4   4   4
#     4  11  22  42  64  92 130 171 212 266 325 386
#     4  12  23  41  65  99 130 165 224 270 320 388
#     4  10  23  42  62  95 128 171 216 262 326 384
#     4  10  19  44  64  89 127 168 211 267 331 371
#     4  11  23  40  66  99 124 163 221 274 319 381
#     4  10  22  43  65  88 131 176 214 267 329 382
#
# _framework density 20.123484999999999
#
# number of rings (size 3 to 8) (size 9 to 14) (size 15 to 20)
#    0.000    1.333    5.000    3.000    2.333    1.333 
#    9.000    0.000    0.000    0.000    0.000    0.000 
#    0.000    0.000    0.000    0.000    0.000    0.000 
#
# Total GULP energy -297693.013159 kJ/mol
# GULP energy per Si atom -12403.875548 kJ/mol
# Density = 2.007768 g / cm^3
# Si number density = 20.123485 Si / 1000 Ang^3
#
#
#
# Elastic Constant Matrix: (Units=GPa)
#
#
# Indices 1 2 3 4 5 6 
#
# 1 114.2607 23.1788 46.1110 0.0000 0.0000 0.0000
# 2 23.1788 98.8463 26.6027 0.0000 0.0000 0.0000
# 3 46.1110 26.6027 79.9040 0.0000 0.0000 0.0000
# 4 0.0000 0.0000 0.0000 15.0369 0.0000 0.0000
# 5 0.0000 0.0000 0.0000 0.0000 44.6139 0.0000
# 6 0.0000 0.0000 0.0000 0.0000 0.0000 31.0325
#
#
#
# Elastic Compliance Matrix: (Units=1/GPa)
#
#
# Indices 1 2 3 4 5 6 
#
# 1 0.011498 -0.001000 -0.006302 0.000000 0.000000 0.000000
# 2 -0.001000 0.011199 -0.003152 0.000000 0.000000 0.000000
# 3 -0.006302 -0.003152 0.017201 0.000000 0.000000 0.000000
# 4 0.000000 0.000000 0.000000 0.066503 0.000000 0.000000
# 5 0.000000 0.000000 0.000000 0.000000 0.022415 0.000000
# 6 0.000000 0.000000 0.000000 0.000000 0.000000 0.032224
#
#
# Mechanical properties :
#
#
# Convention : Reuss Voigt Hill
#
# Bulk Modulus (GPa) = 52.65704 53.86624 53.26164
# Shear Modulus (GPa) = 26.55631 31.27788 28.91710
#
# Velocity S-wave (km/s) = 3.63666 3.94674 3.79487
# Velocity P-wave (km/s) = 6.62250 6.89891 6.76212
#
# Compressibility (1/GPa) = 0.01899081
#
# Stress axis : x y z
#
# Youngs Moduli (GPa) = 86.97021 89.29046 58.13524
#
# Poissons Ratio (x) = 0.08930 0.36639
# Poissons Ratio (y) = 0.08698 0.18322
# Poissons Ratio (z) = 0.54812 0.28140
#
# Static dielectric constant tensor:
#      x y z
#    x 3.838320 0.000000 0.000000 
#    y 0.000000 3.806360 0.000000 
#    z 0.000000 0.000000 3.460730 
# 
# 
# High freq. dielectric constant tensor:
#      x y z
#    x 1.794290 0.000000 0.000000 
#    y 0.000000 1.794560 0.000000 
#    z 0.000000 0.000000 1.766170 
# 
# From -- ./inp_files/879.got.cif
#   From: 2010.03.12/outbox.cif.g09.slc.cpg/sg19_1_cif.got.tgz:879.got - 2010.04.10 18:59:41.
