data_PCOD8156505
_publ_section_title
;
Structure prediction by ZEFSAII (Michael W. Deem and Ramdas Pophale) SiO2 
 PCOD8156505
Probable space group: P 21 21 2
;
_chemical_formula_sum "Si O2"
_cell_formula_units_Z 18
_cell_length_a 9.058948
_cell_length_b 13.497756
_cell_length_c 6.536340
_cell_angle_alpha 90.000000
_cell_angle_beta 90.000000
_cell_angle_gamma 90.000000
_cell_volume 799.234044
_symmetry_space_group_name_H-M "P 21 21 2"
_symmetry_group_IT_number 18
_symmetry_cell_setting 'orthorhombic'
loop_
_space_group_symop_operation_xyz
x,y,z
-x,-y,z
1/2+x,1/2-y,-z
1/2-x,1/2+y,-z
loop_
_atom_site_type_symbol
_atom_site_label
_atom_site_fract_x
_atom_site_fract_y
_atom_site_fract_z
Si Si1 0.259196 0.150064 0.877414
Si Si2 0.456004 0.157050 0.534100
Si Si3 0.500000 0.000000 0.221891
Si Si4 0.049270 0.771376 0.844899
Si Si5 0.189966 0.423706 0.134448
O O1 0.317446 0.196979 0.665219
O O2 0.103526 0.194848 0.952265
O O3 0.254234 0.034290 0.822728
O O4 0.382664 0.172512 0.050346
O O5 0.494014 0.252255 0.392175
O O6 0.585738 0.118357 0.685009
O O7 0.408420 0.070685 0.376145
O O8 0.393293 0.929640 0.084696
O O9 0.165885 0.857673 0.882393
#
# Coordination Sequence:
#
# PCOD8156505 Si02
#       5
#     4   4   2   4   4
#     4  12  24  45  67 104 139 185 235 291 362 424
#     4  12  22  44  72  97 135 185 235 288 361 418
#     4  12  20  44  76  92 138 190 232 280 362 424
#     4  12  27  43  72 104 144 181 242 301 348 435
#     4  12  24  46  73 102 141 191 236 295 363 427
#
# _framework density 22.521564000000001
#
# number of rings (size 3 to 8) (size 9 to 14) (size 15 to 20)
#    0.000    0.000    6.667    4.667    0.000    0.000 
#    0.000    0.000    0.000    0.000    0.000    0.000 
#    0.000    0.000    0.000    0.000    0.000    0.000 
#
# Total GULP energy -222996.560604 kJ/mol
# GULP energy per Si atom -12388.697811 kJ/mol
# Density = 2.247030 g / cm^3
# Si number density = 22.521564 Si / 1000 Ang^3
#
#
#
# Elastic Constant Matrix: (Units=GPa)
#
#
# Indices 1 2 3 4 5 6 
#
# 1 161.2886 48.9976 63.2438 0.0000 0.0000 0.0000
# 2 48.9976 58.3689 15.1844 0.0000 0.0000 0.0000
# 3 63.2438 15.1844 116.3084 0.0000 0.0000 0.0000
# 4 0.0000 0.0000 0.0000 29.1237 0.0000 0.0000
# 5 0.0000 0.0000 0.0000 0.0000 27.3662 0.0000
# 6 0.0000 0.0000 0.0000 0.0000 0.0000 49.5921
#
#
#
# Elastic Compliance Matrix: (Units=1/GPa)
#
#
# Indices 1 2 3 4 5 6 
#
# 1 0.010260 -0.007413 -0.004611 0.000000 0.000000 0.000000
# 2 -0.007413 0.023091 0.001016 0.000000 0.000000 0.000000
# 3 -0.004611 0.001016 0.010973 0.000000 0.000000 0.000000
# 4 0.000000 0.000000 0.000000 0.034336 0.000000 0.000000
# 5 0.000000 0.000000 0.000000 0.000000 0.036541 0.000000
# 6 0.000000 0.000000 0.000000 0.000000 0.000000 0.020164
#
#
# Mechanical properties :
#
#
# Convention : Reuss Voigt Hill
#
# Bulk Modulus (GPa) = 44.82778 65.64636 55.23707
# Shear Modulus (GPa) = 30.33638 35.11907 32.72773
#
# Velocity S-wave (km/s) = 3.67412 3.95315 3.81619
# Velocity P-wave (km/s) = 6.16007 7.07446 6.63304
#
# Compressibility (1/GPa) = 0.02230760
#
# Stress axis : x y z
#
# Youngs Moduli (GPa) = 97.46272 43.30669 91.13636
#
# Poissons Ratio (x) = 0.32105 0.42026
# Poissons Ratio (y) = 0.72253 -0.09264
# Poissons Ratio (z) = 0.44943 -0.04402
#
# Static dielectric constant tensor:
#      x y z
#    x 3.927570 0.000000 0.000000 
#    y 0.000000 4.171380 0.000000 
#    z 0.000000 0.000000 4.373990 
# 
# 
# High freq. dielectric constant tensor:
#      x y z
#    x 1.871840 0.000000 0.000000 
#    y 0.000000 1.899290 0.000000 
#    z 0.000000 0.000000 1.901430 
# 
# From -- ./inp_files/473.got.cif
#   From: 2010.03.12/outbox.cif.g09.slc.cpg/sg18_1_cif.got.tgz:473.got - 2010.04.10 18:53:55.
