data_PCOD8156739
_publ_section_title
;
Structure prediction by ZEFSAII (Michael W. Deem and Ramdas Pophale) SiO2 
 PCOD8156739
Probable space group: P 21 21 21
;
_chemical_formula_sum "Si O2"
_cell_formula_units_Z 32
_cell_length_a 8.788393
_cell_length_b 9.605826
_cell_length_c 20.627464
_cell_angle_alpha 90.000000
_cell_angle_beta 90.000000
_cell_angle_gamma 90.000000
_cell_volume 1741.365849
_symmetry_space_group_name_H-M "P 21 21 21"
_symmetry_group_IT_number 19
_symmetry_cell_setting 'orthorhombic'
loop_
_space_group_symop_operation_xyz
x,y,z
1/2-x,-y,1/2+z
1/2+x,1/2-y,-z
-x,1/2+y,1/2-z
loop_
_atom_site_type_symbol
_atom_site_label
_atom_site_fract_x
_atom_site_fract_y
_atom_site_fract_z
Si Si1 0.668214 0.902508 0.569895
Si Si2 0.819787 0.933755 0.301565
Si Si3 0.678385 0.135309 0.199009
Si Si4 0.180213 0.933755 0.301565
Si Si5 0.321615 0.135308 0.199010
Si Si6 0.167922 0.426516 0.054690
Si Si7 0.167921 0.926517 0.445310
Si Si8 0.668216 0.402508 0.930106
O O1 0.778625 0.935366 0.630177
O O2 0.725547 0.978462 0.504096
O O3 0.663240 0.739382 0.557108
O O4 0.499999 0.959721 0.586049
O O5 0.774981 0.774217 0.289473
O O6 0.775915 0.979976 0.375034
O O7 1.000000 0.949677 0.288966
O O8 0.720512 0.028888 0.255223
O O9 0.774981 0.274217 0.210527
O O10 0.500000 0.169064 0.200199
O O11 0.224084 0.979977 0.375034
O O12 0.279487 0.028888 0.255223
O O13 0.278627 0.064634 0.130177
O O14 0.163241 0.260618 0.057107
O O15 0.000001 0.484906 0.040465
O O16 0.274451 0.978462 0.504096
#
# Coordination Sequence:
#
# PCOD8156739 Si02
#       8
#     4   4   4   4   4   4   4   4
#     4   9  16  27  45  69  97 128 162 202 247 292
#     4  10  20  35  53  74 102 135 169 205 250 300
#     4  11  21  33  51  76 104 133 168 208 249 295
#     4  10  20  35  53  74 102 135 169 205 250 300
#     4  11  21  33  51  76 104 133 168 208 249 295
#     4   8  15  27  45  69  95 124 161 205 246 287
#     4   8  15  27  45  69  95 124 161 205 246 287
#     4   9  16  27  45  69  97 128 162 202 247 292
#
# _framework density 18.376380999999999
#
# number of rings (size 3 to 8) (size 9 to 14) (size 15 to 20)
#    0.000    2.500    0.000    5.250    0.000    7.000 
#    0.000    0.000    0.000    1.500    0.000    0.000 
#    0.000    0.000    0.000    0.000    0.000    0.000 
#
# Total GULP energy -396654.505213 kJ/mol
# GULP energy per Si atom -12395.453288 kJ/mol
# Density = 1.833456 g / cm^3
# Si number density = 18.376381 Si / 1000 Ang^3
#
#
#
# Elastic Constant Matrix: (Units=GPa)
#
#
# Indices 1 2 3 4 5 6 
#
# 1 93.9875 10.4069 57.9759 0.0000 0.0000 0.0000
# 2 10.4069 27.0898 45.6722 0.0000 0.0000 0.0000
# 3 57.9759 45.6722 223.9451 0.0000 0.0000 0.0000
# 4 0.0000 0.0000 0.0000 22.5584 0.0000 0.0000
# 5 0.0000 0.0000 0.0000 0.0000 37.8744 0.0000
# 6 0.0000 0.0000 0.0000 0.0000 0.0000 20.3067
#
#
#
# Elastic Compliance Matrix: (Units=1/GPa)
#
#
# Indices 1 2 3 4 5 6 
#
# 1 0.012680 0.001011 -0.003489 0.000000 0.000000 0.000000
# 2 0.001011 0.056339 -0.011752 0.000000 0.000000 0.000000
# 3 -0.003489 -0.011752 0.007765 0.000000 0.000000 0.000000
# 4 0.000000 0.000000 0.000000 0.044329 0.000000 0.000000
# 5 0.000000 0.000000 0.000000 0.000000 0.026403 0.000000
# 6 0.000000 0.000000 0.000000 0.000000 0.000000 0.049245
#
#
# Mechanical properties :
#
#
# Convention : Reuss Voigt Hill
#
# Bulk Modulus (GPa) = 20.69342 63.68138 42.18740
# Shear Modulus (GPa) = 20.71867 31.54573 26.13220
#
# Velocity S-wave (km/s) = 3.36141 4.14774 3.77510
# Velocity P-wave (km/s) = 5.13330 7.59391 6.48144
#
# Compressibility (1/GPa) = 0.04832454
#
# Stress axis : x y z
#
# Youngs Moduli (GPa) = 78.86550 17.74979 128.77930
#
# Poissons Ratio (x) = -0.01794 0.44928
# Poissons Ratio (y) = -0.07971 1.51336
# Poissons Ratio (z) = 0.27514 0.20859
#
# Static dielectric constant tensor:
#      x y z
#    x 3.577530 0.000000 0.000000 
#    y 0.000000 2.768700 0.000000 
#    z 0.000000 0.000000 3.785240 
# 
# 
# High freq. dielectric constant tensor:
#      x y z
#    x 1.723670 0.000000 0.000000 
#    y 0.000000 1.642110 0.000000 
#    z 0.000000 0.000000 1.732650 
# 
# From -- ./inp_files/4310.got.cif
#   From: 2010.03.12/outbox.cif.g09.slc.cpg/sg19_3_cif.got.tgz:4310.got - 2010.04.10 18:59:41.
