data_PCOD8156365
_publ_section_title
;
Structure prediction by ZEFSAII (Michael W. Deem and Ramdas Pophale) SiO2 
 PCOD8156365
Probable space group: P 21 21 2
;
_chemical_formula_sum "Si O2"
_cell_formula_units_Z 24
_cell_length_a 19.296885
_cell_length_b 11.580087
_cell_length_c 4.991627
_cell_angle_alpha 90.000000
_cell_angle_beta 90.000000
_cell_angle_gamma 90.000000
_cell_volume 1115.427008
_symmetry_space_group_name_H-M "P 21 21 2"
_symmetry_group_IT_number 18
_symmetry_cell_setting 'orthorhombic'
loop_
_space_group_symop_operation_xyz
x,y,z
-x,-y,z
1/2+x,1/2-y,-z
1/2-x,1/2+y,-z
loop_
_atom_site_type_symbol
_atom_site_label
_atom_site_fract_x
_atom_site_fract_y
_atom_site_fract_z
Si Si1 0.420174 0.243415 0.042288
Si Si2 0.579827 0.243414 0.042288
Si Si3 0.739244 1.000000 0.576014
Si Si4 0.868341 0.127966 0.454125
Si Si5 0.131659 0.127967 0.454125
Si Si6 0.853299 0.500000 0.924704
O O1 0.500000 0.258695 0.964271
O O2 0.407123 0.288813 0.340622
O O3 0.401086 0.109811 0.022979
O O4 0.373606 0.317556 0.839764
O O5 0.592877 0.288812 0.340623
O O6 0.598913 0.109809 0.022979
O O7 0.626395 0.317555 0.839764
O O8 0.786550 0.885643 0.526801
O O9 0.673784 1.000000 0.379142
O O10 0.786550 0.114356 0.526800
O O11 0.712880 1.000000 0.879779
O O12 0.903266 0.999999 0.455527
#
# Coordination Sequence:
#
# PCOD8156365 Si02
#       6
#     4   4   4   4   4   4
#     4  12  25  42  66  94 131 170 208 258 312 382
#     4  12  25  42  66  94 131 170 208 258 312 382
#     4  10  24  44  64 100 122 164 214 264 322 362
#     4  10  24  44  64 100 122 164 214 264 322 362
#     4  10  24  44  64 100 122 164 214 264 322 362
#     4  12  25  42  66  94 131 170 208 258 312 382
#
# _framework density 21.516423
#
# number of rings (size 3 to 8) (size 9 to 14) (size 15 to 20)
#    1.000    0.000    0.000    6.500    0.000   12.000 
#    0.000    5.000    0.000    0.000    0.000    0.000 
#    0.000    0.000    0.000    0.000    0.000    0.000 
#
# Total GULP energy -297693.032473 kJ/mol
# GULP energy per Si atom -12403.876353 kJ/mol
# Density = 2.146745 g / cm^3
# Si number density = 21.516423 Si / 1000 Ang^3
#
#
#
# Elastic Constant Matrix: (Units=GPa)
#
#
# Indices 1 2 3 4 5 6 
#
# 1 49.6962 15.2494 10.0021 0.0000 0.0000 0.0000
# 2 15.2494 127.6961 26.9314 0.0000 0.0000 0.0000
# 3 10.0021 26.9314 85.3013 0.0000 0.0000 0.0000
# 4 0.0000 0.0000 0.0000 6.5468 0.0000 0.0000
# 5 0.0000 0.0000 0.0000 0.0000 8.9698 0.0000
# 6 0.0000 0.0000 0.0000 0.0000 0.0000 35.5692
#
#
#
# Elastic Compliance Matrix: (Units=1/GPa)
#
#
# Indices 1 2 3 4 5 6 
#
# 1 0.021143 -0.002145 -0.001802 0.000000 0.000000 0.000000
# 2 -0.002145 0.008607 -0.002466 0.000000 0.000000 0.000000
# 3 -0.001802 -0.002466 0.012713 0.000000 0.000000 0.000000
# 4 0.000000 0.000000 0.000000 0.152745 0.000000 0.000000
# 5 0.000000 0.000000 0.000000 0.000000 0.111486 0.000000
# 6 0.000000 0.000000 0.000000 0.000000 0.000000 0.028114
#
#
# Mechanical properties :
#
#
# Convention : Reuss Voigt Hill
#
# Bulk Modulus (GPa) = 33.74080 40.78440 37.26260
# Shear Modulus (GPa) = 13.98547 24.25121 19.11834
#
# Velocity S-wave (km/s) = 2.55226 3.36088 2.98408
# Velocity P-wave (km/s) = 4.93972 5.83582 5.40637
#
# Compressibility (1/GPa) = 0.02963771
#
# Stress axis : x y z
#
# Youngs Moduli (GPa) = 47.29680 116.18019 78.65953
#
# Poissons Ratio (x) = 0.24919 0.14174
# Poissons Ratio (y) = 0.10145 0.19398
# Poissons Ratio (z) = 0.08523 0.28650
#
# Static dielectric constant tensor:
#      x y z
#    x 3.655410 0.000000 0.000000 
#    y 0.000000 3.873180 0.000000 
#    z 0.000000 0.000000 3.739960 
# 
# 
# High freq. dielectric constant tensor:
#      x y z
#    x 1.835310 0.000000 0.000000 
#    y 0.000000 1.850290 0.000000 
#    z 0.000000 0.000000 1.854790 
# 
# From -- ./inp_files/1782.got.cif
#   From: 2010.03.12/outbox.cif.g09.slc.cpg/sg18_1_cif.got.tgz:1782.got - 2010.04.10 18:53:55.
