data_PCOD8156788
_publ_section_title
;
Structure prediction by ZEFSAII (Michael W. Deem and Ramdas Pophale) SiO2 
 PCOD8156788
Probable space group: P 21 21 21
;
_chemical_formula_sum "Si O2"
_cell_formula_units_Z 32
_cell_length_a 8.669926
_cell_length_b 14.408565
_cell_length_c 12.638946
_cell_angle_alpha 90.000000
_cell_angle_beta 90.000000
_cell_angle_gamma 90.000000
_cell_volume 1578.872204
_symmetry_space_group_name_H-M "P 21 21 21"
_symmetry_group_IT_number 19
_symmetry_cell_setting 'orthorhombic'
loop_
_space_group_symop_operation_xyz
x,y,z
1/2-x,-y,1/2+z
1/2+x,1/2-y,-z
-x,1/2+y,1/2-z
loop_
_atom_site_type_symbol
_atom_site_label
_atom_site_fract_x
_atom_site_fract_y
_atom_site_fract_z
Si Si1 0.838028 0.654428 0.528965
Si Si2 0.355077 0.183765 0.425922
Si Si3 0.790323 0.529609 0.955121
Si Si4 0.809919 0.655772 0.764229
Si Si5 0.296536 0.345241 0.051238
Si Si6 0.154563 0.527958 0.976684
Si Si7 0.830353 0.154966 0.714027
Si Si8 0.284838 0.682500 0.096551
O O1 0.786326 0.571473 0.452127
O O2 0.758587 0.637130 0.644028
O O3 0.777969 0.749408 0.482026
O O4 0.021073 0.659222 0.537350
O O5 0.271567 0.084880 0.440947
O O6 0.303596 0.236524 0.318198
O O7 0.305439 0.250742 0.518829
O O8 0.537340 0.168919 0.432953
O O9 0.735362 0.583276 0.848195
O O10 0.972503 0.520313 0.965850
O O11 0.770173 0.764480 0.790619
O O12 0.989685 0.637803 0.775102
O O13 0.249030 0.363781 0.173793
O O14 0.226290 0.425847 0.978541
O O15 0.229027 0.583558 0.876608
O O16 0.201994 0.582248 0.085814
#
# Coordination Sequence:
#
# PCOD8156788 Si02
#       8
#     4   4   4   4   4   4   4   4
#     4  11  23  40  57  79 110 147 184 225 272 326
#     4   9  16  31  55  83 109 140 179 223 267 318
#     4  10  20  37  58  83 110 144 186 228 269 324
#     4   8  18  36  58  79 109 149 183 214 271 338
#     4  11  23  40  57  79 110 147 184 225 272 326
#     4  10  20  37  58  83 110 144 186 228 269 324
#     4   8  18  36  58  79 109 149 183 214 271 338
#     4   9  16  31  55  83 109 140 179 223 267 318
#
# _framework density 20.267631999999999
#
# number of rings (size 3 to 8) (size 9 to 14) (size 15 to 20)
#    0.000    2.500    0.000    3.750    0.000    2.000 
#    0.000   25.000    0.000    0.000    0.000    0.000 
#    0.000    0.000    0.000    0.000    0.000    0.000 
#
# Total GULP energy -396538.520276 kJ/mol
# GULP energy per Si atom -12391.828759 kJ/mol
# Density = 2.022150 g / cm^3
# Si number density = 20.267632 Si / 1000 Ang^3
#
#
#
# Elastic Constant Matrix: (Units=GPa)
#
#
# Indices 1 2 3 4 5 6 
#
# 1 35.6301 15.2439 -10.6536 0.0000 0.0000 0.0000
# 2 15.2439 145.0272 27.7404 0.0000 0.0000 0.0000
# 3 -10.6536 27.7404 60.5863 0.0000 0.0000 0.0000
# 4 0.0000 0.0000 0.0000 27.3054 0.0000 0.0000
# 5 0.0000 0.0000 0.0000 0.0000 21.1154 0.0000
# 6 0.0000 0.0000 0.0000 0.0000 0.0000 40.0664
#
#
#
# Elastic Compliance Matrix: (Units=1/GPa)
#
#
# Indices 1 2 3 4 5 6 
#
# 1 0.032576 -0.004954 0.007996 0.000000 0.000000 0.000000
# 2 -0.004954 0.008310 -0.004676 0.000000 0.000000 0.000000
# 3 0.007996 -0.004676 0.020053 0.000000 0.000000 0.000000
# 4 0.000000 0.000000 0.000000 0.036623 0.000000 0.000000
# 5 0.000000 0.000000 0.000000 0.000000 0.047359 0.000000
# 6 0.000000 0.000000 0.000000 0.000000 0.000000 0.024959
#
#
# Mechanical properties :
#
#
# Convention : Reuss Voigt Hill
#
# Bulk Modulus (GPa) = 17.33921 33.98943 25.66432
# Shear Modulus (GPa) = 25.99152 31.62497 28.80824
#
# Velocity S-wave (km/s) = 3.58497 3.95443 3.77422
# Velocity P-wave (km/s) = 5.07047 6.13651 5.62879
#
# Compressibility (1/GPa) = 0.05767274
#
# Stress axis : x y z
#
# Youngs Moduli (GPa) = 30.69699 120.33161 49.86901
#
# Poissons Ratio (x) = 0.59608 -0.39877
# Poissons Ratio (y) = 0.15206 0.23319
# Poissons Ratio (z) = -0.24547 0.56268
#
# Static dielectric constant tensor:
#      x y z
#    x 3.543530 0.000000 0.000000 
#    y 0.000000 3.976660 0.000000 
#    z 0.000000 0.000000 4.077920 
# 
# 
# High freq. dielectric constant tensor:
#      x y z
#    x 1.778230 0.000000 0.000000 
#    y 0.000000 1.798080 0.000000 
#    z 0.000000 0.000000 1.775960 
# 
# From -- ./inp_files/4740.got.cif
#   From: 2010.03.12/outbox.cif.g09.slc.cpg/sg19_3_cif.got.tgz:4740.got - 2010.04.10 18:59:41.
