data_PCOD8156072
_publ_section_title
;
Structure prediction by ZEFSAII (Michael W. Deem and Ramdas Pophale) SiO2 
 PCOD8156072
Probable space group: P 21 21 2
;
_chemical_formula_sum "Si O2"
_cell_formula_units_Z 32
_cell_length_a 28.625168
_cell_length_b 8.422779
_cell_length_c 6.824135
_cell_angle_alpha 90.000000
_cell_angle_beta 90.000000
_cell_angle_gamma 90.000000
_cell_volume 1645.322587
_symmetry_space_group_name_H-M "P 21 21 2"
_symmetry_group_IT_number 18
_symmetry_cell_setting 'orthorhombic'
loop_
_space_group_symop_operation_xyz
x,y,z
-x,-y,z
1/2+x,1/2-y,-z
1/2-x,1/2+y,-z
loop_
_atom_site_type_symbol
_atom_site_label
_atom_site_fract_x
_atom_site_fract_y
_atom_site_fract_z
Si Si1 0.751877 0.307574 0.148871
Si Si2 0.238169 0.842374 0.743176
Si Si3 0.013900 0.319093 0.358475
Si Si4 0.587368 0.319948 0.371337
Si Si5 0.830626 0.300958 0.454675
Si Si6 0.316129 0.849395 0.428069
Si Si7 0.046594 0.090314 0.032429
Si Si8 0.422833 0.378332 0.627300
O O1 0.730802 0.481731 0.176667
O O2 0.801344 0.303291 0.255948
O O3 0.716056 0.177115 0.236262
O O4 0.759859 0.280744 0.920458
O O5 0.192689 0.817031 0.610156
O O6 0.285307 0.809815 0.619828
O O7 0.051434 0.306738 0.534326
O O8 0.034863 0.245435 0.160443
O O9 0.000000 0.500000 0.319499
O O10 0.969507 0.216792 0.420352
O O11 0.639756 0.265288 0.415568
O O12 0.580692 0.492428 0.459757
O O13 0.578084 0.339955 0.140922
O O14 0.833731 0.470711 0.561183
O O15 0.881122 0.245714 0.387186
O O16 0.076221 0.963530 0.160483
O O17 0.000000 0.000000 0.956048
#
# Coordination Sequence:
#
# PCOD8156072 Si02
#       8
#     4   4   4   4   4   4   4   4
#     4  10  21  37  58  81 110 148 184 230 282 329
#     4  10  21  38  58  81 112 147 187 232 280 334
#     4  10  21  38  59  84 114 147 183 230 280 326
#     4  11  21  37  60  84 112 150 188 228 278 332
#     4  10  21  38  56  82 113 145 186 230 276 332
#     4  10  22  37  56  83 113 144 187 233 277 331
#     4   9  20  38  57  81 112 145 185 225 270 330
#     4  10  21  37  58  82 112 146 184 228 275 328
#
# _framework density 19.449072999999999
#
# number of rings (size 3 to 8) (size 9 to 14) (size 15 to 20)
#    0.000    2.000    0.000    4.125    0.000    7.500 
#    0.000    3.750    0.000    0.000    0.000    0.000 
#    0.000    0.000    0.000    0.000    0.000    0.000 
#
# Total GULP energy -396858.147611 kJ/mol
# GULP energy per Si atom -12401.817113 kJ/mol
# Density = 1.940481 g / cm^3
# Si number density = 19.449073 Si / 1000 Ang^3
#
#
#
# Elastic Constant Matrix: (Units=GPa)
#
#
# Indices 1 2 3 4 5 6 
#
# 1 93.9263 25.8543 25.5316 0.0000 0.0000 0.0000
# 2 25.8543 75.1946 17.2673 0.0000 0.0000 0.0000
# 3 25.5316 17.2673 85.5521 0.0000 0.0000 0.0000
# 4 0.0000 0.0000 0.0000 25.4259 0.0000 0.0000
# 5 0.0000 0.0000 0.0000 0.0000 15.8691 0.0000
# 6 0.0000 0.0000 0.0000 0.0000 0.0000 38.3631
#
#
#
# Elastic Compliance Matrix: (Units=1/GPa)
#
#
# Indices 1 2 3 4 5 6 
#
# 1 0.012449 -0.003594 -0.002990 0.000000 0.000000 0.000000
# 2 -0.003594 0.014983 -0.001952 0.000000 0.000000 0.000000
# 3 -0.002990 -0.001952 0.012975 0.000000 0.000000 0.000000
# 4 0.000000 0.000000 0.000000 0.039330 0.000000 0.000000
# 5 0.000000 0.000000 0.000000 0.000000 0.063015 0.000000
# 6 0.000000 0.000000 0.000000 0.000000 0.000000 0.026067
#
#
# Mechanical properties :
#
#
# Convention : Reuss Voigt Hill
#
# Bulk Modulus (GPa) = 42.85188 43.55325 43.20257
# Shear Modulus (GPa) = 25.81753 28.33293 27.07523
#
# Velocity S-wave (km/s) = 3.64736 3.82091 3.73515
# Velocity P-wave (km/s) = 6.31018 6.47363 6.39243
#
# Compressibility (1/GPa) = 0.02333620
#
# Stress axis : x y z
#
# Youngs Moduli (GPa) = 80.33078 66.74416 77.07182
#
# Poissons Ratio (x) = 0.23986 0.23042
# Poissons Ratio (y) = 0.28868 0.15041
# Poissons Ratio (z) = 0.24017 0.13025
#
# Static dielectric constant tensor:
#      x y z
#    x 3.598450 0.000000 0.000000 
#    y 0.000000 3.649780 0.000000 
#    z 0.000000 0.000000 3.472450 
# 
# 
# High freq. dielectric constant tensor:
#      x y z
#    x 1.760380 0.000000 0.000000 
#    y 0.000000 1.764640 0.000000 
#    z 0.000000 0.000000 1.754660 
# 
# From -- ./inp_files/2314.got.cif
#   From: 2010.03.12/outbox.cif.g09.slc.cpg/sg18_2_cif.got.tgz:2314.got - 2010.04.10 18:53:55.
