data_PCOD8156795
_publ_section_title
;
Structure prediction by ZEFSAII (Michael W. Deem and Ramdas Pophale) SiO2 
 PCOD8156795
Probable space group: P 21 21 21
;
_chemical_formula_sum "Si O2"
_cell_formula_units_Z 32
_cell_length_a 8.883850
_cell_length_b 18.845753
_cell_length_c 9.623565
_cell_angle_alpha 90.000000
_cell_angle_beta 90.000000
_cell_angle_gamma 90.000000
_cell_volume 1611.204610
_symmetry_space_group_name_H-M "P 21 21 21"
_symmetry_group_IT_number 19
_symmetry_cell_setting 'orthorhombic'
loop_
_space_group_symop_operation_xyz
x,y,z
1/2-x,-y,1/2+z
1/2+x,1/2-y,-z
-x,1/2+y,1/2-z
loop_
_atom_site_type_symbol
_atom_site_label
_atom_site_fract_x
_atom_site_fract_y
_atom_site_fract_z
Si Si1 0.045370 0.273576 0.398430
Si Si2 0.092643 0.932351 0.514355
Si Si3 0.055397 0.042501 0.018297
Si Si4 0.016967 0.188662 0.135422
Si Si5 0.850666 0.278840 0.928609
Si Si6 0.953727 0.558733 0.797207
Si Si7 0.887644 0.202016 0.644770
Si Si8 0.598944 0.584355 0.798350
O O1 0.028594 0.204295 0.299577
O O2 0.989101 0.252716 0.549955
O O3 0.944696 0.336088 0.336251
O O4 0.217454 0.298032 0.409909
O O5 0.267226 0.949325 0.520624
O O6 0.062743 0.854225 0.577063
O O7 0.037349 0.935230 0.354904
O O8 0.007048 0.990284 0.608305
O O9 0.979885 0.106190 0.106958
O O10 0.016900 0.968490 0.093663
O O11 0.995485 0.041674 0.860512
O O12 0.173076 0.209189 0.061833
O O13 0.888158 0.237287 0.069377
O O14 0.901951 0.232093 0.799205
O O15 0.779004 0.579634 0.804132
O O16 0.052511 0.622197 0.858280
#
# Coordination Sequence:
#
# PCOD8156795 Si02
#       8
#     4   4   4   4   4   4   4   4
#     4  11  24  39  59  86 120 155 197 245 294 346
#     4   9  19  34  58  86 112 149 192 236 287 349
#     4   9  19  34  58  86 112 149 192 236 287 349
#     4  10  20  37  60  85 112 148 194 240 291 346
#     4  10  20  37  60  85 112 148 194 240 291 346
#     4  10  20  37  60  84 115 151 195 239 286 346
#     4  11  24  39  59  86 120 155 197 245 294 346
#     4  10  20  37  60  84 115 151 195 239 286 346
#
# _framework density 19.860917000000001
#
# number of rings (size 3 to 8) (size 9 to 14) (size 15 to 20)
#    0.000    2.000    2.500    0.750    3.500    1.000 
#    0.000    2.500    0.000    0.000    0.000    0.000 
#    0.000    0.000    0.000    0.000    0.000    0.000 
#
# Total GULP energy -396855.645681 kJ/mol
# GULP energy per Si atom -12401.738928 kJ/mol
# Density = 1.981571 g / cm^3
# Si number density = 19.860917 Si / 1000 Ang^3
#
#
#
# Elastic Constant Matrix: (Units=GPa)
#
#
# Indices 1 2 3 4 5 6 
#
# 1 32.0693 -1.1919 8.1649 0.0000 0.0000 0.0000
# 2 -1.1919 81.0391 19.5678 0.0000 0.0000 0.0000
# 3 8.1649 19.5678 52.6013 0.0000 0.0000 0.0000
# 4 0.0000 0.0000 0.0000 42.3300 0.0000 0.0000
# 5 0.0000 0.0000 0.0000 0.0000 17.0566 0.0000
# 6 0.0000 0.0000 0.0000 0.0000 0.0000 27.0227
#
#
#
# Elastic Compliance Matrix: (Units=1/GPa)
#
#
# Indices 1 2 3 4 5 6 
#
# 1 0.032723 0.001876 -0.005777 0.000000 0.000000 0.000000
# 2 0.001876 0.013665 -0.005375 0.000000 0.000000 0.000000
# 3 -0.005777 -0.005375 0.021907 0.000000 0.000000 0.000000
# 4 0.000000 0.000000 0.000000 0.023624 0.000000 0.000000
# 5 0.000000 0.000000 0.000000 0.000000 0.058628 0.000000
# 6 0.000000 0.000000 0.000000 0.000000 0.000000 0.037006
#
#
# Mechanical properties :
#
#
# Convention : Reuss Voigt Hill
#
# Bulk Modulus (GPa) = 20.10299 24.31015 22.20657
# Shear Modulus (GPa) = 22.45308 26.55976 24.50642
#
# Velocity S-wave (km/s) = 3.36596 3.66086 3.51650
# Velocity P-wave (km/s) = 5.02495 5.48962 5.26242
#
# Compressibility (1/GPa) = 0.04974384
#
# Stress axis : x y z
#
# Youngs Moduli (GPa) = 30.55938 73.17917 45.64726
#
# Poissons Ratio (x) = -0.13730 0.26372
# Poissons Ratio (y) = -0.05734 0.24534
# Poissons Ratio (z) = 0.17655 0.39331
#
# Static dielectric constant tensor:
#      x y z
#    x 3.288950 0.000000 0.000000 
#    y 0.000000 3.804350 0.000000 
#    z 0.000000 0.000000 3.776410 
# 
# 
# High freq. dielectric constant tensor:
#      x y z
#    x 1.742170 0.000000 0.000000 
#    y 0.000000 1.784370 0.000000 
#    z 0.000000 0.000000 1.781400 
# 
# From -- ./inp_files/3165.got.cif
#   From: 2010.03.12/outbox.cif.g09.slc.cpg/sg19_2_cif.got.tgz:3165.got - 2010.04.10 18:59:41.
