data_PCOD8156136
_publ_section_title
;
Structure prediction by ZEFSAII (Michael W. Deem and Ramdas Pophale) SiO2 
 PCOD8156136
Probable space group: P 21 21 2
;
_chemical_formula_sum "Si O2"
_cell_formula_units_Z 24
_cell_length_a 12.366726
_cell_length_b 8.556679
_cell_length_c 10.007561
_cell_angle_alpha 90.000000
_cell_angle_beta 90.000000
_cell_angle_gamma 90.000000
_cell_volume 1058.981137
_symmetry_space_group_name_H-M "P 21 21 2"
_symmetry_group_IT_number 18
_symmetry_cell_setting 'orthorhombic'
loop_
_space_group_symop_operation_xyz
x,y,z
-x,-y,z
1/2+x,1/2-y,-z
1/2-x,1/2+y,-z
loop_
_atom_site_type_symbol
_atom_site_label
_atom_site_fract_x
_atom_site_fract_y
_atom_site_fract_z
Si Si1 0.367682 0.604792 0.064483
Si Si2 0.832296 0.971132 0.653135
Si Si3 0.824460 0.190009 0.089390
Si Si4 0.954268 0.335452 0.884095
Si Si5 0.976853 0.241552 0.591786
Si Si6 0.412015 0.116168 0.676926
O O1 0.359389 0.489046 0.192051
O O2 0.300045 0.760781 0.107666
O O3 0.485625 0.680475 0.051754
O O4 0.337540 0.496558 0.936498
O O5 0.703397 0.959147 0.634444
O O6 0.899565 0.817014 0.609718
O O7 0.884200 0.110940 0.568061
O O8 0.893002 0.239693 0.221107
O O9 0.843528 0.307353 0.962911
O O10 0.944462 0.338950 0.724013
O O11 0.000000 0.500000 0.933955
O O12 0.974164 0.341146 0.458515
O O13 0.500000 0.000000 0.746652
#
# Coordination Sequence:
#
# PCOD8156136 Si02
#       6
#     4   4   4   4   4   4
#     4  10  21  41  66  92 129 175 224 271 329 408
#     4   9  21  43  67  89 132 179 224 280 327 412
#     4  11  22  41  63  95 135 173 214 283 344 389
#     4  11  21  39  67  94 123 174 227 265 323 412
#     4  10  21  43  67  92 129 175 229 270 337 408
#     4  11  25  41  65 101 141 169 224 292 350 397
#
# _framework density 22.663292999999999
#
# number of rings (size 3 to 8) (size 9 to 14) (size 15 to 20)
#    0.000    1.667    1.667    2.500    2.333    1.333 
#   12.000    0.000    0.000    0.000    0.000    0.000 
#    0.000    0.000    0.000    0.000    0.000    0.000 
#
# Total GULP energy -297331.057935 kJ/mol
# GULP energy per Si atom -12388.794081 kJ/mol
# Density = 2.261171 g / cm^3
# Si number density = 22.663293 Si / 1000 Ang^3
#
#
#
# Elastic Constant Matrix: (Units=GPa)
#
#
# Indices 1 2 3 4 5 6 
#
# 1 115.6526 19.1879 16.5651 0.0000 0.0000 0.0000
# 2 19.1879 71.2284 26.8178 0.0000 0.0000 0.0000
# 3 16.5651 26.8178 86.4918 0.0000 0.0000 0.0000
# 4 0.0000 0.0000 0.0000 32.6838 0.0000 0.0000
# 5 0.0000 0.0000 0.0000 0.0000 26.1431 0.0000
# 6 0.0000 0.0000 0.0000 0.0000 0.0000 24.6521
#
#
#
# Elastic Compliance Matrix: (Units=1/GPa)
#
#
# Indices 1 2 3 4 5 6 
#
# 1 0.009146 -0.002043 -0.001118 0.000000 0.000000 0.000000
# 2 -0.002043 0.016351 -0.004679 0.000000 0.000000 0.000000
# 3 -0.001118 -0.004679 0.013227 0.000000 0.000000 0.000000
# 4 0.000000 0.000000 0.000000 0.030596 0.000000 0.000000
# 5 0.000000 0.000000 0.000000 0.000000 0.038251 0.000000
# 6 0.000000 0.000000 0.000000 0.000000 0.000000 0.040564
#
#
# Mechanical properties :
#
#
# Convention : Reuss Voigt Hill
#
# Bulk Modulus (GPa) = 43.39467 44.27935 43.83701
# Shear Modulus (GPa) = 29.15524 30.74925 29.95225
#
# Velocity S-wave (km/s) = 3.59061 3.68745 3.63935
# Velocity P-wave (km/s) = 6.03151 6.14085 6.08643
#
# Compressibility (1/GPa) = 0.02304430
#
# Stress axis : x y z
#
# Youngs Moduli (GPa) = 109.34154 61.15778 75.60505
#
# Poissons Ratio (x) = 0.12493 0.08454
# Poissons Ratio (y) = 0.22335 0.35373
# Poissons Ratio (z) = 0.12227 0.28614
#
# Static dielectric constant tensor:
#      x y z
#    x 4.073790 0.000000 0.000000 
#    y 0.000000 3.862440 0.000000 
#    z 0.000000 0.000000 3.835700 
# 
# 
# High freq. dielectric constant tensor:
#      x y z
#    x 1.902540 0.000000 0.000000 
#    y 0.000000 1.888210 0.000000 
#    z 0.000000 0.000000 1.877790 
# 
# From -- ./inp_files/5827.got.cif
#   From: 2010.03.12/outbox.cif.g09.slc.cpg/sg18_3_cif.got.tgz:5827.got - 2010.04.10 18:53:55.
