data_PCOD8156496
_publ_section_title
;
Structure prediction by ZEFSAII (Michael W. Deem and Ramdas Pophale) SiO2 
 PCOD8156496
Probable space group: P 21 21 2
;
_chemical_formula_sum "Si O2"
_cell_formula_units_Z 18
_cell_length_a 7.781243
_cell_length_b 14.067223
_cell_length_c 6.769690
_cell_angle_alpha 90.000000
_cell_angle_beta 90.000000
_cell_angle_gamma 90.000000
_cell_volume 741.013520
_symmetry_space_group_name_H-M "P 21 21 2"
_symmetry_group_IT_number 18
_symmetry_cell_setting 'orthorhombic'
loop_
_space_group_symop_operation_xyz
x,y,z
-x,-y,z
1/2+x,1/2-y,-z
1/2-x,1/2+y,-z
loop_
_atom_site_type_symbol
_atom_site_label
_atom_site_fract_x
_atom_site_fract_y
_atom_site_fract_z
Si Si1 0.102528 0.365951 0.091909
Si Si2 0.291206 0.334379 0.459646
Si Si3 0.236709 0.051551 0.997837
Si Si4 0.000000 0.000000 0.333726
Si Si5 0.395544 0.715420 0.223113
O O1 0.117691 0.356521 0.330865
O O2 0.257802 0.437950 0.036186
O O3 0.928636 0.407608 0.000420
O O4 0.125898 0.264237 0.990441
O O5 0.385003 0.429538 0.534106
O O6 0.415918 0.275180 0.314492
O O7 0.244820 0.265127 0.638056
O O8 0.144214 0.104184 0.814056
O O9 0.130275 0.064252 0.201203
#
# Coordination Sequence:
#
# PCOD8156496 Si02
#       5
#     4   4   4   2   4
#     4  11  25  50  70 110 150 201 251 313 388 449
#     4  12  27  46  77 114 151 203 265 317 378 467
#     4  11  25  47  77 102 157 198 244 322 383 452
#     4  12  26  50  78 114 152 204 256 320 390 454
#     4  12  26  45  77 110 152 201 257 314 385 455
#
# _framework density 24.291056999999999
#
# number of rings (size 3 to 8) (size 9 to 14) (size 15 to 20)
#    0.000    0.444    2.222    5.333    9.333    0.000 
#    8.000    0.000    0.000    0.000    0.000    0.000 
#    0.000    0.000    0.000    0.000    0.000    0.000 
#
# Total GULP energy -223119.129095 kJ/mol
# GULP energy per Si atom -12395.507172 kJ/mol
# Density = 2.423577 g / cm^3
# Si number density = 24.291057 Si / 1000 Ang^3
#
#
#
# Elastic Constant Matrix: (Units=GPa)
#
#
# Indices 1 2 3 4 5 6 
#
# 1 114.3151 35.3320 54.4544 0.0000 0.0000 0.0000
# 2 35.3320 88.8958 41.0119 0.0000 0.0000 0.0000
# 3 54.4544 41.0119 133.4595 0.0000 0.0000 0.0000
# 4 0.0000 0.0000 0.0000 46.8221 0.0000 0.0000
# 5 0.0000 0.0000 0.0000 0.0000 49.7596 0.0000
# 6 0.0000 0.0000 0.0000 0.0000 0.0000 36.0368
#
#
#
# Elastic Compliance Matrix: (Units=1/GPa)
#
#
# Indices 1 2 3 4 5 6 
#
# 1 0.011420 -0.002784 -0.003804 0.000000 0.000000 0.000000
# 2 -0.002784 0.013786 -0.003101 0.000000 0.000000 0.000000
# 3 -0.003804 -0.003101 0.009998 0.000000 0.000000 0.000000
# 4 0.000000 0.000000 0.000000 0.021357 0.000000 0.000000
# 5 0.000000 0.000000 0.000000 0.000000 0.020097 0.000000
# 6 0.000000 0.000000 0.000000 0.000000 0.000000 0.027749
#
#
# Mechanical properties :
#
#
# Convention : Reuss Voigt Hill
#
# Bulk Modulus (GPa) = 63.18379 66.47412 64.82895
# Shear Modulus (GPa) = 38.74140 40.24851 39.49495
#
# Velocity S-wave (km/s) = 3.99793 4.07495 4.03663
# Velocity P-wave (km/s) = 6.88323 7.04027 6.96219
#
# Compressibility (1/GPa) = 0.01582684
#
# Stress axis : x y z
#
# Youngs Moduli (GPa) = 87.56274 72.53716 100.02088
#
# Poissons Ratio (x) = 0.20194 0.38050
# Poissons Ratio (y) = 0.24377 0.31012
# Poissons Ratio (z) = 0.33311 0.22490
#
# Static dielectric constant tensor:
#      x y z
#    x 4.438800 0.000000 0.000000 
#    y 0.000000 4.569040 0.000000 
#    z 0.000000 0.000000 4.360310 
# 
# 
# High freq. dielectric constant tensor:
#      x y z
#    x 1.971780 0.000000 0.000000 
#    y 0.000000 1.972250 0.000000 
#    z 0.000000 0.000000 1.963720 
# 
# From -- ./inp_files/488.got.cif
#   From: 2010.03.12/outbox.cif.g09.slc.cpg/sg18_1_cif.got.tgz:488.got - 2010.04.10 18:53:55.
