data_PCOD8156219
_publ_section_title
;
Structure prediction by ZEFSAII (Michael W. Deem and Ramdas Pophale) SiO2 
 PCOD8156219
Probable space group: P 21 21 2
;
_chemical_formula_sum "Si O2"
_cell_formula_units_Z 16
_cell_length_a 12.034345
_cell_length_b 8.741018
_cell_length_c 7.400211
_cell_angle_alpha 90.000000
_cell_angle_beta 90.000000
_cell_angle_gamma 90.000000
_cell_volume 778.446150
_symmetry_space_group_name_H-M "P 21 21 2"
_symmetry_group_IT_number 18
_symmetry_cell_setting 'orthorhombic'
loop_
_space_group_symop_operation_xyz
x,y,z
-x,-y,z
1/2+x,1/2-y,-z
1/2-x,1/2+y,-z
loop_
_atom_site_type_symbol
_atom_site_label
_atom_site_fract_x
_atom_site_fract_y
_atom_site_fract_z
Si Si1 0.137205 0.835067 0.437019
Si Si2 0.301499 0.664373 0.657267
Si Si3 0.499236 0.820700 0.852811
Si Si4 0.061772 0.652152 0.748804
O O1 0.260338 0.773502 0.491854
O O2 0.101668 0.760446 0.247654
O O3 0.048411 0.780896 0.591611
O O4 0.135246 0.017572 0.422952
O O5 0.381790 0.755133 0.789939
O O6 0.193203 0.612560 0.773182
O O7 0.500000 0.000000 0.812960
O O8 0.511462 0.785492 0.064946
O O9 0.000000 0.500000 0.682070
#
# Coordination Sequence:
#
# PCOD8156219 Si02
#       4
#     4   4   4   4
#     4  10  22  41  65 100 133 175 228 278 342 404
#     4  10  23  42  68  99 132 183 220 282 344 402
#     4  11  22  42  65  94 138 171 231 285 335 407
#     4   9  23  41  68  97 133 182 223 277 340 402
#
# _framework density 20.553764999999999
#
# number of rings (size 3 to 8) (size 9 to 14) (size 15 to 20)
#    1.500    0.500    0.000    3.000    3.500    4.000 
#    0.000    2.500    0.000    0.000    0.000    0.000 
#    0.000    0.000    0.000    0.000    0.000    0.000 
#
# Total GULP energy -198342.627980 kJ/mol
# GULP energy per Si atom -12396.414249 kJ/mol
# Density = 2.050698 g / cm^3
# Si number density = 20.553765 Si / 1000 Ang^3
#
#
#
# Elastic Constant Matrix: (Units=GPa)
#
#
# Indices 1 2 3 4 5 6 
#
# 1 86.3746 37.8853 12.7929 0.0000 0.0000 0.0000
# 2 37.8853 132.2744 46.9079 0.0000 0.0000 0.0000
# 3 12.7929 46.9079 71.6485 0.0000 0.0000 0.0000
# 4 0.0000 0.0000 0.0000 30.5444 0.0000 0.0000
# 5 0.0000 0.0000 0.0000 0.0000 38.3701 0.0000
# 6 0.0000 0.0000 0.0000 0.0000 0.0000 45.3074
#
#
#
# Elastic Compliance Matrix: (Units=1/GPa)
#
#
# Indices 1 2 3 4 5 6 
#
# 1 0.013242 -0.003848 0.000155 0.000000 0.000000 0.000000
# 2 -0.003848 0.010964 -0.006491 0.000000 0.000000 0.000000
# 3 0.000155 -0.006491 0.018179 0.000000 0.000000 0.000000
# 4 0.000000 0.000000 0.000000 0.032739 0.000000 0.000000
# 5 0.000000 0.000000 0.000000 0.000000 0.026062 0.000000
# 6 0.000000 0.000000 0.000000 0.000000 0.000000 0.022071
#
#
# Mechanical properties :
#
#
# Convention : Reuss Voigt Hill
#
# Bulk Modulus (GPa) = 45.41916 53.94106 49.68011
# Shear Modulus (GPa) = 33.12029 35.69182 34.40605
#
# Velocity S-wave (km/s) = 4.01858 4.17167 4.09584
# Velocity P-wave (km/s) = 6.60891 7.03595 6.82577
#
# Compressibility (1/GPa) = 0.02201714
#
# Stress axis : x y z
#
# Youngs Moduli (GPa) = 75.51614 91.20816 55.00834
#
# Poissons Ratio (x) = 0.35093 -0.00850
# Poissons Ratio (y) = 0.29055 0.35706
# Poissons Ratio (z) = -0.01167 0.59204
#
# Static dielectric constant tensor:
#      x y z
#    x 3.665650 0.000000 0.000000 
#    y 0.000000 3.567470 0.000000 
#    z 0.000000 0.000000 3.549600 
# 
# 
# High freq. dielectric constant tensor:
#      x y z
#    x 1.807160 0.000000 0.000000 
#    y 0.000000 1.802750 0.000000 
#    z 0.000000 0.000000 1.794850 
# 
# From -- ./inp_files/3578.got.cif
#   From: 2010.03.12/outbox.cif.g09.slc.cpg/sg18_2_cif.got.tgz:3578.got - 2010.04.10 18:53:55.
