data_PCOD8156732
_publ_section_title
;
Structure prediction by ZEFSAII (Michael W. Deem and Ramdas Pophale) SiO2 
 PCOD8156732
Probable space group: P 21 21 21
;
_chemical_formula_sum "Si O2"
_cell_formula_units_Z 32
_cell_length_a 15.284412
_cell_length_b 19.268336
_cell_length_c 5.010370
_cell_angle_alpha 90.000000
_cell_angle_beta 90.000000
_cell_angle_gamma 90.000000
_cell_volume 1475.579949
_symmetry_space_group_name_H-M "P 21 21 21"
_symmetry_group_IT_number 19
_symmetry_cell_setting 'orthorhombic'
loop_
_space_group_symop_operation_xyz
x,y,z
1/2-x,-y,1/2+z
1/2+x,1/2-y,-z
-x,1/2+y,1/2-z
loop_
_atom_site_type_symbol
_atom_site_label
_atom_site_fract_x
_atom_site_fract_y
_atom_site_fract_z
Si Si1 0.460770 0.498362 0.770417
Si Si2 0.221021 0.540310 0.481771
Si Si3 0.301025 0.671420 0.295589
Si Si4 0.095832 0.203839 0.956323
Si Si5 0.531261 0.088191 0.227803
Si Si6 0.577084 0.708180 0.458743
Si Si7 0.863382 0.220814 0.470667
Si Si8 0.462300 0.866783 0.956608
O O1 0.379153 0.455422 0.886461
O O2 0.429810 0.546052 0.524383
O O3 0.532499 0.445969 0.646246
O O4 0.499852 0.542607 0.018618
O O5 0.222316 0.502647 0.766039
O O6 0.258635 0.618332 0.511233
O O7 0.319673 0.747119 0.420851
O O8 0.389783 0.638353 0.170241
O O9 0.228372 0.681611 0.067344
O O10 0.086981 0.140922 0.740820
O O11 0.012448 0.251539 0.917746
O O12 0.100151 0.173849 0.252063
O O13 0.445809 0.128513 0.114014
O O14 0.616521 0.718993 0.751960
O O15 0.646107 0.740010 0.250938
O O16 0.939852 0.163645 0.467377
#
# Coordination Sequence:
#
# PCOD8156732 Si02
#       8
#     4   4   4   4   4   4   4   4
#     4  12  21  36  57  82 111 157 182 221 276 338
#     4  12  23  36  50  81 124 152 177 213 267 344
#     4  11  22  37  57  86 116 153 182 226 278 339
#     4   9  21  35  54  75 110 145 187 232 268 314
#     4  11  23  36  57  83 117 147 189 223 273 337
#     4   9  20  37  51  77 108 146 188 228 264 322
#     4  10  20  34  56  77 109 148 180 226 276 321
#     4  10  20  37  52  79 109 144 189 227 268 329
#
# _framework density 21.686387
#
# number of rings (size 3 to 8) (size 9 to 14) (size 15 to 20)
#    0.000    1.500    3.750    1.500    0.000    7.000 
#    0.000    0.000    0.000    0.000    0.000   17.500 
#    0.000    0.000    0.000    0.000    0.000    0.000 
#
# Total GULP energy -396705.992025 kJ/mol
# GULP energy per Si atom -12397.062251 kJ/mol
# Density = 2.163703 g / cm^3
# Si number density = 21.686387 Si / 1000 Ang^3
#
#
#
# Elastic Constant Matrix: (Units=GPa)
#
#
# Indices 1 2 3 4 5 6 
#
# 1 31.2376 17.1796 -4.1075 0.0000 0.0000 0.0000
# 2 17.1796 68.1795 -0.1166 0.0000 0.0000 0.0000
# 3 -4.1075 -0.1166 66.7809 0.0000 0.0000 0.0000
# 4 0.0000 0.0000 0.0000 19.8918 0.0000 0.0000
# 5 0.0000 0.0000 0.0000 0.0000 16.1232 0.0000
# 6 0.0000 0.0000 0.0000 0.0000 0.0000 24.8962
#
#
#
# Elastic Compliance Matrix: (Units=1/GPa)
#
#
# Indices 1 2 3 4 5 6 
#
# 1 0.037510 -0.009448 0.002291 0.000000 0.000000 0.000000
# 2 -0.009448 0.017047 -0.000551 0.000000 0.000000 0.000000
# 3 0.002291 -0.000551 0.015114 0.000000 0.000000 0.000000
# 4 0.000000 0.000000 0.000000 0.050272 0.000000 0.000000
# 5 0.000000 0.000000 0.000000 0.000000 0.062022 0.000000
# 6 0.000000 0.000000 0.000000 0.000000 0.000000 0.040167
#
#
# Mechanical properties :
#
#
# Convention : Reuss Voigt Hill
#
# Bulk Modulus (GPa) = 18.43179 21.34545 19.88862
# Shear Modulus (GPa) = 19.55927 22.39841 20.97884
#
# Velocity S-wave (km/s) = 3.00645 3.21726 3.11364
# Velocity P-wave (km/s) = 4.53534 4.86468 4.70290
#
# Compressibility (1/GPa) = 0.05425409
#
# Stress axis : x y z
#
# Youngs Moduli (GPa) = 26.65975 58.66201 66.16263
#
# Poissons Ratio (x) = 0.55422 -0.15155
# Poissons Ratio (y) = 0.25187 0.03648
# Poissons Ratio (z) = -0.06107 0.03234
#
# Static dielectric constant tensor:
#      x y z
#    x 3.560450 0.000000 0.000000 
#    y 0.000000 4.022670 0.000000 
#    z 0.000000 0.000000 3.927300 
# 
# 
# High freq. dielectric constant tensor:
#      x y z
#    x 1.807780 0.000000 0.000000 
#    y 0.000000 1.840510 0.000000 
#    z 0.000000 0.000000 1.858790 
# 
# From -- ./inp_files/1586.got.cif
#   From: 2010.03.12/outbox.cif.g09.slc.cpg/sg19_1_cif.got.tgz:1586.got - 2010.04.10 18:59:41.
