data_PCOD8156213
_publ_section_title
;
Structure prediction by ZEFSAII (Michael W. Deem and Ramdas Pophale) SiO2 
 PCOD8156213
Probable space group: P 21 21 2
;
_chemical_formula_sum "Si O2"
_cell_formula_units_Z 20
_cell_length_a 10.428375
_cell_length_b 7.886418
_cell_length_c 10.988431
_cell_angle_alpha 90.000000
_cell_angle_beta 90.000000
_cell_angle_gamma 90.000000
_cell_volume 903.716304
_symmetry_space_group_name_H-M "P 21 21 2"
_symmetry_group_IT_number 18
_symmetry_cell_setting 'orthorhombic'
loop_
_space_group_symop_operation_xyz
x,y,z
-x,-y,z
1/2+x,1/2-y,-z
1/2-x,1/2+y,-z
loop_
_atom_site_type_symbol
_atom_site_label
_atom_site_fract_x
_atom_site_fract_y
_atom_site_fract_z
Si Si1 0.975325 0.811304 0.763015
Si Si2 0.872745 0.394425 0.590017
Si Si3 0.230733 0.780970 0.354461
Si Si4 0.612448 0.779500 0.902066
Si Si5 0.633686 0.154633 0.002727
O O1 0.863189 0.823346 0.661519
O O2 0.103713 0.735472 0.702184
O O3 0.921699 0.674469 0.860255
O O4 0.000000 0.000000 0.815945
O O5 0.840854 0.287610 0.471527
O O6 0.757126 0.518724 0.627736
O O7 0.000000 0.500000 0.560958
O O8 0.139775 0.753833 0.238179
O O9 0.464417 0.720517 0.927200
O O10 0.621445 0.974492 0.940355
O O11 0.715095 0.695077 0.995129
#
# Coordination Sequence:
#
# PCOD8156213 Si02
#       5
#     4   4   4   4   4
#     4  10  22  41  69  95 132 180 221 274 346 404
#     4  10  22  40  70  95 134 171 229 278 337 406
#     4  10  22  41  65  98 131 177 221 282 335 393
#     4  10  24  41  68  97 138 173 227 273 339 395
#     4  10  24  42  67  97 135 176 219 278 336 405
#
# _framework density 22.130838000000001
#
# number of rings (size 3 to 8) (size 9 to 14) (size 15 to 20)
#    0.000    2.000    0.000    1.200   22.400    0.000 
#    0.000    0.000   26.400    0.000    0.000    0.000 
#    0.000    0.000    0.000    0.000    0.000    0.000 
#
# Total GULP energy -247774.493279 kJ/mol
# GULP energy per Si atom -12388.724664 kJ/mol
# Density = 2.208047 g / cm^3
# Si number density = 22.130838 Si / 1000 Ang^3
#
#
#
# Elastic Constant Matrix: (Units=GPa)
#
#
# Indices 1 2 3 4 5 6 
#
# 1 49.1883 8.7806 23.3456 0.0000 0.0000 0.0000
# 2 8.7806 73.1374 41.9847 0.0000 0.0000 0.0000
# 3 23.3456 41.9847 111.4005 0.0000 0.0000 0.0000
# 4 0.0000 0.0000 0.0000 27.9932 0.0000 0.0000
# 5 0.0000 0.0000 0.0000 0.0000 48.2136 0.0000
# 6 0.0000 0.0000 0.0000 0.0000 0.0000 30.3432
#
#
#
# Elastic Compliance Matrix: (Units=1/GPa)
#
#
# Indices 1 2 3 4 5 6 
#
# 1 0.022575 0.000007 -0.004734 0.000000 0.000000 0.000000
# 2 0.000007 0.017448 -0.006577 0.000000 0.000000 0.000000
# 3 -0.004734 -0.006577 0.012447 0.000000 0.000000 0.000000
# 4 0.000000 0.000000 0.000000 0.035723 0.000000 0.000000
# 5 0.000000 0.000000 0.000000 0.000000 0.020741 0.000000
# 6 0.000000 0.000000 0.000000 0.000000 0.000000 0.032956
#
#
# Mechanical properties :
#
#
# Convention : Reuss Voigt Hill
#
# Bulk Modulus (GPa) = 33.48626 42.43866 37.96246
# Shear Modulus (GPa) = 28.66103 31.95101 30.30602
#
# Velocity S-wave (km/s) = 3.60262 3.80377 3.70456
# Velocity P-wave (km/s) = 5.69816 6.20560 5.95728
#
# Compressibility (1/GPa) = 0.02986300
#
# Stress axis : x y z
#
# Youngs Moduli (GPa) = 44.29588 57.31410 80.33772
#
# Poissons Ratio (x) = -0.00040 0.38029
# Poissons Ratio (y) = -0.00031 0.52840
# Poissons Ratio (z) = 0.20968 0.37697
#
# Static dielectric constant tensor:
#      x y z
#    x 5.130020 0.000000 0.000000 
#    y 0.000000 3.866830 0.000000 
#    z 0.000000 0.000000 3.869910 
# 
# 
# High freq. dielectric constant tensor:
#      x y z
#    x 1.878740 0.000000 0.000000 
#    y 0.000000 1.861690 0.000000 
#    z 0.000000 0.000000 1.866410 
# 
# From -- ./inp_files/3661.got.cif
#   From: 2010.03.12/outbox.cif.g09.slc.cpg/sg18_2_cif.got.tgz:3661.got - 2010.04.10 18:53:55.
