data_PCOD8156087
_publ_section_title
;
Structure prediction by ZEFSAII (Michael W. Deem and Ramdas Pophale) SiO2 
 PCOD8156087
Probable space group: P 21 21 2
;
_chemical_formula_sum "Si O2"
_cell_formula_units_Z 20
_cell_length_a 7.629874
_cell_length_b 13.898890
_cell_length_c 9.746739
_cell_angle_alpha 90.000000
_cell_angle_beta 90.000000
_cell_angle_gamma 90.000000
_cell_volume 1033.610281
_symmetry_space_group_name_H-M "P 21 21 2"
_symmetry_group_IT_number 18
_symmetry_cell_setting 'orthorhombic'
loop_
_space_group_symop_operation_xyz
x,y,z
-x,-y,z
1/2+x,1/2-y,-z
1/2-x,1/2+y,-z
loop_
_atom_site_type_symbol
_atom_site_label
_atom_site_fract_x
_atom_site_fract_y
_atom_site_fract_z
Si Si1 0.072290 0.398632 0.246564
Si Si2 0.415554 0.399688 0.090902
Si Si3 0.185467 0.223835 0.391253
Si Si4 0.398825 0.286301 0.814099
Si Si5 0.060574 0.237220 0.685138
O O1 0.214070 0.417748 0.128143
O O2 0.158879 0.340189 0.374428
O O3 0.000000 0.500000 0.300862
O O4 0.921093 0.330503 0.180201
O O5 0.500000 0.500000 0.048431
O O6 0.517995 0.352596 0.217721
O O7 0.426791 0.328014 0.963509
O O8 0.147593 0.193267 0.546958
O O9 0.386809 0.200241 0.350635
O O10 0.049495 0.170244 0.287869
O O11 0.203524 0.307481 0.756656
#
# Coordination Sequence:
#
# PCOD8156087 Si02
#       5
#     4   4   4   4   4
#     4   9  19  36  59  88 119 156 200 249 297 364
#     4  11  23  37  60  91 122 167 202 249 301 353
#     4   9  20  35  63  90 114 154 205 241 313 352
#     4  10  21  38  61  86 126 156 200 252 291 368
#     4  11  19  38  64  88 115 161 199 251 301 360
#
# _framework density 19.349651999999999
#
# number of rings (size 3 to 8) (size 9 to 14) (size 15 to 20)
#    1.200    0.800    2.000    2.400    0.000    0.000 
#    3.600    1.000    8.800    1.200    0.000    0.000 
#    0.000    0.000    0.000    0.000    0.000    0.000 
#
# Total GULP energy -247833.096831 kJ/mol
# GULP energy per Si atom -12391.654842 kJ/mol
# Density = 1.930561 g / cm^3
# Si number density = 19.349652 Si / 1000 Ang^3
#
#
#
# Elastic Constant Matrix: (Units=GPa)
#
#
# Indices 1 2 3 4 5 6 
#
# 1 146.6674 22.1507 46.6533 0.0000 0.0000 0.0000
# 2 22.1507 51.4407 41.0453 0.0000 0.0000 0.0000
# 3 46.6533 41.0453 119.8250 0.0000 0.0000 0.0000
# 4 0.0000 0.0000 0.0000 12.4884 0.0000 0.0000
# 5 0.0000 0.0000 0.0000 0.0000 30.0222 0.0000
# 6 0.0000 0.0000 0.0000 0.0000 0.0000 18.5049
#
#
#
# Elastic Compliance Matrix: (Units=1/GPa)
#
#
# Indices 1 2 3 4 5 6 
#
# 1 0.007844 -0.001295 -0.002611 0.000000 0.000000 0.000000
# 2 -0.001295 0.026965 -0.008733 0.000000 0.000000 0.000000
# 3 -0.002611 -0.008733 0.012353 0.000000 0.000000 0.000000
# 4 0.000000 0.000000 0.000000 0.080075 0.000000 0.000000
# 5 0.000000 0.000000 0.000000 0.000000 0.033309 0.000000
# 6 0.000000 0.000000 0.000000 0.000000 0.000000 0.054040
#
#
# Mechanical properties :
#
#
# Convention : Reuss Voigt Hill
#
# Bulk Modulus (GPa) = 45.68986 59.73687 52.71337
# Shear Modulus (GPa) = 20.23004 26.07535 23.15269
#
# Velocity S-wave (km/s) = 3.23693 3.67493 3.46286
# Velocity P-wave (km/s) = 6.13468 6.99615 6.57953
#
# Compressibility (1/GPa) = 0.02188669
#
# Stress axis : x y z
#
# Youngs Moduli (GPa) = 127.48481 37.08462 80.95034
#
# Poissons Ratio (x) = 0.04801 0.21133
# Poissons Ratio (y) = 0.16506 0.70692
# Poissons Ratio (z) = 0.33281 0.32385
#
# Static dielectric constant tensor:
#      x y z
#    x 3.874040 0.000000 0.000000 
#    y 0.000000 2.981560 0.000000 
#    z 0.000000 0.000000 3.383340 
# 
# 
# High freq. dielectric constant tensor:
#      x y z
#    x 1.778190 0.000000 0.000000 
#    y 0.000000 1.695290 0.000000 
#    z 0.000000 0.000000 1.749900 
# 
# From -- ./inp_files/3081.got.cif
#   From: 2010.03.12/outbox.cif.g09.slc.cpg/sg18_2_cif.got.tgz:3081.got - 2010.04.10 18:53:55.
