data_PCOD8156399
_publ_section_title
;
Structure prediction by ZEFSAII (Michael W. Deem and Ramdas Pophale) SiO2 
 PCOD8156399
Probable space group: P 21 21 2
;
_chemical_formula_sum "Si O2"
_cell_formula_units_Z 12
_cell_length_a 9.917163
_cell_length_b 8.270060
_cell_length_c 4.579341
_cell_angle_alpha 90.000000
_cell_angle_beta 90.000000
_cell_angle_gamma 90.000000
_cell_volume 375.577093
_symmetry_space_group_name_H-M "P 21 21 2"
_symmetry_group_IT_number 18
_symmetry_cell_setting 'orthorhombic'
loop_
_space_group_symop_operation_xyz
x,y,z
-x,-y,z
1/2+x,1/2-y,-z
1/2-x,1/2+y,-z
loop_
_atom_site_type_symbol
_atom_site_label
_atom_site_fract_x
_atom_site_fract_y
_atom_site_fract_z
Si Si1 0.447617 0.180584 0.699037
Si Si2 0.722743 0.693541 0.204774
Si Si3 0.612181 0.370244 0.239939
O O1 0.412857 0.249388 0.023344
O O2 0.570363 0.281974 0.542114
O O3 0.500000 0.000000 0.696506
O O4 0.305588 0.218639 0.519802
O O5 0.856911 0.745268 0.026381
O O6 0.739330 0.499531 0.256009
O O7 0.500000 0.500000 0.149633
#
# Coordination Sequence:
#
# PCOD8156399 Si02
#       3
#     4   4   4
#     4  11  25  45  72 106 145 194 248 306 373 444
#     4  11  25  44  72 107 147 193 244 309 372 439
#     4  10  25  45  72 107 146 191 246 303 368 441
#
# _framework density 31.95083
#
# number of rings (size 3 to 8) (size 9 to 14) (size 15 to 20)
#    0.000    1.333    0.000    3.000    0.000   30.667 
#    0.000    0.000    0.000    0.000    0.000    0.000 
#    0.000    0.000    0.000    0.000    0.000    0.000 
#
# Total GULP energy -148837.457964 kJ/mol
# GULP energy per Si atom -12403.121497 kJ/mol
# Density = 3.187811 g / cm^3
# Si number density = 31.950830 Si / 1000 Ang^3
#
#
#
# Elastic Constant Matrix: (Units=GPa)
#
#
# Indices 1 2 3 4 5 6 
#
# 1 121.0456 -2.0844 17.2122 0.0000 0.0000 0.0000
# 2 -2.0844 255.5630 84.4170 0.0000 0.0000 0.0000
# 3 17.2122 84.4170 199.9391 0.0000 0.0000 0.0000
# 4 0.0000 0.0000 0.0000 53.0236 0.0000 0.0000
# 5 0.0000 0.0000 0.0000 0.0000 43.7618 0.0000
# 6 0.0000 0.0000 0.0000 0.0000 0.0000 41.3447
#
#
#
# Elastic Compliance Matrix: (Units=1/GPa)
#
#
# Indices 1 2 3 4 5 6 
#
# 1 0.008392 0.000357 -0.000873 0.000000 0.000000 0.000000
# 2 0.000357 0.004562 -0.001957 0.000000 0.000000 0.000000
# 3 -0.000873 -0.001957 0.005903 0.000000 0.000000 0.000000
# 4 0.000000 0.000000 0.000000 0.018860 0.000000 0.000000
# 5 0.000000 0.000000 0.000000 0.000000 0.022851 0.000000
# 6 0.000000 0.000000 0.000000 0.000000 0.000000 0.024187
#
#
# Mechanical properties :
#
#
# Convention : Reuss Voigt Hill
#
# Bulk Modulus (GPa) = 71.88850 86.18192 79.03521
# Shear Modulus (GPa) = 53.00120 59.42621 56.21371
#
# Velocity S-wave (km/s) = 4.07730 4.31737 4.19905
# Velocity P-wave (km/s) = 6.68688 7.20310 6.94979
#
# Compressibility (1/GPa) = 0.01391043
#
# Stress axis : x y z
#
# Youngs Moduli (GPa) = 119.16620 219.18963 169.40708
#
# Poissons Ratio (x) = -0.07821 0.14791
# Poissons Ratio (y) = -0.04252 0.33152
# Poissons Ratio (z) = 0.10404 0.42895
#
# Static dielectric constant tensor:
#      x y z
#    x 9.338610 0.000000 0.000000 
#    y 0.000000 7.266020 0.000000 
#    z 0.000000 0.000000 5.872840 
# 
# 
# High freq. dielectric constant tensor:
#      x y z
#    x 2.453750 0.000000 0.000000 
#    y 0.000000 2.342190 0.000000 
#    z 0.000000 0.000000 2.345960 
# 
# From -- ./inp_files/23.got.cif
#   From: 2010.03.12/outbox.cif.g09.slc.cpg/sg18_1_cif.got.tgz:23.got - 2010.04.10 18:53:55.
