data_PCOD8156913
_publ_section_title
;
Structure prediction by ZEFSAII (Michael W. Deem and Ramdas Pophale) SiO2 
 PCOD8156913
Probable space group: P 21 21 21
;
_chemical_formula_sum "Si O2"
_cell_formula_units_Z 32
_cell_length_a 9.997539
_cell_length_b 11.842223
_cell_length_c 13.391747
_cell_angle_alpha 90.000000
_cell_angle_beta 90.000000
_cell_angle_gamma 90.000000
_cell_volume 1585.490258
_symmetry_space_group_name_H-M "P 21 21 21"
_symmetry_group_IT_number 19
_symmetry_cell_setting 'orthorhombic'
loop_
_space_group_symop_operation_xyz
x,y,z
1/2-x,-y,1/2+z
1/2+x,1/2-y,-z
-x,1/2+y,1/2-z
loop_
_atom_site_type_symbol
_atom_site_label
_atom_site_fract_x
_atom_site_fract_y
_atom_site_fract_z
Si Si1 0.864017 0.957421 0.146753
Si Si2 0.278534 0.333642 0.965139
Si Si3 0.986111 0.548132 0.672742
Si Si4 0.404500 0.976980 0.113886
Si Si5 0.357077 0.339249 0.479312
Si Si6 0.496319 0.227018 0.078543
Si Si7 0.622797 0.576616 0.981113
Si Si8 0.228421 0.500478 0.144551
O O1 0.866855 0.952780 0.267334
O O2 0.011065 0.935135 0.104263
O O3 0.814038 0.083835 0.125157
O O4 0.762324 0.867849 0.097494
O O5 0.152951 0.255284 0.941843
O O6 0.406519 0.253994 0.981581
O O7 0.237078 0.405624 0.060981
O O8 0.890007 0.546456 0.768246
O O9 0.035081 0.678221 0.661415
O O10 0.911117 0.502662 0.574822
O O11 0.122472 0.475193 0.688412
O O12 0.261055 0.967864 0.063596
O O13 0.464790 0.101558 0.111489
O O14 0.504031 0.889816 0.060584
O O15 0.368031 0.205125 0.483614
O O16 0.328328 0.386595 0.591157
#
# Coordination Sequence:
#
# PCOD8156913 Si02
#       8
#     4   4   4   4   4   4   4   4
#     4  11  21  45  64  93 131 177 225 262 335 404
#     4  10  21  39  65  90 126 170 213 273 327 383
#     4  11  24  43  70  95 132 181 217 277 340 396
#     4  12  26  41  69 104 130 177 229 270 340 402
#     4  11  23  45  68  98 133 182 218 278 334 403
#     4  11  21  42  67  93 130 171 221 274 319 397
#     4  12  26  43  66 103 145 164 224 287 336 390
#     4  10  20  42  69  90 125 180 225 257 335 403
#
# _framework density 20.183032000000001
#
# number of rings (size 3 to 8) (size 9 to 14) (size 15 to 20)
#    0.000    1.000    7.500    1.500    1.750    2.000 
#    4.500    0.000    0.000    0.000    0.000    0.000 
#    0.000    0.000    0.000    0.000    0.000    0.000 
#
# Total GULP energy -396732.562647 kJ/mol
# GULP energy per Si atom -12397.892583 kJ/mol
# Density = 2.013709 g / cm^3
# Si number density = 20.183032 Si / 1000 Ang^3
#
#
#
# Elastic Constant Matrix: (Units=GPa)
#
#
# Indices 1 2 3 4 5 6 
#
# 1 100.4373 9.9422 7.8240 0.0000 0.0000 0.0000
# 2 9.9422 82.1050 14.1677 0.0000 0.0000 0.0000
# 3 7.8240 14.1677 86.0702 0.0000 0.0000 0.0000
# 4 0.0000 0.0000 0.0000 11.7074 0.0000 0.0000
# 5 0.0000 0.0000 0.0000 0.0000 28.5067 0.0000
# 6 0.0000 0.0000 0.0000 0.0000 0.0000 -273.1053
#
#
#
# Elastic Compliance Matrix: (Units=1/GPa)
#
#
# Indices 1 2 3 4 5 6 
#
# 1 0.010123 -0.001098 -0.000739 0.000000 0.000000 0.000000
# 2 -0.001098 0.012655 -0.001983 0.000000 0.000000 0.000000
# 3 -0.000739 -0.001983 0.012012 0.000000 0.000000 0.000000
# 4 0.000000 0.000000 0.000000 0.085416 0.000000 0.000000
# 5 0.000000 0.000000 0.000000 0.000000 0.035079 0.000000
# 6 0.000000 0.000000 0.000000 0.000000 0.000000 -0.003662
#
#
# Mechanical properties :
#
#
# Convention : Reuss Voigt Hill
#
# Bulk Modulus (GPa) = 36.83519 36.94223 36.88871
# Shear Modulus (GPa) = 29.70631 -30.79967 -0.54668
#
# Velocity S-wave (km/s) = 3.84063 -3.91067 -0.52101
# Velocity P-wave (km/s) = 6.16096 1.43099 4.23731
#
# Compressibility (1/GPa) = 0.02714795
#
# Stress axis : x y z
#
# Youngs Moduli (GPa) = 98.78720 79.02186 83.24947
#
# Poissons Ratio (x) = 0.08678 0.06156
# Poissons Ratio (y) = 0.10849 0.16510
# Poissons Ratio (z) = 0.07304 0.15672
#
# Static dielectric constant tensor:
#      x y z
#    x 3.932730 0.000000 0.000000 
#    y 0.000000 3.700330 0.000000 
#    z 0.000000 0.000000 7.399160 
# 
# 
# High freq. dielectric constant tensor:
#      x y z
#    x 1.795430 0.000000 0.000000 
#    y 0.000000 1.788980 0.000000 
#    z 0.000000 0.000000 1.782860 
# 
# From -- ./inp_files/5903.got.cif
#   From: 2010.03.12/outbox.cif.g09.slc.cpg/sg19_3_cif.got.tgz:5903.got - 2010.04.10 18:59:41.
