data_PCOD8156817
_publ_section_title
;
Structure prediction by ZEFSAII (Michael W. Deem and Ramdas Pophale) SiO2 
 PCOD8156817
Probable space group: P 21 21 21
;
_chemical_formula_sum "Si O2"
_cell_formula_units_Z 32
_cell_length_a 8.678890
_cell_length_b 22.263256
_cell_length_c 7.940510
_cell_angle_alpha 90.000000
_cell_angle_beta 90.000000
_cell_angle_gamma 90.000000
_cell_volume 1534.268120
_symmetry_space_group_name_H-M "P 21 21 21"
_symmetry_group_IT_number 19
_symmetry_cell_setting 'orthorhombic'
loop_
_space_group_symop_operation_xyz
x,y,z
1/2-x,-y,1/2+z
1/2+x,1/2-y,-z
-x,1/2+y,1/2-z
loop_
_atom_site_type_symbol
_atom_site_label
_atom_site_fract_x
_atom_site_fract_y
_atom_site_fract_z
Si Si1 0.518222 0.628176 0.433941
Si Si2 0.384121 0.185727 0.391064
Si Si3 0.083460 0.131058 0.817360
Si Si4 0.793170 0.554651 0.376447
Si Si5 0.929151 0.753039 0.153061
Si Si6 0.741150 0.426575 0.491532
Si Si7 0.745097 0.165691 0.870002
Si Si8 0.192788 0.772215 0.385814
O O1 0.516551 0.671002 0.272249
O O2 0.607342 0.565950 0.396509
O O3 0.344732 0.619348 0.504705
O O4 0.608687 0.665484 0.573571
O O5 0.484442 0.237810 0.475656
O O6 0.204680 0.203130 0.355013
O O7 0.370207 0.125612 0.504247
O O8 0.120601 0.089600 0.656034
O O9 0.154175 0.198957 0.798342
O O10 0.900594 0.135943 0.812224
O O11 0.121315 0.100897 0.999015
O O12 0.828513 0.487193 0.434594
O O13 0.836799 0.565592 0.178808
O O14 0.854189 0.817074 0.205560
O O15 0.073019 0.733485 0.273093
O O16 0.761061 0.231135 0.958149
#
# Coordination Sequence:
#
# PCOD8156817 Si02
#       8
#     4   4   4   4   4   4   4   4
#     4   9  21  39  59  87 121 161 213 259 314 378
#     4  11  24  39  59  94 127 164 210 262 322 387
#     4  11  22  41  66  97 129 172 218 264 327 385
#     4  10  22  41  70  91 124 167 223 277 318 383
#     4  11  24  37  58  91 133 167 203 262 317 389
#     4  11  22  41  70  95 121 167 223 268 325 386
#     4  11  23  38  64  89 131 173 208 260 326 391
#     4  10  20  38  60  88 122 171 206 252 313 393
#
# _framework density 20.856850999999999
#
# number of rings (size 3 to 8) (size 9 to 14) (size 15 to 20)
#    0.000    1.500    3.750    1.500    7.000    0.000 
#    2.250    0.000    5.500    0.000    0.000    0.000 
#    0.000    0.000    0.000    0.000    0.000    0.000 
#
# Total GULP energy -396420.609621 kJ/mol
# GULP energy per Si atom -12388.144051 kJ/mol
# Density = 2.080938 g / cm^3
# Si number density = 20.856851 Si / 1000 Ang^3
#
#
#
# Elastic Constant Matrix: (Units=GPa)
#
#
# Indices 1 2 3 4 5 6 
#
# 1 93.2914 7.6800 22.0739 0.0000 0.0000 0.0000
# 2 7.6800 56.7115 10.2034 0.0000 0.0000 0.0000
# 3 22.0739 10.2034 101.2814 0.0000 0.0000 0.0000
# 4 0.0000 0.0000 0.0000 32.4958 0.0000 0.0000
# 5 0.0000 0.0000 0.0000 0.0000 32.7521 0.0000
# 6 0.0000 0.0000 0.0000 0.0000 0.0000 16.2320
#
#
#
# Elastic Compliance Matrix: (Units=1/GPa)
#
#
# Indices 1 2 3 4 5 6 
#
# 1 0.011371 -0.001114 -0.002366 0.000000 0.000000 0.000000
# 2 -0.001114 0.018068 -0.001577 0.000000 0.000000 0.000000
# 3 -0.002366 -0.001577 0.010548 0.000000 0.000000 0.000000
# 4 0.000000 0.000000 0.000000 0.030773 0.000000 0.000000
# 5 0.000000 0.000000 0.000000 0.000000 0.030532 0.000000
# 6 0.000000 0.000000 0.000000 0.000000 0.000000 0.061607
#
#
# Mechanical properties :
#
#
# Convention : Reuss Voigt Hill
#
# Bulk Modulus (GPa) = 33.47672 36.79988 35.13830
# Shear Modulus (GPa) = 27.32676 30.38445 28.85560
#
# Velocity S-wave (km/s) = 3.62360 3.82096 3.72359
# Velocity P-wave (km/s) = 5.79594 6.09497 5.94733
#
# Compressibility (1/GPa) = 0.02987150
#
# Stress axis : x y z
#
# Youngs Moduli (GPa) = 87.94587 55.34707 94.80433
#
# Poissons Ratio (x) = 0.06167 0.22430
# Poissons Ratio (y) = 0.09799 0.14954
# Poissons Ratio (z) = 0.20807 0.08730
#
# Static dielectric constant tensor:
#      x y z
#    x 3.808110 0.000000 0.000000 
#    y 0.000000 3.566720 0.000000 
#    z 0.000000 0.000000 3.974090 
# 
# 
# High freq. dielectric constant tensor:
#      x y z
#    x 1.798210 0.000000 0.000000 
#    y 0.000000 1.787080 0.000000 
#    z 0.000000 0.000000 1.834110 
# 
# From -- ./inp_files/3162.got.cif
#   From: 2010.03.12/outbox.cif.g09.slc.cpg/sg19_2_cif.got.tgz:3162.got - 2010.04.10 18:59:41.
