data_PCOD8156448
_publ_section_title
;
Structure prediction by ZEFSAII (Michael W. Deem and Ramdas Pophale) SiO2 
 PCOD8156448
Probable space group: P 21 21 2
;
_chemical_formula_sum "Si O2"
_cell_formula_units_Z 18
_cell_length_a 6.844499
_cell_length_b 20.213296
_cell_length_c 7.035002
_cell_angle_alpha 90.000000
_cell_angle_beta 90.000000
_cell_angle_gamma 90.000000
_cell_volume 973.291712
_symmetry_space_group_name_H-M "P 21 21 2"
_symmetry_group_IT_number 18
_symmetry_cell_setting 'orthorhombic'
loop_
_space_group_symop_operation_xyz
x,y,z
-x,-y,z
1/2+x,1/2-y,-z
1/2-x,1/2+y,-z
loop_
_atom_site_type_symbol
_atom_site_label
_atom_site_fract_x
_atom_site_fract_y
_atom_site_fract_z
Si Si1 0.618112 0.825025 0.125936
Si Si2 0.778290 0.109421 0.124927
Si Si3 0.000000 0.000000 0.300146
Si Si4 0.074938 0.138094 0.420061
Si Si5 0.536753 0.320223 0.152898
O O1 0.453517 0.881827 0.125903
O O2 0.735817 0.829271 0.322879
O O3 0.512858 0.755110 0.104964
O O4 0.759456 0.838835 0.947728
O O5 0.883514 0.154195 0.290264
O O6 0.832779 0.032492 0.164544
O O7 0.864924 0.132075 0.921933
O O8 0.902087 0.942377 0.429754
O O9 0.053789 0.170199 0.623695
#
# Coordination Sequence:
#
# PCOD8156448 Si02
#       5
#     4   4   2   4   4
#     4  11  22  37  61  92 119 152 198 248 301 356
#     4   9  21  41  60  82 123 156 193 250 289 351
#     4   8  20  44  58  82 120 158 208 240 288 360
#     4   9  23  38  60  84 119 160 196 243 297 353
#     4  11  22  38  61  93 119 155 197 246 307 354
#
# _framework density 18.493939999999998
#
# number of rings (size 3 to 8) (size 9 to 14) (size 15 to 20)
#    1.333    0.889    2.222    0.000    3.111    3.556 
#    0.000    0.000    4.889    0.000    0.000    0.000 
#    0.000    0.000    0.000    0.000    0.000    0.000 
#
# Total GULP energy -223092.584068 kJ/mol
# GULP energy per Si atom -12394.032448 kJ/mol
# Density = 1.845185 g / cm^3
# Si number density = 18.493940 Si / 1000 Ang^3
#
#
#
# Elastic Constant Matrix: (Units=GPa)
#
#
# Indices 1 2 3 4 5 6 
#
# 1 102.2991 0.4925 37.9547 0.0000 0.0000 0.0000
# 2 0.4925 44.3868 -10.5992 0.0000 0.0000 0.0000
# 3 37.9547 -10.5992 94.8592 0.0000 0.0000 0.0000
# 4 0.0000 0.0000 0.0000 22.2732 0.0000 0.0000
# 5 0.0000 0.0000 0.0000 0.0000 15.3055 0.0000
# 6 0.0000 0.0000 0.0000 0.0000 0.0000 34.4986
#
#
#
# Elastic Compliance Matrix: (Units=1/GPa)
#
#
# Indices 1 2 3 4 5 6 
#
# 1 0.011548 -0.001265 -0.004762 0.000000 0.000000 0.000000
# 2 -0.001265 0.023285 0.003108 0.000000 0.000000 0.000000
# 3 -0.004762 0.003108 0.012795 0.000000 0.000000 0.000000
# 4 0.000000 0.000000 0.000000 0.044897 0.000000 0.000000
# 5 0.000000 0.000000 0.000000 0.000000 0.065336 0.000000
# 6 0.000000 0.000000 0.000000 0.000000 0.000000 0.028987
#
#
# Mechanical properties :
#
#
# Convention : Reuss Voigt Hill
#
# Bulk Modulus (GPa) = 23.92926 33.02679 28.47803
# Shear Modulus (GPa) = 24.19948 28.66194 26.43071
#
# Velocity S-wave (km/s) = 3.62126 3.94102 3.78452
# Velocity P-wave (km/s) = 5.51831 6.21336 5.87612
#
# Compressibility (1/GPa) = 0.04178983
#
# Stress axis : x y z
#
# Youngs Moduli (GPa) = 86.59421 42.94531 78.15817
#
# Poissons Ratio (x) = 0.05434 0.37219
# Poissons Ratio (y) = 0.10956 -0.24292
# Poissons Ratio (z) = 0.41236 -0.13348
#
# Static dielectric constant tensor:
#      x y z
#    x 3.326180 0.000000 0.000000 
#    y 0.000000 3.253420 0.000000 
#    z 0.000000 0.000000 3.156990 
# 
# 
# High freq. dielectric constant tensor:
#      x y z
#    x 1.715240 0.000000 0.000000 
#    y 0.000000 1.709690 0.000000 
#    z 0.000000 0.000000 1.704280 
# 
# From -- ./inp_files/235.got.cif
#   From: 2010.03.12/outbox.cif.g09.slc.cpg/sg18_1_cif.got.tgz:235.got - 2010.04.10 18:53:55.
