data_PCOD8156578
_publ_section_title
;
Structure prediction by ZEFSAII (Michael W. Deem and Ramdas Pophale) SiO2 
 PCOD8156578
Probable space group: P 21 21 21
;
_chemical_formula_sum "Si O2"
_cell_formula_units_Z 32
_cell_length_a 8.572149
_cell_length_b 20.544281
_cell_length_c 9.214448
_cell_angle_alpha 90.000000
_cell_angle_beta 90.000000
_cell_angle_gamma 90.000000
_cell_volume 1622.743886
_symmetry_space_group_name_H-M "P 21 21 21"
_symmetry_group_IT_number 19
_symmetry_cell_setting 'orthorhombic'
loop_
_space_group_symop_operation_xyz
x,y,z
1/2-x,-y,1/2+z
1/2+x,1/2-y,-z
-x,1/2+y,1/2-z
loop_
_atom_site_type_symbol
_atom_site_label
_atom_site_fract_x
_atom_site_fract_y
_atom_site_fract_z
Si Si1 0.551215 0.426650 0.074205
Si Si2 0.904419 0.567575 0.906210
Si Si3 0.633410 0.574379 0.396617
Si Si4 0.087526 0.686029 0.410909
Si Si5 0.577829 0.707017 0.087186
Si Si6 0.950197 0.795199 0.608257
Si Si7 0.945340 0.682605 0.101889
Si Si8 0.403269 0.068407 0.431635
O O1 0.569950 0.409284 0.242449
O O2 0.495022 0.502179 0.055638
O O3 0.715525 0.414678 0.994957
O O4 0.421423 0.378517 0.010265
O O5 0.958166 0.492876 0.935714
O O6 0.992841 0.618389 0.010426
O O7 0.720007 0.568221 0.938220
O O8 0.514908 0.633126 0.425184
O O9 0.683382 0.570184 0.226508
O O10 0.265021 0.703471 0.382127
O O11 0.000757 0.747033 0.481667
O O12 0.997124 0.669868 0.264358
O O13 0.515144 0.733579 0.240339
O O14 0.762610 0.696803 0.093376
O O15 0.497677 0.635645 0.055762
O O16 0.538331 0.755584 0.958689
#
# Coordination Sequence:
#
# PCOD8156578 Si02
#       8
#     4   4   4   4   4   4   4   4
#     4  10  18  33  59  85 112 147 186 227 274 334
#     4   9  18  33  57  85 113 148 185 223 276 339
#     4   9  18  36  59  84 113 146 186 231 276 336
#     4  12  24  38  56  81 110 148 189 237 286 336
#     4  10  20  38  59  84 114 147 185 230 277 335
#     4  11  23  40  58  80 110 146 189 237 288 337
#     4  11  22  37  58  86 116 149 189 231 279 336
#     4   8  17  33  56  83 114 149 185 224 274 335
#
# _framework density 19.719685999999999
#
# number of rings (size 3 to 8) (size 9 to 14) (size 15 to 20)
#    0.000    2.000    0.000    5.250    0.000    4.000 
#    0.000    5.000    0.000    0.000    0.000    0.000 
#    0.000    0.000    0.000    0.000    0.000    0.000 
#
# Total GULP energy -396691.662483 kJ/mol
# GULP energy per Si atom -12396.614453 kJ/mol
# Density = 1.967480 g / cm^3
# Si number density = 19.719686 Si / 1000 Ang^3
#
#
#
# Elastic Constant Matrix: (Units=GPa)
#
#
# Indices 1 2 3 4 5 6 
#
# 1 53.6075 11.0781 5.6061 0.0000 0.0000 0.0000
# 2 11.0781 119.7203 40.0793 0.0000 0.0000 0.0000
# 3 5.6061 40.0793 98.8408 0.0000 0.0000 0.0000
# 4 0.0000 0.0000 0.0000 34.4466 0.0000 0.0000
# 5 0.0000 0.0000 0.0000 0.0000 40.4716 0.0000
# 6 0.0000 0.0000 0.0000 0.0000 0.0000 -14.4629
#
#
#
# Elastic Compliance Matrix: (Units=1/GPa)
#
#
# Indices 1 2 3 4 5 6 
#
# 1 0.019033 -0.001620 -0.000423 0.000000 0.000000 0.000000
# 2 -0.001620 0.009803 -0.003883 0.000000 0.000000 0.000000
# 3 -0.000423 -0.003883 0.011716 0.000000 0.000000 0.000000
# 4 0.000000 0.000000 0.000000 0.029030 0.000000 0.000000
# 5 0.000000 0.000000 0.000000 0.000000 0.024709 0.000000
# 6 0.000000 0.000000 0.000000 0.000000 0.000000 -0.069142
#
#
# Mechanical properties :
#
#
# Convention : Reuss Voigt Hill
#
# Bulk Modulus (GPa) = 34.84256 42.85507 38.84881
# Shear Modulus (GPa) = 107.37457 26.45140 66.91298
#
# Velocity S-wave (km/s) = 7.38706 3.66645 5.83144
# Velocity P-wave (km/s) = 9.51133 6.30104 8.06748
#
# Compressibility (1/GPa) = 0.02870053
#
# Stress axis : x y z
#
# Youngs Moduli (GPa) = 52.54026 102.01365 85.35483
#
# Poissons Ratio (x) = 0.16523 0.03609
# Poissons Ratio (y) = 0.08510 0.33144
# Poissons Ratio (z) = 0.02221 0.39612
#
# Static dielectric constant tensor:
#      x y z
#    x 3.140090 0.000000 0.000000 
#    y 0.000000 4.094000 0.000000 
#    z 0.000000 0.000000 3.780670 
# 
# 
# High freq. dielectric constant tensor:
#      x y z
#    x 1.722910 0.000000 0.000000 
#    y 0.000000 1.796240 0.000000 
#    z 0.000000 0.000000 1.778290 
# 
# From -- ./inp_files/3197.got.cif
#   From: 2010.03.12/outbox.cif.g09.slc.cpg/sg19_2_cif.got.tgz:3197.got - 2010.04.10 18:59:41.
