data_PCOD8156665
_publ_section_title
;
Structure prediction by ZEFSAII (Michael W. Deem and Ramdas Pophale) SiO2 
 PCOD8156665
Probable space group: P 21 21 21
;
_chemical_formula_sum "Si O2"
_cell_formula_units_Z 32
_cell_length_a 8.877786
_cell_length_b 9.556375
_cell_length_c 20.293137
_cell_angle_alpha 90.000000
_cell_angle_beta 90.000000
_cell_angle_gamma 90.000000
_cell_volume 1721.658626
_symmetry_space_group_name_H-M "P 21 21 21"
_symmetry_group_IT_number 19
_symmetry_cell_setting 'orthorhombic'
loop_
_space_group_symop_operation_xyz
x,y,z
1/2-x,-y,1/2+z
1/2+x,1/2-y,-z
-x,1/2+y,1/2-z
loop_
_atom_site_type_symbol
_atom_site_label
_atom_site_fract_x
_atom_site_fract_y
_atom_site_fract_z
Si Si1 0.139094 0.645513 0.933276
Si Si2 0.603901 0.950363 0.206167
Si Si3 0.421746 0.835737 0.950112
Si Si4 0.604831 0.603531 0.636286
Si Si5 0.265922 0.992283 0.235506
Si Si6 0.810176 0.093417 0.116037
Si Si7 0.464991 0.131404 0.650433
Si Si8 0.657932 0.204412 0.773766
O O1 0.090866 0.658181 0.856051
O O2 0.255582 0.768614 0.952101
O O3 0.222543 0.492940 0.941980
O O4 0.988971 0.652739 0.976623
O O5 0.443881 0.005491 0.229963
O O6 0.708568 0.081329 0.183119
O O7 0.682201 0.875837 0.268814
O O8 0.539841 0.741204 0.909195
O O9 0.413844 0.990730 0.920659
O O10 0.723085 0.548721 0.690272
O O11 0.667636 0.743537 0.600592
O O12 0.444015 0.635414 0.669776
O O13 0.199840 0.879747 0.183248
O O14 0.186927 0.134273 0.212168
O O15 0.972017 0.019248 0.126893
O O16 0.581637 0.194856 0.702548
#
# Coordination Sequence:
#
# PCOD8156665 Si02
#       8
#     4   4   4   4   4   4   4   4
#     4   9  22  41  59  80 116 155 191 255 283 349
#     4   9  21  36  55  84 122 152 190 242 303 335
#     4  11  21  41  63  85 113 152 212 239 288 358
#     4  11  21  36  64  88 115 160 199 239 290 371
#     4  11  20  31  59  89 119 160 184 243 303 348
#     4   8  18  39  53  79 119 146 188 245 290 329
#     4   9  18  35  57  80 114 156 192 227 286 359
#     4  10  19  37  54  89 122 151 196 236 289 365
#
# _framework density 18.586725999999999
#
# number of rings (size 3 to 8) (size 9 to 14) (size 15 to 20)
#    0.750    1.500    3.750    0.000    3.500    0.000 
#    0.000    5.000    0.000    0.000    0.000    0.000 
#    0.000    0.000    0.000    0.000    0.000    0.000 
#
# Total GULP energy -396542.182496 kJ/mol
# GULP energy per Si atom -12391.943203 kJ/mol
# Density = 1.854442 g / cm^3
# Si number density = 18.586726 Si / 1000 Ang^3
#
#
#
# Elastic Constant Matrix: (Units=GPa)
#
#
# Indices 1 2 3 4 5 6 
#
# 1 51.1651 39.4269 21.5453 0.0000 0.0000 0.0000
# 2 39.4269 111.4394 22.6355 0.0000 0.0000 0.0000
# 3 21.5453 22.6355 40.6189 0.0000 0.0000 0.0000
# 4 0.0000 0.0000 0.0000 20.3037 0.0000 0.0000
# 5 0.0000 0.0000 0.0000 0.0000 27.3884 0.0000
# 6 0.0000 0.0000 0.0000 0.0000 0.0000 16.2415
#
#
#
# Elastic Compliance Matrix: (Units=1/GPa)
#
#
# Indices 1 2 3 4 5 6 
#
# 1 0.031125 -0.008636 -0.011697 0.000000 0.000000 0.000000
# 2 -0.008636 0.012515 -0.002393 0.000000 0.000000 0.000000
# 3 -0.011697 -0.002393 0.032157 0.000000 0.000000 0.000000
# 4 0.000000 0.000000 0.000000 0.049252 0.000000 0.000000
# 5 0.000000 0.000000 0.000000 0.000000 0.036512 0.000000
# 6 0.000000 0.000000 0.000000 0.000000 0.000000 0.061571
#
#
# Mechanical properties :
#
#
# Convention : Reuss Voigt Hill
#
# Bulk Modulus (GPa) = 32.95499 41.15987 37.05743
# Shear Modulus (GPa) = 17.94049 20.76109 19.35079
#
# Velocity S-wave (km/s) = 3.11019 3.34576 3.23012
# Velocity P-wave (km/s) = 5.53774 6.09248 5.82172
#
# Compressibility (1/GPa) = 0.03034442
#
# Stress axis : x y z
#
# Youngs Moduli (GPa) = 32.12868 79.90394 31.09728
#
# Poissons Ratio (x) = 0.69005 0.36374
# Poissons Ratio (y) = 0.27746 0.07443
# Poissons Ratio (z) = 0.37581 0.19124
#
# Static dielectric constant tensor:
#      x y z
#    x 3.296000 0.000000 0.000000 
#    y 0.000000 3.327180 0.000000 
#    z 0.000000 0.000000 3.092360 
# 
# 
# High freq. dielectric constant tensor:
#      x y z
#    x 1.716060 0.000000 0.000000 
#    y 0.000000 1.717200 0.000000 
#    z 0.000000 0.000000 1.687030 
# 
# From -- ./inp_files/7047.got.cif
#   From: 2010.03.12/outbox.cif.g09.slc.cpg/sg19_4_cif.got.tgz:7047.got - 2010.04.10 18:59:41.
