data_PCOD8156127
_publ_section_title
;
Structure prediction by ZEFSAII (Michael W. Deem and Ramdas Pophale) SiO2 
 PCOD8156127
Probable space group: P 21 21 2
;
_chemical_formula_sum "Si O2"
_cell_formula_units_Z 20
_cell_length_a 10.084880
_cell_length_b 14.858473
_cell_length_c 6.906567
_cell_angle_alpha 90.000000
_cell_angle_beta 90.000000
_cell_angle_gamma 90.000000
_cell_volume 1034.920867
_symmetry_space_group_name_H-M "P 21 21 2"
_symmetry_group_IT_number 18
_symmetry_cell_setting 'orthorhombic'
loop_
_space_group_symop_operation_xyz
x,y,z
-x,-y,z
1/2+x,1/2-y,-z
1/2-x,1/2+y,-z
loop_
_atom_site_type_symbol
_atom_site_label
_atom_site_fract_x
_atom_site_fract_y
_atom_site_fract_z
Si Si1 0.686125 0.168740 0.765833
Si Si2 0.597310 0.229571 0.359699
Si Si3 0.476688 0.099186 0.058940
Si Si4 0.703232 0.328898 0.034274
Si Si5 0.473634 0.400026 0.259807
O O1 0.650525 0.173786 0.539554
O O2 0.572507 0.115549 0.877609
O O3 0.820722 0.112598 0.796384
O O4 0.695684 0.271172 0.838491
O O5 0.718967 0.259231 0.217238
O O6 0.515971 0.321732 0.414898
O O7 0.497531 0.168054 0.234406
O O8 0.327834 0.105525 0.977309
O O9 0.500000 0.000000 0.142128
O O10 0.567262 0.386132 0.068107
O O11 0.500000 0.500000 0.345040
#
# Coordination Sequence:
#
# PCOD8156127 Si02
#       5
#     4   4   4   4   4
#     4  11  20  40  63  86 123 166 198 252 308 361
#     4   9  23  37  62  86 127 157 200 249 304 361
#     4  11  22  39  63  94 120 159 205 251 309 365
#     4   9  20  39  61  85 120 160 198 252 302 364
#     4  10  21  41  61  91 122 158 207 250 303 367
#
# _framework density 19.325150000000001
#
# number of rings (size 3 to 8) (size 9 to 14) (size 15 to 20)
#    1.200    0.800    2.000    1.200    2.800    0.800 
#    3.600    1.000    0.000    0.000    0.000    0.000 
#    0.000    0.000    0.000    0.000    0.000    0.000 
#
# Total GULP energy -247814.028418 kJ/mol
# GULP energy per Si atom -12390.701421 kJ/mol
# Density = 1.928117 g / cm^3
# Si number density = 19.325150 Si / 1000 Ang^3
#
#
#
# Elastic Constant Matrix: (Units=GPa)
#
#
# Indices 1 2 3 4 5 6 
#
# 1 112.7394 27.3579 35.2467 0.0000 0.0000 0.0000
# 2 27.3579 119.5806 24.4194 0.0000 0.0000 0.0000
# 3 35.2467 24.4194 86.3701 0.0000 0.0000 0.0000
# 4 0.0000 0.0000 0.0000 11.0693 0.0000 0.0000
# 5 0.0000 0.0000 0.0000 0.0000 16.5580 0.0000
# 6 0.0000 0.0000 0.0000 0.0000 0.0000 26.2749
#
#
#
# Elastic Compliance Matrix: (Units=1/GPa)
#
#
# Indices 1 2 3 4 5 6 
#
# 1 0.010452 -0.001613 -0.003809 0.000000 0.000000 0.000000
# 2 -0.001613 0.009124 -0.001921 0.000000 0.000000 0.000000
# 3 -0.003809 -0.001921 0.013676 0.000000 0.000000 0.000000
# 4 0.000000 0.000000 0.000000 0.090340 0.000000 0.000000
# 5 0.000000 0.000000 0.000000 0.000000 0.060394 0.000000
# 6 0.000000 0.000000 0.000000 0.000000 0.000000 0.038059
#
#
# Mechanical properties :
#
#
# Convention : Reuss Voigt Hill
#
# Bulk Modulus (GPa) = 53.86686 54.74869 54.30777
# Shear Modulus (GPa) = 20.58282 26.22487 23.40384
#
# Velocity S-wave (km/s) = 3.26710 3.68779 3.48380
# Velocity P-wave (km/s) = 6.49356 6.82091 6.65925
#
# Compressibility (1/GPa) = 0.01856429
#
# Stress axis : x y z
#
# Youngs Moduli (GPa) = 95.67092 109.60091 73.12172
#
# Poissons Ratio (x) = 0.17683 0.27855
# Poissons Ratio (y) = 0.15436 0.14048
# Poissons Ratio (z) = 0.36445 0.21057
#
# Static dielectric constant tensor:
#      x y z
#    x 3.475600 0.000000 0.000000 
#    y 0.000000 3.449160 0.000000 
#    z 0.000000 0.000000 3.122200 
# 
# 
# High freq. dielectric constant tensor:
#      x y z
#    x 1.756290 0.000000 0.000000 
#    y 0.000000 1.752430 0.000000 
#    z 0.000000 0.000000 1.716220 
# 
# From -- ./inp_files/1022.got.cif
#   From: 2010.03.12/outbox.cif.g09.slc.cpg/sg18_1_cif.got.tgz:1022.got - 2010.04.10 18:53:55.
