data_PCOD8156333
_publ_section_title
;
Structure prediction by ZEFSAII (Michael W. Deem and Ramdas Pophale) SiO2 
 PCOD8156333
Probable space group: P 21 21 2
;
_chemical_formula_sum "Si O2"
_cell_formula_units_Z 16
_cell_length_a 14.872511
_cell_length_b 7.598623
_cell_length_c 5.248829
_cell_angle_alpha 90.000000
_cell_angle_beta 90.000000
_cell_angle_gamma 90.000000
_cell_volume 593.173336
_symmetry_space_group_name_H-M "P 21 21 2"
_symmetry_group_IT_number 18
_symmetry_cell_setting 'orthorhombic'
loop_
_space_group_symop_operation_xyz
x,y,z
-x,-y,z
1/2+x,1/2-y,-z
1/2-x,1/2+y,-z
loop_
_atom_site_type_symbol
_atom_site_label
_atom_site_fract_x
_atom_site_fract_y
_atom_site_fract_z
Si Si1 0.526388 0.240218 0.507528
Si Si2 0.740786 0.837047 0.864562
Si Si3 0.851293 0.067231 0.488404
Si Si4 0.390861 0.886478 0.988047
O O1 0.423165 0.281566 0.432692
O O2 0.584898 0.407791 0.593971
O O3 0.564164 0.139426 0.262533
O O4 0.536193 0.118014 0.759376
O O5 0.712544 0.656045 0.722075
O O6 0.816707 0.768913 0.060044
O O7 0.783309 0.997421 0.701973
O O8 0.654401 0.919856 0.001371
#
# Coordination Sequence:
#
# PCOD8156333 Si02
#       4
#     4   4   4   4
#     4  10  24  46  69  99 137 181 225 281 343 403
#     4  11  23  44  71 103 137 182 231 283 338 408
#     4  10  23  44  71 100 138 180 227 280 342 406
#     4  11  24  43  69  99 136 179 229 280 339 403
#
# _framework density 26.973569000000001
#
# number of rings (size 3 to 8) (size 9 to 14) (size 15 to 20)
#    0.000    1.500    0.000    4.500    0.000   15.000 
#    0.000    5.000    0.000    0.000    0.000    0.000 
#    0.000    0.000    0.000    0.000    0.000    0.000 
#
# Total GULP energy -198224.383428 kJ/mol
# GULP energy per Si atom -12389.023964 kJ/mol
# Density = 2.691218 g / cm^3
# Si number density = 26.973569 Si / 1000 Ang^3
#
#
#
# Elastic Constant Matrix: (Units=GPa)
#
#
# Indices 1 2 3 4 5 6 
#
# 1 111.6755 41.5122 23.8139 0.0000 0.0000 0.0000
# 2 41.5122 104.9571 23.5674 0.0000 0.0000 0.0000
# 3 23.8139 23.5674 127.1058 0.0000 0.0000 0.0000
# 4 0.0000 0.0000 0.0000 55.5778 0.0000 0.0000
# 5 0.0000 0.0000 0.0000 0.0000 61.2572 0.0000
# 6 0.0000 0.0000 0.0000 0.0000 0.0000 68.7898
#
#
#
# Elastic Compliance Matrix: (Units=1/GPa)
#
#
# Indices 1 2 3 4 5 6 
#
# 1 0.010691 -0.003943 -0.001272 0.000000 0.000000 0.000000
# 2 -0.003943 0.011396 -0.001374 0.000000 0.000000 0.000000
# 3 -0.001272 -0.001374 0.008361 0.000000 0.000000 0.000000
# 4 0.000000 0.000000 0.000000 0.017993 0.000000 0.000000
# 5 0.000000 0.000000 0.000000 0.000000 0.016325 0.000000
# 6 0.000000 0.000000 0.000000 0.000000 0.000000 0.014537
#
#
# Mechanical properties :
#
#
# Convention : Reuss Voigt Hill
#
# Bulk Modulus (GPa) = 57.90601 57.94727 57.92664
# Shear Modulus (GPa) = 50.89722 54.11464 52.50593
#
# Velocity S-wave (km/s) = 4.34859 4.48393 4.41678
# Velocity P-wave (km/s) = 6.83579 6.95249 6.89439
#
# Compressibility (1/GPa) = 0.01726937
#
# Stress axis : x y z
#
# Youngs Moduli (GPa) = 93.53258 87.75161 119.60893
#
# Poissons Ratio (x) = 0.34601 0.15214
# Poissons Ratio (y) = 0.36880 0.16437
# Poissons Ratio (z) = 0.11897 0.12059
#
# Static dielectric constant tensor:
#      x y z
#    x 5.336870 0.000000 0.000000 
#    y 0.000000 4.985950 0.000000 
#    z 0.000000 0.000000 4.266680 
# 
# 
# High freq. dielectric constant tensor:
#      x y z
#    x 2.112480 0.000000 0.000000 
#    y 0.000000 2.112540 0.000000 
#    z 0.000000 0.000000 2.051510 
# 
# From -- ./inp_files/1705.got.cif
#   From: 2010.03.12/outbox.cif.g09.slc.cpg/sg18_1_cif.got.tgz:1705.got - 2010.04.10 18:53:55.
