data_PCOD8156716
_publ_section_title
;
Structure prediction by ZEFSAII (Michael W. Deem and Ramdas Pophale) SiO2 
 PCOD8156716
Probable space group: P 21 21 21
;
_chemical_formula_sum "Si O2"
_cell_formula_units_Z 20
_cell_length_a 8.940497
_cell_length_b 17.637236
_cell_length_c 6.751818
_cell_angle_alpha 90.000000
_cell_angle_beta 90.000000
_cell_angle_gamma 90.000000
_cell_volume 1064.664847
_symmetry_space_group_name_H-M "P 21 21 21"
_symmetry_group_IT_number 19
_symmetry_cell_setting 'orthorhombic'
loop_
_space_group_symop_operation_xyz
x,y,z
1/2-x,-y,1/2+z
1/2+x,1/2-y,-z
-x,1/2+y,1/2-z
loop_
_atom_site_type_symbol
_atom_site_label
_atom_site_fract_x
_atom_site_fract_y
_atom_site_fract_z
Si Si1 0.932289 0.159928 0.981692
Si Si2 0.107437 0.074520 0.680508
Si Si3 0.105029 0.299882 0.075074
Si Si4 0.133955 0.917807 0.494440
Si Si5 0.155272 0.160565 0.293581
O O1 0.019200 0.239430 0.932798
O O2 0.007184 0.126118 0.183030
O O3 0.757638 0.170984 0.024934
O O4 0.960688 0.104025 0.796258
O O5 0.159657 0.136675 0.520475
O O6 0.065435 0.995844 0.576461
O O7 0.242787 0.062047 0.831827
O O8 0.148128 0.253300 0.277152
O O9 0.998116 0.371377 0.114115
O O10 0.199084 0.869271 0.676429
#
# Coordination Sequence:
#
# PCOD8156716 Si02
#       5
#     4   4   4   4   4
#     4   9  20  38  57  83 116 149 195 242 287 342
#     4  11  21  37  60  86 116 155 197 236 293 359
#     4  10  19  42  59  83 121 154 192 252 287 338
#     4  11  21  38  63  85 117 159 195 239 298 347
#     4   9  19  37  61  83 112 153 195 239 283 356
#
# _framework density 18.785253999999998
#
# number of rings (size 3 to 8) (size 9 to 14) (size 15 to 20)
#    1.200    0.800    4.000    0.000    0.000    1.600 
#    3.600    0.000    0.000    0.000    0.000    0.000 
#    0.000    0.000    0.000    0.000    0.000    0.000 
#
# Total GULP energy -247794.644124 kJ/mol
# GULP energy per Si atom -12389.732206 kJ/mol
# Density = 1.874250 g / cm^3
# Si number density = 18.785254 Si / 1000 Ang^3
#
#
#
# Elastic Constant Matrix: (Units=GPa)
#
#
# Indices 1 2 3 4 5 6 
#
# 1 84.0225 30.9819 0.8974 0.0000 0.0000 0.0000
# 2 30.9819 102.9728 19.9222 0.0000 0.0000 0.0000
# 3 0.8974 19.9222 60.0596 0.0000 0.0000 0.0000
# 4 0.0000 0.0000 0.0000 32.1722 0.0000 0.0000
# 5 0.0000 0.0000 0.0000 0.0000 11.4177 0.0000
# 6 0.0000 0.0000 0.0000 0.0000 0.0000 31.5717
#
#
#
# Elastic Compliance Matrix: (Units=1/GPa)
#
#
# Indices 1 2 3 4 5 6 
#
# 1 0.013470 -0.004289 0.001221 0.000000 0.000000 0.000000
# 2 -0.004289 0.011743 -0.003831 0.000000 0.000000 0.000000
# 3 0.001221 -0.003831 0.017903 0.000000 0.000000 0.000000
# 4 0.000000 0.000000 0.000000 0.031083 0.000000 0.000000
# 5 0.000000 0.000000 0.000000 0.000000 0.087584 0.000000
# 6 0.000000 0.000000 0.000000 0.000000 0.000000 0.031674
#
#
# Mechanical properties :
#
#
# Convention : Reuss Voigt Hill
#
# Bulk Modulus (GPa) = 34.10854 38.96199 36.53526
# Shear Modulus (GPa) = 23.03868 28.04920 25.54394
#
# Velocity S-wave (km/s) = 3.50583 3.86832 3.69153
# Velocity P-wave (km/s) = 5.88084 6.38260 6.13685
#
# Compressibility (1/GPa) = 0.02931817
#
# Stress axis : x y z
#
# Youngs Moduli (GPa) = 74.23861 85.15706 55.85745
#
# Poissons Ratio (x) = 0.36525 -0.06823
# Poissons Ratio (y) = 0.31842 0.21400
# Poissons Ratio (z) = -0.09068 0.32625
#
# Static dielectric constant tensor:
#      x y z
#    x 3.228330 0.000000 0.000000 
#    y 0.000000 3.460600 0.000000 
#    z 0.000000 0.000000 3.146360 
# 
# 
# High freq. dielectric constant tensor:
#      x y z
#    x 1.716220 0.000000 0.000000 
#    y 0.000000 1.727790 0.000000 
#    z 0.000000 0.000000 1.700810 
# 
# From -- ./inp_files/366.got.cif
#   From: 2010.03.12/outbox.cif.g09.slc.cpg/sg19_1_cif.got.tgz:366.got - 2010.04.10 18:59:41.
