data_PCOD8156999
_publ_section_title
;
Structure prediction by ZEFSAII (Michael W. Deem and Ramdas Pophale) SiO2 
 PCOD8156999
Probable space group: P 21 21 21
;
_chemical_formula_sum "Si O2"
_cell_formula_units_Z 32
_cell_length_a 9.605252
_cell_length_b 13.164439
_cell_length_c 10.745114
_cell_angle_alpha 90.000000
_cell_angle_beta 90.000000
_cell_angle_gamma 90.000000
_cell_volume 1358.695532
_symmetry_space_group_name_H-M "P 21 21 21"
_symmetry_group_IT_number 19
_symmetry_cell_setting 'orthorhombic'
loop_
_space_group_symop_operation_xyz
x,y,z
1/2-x,-y,1/2+z
1/2+x,1/2-y,-z
-x,1/2+y,1/2-z
loop_
_atom_site_type_symbol
_atom_site_label
_atom_site_fract_x
_atom_site_fract_y
_atom_site_fract_z
Si Si1 0.671904 0.756463 0.921924
Si Si2 0.185200 0.350058 0.011167
Si Si3 0.669172 0.061222 0.506451
Si Si4 0.966066 0.842649 0.238164
Si Si5 0.427702 0.841106 0.204111
Si Si6 0.082888 0.947786 0.608499
Si Si7 0.230538 0.856657 0.399152
Si Si8 0.577329 0.649257 0.145156
O O1 0.520266 0.751280 0.850776
O O2 0.793043 0.726689 0.828826
O O3 0.695408 0.867455 0.981525
O O4 0.679021 0.669290 0.029354
O O5 0.288508 0.445352 0.015509
O O6 0.271881 0.260221 0.946407
O O7 0.048734 0.378408 0.930265
O O8 0.141237 0.314365 0.151109
O O9 0.608574 0.076025 0.646554
O O10 0.559577 0.090831 0.400617
O O11 0.106183 0.885123 0.302824
O O12 0.383542 0.881323 0.341738
O O13 0.553725 0.763247 0.200759
O O14 0.460923 0.934324 0.112372
O O15 0.211228 0.932574 0.514809
O O16 0.142833 0.915416 0.743518
#
# Coordination Sequence:
#
# PCOD8156999 Si02
#       8
#     4   4   4   4   4   4   4   4
#     4   9  20  40  62  91 130 167 209 266 322 376
#     4  11  23  42  66  98 131 167 216 272 332 380
#     4  10  22  39  70  96 122 171 216 264 326 390
#     4   9  22  41  61  94 132 167 217 264 327 393
#     4  10  21  41  64  85 134 167 209 270 313 385
#     4  11  24  38  63  95 120 170 216 252 327 391
#     4  10  23  44  60  92 136 168 209 275 333 383
#     4  10  21  39  60  95 123 159 214 261 308 382
#
# _framework density 23.552002000000002
#
# number of rings (size 3 to 8) (size 9 to 14) (size 15 to 20)
#    0.000    2.000    1.250    0.750    5.250    1.000 
#    0.000    6.250    0.000    0.000    0.000    0.000 
#    0.000    0.000    0.000    0.000    0.000    0.000 
#
# Total GULP energy -396482.381665 kJ/mol
# GULP energy per Si atom -12390.074427 kJ/mol
# Density = 2.349840 g / cm^3
# Si number density = 23.552002 Si / 1000 Ang^3
#
#
#
# Elastic Constant Matrix: (Units=GPa)
#
#
# Indices 1 2 3 4 5 6 
#
# 1 31.1367 8.4190 18.6004 0.0000 0.0000 0.0000
# 2 8.4190 98.0836 18.8742 0.0000 0.0000 0.0000
# 3 18.6004 18.8742 126.5388 0.0000 0.0000 0.0000
# 4 0.0000 0.0000 0.0000 27.3673 0.0000 0.0000
# 5 0.0000 0.0000 0.0000 0.0000 31.5697 0.0000
# 6 0.0000 0.0000 0.0000 0.0000 0.0000 28.1913
#
#
#
# Elastic Compliance Matrix: (Units=1/GPa)
#
#
# Indices 1 2 3 4 5 6 
#
# 1 0.035628 -0.002111 -0.004922 0.000000 0.000000 0.000000
# 2 -0.002111 0.010622 -0.001274 0.000000 0.000000 0.000000
# 3 -0.004922 -0.001274 0.008816 0.000000 0.000000 0.000000
# 4 0.000000 0.000000 0.000000 0.036540 0.000000 0.000000
# 5 0.000000 0.000000 0.000000 0.000000 0.031676 0.000000
# 6 0.000000 0.000000 0.000000 0.000000 0.000000 0.035472
#
#
# Mechanical properties :
#
#
# Convention : Reuss Voigt Hill
#
# Bulk Modulus (GPa) = 26.00685 38.61626 32.31156
# Shear Modulus (GPa) = 26.56962 31.41671 28.99316
#
# Velocity S-wave (km/s) = 3.36240 3.65626 3.51241
# Velocity P-wave (km/s) = 5.11279 5.85287 5.49530
#
# Compressibility (1/GPa) = 0.03845141
#
# Stress axis : x y z
#
# Youngs Moduli (GPa) = 28.06807 94.14660 113.42667
#
# Poissons Ratio (x) = 0.19874 0.55831
# Poissons Ratio (y) = 0.05925 0.14451
# Poissons Ratio (z) = 0.13816 0.11994
#
# Static dielectric constant tensor:
#      x y z
#    x 4.063270 0.000000 0.000000 
#    y 0.000000 3.990080 0.000000 
#    z 0.000000 0.000000 4.664330 
# 
# 
# High freq. dielectric constant tensor:
#      x y z
#    x 1.911150 0.000000 0.000000 
#    y 0.000000 1.913690 0.000000 
#    z 0.000000 0.000000 1.951800 
# 
# From -- ./inp_files/5070.got.cif
#   From: 2010.03.12/outbox.cif.g09.slc.cpg/sg19_3_cif.got.tgz:5070.got - 2010.04.10 18:59:41.
