data_PCOD8156014
_publ_section_title
;
Structure prediction by ZEFSAII (Michael W. Deem and Ramdas Pophale) SiO2 
 PCOD8156014
Probable space group: P 21 21 2
;
_chemical_formula_sum "Si O2"
_cell_formula_units_Z 26
_cell_length_a 14.530833
_cell_length_b 5.806334
_cell_length_c 13.704607
_cell_angle_alpha 90.000000
_cell_angle_beta 90.000000
_cell_angle_gamma 90.000000
_cell_volume 1156.269611
_symmetry_space_group_name_H-M "P 21 21 2"
_symmetry_group_IT_number 18
_symmetry_cell_setting 'orthorhombic'
loop_
_space_group_symop_operation_xyz
x,y,z
-x,-y,z
1/2+x,1/2-y,-z
1/2-x,1/2+y,-z
loop_
_atom_site_type_symbol
_atom_site_label
_atom_site_fract_x
_atom_site_fract_y
_atom_site_fract_z
Si Si1 0.800991 0.146376 0.488871
Si Si2 0.741081 0.406137 0.162234
Si Si3 0.923387 0.677890 0.161399
Si Si4 0.357678 0.301371 0.309395
Si Si5 0.180319 0.990833 0.281162
Si Si6 0.500000 0.000000 0.200933
Si Si7 0.424591 0.677542 0.052650
O O1 0.753399 0.401419 0.495856
O O2 0.875795 0.138281 0.576731
O O3 0.847063 0.142512 0.381085
O O4 0.821436 0.585035 0.143046
O O5 0.667392 0.471820 0.247025
O O6 0.681742 0.404634 0.061353
O O7 0.791261 0.172268 0.191915
O O8 0.910929 0.874761 0.243469
O O9 0.000000 0.500000 0.201237
O O10 0.956776 0.768225 0.056824
O O11 0.266784 0.147607 0.305174
O O12 0.449048 0.181998 0.269663
O O13 0.574896 0.108548 0.127727
O O14 0.500000 0.500000 0.093518
#
# Coordination Sequence:
#
# PCOD8156014 Si02
#       7
#     4   4   4   4   4   2   4
#     4  10  20  39  72 107 140 187 245 300 369 440
#     4  11  23  42  67  99 132 179 236 289 356 433
#     4  11  28  43  66  98 139 188 246 295 356 432
#     4  10  21  39  66 108 137 177 232 293 363 441
#     4  10  22  41  70  98 136 189 235 295 358 431
#     4  12  22  40  66 102 150 176 228 298 366 434
#     4  12  26  41  66  99 142 183 229 294 366 432
#
# _framework density 22.486103
#
# number of rings (size 3 to 8) (size 9 to 14) (size 15 to 20)
#    0.000    1.231    5.385    0.000    4.308    0.000 
#    0.000    0.000    1.692    9.231    0.000    0.000 
#    0.000    0.000    0.000    0.000    0.000    0.000 
#
# Total GULP energy -322098.356238 kJ/mol
# GULP energy per Si atom -12388.398317 kJ/mol
# Density = 2.243492 g / cm^3
# Si number density = 22.486103 Si / 1000 Ang^3
#
#
#
# Elastic Constant Matrix: (Units=GPa)
#
#
# Indices 1 2 3 4 5 6 
#
# 1 86.5984 26.6170 31.6321 0.0000 0.0000 0.0000
# 2 26.6170 102.2550 28.8185 0.0000 0.0000 0.0000
# 3 31.6321 28.8185 116.0317 0.0000 0.0000 0.0000
# 4 0.0000 0.0000 0.0000 34.4471 0.0000 0.0000
# 5 0.0000 0.0000 0.0000 0.0000 25.8849 0.0000
# 6 0.0000 0.0000 0.0000 0.0000 0.0000 33.0574
#
#
#
# Elastic Compliance Matrix: (Units=1/GPa)
#
#
# Indices 1 2 3 4 5 6 
#
# 1 0.013464 -0.002656 -0.003011 0.000000 0.000000 0.000000
# 2 -0.002656 0.011040 -0.002018 0.000000 0.000000 0.000000
# 3 -0.003011 -0.002018 0.009940 0.000000 0.000000 0.000000
# 4 0.000000 0.000000 0.000000 0.029030 0.000000 0.000000
# 5 0.000000 0.000000 0.000000 0.000000 0.038633 0.000000
# 6 0.000000 0.000000 0.000000 0.000000 0.000000 0.030250
#
#
# Mechanical properties :
#
#
# Convention : Reuss Voigt Hill
#
# Bulk Modulus (GPa) = 52.42659 53.22448 52.82553
# Shear Modulus (GPa) = 32.44991 33.19906 32.82448
#
# Velocity S-wave (km/s) = 3.80295 3.84660 3.82484
# Velocity P-wave (km/s) = 6.53062 6.59164 6.56120
#
# Compressibility (1/GPa) = 0.01907429
#
# Stress axis : x y z
#
# Youngs Moduli (GPa) = 74.27395 90.58364 100.60105
#
# Poissons Ratio (x) = 0.24060 0.30288
# Poissons Ratio (y) = 0.19728 0.20299
# Poissons Ratio (z) = 0.22362 0.18278
#
# Static dielectric constant tensor:
#      x y z
#    x 3.822850 0.000000 0.000000 
#    y 0.000000 4.384950 0.000000 
#    z 0.000000 0.000000 4.435640 
# 
# 
# High freq. dielectric constant tensor:
#      x y z
#    x 1.860750 0.000000 0.000000 
#    y 0.000000 1.895340 0.000000 
#    z 0.000000 0.000000 1.893880 
# 
# From -- ./inp_files/6985.got.cif
#   From: 2010.03.12/outbox.cif.g09.slc.cpg/sg18_4_cif.got.tgz:6985.got - 2010.04.10 18:53:55.
