data_PCOD8156120
_publ_section_title
;
Structure prediction by ZEFSAII (Michael W. Deem and Ramdas Pophale) SiO2 
 PCOD8156120
Probable space group: P 21 21 2
;
_chemical_formula_sum "Si O2"
_cell_formula_units_Z 20
_cell_length_a 8.558651
_cell_length_b 12.413938
_cell_length_c 9.067119
_cell_angle_alpha 90.000000
_cell_angle_beta 90.000000
_cell_angle_gamma 90.000000
_cell_volume 963.350229
_symmetry_space_group_name_H-M "P 21 21 2"
_symmetry_group_IT_number 18
_symmetry_cell_setting 'orthorhombic'
loop_
_space_group_symop_operation_xyz
x,y,z
-x,-y,z
1/2+x,1/2-y,-z
1/2-x,1/2+y,-z
loop_
_atom_site_type_symbol
_atom_site_label
_atom_site_fract_x
_atom_site_fract_y
_atom_site_fract_z
Si Si1 0.218988 0.254909 0.835033
Si Si2 0.140089 0.571264 0.358192
Si Si3 0.673276 0.628357 0.363279
Si Si4 0.052132 0.876708 0.958701
Si Si5 0.942555 0.710333 0.546262
O O1 0.315832 0.157659 0.763568
O O2 0.131068 0.320425 0.704683
O O3 0.097870 0.202314 0.950898
O O4 0.336603 0.338881 0.909124
O O5 0.287497 0.495727 0.402352
O O6 0.000000 0.500000 0.288891
O O7 0.081433 0.626859 0.509458
O O8 0.654093 0.636160 0.188542
O O9 0.814506 0.706245 0.416344
O O10 0.513809 0.668329 0.442921
O O11 0.000000 0.000000 0.984205
#
# Coordination Sequence:
#
# PCOD8156120 Si02
#       5
#     4   4   4   4   4
#     4  11  24  43  68  99 139 172 230 280 332 404
#     4  10  21  40  71  93 128 178 223 273 339 398
#     4  10  21  41  69  95 133 171 228 265 348 407
#     4  11  25  44  68 102 135 188 221 276 346 409
#     4  10  21  40  67  97 128 170 223 282 327 395
#
# _framework density 20.760881000000001
#
# number of rings (size 3 to 8) (size 9 to 14) (size 15 to 20)
#    0.000    1.600    4.000    0.000    5.600    0.000 
#    0.000   17.000    0.000    0.000    0.000    0.000 
#    0.000    0.000    0.000    0.000    0.000    0.000 
#
# Total GULP energy -247855.956268 kJ/mol
# GULP energy per Si atom -12392.797813 kJ/mol
# Density = 2.071363 g / cm^3
# Si number density = 20.760881 Si / 1000 Ang^3
#
#
#
# Elastic Constant Matrix: (Units=GPa)
#
#
# Indices 1 2 3 4 5 6 
#
# 1 102.4549 80.6839 79.1909 0.0000 0.0000 0.0000
# 2 80.6839 122.0801 77.4720 0.0000 0.0000 0.0000
# 3 79.1909 77.4720 102.6605 0.0000 0.0000 0.0000
# 4 0.0000 0.0000 0.0000 32.4150 0.0000 0.0000
# 5 0.0000 0.0000 0.0000 0.0000 52.3764 0.0000
# 6 0.0000 0.0000 0.0000 0.0000 0.0000 65.1517
#
#
#
# Elastic Compliance Matrix: (Units=1/GPa)
#
#
# Indices 1 2 3 4 5 6 
#
# 1 0.028997 -0.009537 -0.015171 0.000000 0.000000 0.000000
# 2 -0.009537 0.018856 -0.006873 0.000000 0.000000 0.000000
# 3 -0.015171 -0.006873 0.026630 0.000000 0.000000 0.000000
# 4 0.000000 0.000000 0.000000 0.030850 0.000000 0.000000
# 5 0.000000 0.000000 0.000000 0.000000 0.019093 0.000000
# 6 0.000000 0.000000 0.000000 0.000000 0.000000 0.015349
#
#
# Mechanical properties :
#
#
# Convention : Reuss Voigt Hill
#
# Bulk Modulus (GPa) = 88.32693 89.09880 88.71287
# Shear Modulus (GPa) = 24.18865 35.97853 30.08359
#
# Velocity S-wave (km/s) = 3.41707 4.16744 3.81077
# Velocity P-wave (km/s) = 7.62927 8.13429 7.88582
#
# Compressibility (1/GPa) = 0.01132158
#
# Stress axis : x y z
#
# Youngs Moduli (GPa) = 34.48665 53.03408 37.55174
#
# Poissons Ratio (x) = 0.50578 0.56969
# Poissons Ratio (y) = 0.32889 0.25809
# Poissons Ratio (z) = 0.52319 0.36449
#
# Static dielectric constant tensor:
#      x y z
#    x 4.194170 0.000000 0.000000 
#    y 0.000000 3.916520 0.000000 
#    z 0.000000 0.000000 3.552850 
# 
# 
# High freq. dielectric constant tensor:
#      x y z
#    x 1.835720 0.000000 0.000000 
#    y 0.000000 1.811080 0.000000 
#    z 0.000000 0.000000 1.785300 
# 
# From -- ./inp_files/2974.got.cif
#   From: 2010.03.12/outbox.cif.g09.slc.cpg/sg18_2_cif.got.tgz:2974.got - 2010.04.10 18:53:55.
