data_PCOD8156675
_publ_section_title
;
Structure prediction by ZEFSAII (Michael W. Deem and Ramdas Pophale) SiO2 
 PCOD8156675
Probable space group: P 21 21 21
;
_chemical_formula_sum "Si O2"
_cell_formula_units_Z 32
_cell_length_a 11.802817
_cell_length_b 8.696913
_cell_length_c 14.877607
_cell_angle_alpha 90.000000
_cell_angle_beta 90.000000
_cell_angle_gamma 90.000000
_cell_volume 1527.157684
_symmetry_space_group_name_H-M "P 21 21 21"
_symmetry_group_IT_number 19
_symmetry_cell_setting 'orthorhombic'
loop_
_space_group_symop_operation_xyz
x,y,z
1/2-x,-y,1/2+z
1/2+x,1/2-y,-z
-x,1/2+y,1/2-z
loop_
_atom_site_type_symbol
_atom_site_label
_atom_site_fract_x
_atom_site_fract_y
_atom_site_fract_z
Si Si1 0.307640 0.662489 0.365057
Si Si2 0.323881 0.828906 0.178233
Si Si3 0.844269 0.807172 0.441356
Si Si4 0.723711 0.674141 0.277720
Si Si5 0.440956 0.904255 0.816375
Si Si6 0.435953 0.263625 0.841395
Si Si7 0.631527 0.834294 0.940506
Si Si8 0.579335 0.832199 0.134920
O O1 0.335344 0.757371 0.276508
O O2 0.338054 0.754984 0.456508
O O3 0.172623 0.645776 0.378275
O O4 0.376939 0.505685 0.355249
O O5 0.222081 0.755629 0.120260
O O6 0.443665 0.819235 0.127618
O O7 0.294274 0.003605 0.191163
O O8 0.745559 0.761503 0.371584
O O9 0.963078 0.734892 0.412068
O O10 0.832626 0.989354 0.443921
O O11 0.828657 0.691334 0.208246
O O12 0.616567 0.739315 0.223722
O O13 0.535298 0.871326 0.742128
O O14 0.500446 0.835713 0.905633
O O15 0.410403 0.085381 0.816953
O O16 0.629158 0.763209 0.041344
#
# Coordination Sequence:
#
# PCOD8156675 Si02
#       8
#     4   4   4   4   4   4   4   4
#     4  11  22  44  65  93 134 178 215 265 338 395
#     4  12  24  44  66  98 133 177 219 275 336 397
#     4   9  23  40  65  97 127 168 219 269 328 392
#     4  11  23  40  65 100 131 169 223 275 328 392
#     4  10  19  37  64  94 122 164 219 270 319 384
#     4  10  20  37  65  92 123 168 212 269 323 380
#     4  10  22  43  65  93 128 177 217 273 328 393
#     4  11  27  41  65  95 136 181 218 272 338 395
#
# _framework density 20.953958
#
# number of rings (size 3 to 8) (size 9 to 14) (size 15 to 20)
#    0.000    1.500    2.500    1.500    5.250    5.000 
#    0.000    1.250    0.000    0.000    0.000    0.000 
#    0.000    0.000    0.000    0.000    0.000    0.000 
#
# Total GULP energy -396525.602355 kJ/mol
# GULP energy per Si atom -12391.425074 kJ/mol
# Density = 2.090627 g / cm^3
# Si number density = 20.953958 Si / 1000 Ang^3
#
#
#
# Elastic Constant Matrix: (Units=GPa)
#
#
# Indices 1 2 3 4 5 6 
#
# 1 96.9655 26.6170 33.6792 0.0000 0.0000 0.0000
# 2 26.6170 48.1028 35.1344 0.0000 0.0000 0.0000
# 3 33.6792 35.1344 144.7312 0.0000 0.0000 0.0000
# 4 0.0000 0.0000 0.0000 -6.1201 0.0000 0.0000
# 5 0.0000 0.0000 0.0000 0.0000 22.5947 0.0000
# 6 0.0000 0.0000 0.0000 0.0000 0.0000 22.9077
#
#
#
# Elastic Compliance Matrix: (Units=1/GPa)
#
#
# Indices 1 2 3 4 5 6 
#
# 1 0.012417 -0.005786 -0.001485 0.000000 0.000000 0.000000
# 2 -0.005786 0.027966 -0.005442 0.000000 0.000000 0.000000
# 3 -0.001485 -0.005442 0.008576 0.000000 0.000000 0.000000
# 4 0.000000 0.000000 0.000000 -0.163397 0.000000 0.000000
# 5 0.000000 0.000000 0.000000 0.000000 0.044258 0.000000
# 6 0.000000 0.000000 0.000000 0.000000 0.000000 0.043653
#
#
# Mechanical properties :
#
#
# Convention : Reuss Voigt Hill
#
# Bulk Modulus (GPa) = 42.49561 53.40675 47.95118
# Shear Modulus (GPa) = 741.40168 20.83439 381.11803
#
# Velocity S-wave (km/s) = 18.83062 3.15666 13.50105
# Velocity P-wave (km/s) = 22.20617 6.23129 16.30864
#
# Compressibility (1/GPa) = 0.02353184
#
# Stress axis : x y z
#
# Youngs Moduli (GPa) = 80.53475 35.75813 116.60390
#
# Poissons Ratio (x) = 0.20691 0.17313
# Poissons Ratio (y) = 0.46600 0.63460
# Poissons Ratio (z) = 0.11958 0.19461
#
# Static dielectric constant tensor:
#      x y z
#    x 5.546020 0.000000 0.000000 
#    y 0.000000 4.077290 0.000000 
#    z 0.000000 0.000000 4.274260 
# 
# 
# High freq. dielectric constant tensor:
#      x y z
#    x 1.828180 0.000000 0.000000 
#    y 0.000000 1.806870 0.000000 
#    z 0.000000 0.000000 1.834030 
# 
# From -- ./inp_files/5889.got.cif
#   From: 2010.03.12/outbox.cif.g09.slc.cpg/sg19_3_cif.got.tgz:5889.got - 2010.04.10 18:59:41.
