data_PCOD8156470
_publ_section_title
;
Structure prediction by ZEFSAII (Michael W. Deem and Ramdas Pophale) SiO2 
 PCOD8156470
Probable space group: P 21 21 2
;
_chemical_formula_sum "Si O2"
_cell_formula_units_Z 24
_cell_length_a 14.247807
_cell_length_b 9.519530
_cell_length_c 8.697680
_cell_angle_alpha 90.000000
_cell_angle_beta 90.000000
_cell_angle_gamma 90.000000
_cell_volume 1179.687440
_symmetry_space_group_name_H-M "P 21 21 2"
_symmetry_group_IT_number 18
_symmetry_cell_setting 'orthorhombic'
loop_
_space_group_symop_operation_xyz
x,y,z
-x,-y,z
1/2+x,1/2-y,-z
1/2-x,1/2+y,-z
loop_
_atom_site_type_symbol
_atom_site_label
_atom_site_fract_x
_atom_site_fract_y
_atom_site_fract_z
Si Si1 0.774891 0.116779 0.950278
Si Si2 0.000000 0.500000 0.242054
Si Si3 0.147318 0.174097 0.905199
Si Si4 0.660243 0.369782 0.442405
Si Si5 0.191491 0.401695 0.374024
Si Si6 0.500000 0.500000 0.652426
Si Si7 0.961352 0.213136 0.090783
O O1 0.737278 0.157926 0.782017
O O2 0.782407 0.948351 0.965365
O O3 0.700491 0.177292 0.073741
O O4 0.875582 0.187856 0.975786
O O5 0.915822 0.552129 0.349372
O O6 0.962864 0.376808 0.132054
O O7 0.119654 0.150452 0.728727
O O8 0.054650 0.164542 0.005479
O O9 0.750749 0.468984 0.442094
O O10 0.695136 0.220916 0.502358
O O11 0.579419 0.432581 0.547541
O O12 0.451647 0.379112 0.754829
#
# Coordination Sequence:
#
# PCOD8156470 Si02
#       7
#     4   2   4   4   4   2   4
#     4  11  23  43  71  99 129 180 230 285 331 419
#     4  12  24  50  66 106 134 186 228 292 340 424
#     4  11  24  43  67 104 131 175 236 282 340 415
#     4  11  27  43  68 104 138 182 225 290 349 422
#     4  11  26  46  70  98 144 178 234 280 359 415
#     4  12  24  44  74  92 138 186 224 278 362 404
#     4  12  24  44  74  95 135 185 235 286 339 412
#
# _framework density 20.344370999999999
#
# number of rings (size 3 to 8) (size 9 to 14) (size 15 to 20)
#    0.000    0.667    5.000    2.000    9.333    0.000 
#    0.000    0.000    0.000    0.000    0.000    0.000 
#    0.000    0.000    0.000    0.000    0.000    0.000 
#
# Total GULP energy -297738.758982 kJ/mol
# GULP energy per Si atom -12405.781624 kJ/mol
# Density = 2.029807 g / cm^3
# Si number density = 20.344371 Si / 1000 Ang^3
#
#
#
# Elastic Constant Matrix: (Units=GPa)
#
#
# Indices 1 2 3 4 5 6 
#
# 1 113.6510 28.3437 48.7724 0.0000 0.0000 0.0000
# 2 28.3437 113.5557 64.6259 0.0000 0.0000 0.0000
# 3 48.7724 64.6259 103.4455 0.0000 0.0000 0.0000
# 4 0.0000 0.0000 0.0000 37.2663 0.0000 0.0000
# 5 0.0000 0.0000 0.0000 0.0000 30.5648 0.0000
# 6 0.0000 0.0000 0.0000 0.0000 0.0000 37.9611
#
#
#
# Elastic Compliance Matrix: (Units=1/GPa)
#
#
# Indices 1 2 3 4 5 6 
#
# 1 0.011038 0.000321 -0.005405 0.000000 0.000000 0.000000
# 2 0.000321 0.013674 -0.008694 0.000000 0.000000 0.000000
# 3 -0.005405 -0.008694 0.017646 0.000000 0.000000 0.000000
# 4 0.000000 0.000000 0.000000 0.026834 0.000000 0.000000
# 5 0.000000 0.000000 0.000000 0.000000 0.032717 0.000000
# 6 0.000000 0.000000 0.000000 0.000000 0.000000 0.026343
#
#
# Mechanical properties :
#
#
# Convention : Reuss Voigt Hill
#
# Bulk Modulus (GPa) = 67.55332 68.23735 67.89534
# Shear Modulus (GPa) = 31.10565 33.75244 32.42905
#
# Velocity S-wave (km/s) = 3.91443 4.07757 3.99683
# Velocity P-wave (km/s) = 7.32853 7.46878 7.39899
#
# Compressibility (1/GPa) = 0.01480312
#
# Stress axis : x y z
#
# Youngs Moduli (GPa) = 90.59397 73.13182 56.66875
#
# Poissons Ratio (x) = -0.02345 0.30628
# Poissons Ratio (y) = -0.02905 0.49267
# Poissons Ratio (z) = 0.48963 0.63579
#
# Static dielectric constant tensor:
#      x y z
#    x 3.801010 0.000000 0.000000 
#    y 0.000000 3.934060 0.000000 
#    z 0.000000 0.000000 3.736100 
# 
# 
# High freq. dielectric constant tensor:
#      x y z
#    x 1.804560 0.000000 0.000000 
#    y 0.000000 1.809870 0.000000 
#    z 0.000000 0.000000 1.792270 
# 
# From -- ./inp_files/3212.got.cif
#   From: 2010.03.12/outbox.cif.g09.slc.cpg/sg18_2_cif.got.tgz:3212.got - 2010.04.10 18:53:55.
