data_PCOD8156436
_publ_section_title
;
Structure prediction by ZEFSAII (Michael W. Deem and Ramdas Pophale) SiO2 
 PCOD8156436
Probable space group: P 21 21 2
;
_chemical_formula_sum "Si O2"
_cell_formula_units_Z 24
_cell_length_a 13.362317
_cell_length_b 9.043563
_cell_length_c 8.967609
_cell_angle_alpha 90.000000
_cell_angle_beta 90.000000
_cell_angle_gamma 90.000000
_cell_volume 1083.672376
_symmetry_space_group_name_H-M "P 21 21 2"
_symmetry_group_IT_number 18
_symmetry_cell_setting 'orthorhombic'
loop_
_space_group_symop_operation_xyz
x,y,z
-x,-y,z
1/2+x,1/2-y,-z
1/2-x,1/2+y,-z
loop_
_atom_site_type_symbol
_atom_site_label
_atom_site_fract_x
_atom_site_fract_y
_atom_site_fract_z
Si Si1 0.684457 0.748701 0.430540
Si Si2 0.803647 0.649300 0.149633
Si Si3 0.199376 0.425888 0.634669
Si Si4 0.980111 0.743901 0.489353
Si Si5 0.190969 0.014818 0.091858
Si Si6 0.500000 0.500000 0.725867
Si Si7 0.000000 0.500000 0.261134
O O1 0.763872 0.680321 0.315636
O O2 0.703702 0.667643 0.587645
O O3 0.568299 0.712371 0.393871
O O4 0.697024 0.922507 0.456632
O O5 0.906050 0.553290 0.158624
O O6 0.821419 0.808247 0.070983
O O7 0.715842 0.558384 0.066851
O O8 0.104716 0.323345 0.594954
O O9 0.211353 0.470021 0.808202
O O10 0.030364 0.631808 0.371379
O O11 0.946871 0.879347 0.382982
O O12 0.089878 0.946883 0.164894
#
# Coordination Sequence:
#
# PCOD8156436 Si02
#       7
#     4   4   4   4   4   2   2
#     4  11  21  41  69 102 134 177 233 289 343 421
#     4  11  26  45  69 102 142 189 237 288 354 429
#     4  11  22  41  68 103 135 175 236 286 349 413
#     4  12  22  41  73 103 136 180 229 300 353 418
#     4  11  26  46  68 100 144 189 234 293 347 429
#     4  12  24  46  70 102 140 190 236 292 368 416
#     4  12  22  46  74 102 134 190 238 284 374 420
#
# _framework density 22.146913999999999
#
# number of rings (size 3 to 8) (size 9 to 14) (size 15 to 20)
#    0.000    0.667    6.667    1.000    2.333    1.333 
#    9.000    0.000    0.000    0.000    0.000    0.000 
#    0.000    0.000    0.000    0.000    0.000    0.000 
#
# Total GULP energy -297380.925311 kJ/mol
# GULP energy per Si atom -12390.871888 kJ/mol
# Density = 2.209651 g / cm^3
# Si number density = 22.146914 Si / 1000 Ang^3
#
#
#
# Elastic Constant Matrix: (Units=GPa)
#
#
# Indices 1 2 3 4 5 6 
#
# 1 142.4515 41.5037 34.7103 0.0000 0.0000 0.0000
# 2 41.5037 73.3069 23.0148 0.0000 0.0000 0.0000
# 3 34.7103 23.0148 20.1920 0.0000 0.0000 0.0000
# 4 0.0000 0.0000 0.0000 37.9686 0.0000 0.0000
# 5 0.0000 0.0000 0.0000 0.0000 30.4624 0.0000
# 6 0.0000 0.0000 0.0000 0.0000 0.0000 42.0915
#
#
#
# Elastic Compliance Matrix: (Units=1/GPa)
#
#
# Indices 1 2 3 4 5 6 
#
# 1 0.012091 -0.000499 -0.020217 0.000000 0.000000 0.000000
# 2 -0.000499 0.021263 -0.023379 0.000000 0.000000 0.000000
# 3 -0.020217 -0.023379 0.110925 0.000000 0.000000 0.000000
# 4 0.000000 0.000000 0.000000 0.026338 0.000000 0.000000
# 5 0.000000 0.000000 0.000000 0.000000 0.032827 0.000000
# 6 0.000000 0.000000 0.000000 0.000000 0.000000 0.023758
#
#
# Mechanical properties :
#
#
# Convention : Reuss Voigt Hill
#
# Bulk Modulus (GPa) = 17.82815 48.26755 33.04785
# Shear Modulus (GPa) = 14.96607 31.21927 23.09267
#
# Velocity S-wave (km/s) = 2.60236 3.75860 3.23260
# Velocity P-wave (km/s) = 4.13487 6.37790 5.37470
#
# Compressibility (1/GPa) = 0.05609107
#
# Stress axis : x y z
#
# Youngs Moduli (GPa) = 82.70374 47.02916 9.01506
#
# Poissons Ratio (x) = 0.02345 0.18226
# Poissons Ratio (y) = 0.04123 0.21076
# Poissons Ratio (z) = 1.67202 1.09950
#
# Static dielectric constant tensor:
#      x y z
#    x 4.050580 0.000000 0.000000 
#    y 0.000000 4.329080 0.000000 
#    z 0.000000 0.000000 3.658290 
# 
# 
# High freq. dielectric constant tensor:
#      x y z
#    x 1.882760 0.000000 0.000000 
#    y 0.000000 1.884560 0.000000 
#    z 0.000000 0.000000 1.838670 
# 
# From -- ./inp_files/5874.got.cif
#   From: 2010.03.12/outbox.cif.g09.slc.cpg/sg18_3_cif.got.tgz:5874.got - 2010.04.10 18:53:55.
