data_PCOD8156222
_publ_section_title
;
Structure prediction by ZEFSAII (Michael W. Deem and Ramdas Pophale) SiO2 
 PCOD8156222
Probable space group: P 21 21 2
;
_chemical_formula_sum "Si O2"
_cell_formula_units_Z 24
_cell_length_a 7.982393
_cell_length_b 12.161719
_cell_length_c 10.969934
_cell_angle_alpha 90.000000
_cell_angle_beta 90.000000
_cell_angle_gamma 90.000000
_cell_volume 1064.957031
_symmetry_space_group_name_H-M "P 21 21 2"
_symmetry_group_IT_number 18
_symmetry_cell_setting 'orthorhombic'
loop_
_space_group_symop_operation_xyz
x,y,z
-x,-y,z
1/2+x,1/2-y,-z
1/2-x,1/2+y,-z
loop_
_atom_site_type_symbol
_atom_site_label
_atom_site_fract_x
_atom_site_fract_y
_atom_site_fract_z
Si Si1 0.010900 0.628963 0.360101
Si Si2 0.400304 0.168559 0.281920
Si Si3 0.850387 0.714833 0.116286
Si Si4 0.285606 0.280472 0.507348
Si Si5 0.593998 0.603244 0.957743
Si Si6 0.249446 0.437406 0.706254
O O1 0.955995 0.655397 0.222698
O O2 0.901937 0.697422 0.459314
O O3 0.000000 0.500000 0.384840
O O4 0.195067 0.676204 0.397231
O O5 0.306064 0.212929 0.162851
O O6 0.396053 0.262291 0.385883
O O7 0.590975 0.137954 0.254211
O O8 0.301125 0.060816 0.328027
O O9 0.975603 0.789799 0.037948
O O10 0.768777 0.623167 0.028310
O O11 0.340515 0.387519 0.586365
O O12 0.500000 0.500000 0.021465
O O13 0.624497 0.567886 0.818468
#
# Coordination Sequence:
#
# PCOD8156222 Si02
#       6
#     4   4   4   4   4   4
#     4  11  24  45  66 103 140 180 225 279 348 408
#     4  10  22  41  67 100 135 179 228 280 348 404
#     4  11  25  45  68  95 142 175 235 287 342 402
#     4  11  21  39  69  99 138 178 214 282 333 418
#     4  12  25  46  71 101 134 184 237 285 343 415
#     4  11  21  41  70  97 135 182 227 280 343 413
#
# _framework density 22.536121000000001
#
# number of rings (size 3 to 8) (size 9 to 14) (size 15 to 20)
#    0.000    1.000    5.000    2.000    0.000    1.333 
#    6.000    2.500    0.000    0.000    0.000    0.000 
#    0.000    0.000    0.000    0.000    0.000    0.000 
#
# Total GULP energy -297441.196742 kJ/mol
# GULP energy per Si atom -12393.383198 kJ/mol
# Density = 2.248483 g / cm^3
# Si number density = 22.536121 Si / 1000 Ang^3
#
#
#
# Elastic Constant Matrix: (Units=GPa)
#
#
# Indices 1 2 3 4 5 6 
#
# 1 76.3993 40.2229 29.7345 0.0000 0.0000 0.0000
# 2 40.2229 118.2627 35.7972 0.0000 0.0000 0.0000
# 3 29.7345 35.7972 93.0092 0.0000 0.0000 0.0000
# 4 0.0000 0.0000 0.0000 21.2987 0.0000 0.0000
# 5 0.0000 0.0000 0.0000 0.0000 37.8183 0.0000
# 6 0.0000 0.0000 0.0000 0.0000 0.0000 45.9959
#
#
#
# Elastic Compliance Matrix: (Units=1/GPa)
#
#
# Indices 1 2 3 4 5 6 
#
# 1 0.016959 -0.004671 -0.003624 0.000000 0.000000 0.000000
# 2 -0.004671 0.010857 -0.002685 0.000000 0.000000 0.000000
# 3 -0.003624 -0.002685 0.012944 0.000000 0.000000 0.000000
# 4 0.000000 0.000000 0.000000 0.046951 0.000000 0.000000
# 5 0.000000 0.000000 0.000000 0.000000 0.026442 0.000000
# 6 0.000000 0.000000 0.000000 0.000000 0.000000 0.021741
#
#
# Mechanical properties :
#
#
# Convention : Reuss Voigt Hill
#
# Bulk Modulus (GPa) = 53.19388 55.46449 54.32918
# Shear Modulus (GPa) = 30.46528 33.15034 31.80781
#
# Velocity S-wave (km/s) = 3.68073 3.83951 3.76096
# Velocity P-wave (km/s) = 6.45901 6.65737 6.55894
#
# Compressibility (1/GPa) = 0.01879916
#
# Stress axis : x y z
#
# Youngs Moduli (GPa) = 58.96674 92.10405 77.25764
#
# Poissons Ratio (x) = 0.43022 0.27997
# Poissons Ratio (y) = 0.27543 0.20747
# Poissons Ratio (z) = 0.21369 0.24734
#
# Static dielectric constant tensor:
#      x y z
#    x 4.175240 0.000000 0.000000 
#    y 0.000000 4.076370 0.000000 
#    z 0.000000 0.000000 3.962780 
# 
# 
# High freq. dielectric constant tensor:
#      x y z
#    x 1.885090 0.000000 0.000000 
#    y 0.000000 1.881450 0.000000 
#    z 0.000000 0.000000 1.886790 
# 
# From -- ./inp_files/5515.got.cif
#   From: 2010.03.12/outbox.cif.g09.slc.cpg/sg18_3_cif.got.tgz:5515.got - 2010.04.10 18:53:55.
