data_PCOD8156010
_publ_section_title
;
Structure prediction by ZEFSAII (Michael W. Deem and Ramdas Pophale) SiO2 
 PCOD8156010
Probable space group: P 21 21 2
;
_chemical_formula_sum "Si O2"
_cell_formula_units_Z 30
_cell_length_a 9.929623
_cell_length_b 10.639448
_cell_length_c 13.616558
_cell_angle_alpha 90.000000
_cell_angle_beta 90.000000
_cell_angle_gamma 90.000000
_cell_volume 1438.530905
_symmetry_space_group_name_H-M "P 21 21 2"
_symmetry_group_IT_number 18
_symmetry_cell_setting 'orthorhombic'
loop_
_space_group_symop_operation_xyz
x,y,z
-x,-y,z
1/2+x,1/2-y,-z
1/2-x,1/2+y,-z
loop_
_atom_site_type_symbol
_atom_site_label
_atom_site_fract_x
_atom_site_fract_y
_atom_site_fract_z
Si Si1 0.342737 0.465472 0.608740
Si Si2 0.223516 0.810208 0.910450
Si Si3 0.063286 0.779307 0.252088
Si Si4 0.350223 0.447005 0.387736
Si Si5 0.764149 0.790387 0.291596
Si Si6 0.583904 0.325570 0.043147
Si Si7 0.000000 0.000000 0.105263
Si Si8 0.745811 0.934032 0.798523
O O1 0.500000 0.500000 0.614540
O O2 0.332169 0.330713 0.664548
O O3 0.290326 0.453411 0.497459
O O4 0.251151 0.570194 0.662734
O O5 0.227516 0.705123 0.823952
O O6 0.075526 0.801843 0.956944
O O7 0.270590 0.939913 0.860752
O O8 0.330567 0.788870 0.997929
O O9 0.114371 0.653620 0.198248
O O10 0.919668 0.745321 0.300511
O O11 0.057090 0.889191 0.171641
O O12 0.500000 0.500000 0.386975
O O13 0.335934 0.303482 0.349926
O O14 0.268399 0.537832 0.315769
O O15 0.629134 0.357699 0.153865
O O16 0.613358 0.442971 0.968933
#
# Coordination Sequence:
#
# PCOD8156010 Si02
#       8
#     4   4   4   4   4   4   2   4
#     4   9  19  39  66  93 120 171 220 259 336 393
#     4  11  23  41  63  96 128 172 216 268 324 379
#     4  11  21  40  66  96 122 170 215 279 317 398
#     4  10  22  39  63  93 129 169 211 267 329 397
#     4  10  20  39  66  89 130 163 218 270 322 392
#     4  12  23  42  67  91 130 176 215 264 323 390
#     4  12  20  42  64  86 122 170 216 258 328 378
#     4  11  24  38  66  95 135 163 221 265 332 380
#
# _framework density 20.854609
#
# number of rings (size 3 to 8) (size 9 to 14) (size 15 to 20)
#    0.000    1.333    4.667    2.400    1.867    2.133 
#    0.000    0.000    0.000    2.400    0.000    0.000 
#    0.000    0.000    0.000    0.000    0.000    0.000 
#
# Total GULP energy -371775.776809 kJ/mol
# GULP energy per Si atom -12392.525894 kJ/mol
# Density = 2.080714 g / cm^3
# Si number density = 20.854609 Si / 1000 Ang^3
#
#
#
# Elastic Constant Matrix: (Units=GPa)
#
#
# Indices 1 2 3 4 5 6 
#
# 1 76.8160 38.7209 27.2091 0.0000 0.0000 0.0000
# 2 38.7209 64.5019 36.9980 0.0000 0.0000 0.0000
# 3 27.2091 36.9980 131.3089 0.0000 0.0000 0.0000
# 4 0.0000 0.0000 0.0000 31.1707 0.0000 0.0000
# 5 0.0000 0.0000 0.0000 0.0000 28.2987 0.0000
# 6 0.0000 0.0000 0.0000 0.0000 0.0000 33.1665
#
#
#
# Elastic Compliance Matrix: (Units=1/GPa)
#
#
# Indices 1 2 3 4 5 6 
#
# 1 0.018746 -0.010765 -0.000851 0.000000 0.000000 0.000000
# 2 -0.010765 0.024674 -0.004722 0.000000 0.000000 0.000000
# 3 -0.000851 -0.004722 0.009122 0.000000 0.000000 0.000000
# 4 0.000000 0.000000 0.000000 0.032081 0.000000 0.000000
# 5 0.000000 0.000000 0.000000 0.000000 0.035337 0.000000
# 6 0.000000 0.000000 0.000000 0.000000 0.000000 0.030151
#
#
# Mechanical properties :
#
#
# Convention : Reuss Voigt Hill
#
# Bulk Modulus (GPa) = 50.33554 53.16476 51.75015
# Shear Modulus (GPa) = 26.39774 29.84043 28.11909
#
# Velocity S-wave (km/s) = 3.56167 3.78680 3.67596
# Velocity P-wave (km/s) = 6.41114 6.68343 6.54870
#
# Compressibility (1/GPa) = 0.01986668
#
# Stress axis : x y z
#
# Youngs Moduli (GPa) = 53.34458 40.52840 109.62055
#
# Poissons Ratio (x) = 0.43629 0.09331
# Poissons Ratio (y) = 0.57426 0.51758
# Poissons Ratio (z) = 0.04541 0.19136
#
# Static dielectric constant tensor:
#      x y z
#    x 3.448630 0.000000 0.000000 
#    y 0.000000 3.920610 0.000000 
#    z 0.000000 0.000000 4.279370 
# 
# 
# High freq. dielectric constant tensor:
#      x y z
#    x 1.780640 0.000000 0.000000 
#    y 0.000000 1.812920 0.000000 
#    z 0.000000 0.000000 1.835410 
# 
# From -- ./inp_files/6738.got.cif
#   From: 2010.03.12/outbox.cif.g09.slc.cpg/sg18_4_cif.got.tgz:6738.got - 2010.04.10 18:53:55.
