data_PCOD8156064
_publ_section_title
;
Structure prediction by ZEFSAII (Michael W. Deem and Ramdas Pophale) SiO2 
 PCOD8156064
Probable space group: P 21 21 2
;
_chemical_formula_sum "Si O2"
_cell_formula_units_Z 32
_cell_length_a 13.638594
_cell_length_b 7.962900
_cell_length_c 13.777957
_cell_angle_alpha 90.000000
_cell_angle_beta 90.000000
_cell_angle_gamma 90.000000
_cell_volume 1496.324160
_symmetry_space_group_name_H-M "P 21 21 2"
_symmetry_group_IT_number 18
_symmetry_cell_setting 'orthorhombic'
loop_
_space_group_symop_operation_xyz
x,y,z
-x,-y,z
1/2+x,1/2-y,-z
1/2-x,1/2+y,-z
loop_
_atom_site_type_symbol
_atom_site_label
_atom_site_fract_x
_atom_site_fract_y
_atom_site_fract_z
Si Si1 0.900176 0.422911 0.445216
Si Si2 0.889048 0.058233 0.066895
Si Si3 0.207259 0.939173 0.870550
Si Si4 0.112478 0.386710 0.640002
Si Si5 0.711751 0.448124 0.331304
Si Si6 0.304285 0.058553 0.166367
Si Si7 0.392555 0.050011 0.965050
Si Si8 0.939645 0.170482 0.586250
O O1 0.861599 0.503476 0.546092
O O2 0.825830 0.450792 0.357940
O O3 0.919431 0.227703 0.474828
O O4 0.000000 0.500000 0.405040
O O5 0.862529 0.995003 0.957806
O O6 0.810337 0.988546 0.145344
O O7 0.875429 0.257429 0.062808
O O8 0.000000 0.000000 0.093381
O O9 0.182869 0.758277 0.825945
O O10 0.196211 0.073675 0.784073
O O11 0.319551 0.933303 0.904440
O O12 0.165743 0.211771 0.616679
O O13 0.153864 0.470627 0.737418
O O14 0.995564 0.329705 0.642095
O O15 0.663277 0.625404 0.363480
O O16 0.373078 0.003862 0.077127
O O17 0.500000 0.000000 0.933667
O O18 0.000000 0.000000 0.588388
#
# Coordination Sequence:
#
# PCOD8156064 Si02
#       8
#     4   4   4   4   4   4   4   4
#     4  10  21  38  59  84 113 152 197 242 292 350
#     4  10  21  38  59  85 117 152 193 240 293 354
#     4  10  22  37  56  84 116 152 196 239 290 351
#     4  10  21  36  59  86 117 149 191 245 293 350
#     4  11  21  36  58  84 118 156 193 242 296 350
#     4  10  21  38  59  86 116 152 195 243 295 351
#     4  10  21  36  57  81 112 151 191 240 294 350
#     4   9  20  37  58  86 115 148 194 245 297 350
#
# _framework density 21.385740999999999
#
# number of rings (size 3 to 8) (size 9 to 14) (size 15 to 20)
#    0.000    2.000    0.000    3.000    0.000    8.500 
#    0.000    2.500    0.000    3.000    0.000    0.000 
#    0.000    0.000    0.000    0.000    0.000    0.000 
#
# Total GULP energy -396595.096150 kJ/mol
# GULP energy per Si atom -12393.596755 kJ/mol
# Density = 2.133707 g / cm^3
# Si number density = 21.385741 Si / 1000 Ang^3
#
#
#
# Elastic Constant Matrix: (Units=GPa)
#
#
# Indices 1 2 3 4 5 6 
#
# 1 95.4092 -11.3825 10.1743 0.0000 0.0000 0.0000
# 2 -11.3825 30.2286 5.2292 0.0000 0.0000 0.0000
# 3 10.1743 5.2292 49.1228 0.0000 0.0000 0.0000
# 4 0.0000 0.0000 0.0000 24.0453 0.0000 0.0000
# 5 0.0000 0.0000 0.0000 0.0000 24.6756 0.0000
# 6 0.0000 0.0000 0.0000 0.0000 0.0000 21.9456
#
#
#
# Elastic Compliance Matrix: (Units=1/GPa)
#
#
# Indices 1 2 3 4 5 6 
#
# 1 0.011355 0.004770 -0.002860 0.000000 0.000000 0.000000
# 2 0.004770 0.035706 -0.004789 0.000000 0.000000 0.000000
# 3 -0.002860 -0.004789 0.021459 0.000000 0.000000 0.000000
# 4 0.000000 0.000000 0.000000 0.041588 0.000000 0.000000
# 5 0.000000 0.000000 0.000000 0.000000 0.040526 0.000000
# 6 0.000000 0.000000 0.000000 0.000000 0.000000 0.045567
#
#
# Mechanical properties :
#
#
# Convention : Reuss Voigt Hill
#
# Bulk Modulus (GPa) = 15.93270 20.31141 18.12205
# Shear Modulus (GPa) = 22.43362 25.51593 23.97478
#
# Velocity S-wave (km/s) = 3.24234 3.45792 3.35186
# Velocity P-wave (km/s) = 4.63501 5.04591 4.84482
#
# Compressibility (1/GPa) = 0.06276402
#
# Stress axis : x y z
#
# Youngs Moduli (GPa) = 88.06497 28.00644 46.59993
#
# Poissons Ratio (x) = -0.13360 0.13326
# Poissons Ratio (y) = -0.42011 0.22317
# Poissons Ratio (z) = 0.25184 0.13412
#
# Static dielectric constant tensor:
#      x y z
#    x 4.016580 0.000000 0.000000 
#    y 0.000000 4.114470 0.000000 
#    z 0.000000 0.000000 3.584810 
# 
# 
# High freq. dielectric constant tensor:
#      x y z
#    x 1.842300 0.000000 0.000000 
#    y 0.000000 1.853140 0.000000 
#    z 0.000000 0.000000 1.814800 
# 
# From -- ./inp_files/6110.got.cif
#   From: 2010.03.12/outbox.cif.g09.slc.cpg/sg18_4_cif.got.tgz:6110.got - 2010.04.10 18:53:55.
