data_PCOD8156355
_publ_section_title
;
Structure prediction by ZEFSAII (Michael W. Deem and Ramdas Pophale) SiO2 
 PCOD8156355
Probable space group: P 21 21 2
;
_chemical_formula_sum "Si O2"
_cell_formula_units_Z 24
_cell_length_a 12.103162
_cell_length_b 8.263092
_cell_length_c 10.770472
_cell_angle_alpha 90.000000
_cell_angle_beta 90.000000
_cell_angle_gamma 90.000000
_cell_volume 1077.149962
_symmetry_space_group_name_H-M "P 21 21 2"
_symmetry_group_IT_number 18
_symmetry_cell_setting 'orthorhombic'
loop_
_space_group_symop_operation_xyz
x,y,z
-x,-y,z
1/2+x,1/2-y,-z
1/2-x,1/2+y,-z
loop_
_atom_site_type_symbol
_atom_site_label
_atom_site_fract_x
_atom_site_fract_y
_atom_site_fract_z
Si Si1 0.372783 0.547318 0.507376
Si Si2 0.626244 0.012951 0.091684
Si Si3 0.933478 0.728425 0.692446
Si Si4 0.000000 0.000000 0.866561
Si Si5 0.000000 0.500000 0.493894
Si Si6 0.286553 0.346480 0.099925
Si Si7 0.793289 0.648129 0.374667
O O1 0.500000 0.500000 0.531471
O O2 0.352282 0.652762 0.381529
O O3 0.299275 0.388296 0.481372
O O4 0.328967 0.661915 0.619069
O O5 0.631870 0.091139 0.230122
O O6 0.500000 0.000000 0.047431
O O7 0.680979 0.839228 0.092962
O O8 0.687483 0.130076 0.996118
O O9 0.015089 0.652628 0.587881
O O10 0.005928 0.835761 0.785495
O O11 0.886310 0.028334 0.942381
O O12 0.104714 0.471458 0.405850
O O13 0.247271 0.393710 0.237361
#
# Coordination Sequence:
#
# PCOD8156355 Si02
#       7
#     4   4   4   2   2   4   4
#     4  11  25  42  71 104 142 188 245 295 364 437
#     4  12  27  46  76 101 142 194 251 303 364 428
#     4  11  20  42  72 101 134 184 245 291 353 443
#     4  12  20  42  74 100 142 182 246 290 352 442
#     4  10  24  42  66 102 144 192 232 294 364 422
#     4  12  27  47  71 108 147 197 247 308 363 430
#     4  11  27  42  72 102 151 185 244 303 368 427
#
# _framework density 22.281019000000001
#
# number of rings (size 3 to 8) (size 9 to 14) (size 15 to 20)
#    0.000    0.667    5.000    1.000   12.833    0.000 
#    0.000    1.667    0.000    0.000    0.000    0.000 
#    0.000    0.000    0.000    0.000    0.000    0.000 
#
# Total GULP energy -297428.237690 kJ/mol
# GULP energy per Si atom -12392.843237 kJ/mol
# Density = 2.223031 g / cm^3
# Si number density = 22.281019 Si / 1000 Ang^3
#
#
#
# Elastic Constant Matrix: (Units=GPa)
#
#
# Indices 1 2 3 4 5 6 
#
# 1 119.1771 45.7111 30.2944 0.0000 0.0000 0.0000
# 2 45.7111 114.0537 25.8799 0.0000 0.0000 0.0000
# 3 30.2944 25.8799 69.3873 0.0000 0.0000 0.0000
# 4 0.0000 0.0000 0.0000 34.7046 0.0000 0.0000
# 5 0.0000 0.0000 0.0000 0.0000 20.1311 0.0000
# 6 0.0000 0.0000 0.0000 0.0000 0.0000 45.7322
#
#
#
# Elastic Compliance Matrix: (Units=1/GPa)
#
#
# Indices 1 2 3 4 5 6 
#
# 1 0.010570 -0.003484 -0.003315 0.000000 0.000000 0.000000
# 2 -0.003484 0.010727 -0.002480 0.000000 0.000000 0.000000
# 3 -0.003315 -0.002480 0.016784 0.000000 0.000000 0.000000
# 4 0.000000 0.000000 0.000000 0.028815 0.000000 0.000000
# 5 0.000000 0.000000 0.000000 0.000000 0.049674 0.000000
# 6 0.000000 0.000000 0.000000 0.000000 0.000000 0.021866
#
#
# Mechanical properties :
#
#
# Convention : Reuss Voigt Hill
#
# Bulk Modulus (GPa) = 51.22227 56.26544 53.74385
# Shear Modulus (GPa) = 30.58062 33.49577 32.03820
#
# Velocity S-wave (km/s) = 3.70874 3.88149 3.79610
# Velocity P-wave (km/s) = 6.43263 6.73761 6.58689
#
# Compressibility (1/GPa) = 0.01952276
#
# Stress axis : x y z
#
# Youngs Moduli (GPa) = 94.60795 93.22431 59.57971
#
# Poissons Ratio (x) = 0.32479 0.19753
# Poissons Ratio (y) = 0.32961 0.14774
# Poissons Ratio (z) = 0.31366 0.23117
#
# Static dielectric constant tensor:
#      x y z
#    x 4.092180 0.000000 0.000000 
#    y 0.000000 4.513690 0.000000 
#    z 0.000000 0.000000 3.842020 
# 
# 
# High freq. dielectric constant tensor:
#      x y z
#    x 1.878150 0.000000 0.000000 
#    y 0.000000 1.900340 0.000000 
#    z 0.000000 0.000000 1.846500 
# 
# From -- ./inp_files/5854.got.cif
#   From: 2010.03.12/outbox.cif.g09.slc.cpg/sg18_3_cif.got.tgz:5854.got - 2010.04.10 18:53:55.
