data_PCOD8156216
_publ_section_title
;
Structure prediction by ZEFSAII (Michael W. Deem and Ramdas Pophale) SiO2 
 PCOD8156216
Probable space group: P 21 21 2
;
_chemical_formula_sum "Si O2"
_cell_formula_units_Z 26
_cell_length_a 21.633856
_cell_length_b 8.055727
_cell_length_c 6.312339
_cell_angle_alpha 90.000000
_cell_angle_beta 90.000000
_cell_angle_gamma 90.000000
_cell_volume 1100.091956
_symmetry_space_group_name_H-M "P 21 21 2"
_symmetry_group_IT_number 18
_symmetry_cell_setting 'orthorhombic'
loop_
_space_group_symop_operation_xyz
x,y,z
-x,-y,z
1/2+x,1/2-y,-z
1/2-x,1/2+y,-z
loop_
_atom_site_type_symbol
_atom_site_label
_atom_site_fract_x
_atom_site_fract_y
_atom_site_fract_z
Si Si1 0.168247 0.903668 0.138618
Si Si2 0.726666 0.082555 0.810451
Si Si3 0.300966 0.626959 0.489404
Si Si4 0.407639 0.582539 0.187491
Si Si5 0.500000 0.000000 0.604972
Si Si6 0.896377 0.429805 0.090356
Si Si7 0.028492 0.743477 0.749154
O O1 0.123417 0.749150 0.180576
O O2 0.193532 0.964841 0.362312
O O3 0.223530 0.851256 0.979133
O O4 0.129484 0.053592 0.030285
O O5 0.718407 0.219221 0.630480
O O6 0.749119 0.915357 0.688725
O O7 0.664113 0.044276 0.941820
O O8 0.364916 0.665378 0.367716
O O9 0.465068 0.702580 0.131754
O O10 0.429103 0.404771 0.282578
O O11 0.439247 0.973539 0.745286
O O12 0.490856 0.168697 0.474784
O O13 0.934581 0.400986 0.873869
#
# Coordination Sequence:
#
# PCOD8156216 Si02
#       7
#     4   4   4   4   2   4   4
#     4  10  22  41  66  92 125 165 209 264 318 374
#     4  11  24  40  64  95 127 168 212 262 321 375
#     4  11  22  40  65  93 126 164 215 264 314 380
#     4   9  21  41  64  90 120 168 215 257 315 376
#     4  12  24  38  62  92 126 166 202 256 318 370
#     4  11  24  42  61  93 129 162 209 257 315 378
#     4  10  22  41  63  90 128 164 210 263 312 377
#
# _framework density 23.634385999999999
#
# number of rings (size 3 to 8) (size 9 to 14) (size 15 to 20)
#    0.000    1.538    0.000    4.154    0.000    8.615 
#    0.000    4.615    0.000    0.000    0.000    0.000 
#    0.000    0.000    0.000    0.000    0.000    0.000 
#
# Total GULP energy -322477.932269 kJ/mol
# GULP energy per Si atom -12402.997395 kJ/mol
# Density = 2.358059 g / cm^3
# Si number density = 23.634386 Si / 1000 Ang^3
#
#
#
# Elastic Constant Matrix: (Units=GPa)
#
#
# Indices 1 2 3 4 5 6 
#
# 1 146.7891 20.7244 51.2083 0.0000 0.0000 0.0000
# 2 20.7244 55.8091 18.2493 0.0000 0.0000 0.0000
# 3 51.2083 18.2493 67.7556 0.0000 0.0000 0.0000
# 4 0.0000 0.0000 0.0000 40.0834 0.0000 0.0000
# 5 0.0000 0.0000 0.0000 0.0000 36.8300 0.0000
# 6 0.0000 0.0000 0.0000 0.0000 0.0000 35.0059
#
#
#
# Elastic Compliance Matrix: (Units=1/GPa)
#
#
# Indices 1 2 3 4 5 6 
#
# 1 0.009333 -0.001271 -0.006712 0.000000 0.000000 0.000000
# 2 -0.001271 0.019822 -0.004378 0.000000 0.000000 0.000000
# 3 -0.006712 -0.004378 0.021011 0.000000 0.000000 0.000000
# 4 0.000000 0.000000 0.000000 0.024948 0.000000 0.000000
# 5 0.000000 0.000000 0.000000 0.000000 0.027152 0.000000
# 6 0.000000 0.000000 0.000000 0.000000 0.000000 0.028567
#
#
# Mechanical properties :
#
#
# Convention : Reuss Voigt Hill
#
# Bulk Modulus (GPa) = 39.30182 50.07976 44.69079
# Shear Modulus (GPa) = 30.48125 34.39530 32.43827
#
# Velocity S-wave (km/s) = 3.59513 3.81899 3.70875
# Velocity P-wave (km/s) = 5.82224 6.37821 6.10656
#
# Compressibility (1/GPa) = 0.02544412
#
# Stress axis : x y z
#
# Youngs Moduli (GPa) = 107.14265 50.44931 47.59505
#
# Poissons Ratio (x) = 0.06413 0.31944
# Poissons Ratio (y) = 0.13621 0.20837
# Poissons Ratio (z) = 0.71910 0.22087
#
# Static dielectric constant tensor:
#      x y z
#    x 4.501320 0.000000 0.000000 
#    y 0.000000 4.059760 0.000000 
#    z 0.000000 0.000000 4.058810 
# 
# 
# High freq. dielectric constant tensor:
#      x y z
#    x 1.953640 0.000000 0.000000 
#    y 0.000000 1.933570 0.000000 
#    z 0.000000 0.000000 1.924950 
# 
# From -- ./inp_files/2097.got.cif
#   From: 2010.03.12/outbox.cif.g09.slc.cpg/sg18_2_cif.got.tgz:2097.got - 2010.04.10 18:53:55.
