data_PCOD8156645
_publ_section_title
;
Structure prediction by ZEFSAII (Michael W. Deem and Ramdas Pophale) SiO2 
 PCOD8156645
Probable space group: P 21 21 21
;
_chemical_formula_sum "Si O2"
_cell_formula_units_Z 20
_cell_length_a 24.559621
_cell_length_b 7.932149
_cell_length_c 4.862533
_cell_angle_alpha 90.000000
_cell_angle_beta 90.000000
_cell_angle_gamma 90.000000
_cell_volume 947.272841
_symmetry_space_group_name_H-M "P 21 21 21"
_symmetry_group_IT_number 19
_symmetry_cell_setting 'orthorhombic'
loop_
_space_group_symop_operation_xyz
x,y,z
1/2-x,-y,1/2+z
1/2+x,1/2-y,-z
-x,1/2+y,1/2-z
loop_
_atom_site_type_symbol
_atom_site_label
_atom_site_fract_x
_atom_site_fract_y
_atom_site_fract_z
Si Si1 0.363907 0.130157 0.206443
Si Si2 0.533132 0.820791 0.109126
Si Si3 0.632743 0.396030 0.794235
Si Si4 0.028047 0.304371 0.113852
Si Si5 0.748551 0.389116 0.673666
O O1 0.407209 0.272294 0.283361
O O2 0.302970 0.213127 0.233209
O O3 0.366891 0.965391 0.397558
O O4 0.375755 0.058532 0.903118
O O5 0.491490 0.814425 0.364334
O O6 0.515002 0.695109 0.864747
O O7 0.534106 0.007785 0.993462
O O8 0.584844 0.261052 0.762013
O O9 0.690188 0.298903 0.728449
O O10 0.752942 0.437191 0.353319
#
# Coordination Sequence:
#
# PCOD8156645 Si02
#       5
#     4   4   4   4   4
#     4  10  19  35  58  83 110 143 183 226 270 325
#     4  12  24  38  57  83 113 148 186 229 278 329
#     4  10  19  35  58  83 110 143 183 226 270 325
#     4  12  24  38  57  83 113 148 186 229 278 329
#     4   8  16  30  54  82 106 138 180 220 266 324
#
# _framework density 21.113240000000001
#
# number of rings (size 3 to 8) (size 9 to 14) (size 15 to 20)
#    0.000    1.600    0.000    7.200    0.000    0.000 
#    0.000    0.000    0.000   19.200    0.000    0.000 
#    0.000    0.000    0.000    0.000    0.000    0.000 
#
# Total GULP energy -247921.739850 kJ/mol
# GULP energy per Si atom -12396.086992 kJ/mol
# Density = 2.106519 g / cm^3
# Si number density = 21.113240 Si / 1000 Ang^3
#
#
#
# Elastic Constant Matrix: (Units=GPa)
#
#
# Indices 1 2 3 4 5 6 
#
# 1 180.5846 53.0796 37.8439 0.0000 0.0000 0.0000
# 2 53.0796 60.5437 14.7024 0.0000 0.0000 0.0000
# 3 37.8439 14.7024 96.5201 0.0000 0.0000 0.0000
# 4 0.0000 0.0000 0.0000 27.9078 0.0000 0.0000
# 5 0.0000 0.0000 0.0000 0.0000 34.3923 0.0000
# 6 0.0000 0.0000 0.0000 0.0000 0.0000 19.3685
#
#
#
# Elastic Compliance Matrix: (Units=1/GPa)
#
#
# Indices 1 2 3 4 5 6 
#
# 1 0.007852 -0.006372 -0.002108 0.000000 0.000000 0.000000
# 2 -0.006372 0.022323 -0.000902 0.000000 0.000000 0.000000
# 3 -0.002108 -0.000902 0.011324 0.000000 0.000000 0.000000
# 4 0.000000 0.000000 0.000000 0.035832 0.000000 0.000000
# 5 0.000000 0.000000 0.000000 0.000000 0.029076 0.000000
# 6 0.000000 0.000000 0.000000 0.000000 0.000000 0.051630
#
#
# Mechanical properties :
#
#
# Convention : Reuss Voigt Hill
#
# Bulk Modulus (GPa) = 43.98501 60.98891 52.48696
# Shear Modulus (GPa) = 27.11769 31.80188 29.45978
#
# Velocity S-wave (km/s) = 3.58773 3.88526 3.73945
# Velocity P-wave (km/s) = 6.16770 7.00544 6.59988
#
# Compressibility (1/GPa) = 0.02273502
#
# Stress axis : x y z
#
# Youngs Moduli (GPa) = 127.34936 44.79727 88.30446
#
# Poissons Ratio (x) = 0.28547 0.18616
# Poissons Ratio (y) = 0.81152 0.07963
# Poissons Ratio (z) = 0.26847 0.04040
#
# Static dielectric constant tensor:
#      x y z
#    x 4.447420 0.000000 0.000000 
#    y 0.000000 3.035700 0.000000 
#    z 0.000000 0.000000 4.131170 
# 
# 
# High freq. dielectric constant tensor:
#      x y z
#    x 1.858870 0.000000 0.000000 
#    y 0.000000 1.749700 0.000000 
#    z 0.000000 0.000000 1.856350 
# 
# From -- ./inp_files/2092.got.cif
#   From: 2010.03.12/outbox.cif.g09.slc.cpg/sg19_2_cif.got.tgz:2092.got - 2010.04.10 18:59:41.
