data_PCOD8156038
_publ_section_title
;
Structure prediction by ZEFSAII (Michael W. Deem and Ramdas Pophale) SiO2 
 PCOD8156038
Probable space group: P 21 21 2
;
_chemical_formula_sum "Si O2"
_cell_formula_units_Z 20
_cell_length_a 7.966605
_cell_length_b 9.751478
_cell_length_c 12.224644
_cell_angle_alpha 90.000000
_cell_angle_beta 90.000000
_cell_angle_gamma 90.000000
_cell_volume 949.685813
_symmetry_space_group_name_H-M "P 21 21 2"
_symmetry_group_IT_number 18
_symmetry_cell_setting 'orthorhombic'
loop_
_space_group_symop_operation_xyz
x,y,z
-x,-y,z
1/2+x,1/2-y,-z
1/2-x,1/2+y,-z
loop_
_atom_site_type_symbol
_atom_site_label
_atom_site_fract_x
_atom_site_fract_y
_atom_site_fract_z
Si Si1 0.071383 0.654356 0.444418
Si Si2 0.611279 0.863924 0.126943
Si Si3 0.622494 0.383243 0.059918
Si Si4 0.764866 0.768737 0.345672
Si Si5 0.807474 0.973000 0.712475
O O1 0.125277 0.706335 0.563279
O O2 0.232371 0.646837 0.363938
O O3 0.000000 0.500000 0.458484
O O4 0.951534 0.778587 0.398752
O O5 0.482776 0.740211 0.112801
O O6 0.713595 0.862682 0.241921
O O7 0.500000 0.000000 0.116171
O O8 0.749623 0.842153 0.033723
O O9 0.500000 0.500000 0.012002
O O10 0.729147 0.439227 0.161458
O O11 0.786593 0.613658 0.306799
O O12 0.000000 0.000000 0.685396
#
# Coordination Sequence:
#
# PCOD8156038 Si02
#       5
#     4   4   4   4   4
#     4  10  23  39  69  97 137 177 231 273 347 398
#     4  12  26  42  71 101 140 174 233 286 334 403
#     4  11  24  46  69  97 137 182 227 276 346 404
#     4  11  22  42  64 101 134 180 223 286 330 406
#     4  10  20  41  68  91 133 180 225 269 341 406
#
# _framework density 21.059595999999999
#
# number of rings (size 3 to 8) (size 9 to 14) (size 15 to 20)
#    0.000    1.200    4.000    3.000    2.800    0.800 
#    0.000    1.000    0.000    0.000    0.000    0.000 
#    0.000    0.000    0.000    0.000    0.000    0.000 
#
# Total GULP energy -247813.325414 kJ/mol
# GULP energy per Si atom -12390.666271 kJ/mol
# Density = 2.101166 g / cm^3
# Si number density = 21.059596 Si / 1000 Ang^3
#
#
#
# Elastic Constant Matrix: (Units=GPa)
#
#
# Indices 1 2 3 4 5 6 
#
# 1 96.1272 17.2456 68.4445 0.0000 0.0000 0.0000
# 2 17.2456 60.4721 19.3510 0.0000 0.0000 0.0000
# 3 68.4445 19.3510 164.5456 0.0000 0.0000 0.0000
# 4 0.0000 0.0000 0.0000 15.8123 0.0000 0.0000
# 5 0.0000 0.0000 0.0000 0.0000 33.2015 0.0000
# 6 0.0000 0.0000 0.0000 0.0000 0.0000 29.9627
#
#
#
# Elastic Compliance Matrix: (Units=1/GPa)
#
#
# Indices 1 2 3 4 5 6 
#
# 1 0.015105 -0.002387 -0.006002 0.000000 0.000000 0.000000
# 2 -0.002387 0.017560 -0.001072 0.000000 0.000000 0.000000
# 3 -0.006002 -0.001072 0.008700 0.000000 0.000000 0.000000
# 4 0.000000 0.000000 0.000000 0.063242 0.000000 0.000000
# 5 0.000000 0.000000 0.000000 0.000000 0.030119 0.000000
# 6 0.000000 0.000000 0.000000 0.000000 0.000000 0.033375
#
#
# Mechanical properties :
#
#
# Convention : Reuss Voigt Hill
#
# Bulk Modulus (GPa) = 44.55854 59.02523 51.79189
# Shear Modulus (GPa) = 25.70626 30.20222 27.95424
#
# Velocity S-wave (km/s) = 3.49756 3.79110 3.64729
# Velocity P-wave (km/s) = 6.12493 6.87400 6.51025
#
# Compressibility (1/GPa) = 0.02244239
#
# Stress axis : x y z
#
# Youngs Moduli (GPa) = 66.20376 56.94637 114.94024
#
# Poissons Ratio (x) = 0.13593 0.68991
# Poissons Ratio (y) = 0.15802 0.12325
# Poissons Ratio (z) = 0.39738 0.06106
#
# Static dielectric constant tensor:
#      x y z
#    x 4.047070 0.000000 0.000000 
#    y 0.000000 3.920420 0.000000 
#    z 0.000000 0.000000 3.969310 
# 
# 
# High freq. dielectric constant tensor:
#      x y z
#    x 1.830960 0.000000 0.000000 
#    y 0.000000 1.814920 0.000000 
#    z 0.000000 0.000000 1.840130 
# 
# From -- ./inp_files/5412.got.cif
#   From: 2010.03.12/outbox.cif.g09.slc.cpg/sg18_3_cif.got.tgz:5412.got - 2010.04.10 18:53:55.
