data_PCOD8156882
_publ_section_title
;
Structure prediction by ZEFSAII (Michael W. Deem and Ramdas Pophale) SiO2 
 PCOD8156882
Probable space group: P 21 21 21
;
_chemical_formula_sum "Si O2"
_cell_formula_units_Z 24
_cell_length_a 7.460340
_cell_length_b 9.058854
_cell_length_c 17.854986
_cell_angle_alpha 90.000000
_cell_angle_beta 90.000000
_cell_angle_gamma 90.000000
_cell_volume 1206.678000
_symmetry_space_group_name_H-M "P 21 21 21"
_symmetry_group_IT_number 19
_symmetry_cell_setting 'orthorhombic'
loop_
_space_group_symop_operation_xyz
x,y,z
1/2-x,-y,1/2+z
1/2+x,1/2-y,-z
-x,1/2+y,1/2-z
loop_
_atom_site_type_symbol
_atom_site_label
_atom_site_fract_x
_atom_site_fract_y
_atom_site_fract_z
Si Si1 0.300276 0.818143 0.452845
Si Si2 0.812318 0.102287 0.162498
Si Si3 0.890908 0.785702 0.098556
Si Si4 0.291979 0.393996 0.666384
Si Si5 0.926465 0.813648 0.400365
Si Si6 0.531449 0.621236 0.061201
O O1 0.330380 0.687347 0.391453
O O2 0.297075 0.750302 0.535853
O O3 0.101172 0.886669 0.440894
O O4 0.450829 0.943640 0.444496
O O5 0.741631 0.116892 0.246674
O O6 0.007855 0.180643 0.153994
O O7 0.828956 0.934047 0.138723
O O8 0.716114 0.686628 0.090250
O O9 0.033658 0.703836 0.150785
O O10 0.982039 0.814098 0.019013
O O11 0.324711 0.564754 0.647405
O O12 0.124010 0.334883 0.619130
#
# Coordination Sequence:
#
# PCOD8156882 Si02
#       6
#     4   4   4   4   4   4
#     4  10  21  42  66  95 124 173 226 260 319 395
#     4  10  24  40  66  96 135 176 215 271 334 381
#     4  12  23  43  66 100 130 171 224 267 331 388
#     4  12  24  42  66  97 140 171 212 278 333 379
#     4  10  20  40  68  91 131 170 221 266 316 396
#     4  12  24  41  68  95 130 173 222 274 319 393
#
# _framework density 19.889316000000001
#
# number of rings (size 3 to 8) (size 9 to 14) (size 15 to 20)
#    1.000    0.000    5.000    3.000    0.000    1.333 
#    0.000    1.667    0.000    0.000    0.000    0.000 
#    0.000    0.000    0.000    0.000    0.000    0.000 
#
# Total GULP energy -297572.477384 kJ/mol
# GULP energy per Si atom -12398.853224 kJ/mol
# Density = 1.984405 g / cm^3
# Si number density = 19.889316 Si / 1000 Ang^3
#
#
#
# Elastic Constant Matrix: (Units=GPa)
#
#
# Indices 1 2 3 4 5 6 
#
# 1 60.8324 14.8464 10.5938 0.0000 0.0000 0.0000
# 2 14.8464 104.4414 34.2163 0.0000 0.0000 0.0000
# 3 10.5938 34.2163 100.7443 0.0000 0.0000 0.0000
# 4 0.0000 0.0000 0.0000 17.9574 0.0000 0.0000
# 5 0.0000 0.0000 0.0000 0.0000 28.9714 0.0000
# 6 0.0000 0.0000 0.0000 0.0000 0.0000 30.9254
#
#
#
# Elastic Compliance Matrix: (Units=1/GPa)
#
#
# Indices 1 2 3 4 5 6 
#
# 1 0.017136 -0.002077 -0.001097 0.000000 0.000000 0.000000
# 2 -0.002077 0.011025 -0.003526 0.000000 0.000000 0.000000
# 3 -0.001097 -0.003526 0.011239 0.000000 0.000000 0.000000
# 4 0.000000 0.000000 0.000000 0.055687 0.000000 0.000000
# 5 0.000000 0.000000 0.000000 0.000000 0.034517 0.000000
# 6 0.000000 0.000000 0.000000 0.000000 0.000000 0.032336
#
#
# Mechanical properties :
#
#
# Convention : Reuss Voigt Hill
#
# Bulk Modulus (GPa) = 38.45913 42.81456 40.63684
# Shear Modulus (GPa) = 27.17290 29.32828 28.25059
#
# Velocity S-wave (km/s) = 3.70023 3.84419 3.77290
# Velocity P-wave (km/s) = 6.13467 6.42470 6.28136
#
# Compressibility (1/GPa) = 0.02600163
#
# Stress axis : x y z
#
# Youngs Moduli (GPa) = 58.35525 90.70166 88.97556
#
# Poissons Ratio (x) = 0.18836 0.09758
# Poissons Ratio (y) = 0.12118 0.31374
# Poissons Ratio (z) = 0.06400 0.31983
#
# Static dielectric constant tensor:
#      x y z
#    x 3.459120 0.000000 0.000000 
#    y 0.000000 3.600310 0.000000 
#    z 0.000000 0.000000 3.524260 
# 
# 
# High freq. dielectric constant tensor:
#      x y z
#    x 1.766880 0.000000 0.000000 
#    y 0.000000 1.781900 0.000000 
#    z 0.000000 0.000000 1.774350 
# 
# From -- ./inp_files/6549.got.cif
#   From: 2010.03.12/outbox.cif.g09.slc.cpg/sg19_4_cif.got.tgz:6549.got - 2010.04.10 18:59:41.
