data_PCOD8156676
_publ_section_title
;
Structure prediction by ZEFSAII (Michael W. Deem and Ramdas Pophale) SiO2 
 PCOD8156676
Probable space group: P 21 21 21
;
_chemical_formula_sum "Si O2"
_cell_formula_units_Z 28
_cell_length_a 9.514301
_cell_length_b 17.519458
_cell_length_c 8.168047
_cell_angle_alpha 90.000000
_cell_angle_beta 90.000000
_cell_angle_gamma 90.000000
_cell_volume 1361.494155
_symmetry_space_group_name_H-M "P 21 21 21"
_symmetry_group_IT_number 19
_symmetry_cell_setting 'orthorhombic'
loop_
_space_group_symop_operation_xyz
x,y,z
1/2-x,-y,1/2+z
1/2+x,1/2-y,-z
-x,1/2+y,1/2-z
loop_
_atom_site_type_symbol
_atom_site_label
_atom_site_fract_x
_atom_site_fract_y
_atom_site_fract_z
Si Si1 0.915759 0.035439 0.484060
Si Si2 0.670139 0.068283 0.703483
Si Si3 0.084213 0.275518 0.404890
Si Si4 0.219323 0.785095 0.171183
Si Si5 0.444762 0.976529 0.528972
Si Si6 0.816826 0.545988 0.810916
Si Si7 0.551219 0.841868 0.717507
O O1 0.826935 0.042559 0.651713
O O2 0.883107 0.103296 0.357267
O O3 0.079707 0.037889 0.533449
O O4 0.873761 0.958257 0.385942
O O5 0.663042 0.159430 0.698351
O O6 0.568113 0.036213 0.562271
O O7 0.158152 0.257986 0.575252
O O8 0.920327 0.298428 0.441323
O O9 0.087615 0.199411 0.291570
O O10 0.274022 0.866820 0.232767
O O11 0.168522 0.725565 0.316444
O O12 0.395140 0.988140 0.345347
O O13 0.505700 0.890695 0.559441
O O14 0.318962 0.994163 0.655593
#
# Coordination Sequence:
#
# PCOD8156676 Si02
#       7
#     4   4   4   4   4   4   4
#     4  11  22  38  62  90 127 157 214 251 325 366
#     4  11  21  40  62  91 125 170 201 266 305 392
#     4  10  19  37  65  89 119 166 205 257 313 378
#     4  10  20  38  66  88 126 162 216 251 328 370
#     4  11  23  39  63  90 130 158 219 258 322 365
#     4  12  23  39  64  96 120 172 207 274 310 387
#     4   9  20  37  62  86 121 157 202 263 297 382
#
# _framework density 20.565639999999998
#
# number of rings (size 3 to 8) (size 9 to 14) (size 15 to 20)
#    0.857    0.571    4.286    2.571    0.000    0.000 
#    0.000    4.286    3.143    0.000    0.000    0.000 
#    0.000    0.000    0.000    0.000    0.000    0.000 
#
# Total GULP energy -346946.951108 kJ/mol
# GULP energy per Si atom -12390.962540 kJ/mol
# Density = 2.051883 g / cm^3
# Si number density = 20.565640 Si / 1000 Ang^3
#
#
#
# Elastic Constant Matrix: (Units=GPa)
#
#
# Indices 1 2 3 4 5 6 
#
# 1 67.9545 4.0168 -1.4758 0.0000 0.0000 0.0000
# 2 4.0168 82.1809 10.5555 0.0000 0.0000 0.0000
# 3 -1.4758 10.5555 44.6736 0.0000 0.0000 0.0000
# 4 0.0000 0.0000 0.0000 26.8467 0.0000 0.0000
# 5 0.0000 0.0000 0.0000 0.0000 26.7349 0.0000
# 6 0.0000 0.0000 0.0000 0.0000 0.0000 27.4955
#
#
#
# Elastic Compliance Matrix: (Units=1/GPa)
#
#
# Indices 1 2 3 4 5 6 
#
# 1 0.014778 -0.000810 0.000679 0.000000 0.000000 0.000000
# 2 -0.000810 0.012593 -0.003002 0.000000 0.000000 0.000000
# 3 0.000679 -0.003002 0.023116 0.000000 0.000000 0.000000
# 4 0.000000 0.000000 0.000000 0.037249 0.000000 0.000000
# 5 0.000000 0.000000 0.000000 0.000000 0.037404 0.000000
# 6 0.000000 0.000000 0.000000 0.000000 0.000000 0.036370
#
#
# Mechanical properties :
#
#
# Convention : Reuss Voigt Hill
#
# Bulk Modulus (GPa) = 22.61249 24.55577 23.58413
# Shear Modulus (GPa) = 27.39476 28.32958 27.86217
#
# Velocity S-wave (km/s) = 3.65371 3.71552 3.68474
# Velocity P-wave (km/s) = 5.36829 5.51116 5.44020
#
# Compressibility (1/GPa) = 0.04422335
#
# Stress axis : x y z
#
# Youngs Moduli (GPa) = 67.66664 79.40627 43.25930
#
# Poissons Ratio (x) = 0.06429 -0.02939
# Poissons Ratio (y) = 0.05478 0.12988
# Poissons Ratio (z) = -0.04598 0.23840
#
# Static dielectric constant tensor:
#      x y z
#    x 3.794070 0.000000 0.000000 
#    y 0.000000 3.854270 0.000000 
#    z 0.000000 0.000000 3.195600 
# 
# 
# High freq. dielectric constant tensor:
#      x y z
#    x 1.811550 0.000000 0.000000 
#    y 0.000000 1.811530 0.000000 
#    z 0.000000 0.000000 1.760550 
# 
# From -- ./inp_files/3070.got.cif
#   From: 2010.03.12/outbox.cif.g09.slc.cpg/sg19_2_cif.got.tgz:3070.got - 2010.04.10 18:59:41.
