data_PCOD8156710
_publ_section_title
;
Structure prediction by ZEFSAII (Michael W. Deem and Ramdas Pophale) SiO2 
 PCOD8156710
Probable space group: P 21 21 21
;
_chemical_formula_sum "Si O2"
_cell_formula_units_Z 32
_cell_length_a 9.099442
_cell_length_b 7.738453
_cell_length_c 19.403855
_cell_angle_alpha 90.000000
_cell_angle_beta 90.000000
_cell_angle_gamma 90.000000
_cell_volume 1366.334174
_symmetry_space_group_name_H-M "P 21 21 21"
_symmetry_group_IT_number 19
_symmetry_cell_setting 'orthorhombic'
loop_
_space_group_symop_operation_xyz
x,y,z
1/2-x,-y,1/2+z
1/2+x,1/2-y,-z
-x,1/2+y,1/2-z
loop_
_atom_site_type_symbol
_atom_site_label
_atom_site_fract_x
_atom_site_fract_y
_atom_site_fract_z
Si Si1 0.423895 0.571650 0.534995
Si Si2 0.664861 0.424489 0.380358
Si Si3 0.289858 0.276911 0.288974
Si Si4 0.893869 0.243531 0.565716
Si Si5 0.698306 0.722866 0.750639
Si Si6 0.525948 0.092887 0.220663
Si Si7 0.767750 0.588245 0.509618
Si Si8 0.572438 0.070841 0.804803
O O1 0.374732 0.390370 0.498648
O O2 0.599618 0.598783 0.535423
O O3 0.346588 0.725225 0.491418
O O4 0.374286 0.570010 0.615512
O O5 0.565390 0.266948 0.410680
O O6 0.779067 0.364293 0.323913
O O7 0.542611 0.562808 0.354768
O O8 0.770272 0.519509 0.432388
O O9 0.279044 0.306249 0.371749
O O10 0.390373 0.109255 0.274616
O O11 0.384497 0.428322 0.252567
O O12 0.140669 0.274923 0.243933
O O13 0.861833 0.443480 0.549672
O O14 0.858646 0.749194 0.716404
O O15 0.603989 0.601474 0.699019
O O16 0.610915 0.898176 0.764380
#
# Coordination Sequence:
#
# PCOD8156710 Si02
#       8
#     4   4   4   4   4   4   4   4
#     4  11  27  49  68 113 143 193 251 295 366 442
#     4  10  22  45  71 100 139 182 249 293 359 431
#     4  10  22  42  69 104 134 186 235 296 356 419
#     4  10  23  48  74 101 141 199 251 295 354 438
#     4  11  24  42  66 103 137 187 221 301 365 430
#     4  10  19  40  68  98 132 177 232 283 344 424
#     4  11  26  45  75  98 143 197 235 305 358 438
#     4  11  27  41  67 107 147 181 230 306 372 414
#
# _framework density 23.420332999999999
#
# number of rings (size 3 to 8) (size 9 to 14) (size 15 to 20)
#    0.000    1.500    2.500    1.500    5.250    7.000 
#    6.750    0.000    0.000    0.000    0.000    0.000 
#    0.000    0.000    0.000    0.000    0.000    0.000 
#
# Total GULP energy -396458.439612 kJ/mol
# GULP energy per Si atom -12389.326238 kJ/mol
# Density = 2.336703 g / cm^3
# Si number density = 23.420333 Si / 1000 Ang^3
#
#
#
# Elastic Constant Matrix: (Units=GPa)
#
#
# Indices 1 2 3 4 5 6 
#
# 1 82.6949 16.6936 26.2897 0.0000 0.0000 0.0000
# 2 16.6936 57.9282 15.9524 0.0000 0.0000 0.0000
# 3 26.2897 15.9524 110.3515 0.0000 0.0000 0.0000
# 4 0.0000 0.0000 0.0000 27.3817 0.0000 0.0000
# 5 0.0000 0.0000 0.0000 0.0000 38.4298 0.0000
# 6 0.0000 0.0000 0.0000 0.0000 0.0000 31.4687
#
#
#
# Elastic Compliance Matrix: (Units=1/GPa)
#
#
# Indices 1 2 3 4 5 6 
#
# 1 0.013616 -0.003156 -0.002788 0.000000 0.000000 0.000000
# 2 -0.003156 0.018710 -0.001953 0.000000 0.000000 0.000000
# 3 -0.002788 -0.001953 0.010008 0.000000 0.000000 0.000000
# 4 0.000000 0.000000 0.000000 0.036521 0.000000 0.000000
# 5 0.000000 0.000000 0.000000 0.000000 0.026021 0.000000
# 6 0.000000 0.000000 0.000000 0.000000 0.000000 0.031778
#
#
# Mechanical properties :
#
#
# Convention : Reuss Voigt Hill
#
# Bulk Modulus (GPa) = 37.67713 40.98289 39.33001
# Shear Modulus (GPa) = 30.99921 32.25863 31.62892
#
# Velocity S-wave (km/s) = 3.64208 3.71533 3.67889
# Velocity P-wave (km/s) = 5.81452 5.99514 5.90552
#
# Compressibility (1/GPa) = 0.02654130
#
# Stress axis : x y z
#
# Youngs Moduli (GPa) = 73.44317 53.44714 99.91664
#
# Poissons Ratio (x) = 0.16869 0.27852
# Poissons Ratio (y) = 0.23180 0.19512
# Poissons Ratio (z) = 0.20473 0.10437
#
# Static dielectric constant tensor:
#      x y z
#    x 4.462690 0.000000 0.000000 
#    y 0.000000 4.467380 0.000000 
#    z 0.000000 0.000000 4.189500 
# 
# 
# High freq. dielectric constant tensor:
#      x y z
#    x 1.928110 0.000000 0.000000 
#    y 0.000000 1.928280 0.000000 
#    z 0.000000 0.000000 1.919990 
# 
# From -- ./inp_files/7062.got.cif
#   From: 2010.03.12/outbox.cif.g09.slc.cpg/sg19_4_cif.got.tgz:7062.got - 2010.04.10 18:59:41.
