data_PCOD8156090
_publ_section_title
;
Structure prediction by ZEFSAII (Michael W. Deem and Ramdas Pophale) SiO2 
 PCOD8156090
Probable space group: P 21 21 2
;
_chemical_formula_sum "Si O2"
_cell_formula_units_Z 24
_cell_length_a 9.731862
_cell_length_b 10.596358
_cell_length_c 10.667421
_cell_angle_alpha 90.000000
_cell_angle_beta 90.000000
_cell_angle_gamma 90.000000
_cell_volume 1100.048922
_symmetry_space_group_name_H-M "P 21 21 2"
_symmetry_group_IT_number 18
_symmetry_cell_setting 'orthorhombic'
loop_
_space_group_symop_operation_xyz
x,y,z
-x,-y,z
1/2+x,1/2-y,-z
1/2-x,1/2+y,-z
loop_
_atom_site_type_symbol
_atom_site_label
_atom_site_fract_x
_atom_site_fract_y
_atom_site_fract_z
Si Si1 0.943568 0.307463 0.151364
Si Si2 0.748828 0.675921 0.194722
Si Si3 0.373930 0.155128 0.571728
Si Si4 0.813166 0.623467 0.468553
Si Si5 0.646649 0.557025 0.959066
Si Si6 0.888551 0.409710 0.889293
O O1 0.883865 0.371658 0.278129
O O2 0.101333 0.264903 0.168276
O O3 0.853345 0.186551 0.117160
O O4 0.932821 0.401688 0.034723
O O5 0.742670 0.623858 0.333345
O O6 0.719187 0.567012 0.094333
O O7 0.623110 0.775981 0.179899
O O8 0.282811 0.282405 0.551447
O O9 0.531084 0.176711 0.524915
O O10 0.313085 0.029072 0.500909
O O11 0.500000 0.500000 0.982893
O O12 0.737441 0.466586 0.873594
O O13 0.000000 0.500000 0.820824
#
# Coordination Sequence:
#
# PCOD8156090 Si02
#       6
#     4   4   4   4   4   4
#     4  10  21  38  64  88 122 172 208 254 325 387
#     4  10  21  39  61  91 124 163 214 259 316 386
#     4  10  23  45  70  91 127 171 225 269 328 382
#     4  10  23  46  67  95 125 174 219 273 324 386
#     4  11  21  36  58  93 126 160 207 255 315 390
#     4  11  21  36  60  90 126 164 203 257 321 382
#
# _framework density 21.817211
#
# number of rings (size 3 to 8) (size 9 to 14) (size 15 to 20)
#    0.000    1.667    3.333    1.000    2.333    2.000 
#   12.000    0.000    0.000    0.000    0.000    0.000 
#    0.000    0.000    0.000    0.000    0.000    0.000 
#
# Total GULP energy -297358.515996 kJ/mol
# GULP energy per Si atom -12389.938167 kJ/mol
# Density = 2.176755 g / cm^3
# Si number density = 21.817211 Si / 1000 Ang^3
#
#
#
# Elastic Constant Matrix: (Units=GPa)
#
#
# Indices 1 2 3 4 5 6 
#
# 1 96.2608 35.6993 31.0402 0.0000 0.0000 0.0000
# 2 35.6993 97.4147 13.0520 0.0000 0.0000 0.0000
# 3 31.0402 13.0520 30.4875 0.0000 0.0000 0.0000
# 4 0.0000 0.0000 0.0000 10.4764 0.0000 0.0000
# 5 0.0000 0.0000 0.0000 0.0000 21.8976 0.0000
# 6 0.0000 0.0000 0.0000 0.0000 0.0000 50.4251
#
#
#
# Elastic Compliance Matrix: (Units=1/GPa)
#
#
# Indices 1 2 3 4 5 6 
#
# 1 0.016895 -0.004123 -0.015436 0.000000 0.000000 0.000000
# 2 -0.004123 0.011896 -0.000895 0.000000 0.000000 0.000000
# 3 -0.015436 -0.000895 0.048900 0.000000 0.000000 0.000000
# 4 0.000000 0.000000 0.000000 0.095453 0.000000 0.000000
# 5 0.000000 0.000000 0.000000 0.000000 0.045667 0.000000
# 6 0.000000 0.000000 0.000000 0.000000 0.000000 0.019831
#
#
# Mechanical properties :
#
#
# Convention : Reuss Voigt Hill
#
# Bulk Modulus (GPa) = 27.18704 42.63846 34.91275
# Shear Modulus (GPa) = 17.13428 26.18457 21.65942
#
# Velocity S-wave (km/s) = 2.80546 3.46812 3.15424
# Velocity P-wave (km/s) = 4.79400 5.96851 5.41320
#
# Compressibility (1/GPa) = 0.03678223
#
# Stress axis : x y z
#
# Youngs Moduli (GPa) = 59.18831 84.05937 20.45003
#
# Poissons Ratio (x) = 0.34660 0.31567
# Poissons Ratio (y) = 0.24405 0.01830
# Poissons Ratio (z) = 0.91365 0.07522
#
# Static dielectric constant tensor:
#      x y z
#    x 3.965300 0.000000 0.000000 
#    y 0.000000 4.788380 0.000000 
#    z 0.000000 0.000000 3.686570 
# 
# 
# High freq. dielectric constant tensor:
#      x y z
#    x 1.858290 0.000000 0.000000 
#    y 0.000000 1.864410 0.000000 
#    z 0.000000 0.000000 1.831690 
# 
# From -- ./inp_files/5481.got.cif
#   From: 2010.03.12/outbox.cif.g09.slc.cpg/sg18_3_cif.got.tgz:5481.got - 2010.04.10 18:53:55.
