data_PCOD8156769
_publ_section_title
;
Structure prediction by ZEFSAII (Michael W. Deem and Ramdas Pophale) SiO2 
 PCOD8156769
Probable space group: P 21 21 21
;
_chemical_formula_sum "Si O2"
_cell_formula_units_Z 24
_cell_length_a 18.020251
_cell_length_b 10.755663
_cell_length_c 4.771223
_cell_angle_alpha 90.000000
_cell_angle_beta 90.000000
_cell_angle_gamma 90.000000
_cell_volume 924.757234
_symmetry_space_group_name_H-M "P 21 21 21"
_symmetry_group_IT_number 19
_symmetry_cell_setting 'orthorhombic'
loop_
_space_group_symop_operation_xyz
x,y,z
1/2-x,-y,1/2+z
1/2+x,1/2-y,-z
-x,1/2+y,1/2-z
loop_
_atom_site_type_symbol
_atom_site_label
_atom_site_fract_x
_atom_site_fract_y
_atom_site_fract_z
Si Si1 0.442233 0.499997 0.083499
Si Si2 0.299372 0.144322 0.582511
Si Si3 0.913604 0.258773 0.821211
Si Si4 0.799372 0.644322 0.417491
Si Si5 0.546026 0.499999 0.588743
Si Si6 0.413605 0.758768 0.178789
O O1 0.393383 0.374670 0.034041
O O2 0.471586 0.499997 0.403607
O O3 0.393382 0.625322 0.034056
O O4 0.518652 0.499998 0.906971
O O5 0.367497 0.225506 0.465525
O O6 0.275076 0.176221 0.899295
O O7 0.322503 1.000000 0.548796
O O8 0.224924 0.176220 0.399293
O O9 1.000000 0.250003 0.750005
O O10 0.902746 0.376565 0.034693
O O11 0.867494 0.725510 0.534487
O O12 0.597253 0.376564 0.534688
#
# Coordination Sequence:
#
# PCOD8156769 Si02
#       6
#     4   4   4   4   4   4
#     4  10  22  34  56  88 120 152 195 248 309 350
#     4  10  22  40  62  89 121 163 208 255 306 366
#     4  10  21  40  62  92 124 163 207 257 306 368
#     4  10  22  40  62  89 121 163 208 255 306 366
#     4  10  20  36  56  86 120 154 197 250 295 352
#     4  10  21  40  62  92 124 163 207 257 306 368
#
# _framework density 25.952756999999998
#
# number of rings (size 3 to 8) (size 9 to 14) (size 15 to 20)
#    0.000    2.000    1.667    1.000    0.000   10.667 
#    0.000    1.667    0.000    0.000    0.000    0.000 
#    0.000    0.000    0.000    0.000    0.000    0.000 
#
# Total GULP energy -297578.341669 kJ/mol
# GULP energy per Si atom -12399.097570 kJ/mol
# Density = 2.589369 g / cm^3
# Si number density = 25.952757 Si / 1000 Ang^3
#
#
#
# Elastic Constant Matrix: (Units=GPa)
#
#
# Indices 1 2 3 4 5 6 
#
# 1 60.1898 -2.9818 -20.6200 0.0000 0.0000 0.0000
# 2 -2.9818 214.9034 3.8305 0.0000 0.0000 0.0000
# 3 -20.6200 3.8305 48.7478 0.0000 0.0000 0.0000
# 4 0.0000 0.0000 0.0000 30.6518 0.0000 0.0000
# 5 0.0000 0.0000 0.0000 0.0000 4.2572 0.0000
# 6 0.0000 0.0000 0.0000 0.0000 0.0000 40.4078
#
#
#
# Elastic Compliance Matrix: (Units=1/GPa)
#
#
# Indices 1 2 3 4 5 6 
#
# 1 0.019433 0.000123 0.008210 0.000000 0.000000 0.000000
# 2 0.000123 0.004661 -0.000314 0.000000 0.000000 0.000000
# 3 0.008210 -0.000314 0.024011 0.000000 0.000000 0.000000
# 4 0.000000 0.000000 0.000000 0.032625 0.000000 0.000000
# 5 0.000000 0.000000 0.000000 0.000000 0.234898 0.000000
# 6 0.000000 0.000000 0.000000 0.000000 0.000000 0.024748
#
#
# Mechanical properties :
#
#
# Convention : Reuss Voigt Hill
#
# Bulk Modulus (GPa) = 15.58996 31.58872 23.58934
# Shear Modulus (GPa) = 14.46267 37.97084 26.21676
#
# Velocity S-wave (km/s) = 2.36322 3.82917 3.18177
# Velocity P-wave (km/s) = 3.66967 5.63454 4.75471
#
# Compressibility (1/GPa) = 0.06414386
#
# Stress axis : x y z
#
# Youngs Moduli (GPa) = 51.45907 214.56638 41.64701
#
# Poissons Ratio (x) = -0.02645 -0.34193
# Poissons Ratio (y) = -0.00634 0.01308
# Poissons Ratio (z) = -0.42249 0.06739
#
# Static dielectric constant tensor:
#      x y z
#    x 4.335690 0.000000 0.000000 
#    y 0.000000 6.500110 0.000000 
#    z 0.000000 0.000000 4.820300 
# 
# 
# High freq. dielectric constant tensor:
#      x y z
#    x 2.034800 0.000000 0.000000 
#    y 0.000000 2.030350 0.000000 
#    z 0.000000 0.000000 2.045500 
# 
# From -- ./inp_files/1718.got.cif
#   From: 2010.03.12/outbox.cif.g09.slc.cpg/sg19_1_cif.got.tgz:1718.got - 2010.04.10 18:59:41.
