data_PCOD8156453
_publ_section_title
;
Structure prediction by ZEFSAII (Michael W. Deem and Ramdas Pophale) SiO2 
 PCOD8156453
Probable space group: P 21 21 2
;
_chemical_formula_sum "Si O2"
_cell_formula_units_Z 14
_cell_length_a 7.474727
_cell_length_b 5.144880
_cell_length_c 17.280148
_cell_angle_alpha 90.000000
_cell_angle_beta 90.000000
_cell_angle_gamma 90.000000
_cell_volume 664.535281
_symmetry_space_group_name_H-M "P 21 21 2"
_symmetry_group_IT_number 18
_symmetry_cell_setting 'orthorhombic'
loop_
_space_group_symop_operation_xyz
x,y,z
-x,-y,z
1/2+x,1/2-y,-z
1/2-x,1/2+y,-z
loop_
_atom_site_type_symbol
_atom_site_label
_atom_site_fract_x
_atom_site_fract_y
_atom_site_fract_z
Si Si1 0.500000 0.500000 0.727792
Si Si2 0.706095 0.492478 0.047880
Si Si3 0.000000 0.500000 0.171767
Si Si4 0.648848 0.800293 0.602131
Si Si5 0.000000 0.000000 0.537560
O O1 0.554751 0.253158 0.779128
O O2 0.660497 0.573647 0.667307
O O3 0.500000 0.500000 0.073987
O O4 0.827884 0.421521 0.121167
O O5 0.731800 0.272390 0.983126
O O6 0.584270 0.720760 0.516544
O O7 0.847926 0.904817 0.595620
O O8 0.500000 0.000000 0.634561
#
# Coordination Sequence:
#
# PCOD8156453 Si02
#       5
#     2   4   2   4   2
#     4  11  26  46  66  94 147 190 208 276 341 428
#     4  12  23  43  74 107 131 173 228 285 330 388
#     4  12  24  46  70  96 146 180 220 270 348 398
#     4  11  22  42  66 102 132 173 235 278 350 389
#     4  11  22  38  72  98 129 174 232 304 327 390
#
# _framework density 21.067353000000001
#
# number of rings (size 3 to 8) (size 9 to 14) (size 15 to 20)
#    0.000    0.571    7.143    1.714    0.000    0.000 
#    2.571    2.857    0.000    0.000    0.000    0.000 
#    0.000    0.000    0.000    0.000    0.000    0.000 
#
# Total GULP energy -173577.556903 kJ/mol
# GULP energy per Si atom -12398.396922 kJ/mol
# Density = 2.101940 g / cm^3
# Si number density = 21.067353 Si / 1000 Ang^3
#
#
#
# Elastic Constant Matrix: (Units=GPa)
#
#
# Indices 1 2 3 4 5 6 
#
# 1 181.5166 45.6355 57.8029 0.0000 0.0000 0.0000
# 2 45.6355 113.2009 43.6448 0.0000 0.0000 0.0000
# 3 57.8029 43.6448 111.7331 0.0000 0.0000 0.0000
# 4 0.0000 0.0000 0.0000 48.7304 0.0000 0.0000
# 5 0.0000 0.0000 0.0000 0.0000 13.6635 0.0000
# 6 0.0000 0.0000 0.0000 0.0000 0.0000 34.4700
#
#
#
# Elastic Compliance Matrix: (Units=1/GPa)
#
#
# Indices 1 2 3 4 5 6 
#
# 1 0.006845 -0.001641 -0.002900 0.000000 0.000000 0.000000
# 2 -0.001641 0.010794 -0.003367 0.000000 0.000000 0.000000
# 3 -0.002900 -0.003367 0.011765 0.000000 0.000000 0.000000
# 4 0.000000 0.000000 0.000000 0.020521 0.000000 0.000000
# 5 0.000000 0.000000 0.000000 0.000000 0.073188 0.000000
# 6 0.000000 0.000000 0.000000 0.000000 0.000000 0.029011
#
#
# Mechanical properties :
#
#
# Convention : Reuss Voigt Hill
#
# Bulk Modulus (GPa) = 73.59819 77.84633 75.72226
# Shear Modulus (GPa) = 28.99045 36.66393 32.82719
#
# Velocity S-wave (km/s) = 3.71359 4.17624 3.95169
# Velocity P-wave (km/s) = 7.30741 7.76441 7.53937
#
# Compressibility (1/GPa) = 0.01358729
#
# Stress axis : x y z
#
# Youngs Moduli (GPa) = 146.08453 92.64620 84.99473
#
# Poissons Ratio (x) = 0.15208 0.24650
# Poissons Ratio (y) = 0.23979 0.28618
# Poissons Ratio (z) = 0.42366 0.31194
#
# Static dielectric constant tensor:
#      x y z
#    x 3.558120 0.000000 0.000000 
#    y 0.000000 4.089770 0.000000 
#    z 0.000000 0.000000 3.806330 
# 
# 
# High freq. dielectric constant tensor:
#      x y z
#    x 1.814100 0.000000 0.000000 
#    y 0.000000 1.842660 0.000000 
#    z 0.000000 0.000000 1.822790 
# 
# From -- ./inp_files/6587.got.cif
#   From: 2010.03.12/outbox.cif.g09.slc.cpg/sg18_4_cif.got.tgz:6587.got - 2010.04.10 18:53:55.
