data_PCOD8156363
_publ_section_title
;
Structure prediction by ZEFSAII (Michael W. Deem and Ramdas Pophale) SiO2 
 PCOD8156363
Probable space group: P 21 21 2
;
_chemical_formula_sum "Si O2"
_cell_formula_units_Z 30
_cell_length_a 28.904181
_cell_length_b 5.500712
_cell_length_c 8.375125
_cell_angle_alpha 90.000000
_cell_angle_beta 90.000000
_cell_angle_gamma 90.000000
_cell_volume 1331.591067
_symmetry_space_group_name_H-M "P 21 21 2"
_symmetry_group_IT_number 18
_symmetry_cell_setting 'orthorhombic'
loop_
_space_group_symop_operation_xyz
x,y,z
-x,-y,z
1/2+x,1/2-y,-z
1/2-x,1/2+y,-z
loop_
_atom_site_type_symbol
_atom_site_label
_atom_site_fract_x
_atom_site_fract_y
_atom_site_fract_z
Si Si1 0.369180 0.378666 0.575053
Si Si2 0.455576 0.664181 0.502560
Si Si3 0.729478 0.562224 0.434387
Si Si4 0.417291 0.991385 0.751905
Si Si5 0.000000 0.500000 0.746114
Si Si6 0.131295 0.105037 0.076814
Si Si7 0.729520 0.462754 0.065686
Si Si8 0.543051 0.668821 0.995010
O O1 0.408805 0.512666 0.471833
O O2 0.323749 0.379333 0.468720
O O3 0.359573 0.491458 0.749150
O O4 0.386146 0.103979 0.609359
O O5 0.500000 0.500000 0.515939
O O6 0.450138 0.789477 0.674782
O O7 0.463361 0.851491 0.359126
O O8 0.743030 0.311212 0.524147
O O9 0.738293 0.512710 0.250007
O O10 0.383899 0.883450 0.890200
O O11 0.451613 0.182352 0.831730
O O12 0.966937 0.330686 0.850828
O O13 0.176262 0.094734 0.968592
O O14 0.090411 0.977821 0.976254
O O15 0.756874 0.213365 0.024335
O O16 0.500000 0.500000 0.962475
#
# Coordination Sequence:
#
# PCOD8156363 Si02
#       8
#     4   4   4   4   2   4   4   4
#     4  10  24  44  71 104 140 186 240 298 369 445
#     4  11  25  43  66 101 139 187 239 294 361 437
#     4  12  28  50  79 113 152 197 251 312 380 451
#     4  10  24  43  72 100 142 180 238 294 367 440
#     4  12  26  42  64  94 148 190 242 300 352 436
#     4  10  24  44  71 104 140 186 240 298 369 445
#     4  12  28  50  79 113 152 197 251 312 380 451
#     4  11  25  43  66 101 139 187 239 294 361 437
#
# _framework density 22.529439
#
# number of rings (size 3 to 8) (size 9 to 14) (size 15 to 20)
#    0.000    1.067    0.000    4.400    9.333   17.067 
#    0.000    0.000    0.000    0.000    0.000    0.000 
#    0.000    0.000    0.000    0.000    0.000    0.000 
#
# Total GULP energy -371946.956445 kJ/mol
# GULP energy per Si atom -12398.231882 kJ/mol
# Density = 2.247816 g / cm^3
# Si number density = 22.529439 Si / 1000 Ang^3
#
#
#
# Elastic Constant Matrix: (Units=GPa)
#
#
# Indices 1 2 3 4 5 6 
#
# 1 108.7168 19.3069 40.0862 0.0000 0.0000 0.0000
# 2 19.3069 103.8624 36.1705 0.0000 0.0000 0.0000
# 3 40.0862 36.1705 97.5161 0.0000 0.0000 0.0000
# 4 0.0000 0.0000 0.0000 97.9096 0.0000 0.0000
# 5 0.0000 0.0000 0.0000 0.0000 42.7569 0.0000
# 6 0.0000 0.0000 0.0000 0.0000 0.0000 3.4124
#
#
#
# Elastic Compliance Matrix: (Units=1/GPa)
#
#
# Indices 1 2 3 4 5 6 
#
# 1 0.010867 -0.000533 -0.004269 0.000000 0.000000 0.000000
# 2 -0.000533 0.011082 -0.003891 0.000000 0.000000 0.000000
# 3 -0.004269 -0.003891 0.013453 0.000000 0.000000 0.000000
# 4 0.000000 0.000000 0.000000 0.010214 0.000000 0.000000
# 5 0.000000 0.000000 0.000000 0.000000 0.023388 0.000000
# 6 0.000000 0.000000 0.000000 0.000000 0.000000 0.293048
#
#
# Mechanical properties :
#
#
# Convention : Reuss Voigt Hill
#
# Bulk Modulus (GPa) = 55.51077 55.69138 55.60108
# Shear Modulus (GPa) = 12.97202 43.11789 28.04496
#
# Velocity S-wave (km/s) = 2.40215 4.37950 3.53202
# Velocity P-wave (km/s) = 5.69091 7.09552 6.43167
#
# Compressibility (1/GPa) = 0.01801452
#
# Stress axis : x y z
#
# Youngs Moduli (GPa) = 92.02073 90.23256 74.33200
#
# Poissons Ratio (x) = 0.04812 0.31735
# Poissons Ratio (y) = 0.04907 0.28926
# Poissons Ratio (z) = 0.39287 0.35114
#
# Static dielectric constant tensor:
#      x y z
#    x 4.137850 0.000000 0.000000 
#    y 0.000000 5.336900 0.000000 
#    z 0.000000 0.000000 3.975440 
# 
# 
# High freq. dielectric constant tensor:
#      x y z
#    x 1.894120 0.000000 0.000000 
#    y 0.000000 1.909970 0.000000 
#    z 0.000000 0.000000 1.882820 
# 
# From -- ./inp_files/4851.got.cif
#   From: 2010.03.12/outbox.cif.g09.slc.cpg/sg18_3_cif.got.tgz:4851.got - 2010.04.10 18:53:55.
