data_PCOD8156493
_publ_section_title
;
Structure prediction by ZEFSAII (Michael W. Deem and Ramdas Pophale) SiO2 
 PCOD8156493
Probable space group: P 21 21 2
;
_chemical_formula_sum "Si O2"
_cell_formula_units_Z 24
_cell_length_a 17.132035
_cell_length_b 9.903522
_cell_length_c 6.287725
_cell_angle_alpha 90.000000
_cell_angle_beta 90.000000
_cell_angle_gamma 90.000000
_cell_volume 1066.822490
_symmetry_space_group_name_H-M "P 21 21 2"
_symmetry_group_IT_number 18
_symmetry_cell_setting 'orthorhombic'
loop_
_space_group_symop_operation_xyz
x,y,z
-x,-y,z
1/2+x,1/2-y,-z
1/2-x,1/2+y,-z
loop_
_atom_site_type_symbol
_atom_site_label
_atom_site_fract_x
_atom_site_fract_y
_atom_site_fract_z
Si Si1 0.047254 0.868087 0.649118
Si Si2 0.100680 0.706067 0.036532
Si Si3 0.473172 0.855288 0.634580
Si Si4 0.765948 0.455905 0.918947
Si Si5 0.796153 0.689421 0.226998
Si Si6 0.305958 0.347890 0.611252
O O1 0.114621 0.908840 0.484911
O O2 0.991911 0.753437 0.547287
O O3 0.083449 0.825260 0.873478
O O4 0.000000 0.000000 0.702417
O O5 0.141904 0.583576 0.908277
O O6 0.168326 0.744737 0.205173
O O7 0.020951 0.665410 0.148155
O O8 0.383357 0.846631 0.702190
O O9 0.500000 0.000000 0.540874
O O10 0.755267 0.559012 0.116717
O O11 0.709834 0.321501 0.928119
O O12 0.746362 0.531265 0.700352
O O13 0.744438 0.728669 0.432701
#
# Coordination Sequence:
#
# PCOD8156493 Si02
#       6
#     4   4   4   4   4   4
#     4  11  25  48  72 102 143 191 240 297 363 435
#     4  11  25  47  70 102 147 187 235 296 364 430
#     4  11  26  45  72 106 147 188 242 298 370 439
#     4  12  24  44  71 106 139 184 242 299 357 427
#     4  12  27  45  74 108 145 193 244 300 368 431
#     4  11  25  44  74 101 144 185 241 293 357 426
#
# _framework density 22.496714000000001
#
# number of rings (size 3 to 8) (size 9 to 14) (size 15 to 20)
#    0.000    0.667    5.000    1.000    4.667    7.333 
#    3.000    0.000    0.000    0.000    0.000    0.000 
#    0.000    0.000    0.000    0.000    0.000    0.000 
#
# Total GULP energy -297556.129372 kJ/mol
# GULP energy per Si atom -12398.172057 kJ/mol
# Density = 2.244551 g / cm^3
# Si number density = 22.496714 Si / 1000 Ang^3
#
#
#
# Elastic Constant Matrix: (Units=GPa)
#
#
# Indices 1 2 3 4 5 6 
#
# 1 118.0855 44.4544 52.1519 0.0000 0.0000 0.0000
# 2 44.4544 137.8244 58.8026 0.0000 0.0000 0.0000
# 3 52.1519 58.8026 106.4943 0.0000 0.0000 0.0000
# 4 0.0000 0.0000 0.0000 24.1943 0.0000 0.0000
# 5 0.0000 0.0000 0.0000 0.0000 26.1922 0.0000
# 6 0.0000 0.0000 0.0000 0.0000 0.0000 48.4364
#
#
#
# Elastic Compliance Matrix: (Units=1/GPa)
#
#
# Indices 1 2 3 4 5 6 
#
# 1 0.011084 -0.001647 -0.004518 0.000000 0.000000 0.000000
# 2 -0.001647 0.009736 -0.004569 0.000000 0.000000 0.000000
# 3 -0.004518 -0.004569 0.014126 0.000000 0.000000 0.000000
# 4 0.000000 0.000000 0.000000 0.041332 0.000000 0.000000
# 5 0.000000 0.000000 0.000000 0.000000 0.038179 0.000000
# 6 0.000000 0.000000 0.000000 0.000000 0.000000 0.020646
#
#
# Mechanical properties :
#
#
# Convention : Reuss Voigt Hill
#
# Bulk Modulus (GPa) = 74.20501 74.80246 74.50373
# Shear Modulus (GPa) = 31.04315 33.56429 32.30372
#
# Velocity S-wave (km/s) = 3.71873 3.86679 3.79348
# Velocity P-wave (km/s) = 7.17600 7.29785 7.23718
#
# Compressibility (1/GPa) = 0.01347618
#
# Stress axis : x y z
#
# Youngs Moduli (GPa) = 90.21890 102.70646 70.79126
#
# Poissons Ratio (x) = 0.16919 0.31987
# Poissons Ratio (y) = 0.14862 0.32348
# Poissons Ratio (z) = 0.40765 0.46931
#
# Static dielectric constant tensor:
#      x y z
#    x 4.168550 0.000000 0.000000 
#    y 0.000000 4.061500 0.000000 
#    z 0.000000 0.000000 4.115640 
# 
# 
# High freq. dielectric constant tensor:
#      x y z
#    x 1.893650 0.000000 0.000000 
#    y 0.000000 1.887230 0.000000 
#    z 0.000000 0.000000 1.889160 
# 
# From -- ./inp_files/1778.got.cif
#   From: 2010.03.12/outbox.cif.g09.slc.cpg/sg18_1_cif.got.tgz:1778.got - 2010.04.10 18:53:55.
