data_PCOD8156608
_publ_section_title
;
Structure prediction by ZEFSAII (Michael W. Deem and Ramdas Pophale) SiO2 
 PCOD8156608
Probable space group: P 21 21 21
;
_chemical_formula_sum "Si O2"
_cell_formula_units_Z 24
_cell_length_a 7.950711
_cell_length_b 8.800323
_cell_length_c 14.947121
_cell_angle_alpha 90.000000
_cell_angle_beta 90.000000
_cell_angle_gamma 90.000000
_cell_volume 1045.832492
_symmetry_space_group_name_H-M "P 21 21 21"
_symmetry_group_IT_number 19
_symmetry_cell_setting 'orthorhombic'
loop_
_space_group_symop_operation_xyz
x,y,z
1/2-x,-y,1/2+z
1/2+x,1/2-y,-z
-x,1/2+y,1/2-z
loop_
_atom_site_type_symbol
_atom_site_label
_atom_site_fract_x
_atom_site_fract_y
_atom_site_fract_z
Si Si1 0.235281 0.554839 0.248263
Si Si2 0.605697 0.092448 0.587405
Si Si3 0.421015 0.130414 0.180996
Si Si4 0.594006 0.704385 0.123771
Si Si5 0.405597 0.424402 0.085495
Si Si6 0.243336 0.836173 0.137709
O O1 0.095610 0.480341 0.312452
O O2 0.405456 0.537868 0.307730
O O3 0.253518 0.470015 0.152943
O O4 0.200466 0.732298 0.225067
O O5 0.745416 0.223951 0.575495
O O6 0.419335 0.165185 0.571172
O O7 0.646793 0.959650 0.516448
O O8 0.384849 0.232079 0.269492
O O9 0.438761 0.245138 0.096913
O O10 0.272200 0.010572 0.166011
O O11 0.575260 0.522381 0.108236
O O12 0.412820 0.771912 0.089195
#
# Coordination Sequence:
#
# PCOD8156608 Si02
#       6
#     4   4   4   4   4   4
#     4  10  21  44  64  94 134 180 219 276 357 400
#     4  12  24  39  70 101 134 177 233 288 336 407
#     4  10  18  44  66  89 128 180 215 278 338 406
#     4  10  21  44  64  90 134 178 216 279 347 402
#     4  10  23  38  70  98 128 179 229 274 345 408
#     4  10  23  39  66  94 130 176 230 273 341 415
#
# _framework density 22.948225000000001
#
# number of rings (size 3 to 8) (size 9 to 14) (size 15 to 20)
#    0.000    2.000    3.333    3.000    7.000    1.333 
#    0.000    0.000    0.000    0.000    0.000    0.000 
#    0.000    0.000    0.000    0.000    0.000    0.000 
#
# Total GULP energy -297496.020940 kJ/mol
# GULP energy per Si atom -12395.667539 kJ/mol
# Density = 2.289599 g / cm^3
# Si number density = 22.948225 Si / 1000 Ang^3
#
#
#
# Elastic Constant Matrix: (Units=GPa)
#
#
# Indices 1 2 3 4 5 6 
#
# 1 115.7645 32.9922 16.2362 0.0000 0.0000 0.0000
# 2 32.9922 100.9860 0.4739 0.0000 0.0000 0.0000
# 3 16.2362 0.4739 45.9512 0.0000 0.0000 0.0000
# 4 0.0000 0.0000 0.0000 19.8252 0.0000 0.0000
# 5 0.0000 0.0000 0.0000 0.0000 32.8298 0.0000
# 6 0.0000 0.0000 0.0000 0.0000 0.0000 26.3172
#
#
#
# Elastic Compliance Matrix: (Units=1/GPa)
#
#
# Indices 1 2 3 4 5 6 
#
# 1 0.010065 -0.003272 -0.003522 0.000000 0.000000 0.000000
# 2 -0.003272 0.010966 0.001043 0.000000 0.000000 0.000000
# 3 -0.003522 0.001043 0.022996 0.000000 0.000000 0.000000
# 4 0.000000 0.000000 0.000000 0.050441 0.000000 0.000000
# 5 0.000000 0.000000 0.000000 0.000000 0.030460 0.000000
# 6 0.000000 0.000000 0.000000 0.000000 0.000000 0.037998
#
#
# Mechanical properties :
#
#
# Convention : Reuss Voigt Hill
#
# Bulk Modulus (GPa) = 30.74589 40.23402 35.48996
# Shear Modulus (GPa) = 26.98767 29.99440 28.49104
#
# Velocity S-wave (km/s) = 3.43304 3.61923 3.52737
# Velocity P-wave (km/s) = 5.39828 5.91910 5.66468
#
# Compressibility (1/GPa) = 0.03252467
#
# Stress axis : x y z
#
# Youngs Moduli (GPa) = 99.35766 91.18842 43.48565
#
# Poissons Ratio (x) = 0.29833 0.15318
# Poissons Ratio (y) = 0.32506 -0.04535
# Poissons Ratio (z) = 0.34998 -0.09510
#
# Static dielectric constant tensor:
#      x y z
#    x 3.888220 0.000000 0.000000 
#    y 0.000000 4.072340 0.000000 
#    z 0.000000 0.000000 3.977830 
# 
# 
# High freq. dielectric constant tensor:
#      x y z
#    x 1.877440 0.000000 0.000000 
#    y 0.000000 1.907640 0.000000 
#    z 0.000000 0.000000 1.897910 
# 
# From -- ./inp_files/6554.got.cif
#   From: 2010.03.12/outbox.cif.g09.slc.cpg/sg19_4_cif.got.tgz:6554.got - 2010.04.10 18:59:41.
