data_PCOD8156840
_publ_section_title
;
Structure prediction by ZEFSAII (Michael W. Deem and Ramdas Pophale) SiO2 
 PCOD8156840
Probable space group: P 21 21 21
;
_chemical_formula_sum "Si O2"
_cell_formula_units_Z 24
_cell_length_a 9.507957
_cell_length_b 16.671355
_cell_length_c 7.575743
_cell_angle_alpha 90.000000
_cell_angle_beta 90.000000
_cell_angle_gamma 90.000000
_cell_volume 1200.835011
_symmetry_space_group_name_H-M "P 21 21 21"
_symmetry_group_IT_number 19
_symmetry_cell_setting 'orthorhombic'
loop_
_space_group_symop_operation_xyz
x,y,z
1/2-x,-y,1/2+z
1/2+x,1/2-y,-z
-x,1/2+y,1/2-z
loop_
_atom_site_type_symbol
_atom_site_label
_atom_site_fract_x
_atom_site_fract_y
_atom_site_fract_z
Si Si1 0.447906 0.344240 0.119725
Si Si2 0.410986 0.504850 0.979025
Si Si3 0.720981 0.396031 0.288417
Si Si4 0.915867 0.333760 0.991230
Si Si5 0.663562 0.571168 0.164282
Si Si6 0.669411 0.077581 0.868525
O O1 0.565656 0.357032 0.270529
O O2 0.457281 0.258605 0.029245
O O3 0.290082 0.359514 0.197640
O O4 0.475023 0.413935 0.971369
O O5 0.425359 0.546514 0.791391
O O6 0.499581 0.557093 0.117912
O O7 0.246947 0.498624 0.038834
O O8 0.734358 0.488066 0.225017
O O9 0.757190 0.391718 0.495342
O O10 0.827401 0.343324 0.170541
O O11 0.827034 0.365064 0.823488
O O12 0.062736 0.381592 0.995933
#
# Coordination Sequence:
#
# PCOD8156840 Si02
#       6
#     4   4   4   4   4   4
#     4   9  24  40  60  95 132 162 207 270 322 370
#     4   9  20  39  60  93 117 164 213 253 304 378
#     4  11  22  41  64  94 125 168 218 256 322 381
#     4  12  22  41  65  93 132 166 205 273 328 367
#     4  11  22  39  66  93 123 168 218 259 310 388
#     4  10  20  38  67  88 123 168 213 257 310 386
#
# _framework density 19.986091999999999
#
# number of rings (size 3 to 8) (size 9 to 14) (size 15 to 20)
#    1.000    0.667    3.333    2.000    0.000    0.000 
#    3.000    0.000    0.000    0.000    0.000    0.000 
#    0.000    0.000    0.000    0.000    0.000    0.000 
#
# Total GULP energy -297453.742866 kJ/mol
# GULP energy per Si atom -12393.905953 kJ/mol
# Density = 1.994060 g / cm^3
# Si number density = 19.986092 Si / 1000 Ang^3
#
#
#
# Elastic Constant Matrix: (Units=GPa)
#
#
# Indices 1 2 3 4 5 6 
#
# 1 84.1646 6.4031 23.7890 0.0000 0.0000 0.0000
# 2 6.4031 49.6600 11.6909 0.0000 0.0000 0.0000
# 3 23.7890 11.6909 76.8746 0.0000 0.0000 0.0000
# 4 0.0000 0.0000 0.0000 21.8978 0.0000 0.0000
# 5 0.0000 0.0000 0.0000 0.0000 27.5894 0.0000
# 6 0.0000 0.0000 0.0000 0.0000 0.0000 20.4723
#
#
#
# Elastic Compliance Matrix: (Units=1/GPa)
#
#
# Indices 1 2 3 4 5 6 
#
# 1 0.013048 -0.000759 -0.003922 0.000000 0.000000 0.000000
# 2 -0.000759 0.020929 -0.002948 0.000000 0.000000 0.000000
# 3 -0.003922 -0.002948 0.014670 0.000000 0.000000 0.000000
# 4 0.000000 0.000000 0.000000 0.045667 0.000000 0.000000
# 5 0.000000 0.000000 0.000000 0.000000 0.036246 0.000000
# 6 0.000000 0.000000 0.000000 0.000000 0.000000 0.048846
#
#
# Mechanical properties :
#
#
# Convention : Reuss Voigt Hill
#
# Bulk Modulus (GPa) = 29.95041 32.71838 31.33439
# Shear Modulus (GPa) = 24.29617 25.24632 24.77124
#
# Velocity S-wave (km/s) = 3.49041 3.55800 3.52436
# Velocity P-wave (km/s) = 5.59125 5.76934 5.68099
#
# Compressibility (1/GPa) = 0.03338852
#
# Stress axis : x y z
#
# Youngs Moduli (GPa) = 76.64103 47.78102 68.16507
#
# Poissons Ratio (x) = 0.03627 0.26736
# Poissons Ratio (y) = 0.05817 0.20095
# Poissons Ratio (z) = 0.30061 0.14086
#
# Static dielectric constant tensor:
#      x y z
#    x 3.694770 0.000000 0.000000 
#    y 0.000000 3.417160 0.000000 
#    z 0.000000 0.000000 3.366070 
# 
# 
# High freq. dielectric constant tensor:
#      x y z
#    x 1.792810 0.000000 0.000000 
#    y 0.000000 1.759940 0.000000 
#    z 0.000000 0.000000 1.758980 
# 
# From -- ./inp_files/1003.got.cif
#   From: 2010.03.12/outbox.cif.g09.slc.cpg/sg19_1_cif.got.tgz:1003.got - 2010.04.10 18:59:41.
