data_PCOD8156768
_publ_section_title
;
Structure prediction by ZEFSAII (Michael W. Deem and Ramdas Pophale) SiO2 
 PCOD8156768
Probable space group: P 21 21 21
;
_chemical_formula_sum "Si O2"
_cell_formula_units_Z 24
_cell_length_a 9.342294
_cell_length_b 25.031770
_cell_length_c 5.084638
_cell_angle_alpha 90.000000
_cell_angle_beta 90.000000
_cell_angle_gamma 90.000000
_cell_volume 1189.063721
_symmetry_space_group_name_H-M "P 21 21 21"
_symmetry_group_IT_number 19
_symmetry_cell_setting 'orthorhombic'
loop_
_space_group_symop_operation_xyz
x,y,z
1/2-x,-y,1/2+z
1/2+x,1/2-y,-z
-x,1/2+y,1/2-z
loop_
_atom_site_type_symbol
_atom_site_label
_atom_site_fract_x
_atom_site_fract_y
_atom_site_fract_z
Si Si1 0.576034 0.016998 0.306523
Si Si2 0.204711 0.233354 0.250447
Si Si3 0.280847 0.032965 0.494491
Si Si4 0.882123 0.050658 0.302652
Si Si5 0.536336 0.264181 0.257258
Si Si6 0.594027 0.367232 0.520761
O O1 0.558895 0.992397 0.015309
O O2 0.435462 0.050491 0.382466
O O3 0.710847 0.056283 0.337458
O O4 0.587272 0.967378 0.506367
O O5 0.372673 0.245538 0.244400
O O6 0.121699 0.261482 0.494726
O O7 0.182862 0.169005 0.271025
O O8 0.124751 0.255517 0.994153
O O9 0.194597 0.085268 0.584292
O O10 0.300623 0.996001 0.751832
O O11 0.952852 0.108356 0.342310
O O12 0.541586 0.329121 0.281636
#
# Coordination Sequence:
#
# PCOD8156768 Si02
#       6
#     4   4   4   4   4   4
#     4  10  20  36  53  85 121 165 197 244 288 357
#     4  10  23  43  68  91 127 167 216 274 338 388
#     4  12  22  36  61  90 129 166 204 253 298 375
#     4  10  20  36  59  79 122 159 203 241 300 357
#     4  10  23  43  68  93 126 167 215 279 334 388
#     4  10  24  38  67  90 127 166 213 255 330 377
#
# _framework density 20.183948000000001
#
# number of rings (size 3 to 8) (size 9 to 14) (size 15 to 20)
#    1.000    0.667    3.333    1.000    4.667    0.000 
#    3.000    0.000    0.000    0.000    0.000    0.000 
#    0.000    0.000    0.000    0.000    0.000    0.000 
#
# Total GULP energy -297415.620304 kJ/mol
# GULP energy per Si atom -12392.317513 kJ/mol
# Density = 2.013801 g / cm^3
# Si number density = 20.183948 Si / 1000 Ang^3
#
#
#
# Elastic Constant Matrix: (Units=GPa)
#
#
# Indices 1 2 3 4 5 6 
#
# 1 160.5037 36.3881 39.1885 0.0000 0.0000 0.0000
# 2 36.3881 64.6587 12.5848 0.0000 0.0000 0.0000
# 3 39.1885 12.5848 118.7183 0.0000 0.0000 0.0000
# 4 0.0000 0.0000 0.0000 8.9697 0.0000 0.0000
# 5 0.0000 0.0000 0.0000 0.0000 37.2322 0.0000
# 6 0.0000 0.0000 0.0000 0.0000 0.0000 43.9695
#
#
#
# Elastic Compliance Matrix: (Units=1/GPa)
#
#
# Indices 1 2 3 4 5 6 
#
# 1 0.007624 -0.003881 -0.002105 0.000000 0.000000 0.000000
# 2 -0.003881 0.017767 -0.000602 0.000000 0.000000 0.000000
# 3 -0.002105 -0.000602 0.009182 0.000000 0.000000 0.000000
# 4 0.000000 0.000000 0.000000 0.111487 0.000000 0.000000
# 5 0.000000 0.000000 0.000000 0.000000 0.026858 0.000000
# 6 0.000000 0.000000 0.000000 0.000000 0.000000 0.022743
#
#
# Mechanical properties :
#
#
# Convention : Reuss Voigt Hill
#
# Bulk Modulus (GPa) = 46.73708 57.80040 52.26874
# Shear Modulus (GPa) = 23.15126 35.08224 29.11675
#
# Velocity S-wave (km/s) = 3.39043 4.17361 3.80224
# Velocity P-wave (km/s) = 6.20746 7.20585 6.72521
#
# Compressibility (1/GPa) = 0.02139629
#
# Stress axis : x y z
#
# Youngs Moduli (GPa) = 131.15984 56.28363 108.90734
#
# Poissons Ratio (x) = 0.21843 0.22929
# Poissons Ratio (y) = 0.50903 0.06560
# Poissons Ratio (z) = 0.27614 0.03390
#
# Static dielectric constant tensor:
#      x y z
#    x 3.893060 0.000000 0.000000 
#    y 0.000000 3.185980 0.000000 
#    z 0.000000 0.000000 3.702300 
# 
# 
# High freq. dielectric constant tensor:
#      x y z
#    x 1.809430 0.000000 0.000000 
#    y 0.000000 1.736610 0.000000 
#    z 0.000000 0.000000 1.797720 
# 
# From -- ./inp_files/591.got.cif
#   From: 2010.03.12/outbox.cif.g09.slc.cpg/sg19_1_cif.got.tgz:591.got - 2010.04.10 18:59:41.
