data_PCOD8156174
_publ_section_title
;
Structure prediction by ZEFSAII (Michael W. Deem and Ramdas Pophale) SiO2 
 PCOD8156174
Probable space group: P 21 21 2
;
_chemical_formula_sum "Si O2"
_cell_formula_units_Z 18
_cell_length_a 12.411794
_cell_length_b 5.315567
_cell_length_c 12.241181
_cell_angle_alpha 90.000000
_cell_angle_beta 90.000000
_cell_angle_gamma 90.000000
_cell_volume 807.620762
_symmetry_space_group_name_H-M "P 21 21 2"
_symmetry_group_IT_number 18
_symmetry_cell_setting 'orthorhombic'
loop_
_space_group_symop_operation_xyz
x,y,z
-x,-y,z
1/2+x,1/2-y,-z
1/2-x,1/2+y,-z
loop_
_atom_site_type_symbol
_atom_site_label
_atom_site_fract_x
_atom_site_fract_y
_atom_site_fract_z
Si Si1 0.610295 0.890400 0.946859
Si Si2 0.812137 0.682111 0.851804
Si Si3 0.500000 0.500000 0.099434
Si Si4 0.310367 0.066538 0.368519
Si Si5 0.883508 0.936843 0.524605
O O1 0.696295 0.824277 0.851968
O O2 0.500000 0.000000 0.892924
O O3 0.578725 0.657873 0.022261
O O4 0.668192 0.091754 0.024857
O O5 0.804196 0.462206 0.762286
O O6 0.918709 0.845650 0.821877
O O7 0.192113 0.046779 0.419509
O O8 0.380657 0.837698 0.419066
O O9 0.356095 0.344389 0.388191
O O10 0.000000 0.000000 0.477084
#
# Coordination Sequence:
#
# PCOD8156174 Si02
#       5
#     4   4   2   4   4
#     4  10  22  39  60  88 130 169 213 266 323 384
#     4  11  22  40  63  95 127 170 219 269 323 399
#     4  10  22  38  60  88 122 170 210 264 316 378
#     4  10  24  40  67  97 125 166 220 264 329 387
#     4  10  22  44  64  93 129 166 210 276 325 391
#
# _framework density 22.287687999999999
#
# number of rings (size 3 to 8) (size 9 to 14) (size 15 to 20)
#    0.000    1.778    2.222    0.667    4.667    3.556 
#    2.000    4.444    0.000    0.000    0.000    0.000 
#    0.000    0.000    0.000    0.000    0.000    0.000 
#
# Total GULP energy -223128.999705 kJ/mol
# GULP energy per Si atom -12396.055539 kJ/mol
# Density = 2.223696 g / cm^3
# Si number density = 22.287688 Si / 1000 Ang^3
#
#
#
# Elastic Constant Matrix: (Units=GPa)
#
#
# Indices 1 2 3 4 5 6 
#
# 1 122.7785 10.6513 15.2531 0.0000 0.0000 0.0000
# 2 10.6513 79.6613 -3.9288 0.0000 0.0000 0.0000
# 3 15.2531 -3.9288 44.6015 0.0000 0.0000 0.0000
# 4 0.0000 0.0000 0.0000 30.3649 0.0000 0.0000
# 5 0.0000 0.0000 0.0000 0.0000 10.5601 0.0000
# 6 0.0000 0.0000 0.0000 0.0000 0.0000 29.1141
#
#
#
# Elastic Compliance Matrix: (Units=1/GPa)
#
#
# Indices 1 2 3 4 5 6 
#
# 1 0.008639 -0.001307 -0.003070 0.000000 0.000000 0.000000
# 2 -0.001307 0.012806 0.001575 0.000000 0.000000 0.000000
# 3 -0.003070 0.001575 0.023609 0.000000 0.000000 0.000000
# 4 0.000000 0.000000 0.000000 0.032933 0.000000 0.000000
# 5 0.000000 0.000000 0.000000 0.000000 0.094696 0.000000
# 6 0.000000 0.000000 0.000000 0.000000 0.000000 0.034348
#
#
# Mechanical properties :
#
#
# Convention : Reuss Voigt Hill
#
# Bulk Modulus (GPa) = 25.34759 32.33248 28.84003
# Shear Modulus (GPa) = 22.14509 29.01221 25.57865
#
# Velocity S-wave (km/s) = 3.15556 3.61184 3.39139
# Velocity P-wave (km/s) = 4.96733 5.65086 5.32009
#
# Compressibility (1/GPa) = 0.03945148
#
# Stress axis : x y z
#
# Youngs Moduli (GPa) = 115.74813 78.09137 42.35622
#
# Poissons Ratio (x) = 0.10203 0.13002
# Poissons Ratio (y) = 0.15123 -0.06670
# Poissons Ratio (z) = 0.35531 -0.12298
#
# Static dielectric constant tensor:
#      x y z
#    x 4.432540 0.000000 0.000000 
#    y 0.000000 4.247150 0.000000 
#    z 0.000000 0.000000 3.420450 
# 
# 
# High freq. dielectric constant tensor:
#      x y z
#    x 1.896840 0.000000 0.000000 
#    y 0.000000 1.888410 0.000000 
#    z 0.000000 0.000000 1.835420 
# 
# From -- ./inp_files/4980.got.cif
#   From: 2010.03.12/outbox.cif.g09.slc.cpg/sg18_3_cif.got.tgz:4980.got - 2010.04.10 18:53:55.
