data_PCOD8156040
_publ_section_title
;
Structure prediction by ZEFSAII (Michael W. Deem and Ramdas Pophale) SiO2 
 PCOD8156040
Probable space group: P 21 21 2
;
_chemical_formula_sum "Si O2"
_cell_formula_units_Z 22
_cell_length_a 8.768025
_cell_length_b 13.802655
_cell_length_c 8.424768
_cell_angle_alpha 90.000000
_cell_angle_beta 90.000000
_cell_angle_gamma 90.000000
_cell_volume 1019.582476
_symmetry_space_group_name_H-M "P 21 21 2"
_symmetry_group_IT_number 18
_symmetry_cell_setting 'orthorhombic'
loop_
_space_group_symop_operation_xyz
x,y,z
-x,-y,z
1/2+x,1/2-y,-z
1/2-x,1/2+y,-z
loop_
_atom_site_type_symbol
_atom_site_label
_atom_site_fract_x
_atom_site_fract_y
_atom_site_fract_z
Si Si1 0.500000 0.000000 0.350819
Si Si2 0.140149 0.050285 0.913191
Si Si3 0.599599 0.089840 0.835378
Si Si4 0.180455 0.339423 0.479705
Si Si5 0.490101 0.311764 0.328486
Si Si6 0.888546 0.350315 0.891116
O O1 0.624508 0.057957 0.452411
O O2 0.396799 0.069906 0.245147
O O3 0.076516 0.097724 0.750000
O O4 0.236156 0.955207 0.869696
O O5 0.230037 0.131336 0.014933
O O6 0.000000 0.000000 0.008927
O O7 0.608384 0.169957 0.696815
O O8 0.500000 0.000000 0.775842
O O9 0.531853 0.139836 0.991358
O O10 0.365181 0.340002 0.462971
O O11 0.122501 0.252415 0.590086
O O12 0.397852 0.254792 0.188829
#
# Coordination Sequence:
#
# PCOD8156040 Si02
#       6
#     2   4   4   4   4   4
#     4  10  20  44  70  92 130 184 220 264 332 412
#     4  11  22  41  69  96 127 168 225 274 320 396
#     4  10  20  41  71  89 127 178 216 264 335 394
#     4  11  24  42  65  98 136 178 218 271 343 396
#     4  11  27  42  65 102 136 172 225 275 337 396
#     4  10  23  44  67  97 130 174 226 272 334 387
#
# _framework density 21.577459000000001
#
# number of rings (size 3 to 8) (size 9 to 14) (size 15 to 20)
#    0.000    1.455    5.455    0.000    7.636    0.000 
#    3.273    0.000    0.000    0.000    0.000    0.000 
#    0.000    0.000    0.000    0.000    0.000    0.000 
#
# Total GULP energy -272691.470175 kJ/mol
# GULP energy per Si atom -12395.066826 kJ/mol
# Density = 2.152835 g / cm^3
# Si number density = 21.577459 Si / 1000 Ang^3
#
#
#
# Elastic Constant Matrix: (Units=GPa)
#
#
# Indices 1 2 3 4 5 6 
#
# 1 137.5066 28.2548 45.6746 0.0000 0.0000 0.0000
# 2 28.2548 65.4288 28.4037 0.0000 0.0000 0.0000
# 3 45.6746 28.4037 94.7881 0.0000 0.0000 0.0000
# 4 0.0000 0.0000 0.0000 26.5994 0.0000 0.0000
# 5 0.0000 0.0000 0.0000 0.0000 21.7971 0.0000
# 6 0.0000 0.0000 0.0000 0.0000 0.0000 23.0335
#
#
#
# Elastic Compliance Matrix: (Units=1/GPa)
#
#
# Indices 1 2 3 4 5 6 
#
# 1 0.008947 -0.002290 -0.003625 0.000000 0.000000 0.000000
# 2 -0.002290 0.018155 -0.004337 0.000000 0.000000 0.000000
# 3 -0.003625 -0.004337 0.013596 0.000000 0.000000 0.000000
# 4 0.000000 0.000000 0.000000 0.037595 0.000000 0.000000
# 5 0.000000 0.000000 0.000000 0.000000 0.045878 0.000000
# 6 0.000000 0.000000 0.000000 0.000000 0.000000 0.043415
#
#
# Mechanical properties :
#
#
# Convention : Reuss Voigt Hill
#
# Bulk Modulus (GPa) = 49.51771 55.82109 52.66940
# Shear Modulus (GPa) = 25.66450 27.31202 26.48826
#
# Velocity S-wave (km/s) = 3.45253 3.56162 3.50750
# Velocity P-wave (km/s) = 6.23634 6.54521 6.39264
#
# Compressibility (1/GPa) = 0.02019480
#
# Stress axis : x y z
#
# Youngs Moduli (GPa) = 111.76910 55.07991 73.55023
#
# Poissons Ratio (x) = 0.12613 0.26662
# Poissons Ratio (y) = 0.25595 0.31898
# Poissons Ratio (z) = 0.40516 0.23888
#
# Static dielectric constant tensor:
#      x y z
#    x 4.391910 0.000000 0.000000 
#    y 0.000000 3.809670 0.000000 
#    z 0.000000 0.000000 3.927500 
# 
# 
# High freq. dielectric constant tensor:
#      x y z
#    x 1.853110 0.000000 0.000000 
#    y 0.000000 1.844970 0.000000 
#    z 0.000000 0.000000 1.839840 
# 
# From -- ./inp_files/3153.got.cif
#   From: 2010.03.12/outbox.cif.g09.slc.cpg/sg18_2_cif.got.tgz:3153.got - 2010.04.10 18:53:55.
