data_PCOD8156918
_publ_section_title
;
Structure prediction by ZEFSAII (Michael W. Deem and Ramdas Pophale) SiO2 
 PCOD8156918
Probable space group: P 21 21 21
;
_chemical_formula_sum "Si O2"
_cell_formula_units_Z 32
_cell_length_a 5.119889
_cell_length_b 15.154513
_cell_length_c 17.237166
_cell_angle_alpha 90.000000
_cell_angle_beta 90.000000
_cell_angle_gamma 90.000000
_cell_volume 1337.421788
_symmetry_space_group_name_H-M "P 21 21 21"
_symmetry_group_IT_number 19
_symmetry_cell_setting 'orthorhombic'
loop_
_space_group_symop_operation_xyz
x,y,z
1/2-x,-y,1/2+z
1/2+x,1/2-y,-z
-x,1/2+y,1/2-z
loop_
_atom_site_type_symbol
_atom_site_label
_atom_site_fract_x
_atom_site_fract_y
_atom_site_fract_z
Si Si1 0.998492 0.373533 0.146054
Si Si2 0.147759 0.470793 0.613742
Si Si3 0.449046 0.124952 0.672199
Si Si4 0.457450 0.474941 0.381138
Si Si5 0.523879 0.279801 0.956061
Si Si6 0.927133 0.387197 0.753917
Si Si7 0.916807 0.179906 0.310180
Si Si8 0.284749 0.955387 0.492448
O O1 0.249609 0.430699 0.125141
O O2 0.050497 0.269730 0.127428
O O3 0.938008 0.387571 0.235812
O O4 0.769223 0.405913 0.088697
O O5 0.372632 0.394355 0.621777
O O6 0.939850 0.456757 0.683102
O O7 0.996773 0.468467 0.530336
O O8 0.494744 0.227405 0.650388
O O9 0.167073 0.098918 0.641089
O O10 0.667906 0.063337 0.631770
O O11 0.506011 0.564239 0.333501
O O12 0.521750 0.501585 0.470810
O O13 0.589085 0.384053 0.947648
O O14 0.229971 0.269216 0.987454
O O15 0.638237 0.347498 0.751582
O O16 0.147981 0.311247 0.739729
#
# Coordination Sequence:
#
# PCOD8156918 Si02
#       8
#     4   4   4   4   4   4   4   4
#     4  11  23  44  71 100 145 196 233 295 366 450
#     4  10  20  42  73  97 135 198 236 283 356 454
#     4  12  26  46  71 107 144 187 254 305 364 417
#     4  12  26  44  70 105 148 187 240 317 360 435
#     4  10  22  40  61 102 141 179 221 282 351 430
#     4  10  21  44  69 103 132 190 240 283 363 432
#     4  10  23  42  74 100 136 183 249 298 345 428
#     4  11  25  42  71 104 151 188 245 289 381 438
#
# _framework density 23.926634
#
# number of rings (size 3 to 8) (size 9 to 14) (size 15 to 20)
#    0.750    0.500    2.500    3.750    3.500    0.000 
#    9.000    0.000    5.500    0.000    0.000    0.000 
#    0.000    0.000    0.000    0.000    0.000    0.000 
#
# Total GULP energy -396531.609422 kJ/mol
# GULP energy per Si atom -12391.612794 kJ/mol
# Density = 2.387218 g / cm^3
# Si number density = 23.926634 Si / 1000 Ang^3
#
#
#
# Elastic Constant Matrix: (Units=GPa)
#
#
# Indices 1 2 3 4 5 6 
#
# 1 89.7772 15.3606 8.3887 0.0000 0.0000 0.0000
# 2 15.3606 73.4681 29.3092 0.0000 0.0000 0.0000
# 3 8.3887 29.3092 58.4089 0.0000 0.0000 0.0000
# 4 0.0000 0.0000 0.0000 24.2257 0.0000 0.0000
# 5 0.0000 0.0000 0.0000 0.0000 20.2837 0.0000
# 6 0.0000 0.0000 0.0000 0.0000 0.0000 36.3435
#
#
#
# Elastic Compliance Matrix: (Units=1/GPa)
#
#
# Indices 1 2 3 4 5 6 
#
# 1 0.011567 -0.002195 -0.000560 0.000000 0.000000 0.000000
# 2 -0.002195 0.017435 -0.008433 0.000000 0.000000 0.000000
# 3 -0.000560 -0.008433 0.021433 0.000000 0.000000 0.000000
# 4 0.000000 0.000000 0.000000 0.041278 0.000000 0.000000
# 5 0.000000 0.000000 0.000000 0.000000 0.049301 0.000000
# 6 0.000000 0.000000 0.000000 0.000000 0.000000 0.027515
#
#
# Mechanical properties :
#
#
# Convention : Reuss Voigt Hill
#
# Bulk Modulus (GPa) = 35.64063 36.41901 36.02982
# Shear Modulus (GPa) = 24.96788 27.41028 26.18908
#
# Velocity S-wave (km/s) = 3.23386 3.38834 3.31200
# Velocity P-wave (km/s) = 5.37326 5.52829 5.45132
#
# Compressibility (1/GPa) = 0.02805787
#
# Stress axis : x y z
#
# Youngs Moduli (GPa) = 86.45616 57.35699 46.65730
#
# Poissons Ratio (x) = 0.12590 0.02612
# Poissons Ratio (y) = 0.18977 0.39348
# Poissons Ratio (z) = 0.04839 0.48371
#
# Static dielectric constant tensor:
#      x y z
#    x 4.239810 0.000000 0.000000 
#    y 0.000000 4.308670 0.000000 
#    z 0.000000 0.000000 4.152800 
# 
# 
# High freq. dielectric constant tensor:
#      x y z
#    x 1.958800 0.000000 0.000000 
#    y 0.000000 1.941050 0.000000 
#    z 0.000000 0.000000 1.930730 
# 
# From -- ./inp_files/6491.got.cif
#   From: 2010.03.12/outbox.cif.g09.slc.cpg/sg19_4_cif.got.tgz:6491.got - 2010.04.10 18:59:41.
