data_PCOD8156271
_publ_section_title
;
Structure prediction by ZEFSAII (Michael W. Deem and Ramdas Pophale) SiO2 
 PCOD8156271
Probable space group: P 21 21 2
;
_chemical_formula_sum "Si O2"
_cell_formula_units_Z 20
_cell_length_a 7.896928
_cell_length_b 16.927807
_cell_length_c 6.107743
_cell_angle_alpha 90.000000
_cell_angle_beta 90.000000
_cell_angle_gamma 90.000000
_cell_volume 816.468872
_symmetry_space_group_name_H-M "P 21 21 2"
_symmetry_group_IT_number 18
_symmetry_cell_setting 'orthorhombic'
loop_
_space_group_symop_operation_xyz
x,y,z
-x,-y,z
1/2+x,1/2-y,-z
1/2-x,1/2+y,-z
loop_
_atom_site_type_symbol
_atom_site_label
_atom_site_fract_x
_atom_site_fract_y
_atom_site_fract_z
Si Si1 0.536861 0.362274 0.349623
Si Si2 0.298142 0.316393 0.983142
Si Si3 0.165666 0.958495 0.304802
Si Si4 0.485532 0.775298 0.675575
Si Si5 0.624979 0.936577 0.584681
O O1 0.394285 0.415070 0.470665
O O2 0.588010 0.290196 0.511546
O O3 0.702916 0.414088 0.285702
O O4 0.467019 0.327568 0.125893
O O5 0.251758 0.399162 0.868751
O O6 0.340396 0.252695 0.793117
O O7 0.147872 0.287384 0.132442
O O8 0.311805 0.022611 0.358572
O O9 0.000000 0.000000 0.199061
O O10 0.518349 0.856388 0.542059
O O11 0.500000 0.000000 0.705997
#
# Coordination Sequence:
#
# PCOD8156271 Si02
#       5
#     4   4   4   4   4
#     4  10  22  44  67  90 130 175 219 272 333 393
#     4  11  23  42  69  97 129 176 228 275 330 402
#     4   9  22  42  64  92 128 172 217 270 331 392
#     4  11  24  41  67  99 130 173 223 275 334 399
#     4  11  23  41  64  94 133 172 214 272 337 398
#
# _framework density 24.495729000000001
#
# number of rings (size 3 to 8) (size 9 to 14) (size 15 to 20)
#    0.000    1.600    0.000    3.600    0.000   10.400 
#    0.000   13.000    0.000    0.000    0.000    0.000 
#    0.000    0.000    0.000    0.000    0.000    0.000 
#
# Total GULP energy -247926.371953 kJ/mol
# GULP energy per Si atom -12396.318598 kJ/mol
# Density = 2.443998 g / cm^3
# Si number density = 24.495729 Si / 1000 Ang^3
#
#
#
# Elastic Constant Matrix: (Units=GPa)
#
#
# Indices 1 2 3 4 5 6 
#
# 1 108.5945 54.7574 27.6849 0.0000 0.0000 0.0000
# 2 54.7574 172.6873 53.5766 0.0000 0.0000 0.0000
# 3 27.6849 53.5766 71.9000 0.0000 0.0000 0.0000
# 4 0.0000 0.0000 0.0000 39.0062 0.0000 0.0000
# 5 0.0000 0.0000 0.0000 0.0000 36.8898 0.0000
# 6 0.0000 0.0000 0.0000 0.0000 0.0000 44.9882
#
#
#
# Elastic Compliance Matrix: (Units=1/GPa)
#
#
# Indices 1 2 3 4 5 6 
#
# 1 0.011216 -0.002883 -0.002170 0.000000 0.000000 0.000000
# 2 -0.002883 0.008273 -0.005055 0.000000 0.000000 0.000000
# 3 -0.002170 -0.005055 0.018510 0.000000 0.000000 0.000000
# 4 0.000000 0.000000 0.000000 0.025637 0.000000 0.000000
# 5 0.000000 0.000000 0.000000 0.000000 0.027108 0.000000
# 6 0.000000 0.000000 0.000000 0.000000 0.000000 0.022228
#
#
# Mechanical properties :
#
#
# Convention : Reuss Voigt Hill
#
# Bulk Modulus (GPa) = 56.23278 69.46886 62.85082
# Shear Modulus (GPa) = 35.94131 38.65437 37.29784
#
# Velocity S-wave (km/s) = 3.83462 3.97672 3.90632
# Velocity P-wave (km/s) = 6.52777 7.03611 6.78670
#
# Compressibility (1/GPa) = 0.01778322
#
# Stress axis : x y z
#
# Youngs Moduli (GPa) = 89.16172 120.87173 54.02370
#
# Poissons Ratio (x) = 0.34848 0.11724
# Poissons Ratio (y) = 0.25706 0.27308
# Poissons Ratio (z) = 0.19350 0.61097
#
# Static dielectric constant tensor:
#      x y z
#    x 4.446770 0.000000 0.000000 
#    y 0.000000 4.820670 0.000000 
#    z 0.000000 0.000000 3.981490 
# 
# 
# High freq. dielectric constant tensor:
#      x y z
#    x 1.981110 0.000000 0.000000 
#    y 0.000000 1.996590 0.000000 
#    z 0.000000 0.000000 1.934680 
# 
# From -- ./inp_files/541.got.cif
#   From: 2010.03.12/outbox.cif.g09.slc.cpg/sg18_1_cif.got.tgz:541.got - 2010.04.10 18:53:55.
