data_PCOD8156564
_publ_section_title
;
Structure prediction by ZEFSAII (Michael W. Deem and Ramdas Pophale) SiO2 
 PCOD8156564
Probable space group: P 21 21 21
;
_chemical_formula_sum "Si O2"
_cell_formula_units_Z 32
_cell_length_a 15.308654
_cell_length_b 8.746593
_cell_length_c 13.526335
_cell_angle_alpha 90.000000
_cell_angle_beta 90.000000
_cell_angle_gamma 90.000000
_cell_volume 1811.156859
_symmetry_space_group_name_H-M "P 21 21 21"
_symmetry_group_IT_number 19
_symmetry_cell_setting 'orthorhombic'
loop_
_space_group_symop_operation_xyz
x,y,z
1/2-x,-y,1/2+z
1/2+x,1/2-y,-z
-x,1/2+y,1/2-z
loop_
_atom_site_type_symbol
_atom_site_label
_atom_site_fract_x
_atom_site_fract_y
_atom_site_fract_z
Si Si1 0.555967 0.530660 0.141516
Si Si2 0.869450 0.838482 0.891909
Si Si3 0.257671 0.500000 0.750000
Si Si4 0.130550 0.661518 0.891909
Si Si5 0.334759 0.416506 0.948833
Si Si6 0.834759 0.916506 0.448833
Si Si7 0.500000 0.750000 0.479525
Si Si8 0.944033 0.530660 0.858484
O O1 0.458748 0.594590 0.150444
O O2 0.619556 0.656283 0.089546
O O3 0.554512 0.371311 0.084215
O O4 0.593913 0.500000 0.250000
O O5 0.880444 0.656283 0.910454
O O6 0.799601 0.871096 0.805341
O O7 0.844018 0.919052 0.995482
O O8 0.200399 0.628904 0.805341
O O9 0.319696 0.425480 0.832092
O O10 0.319696 0.574520 0.667908
O O11 0.041252 0.594590 0.849556
O O12 0.155982 0.580948 0.995482
O O13 0.250000 0.334444 0.000000
O O14 0.425536 0.327160 0.954863
O O15 0.925536 0.827160 0.454863
O O16 0.554512 0.628689 0.415785
#
# Coordination Sequence:
#
# PCOD8156564 Si02
#       8
#     4   4   4   4   4   4   4   4
#     4  10  18  28  55  81 109 134 170 230 280 324
#     4   9  18  32  52  82 104 137 179 220 272 323
#     4  10  18  36  58  72 108 148 188 214 274 330
#     4   9  18  32  52  82 104 137 179 220 272 323
#     4   9  20  35  57  76 105 145 181 226 268 322
#     4   9  20  35  57  76 105 145 181 226 268 322
#     4  10  20  36  52  82 112 140 182 220 276 326
#     4  10  18  28  55  81 109 134 170 230 280 324
#
# _framework density 17.668265999999999
#
# number of rings (size 3 to 8) (size 9 to 14) (size 15 to 20)
#    0.000    2.500    1.250    1.500    7.000    0.000 
#    0.000    8.750    0.000    0.000    0.000    0.000 
#    0.000    0.000    0.000    0.000    0.000    0.000 
#
# Total GULP energy -396542.339737 kJ/mol
# GULP energy per Si atom -12391.948117 kJ/mol
# Density = 1.762805 g / cm^3
# Si number density = 17.668266 Si / 1000 Ang^3
#
#
#
# Elastic Constant Matrix: (Units=GPa)
#
#
# Indices 1 2 3 4 5 6 
#
# 1 96.4030 41.0743 50.7920 0.0000 0.0000 0.0000
# 2 41.0743 108.0330 44.8771 0.0000 0.0000 0.0000
# 3 50.7920 44.8771 129.0941 0.0000 0.0000 0.0000
# 4 0.0000 0.0000 0.0000 8.0531 0.0000 0.0000
# 5 0.0000 0.0000 0.0000 0.0000 25.3978 0.0000
# 6 0.0000 0.0000 0.0000 0.0000 0.0000 21.9475
#
#
#
# Elastic Compliance Matrix: (Units=1/GPa)
#
#
# Indices 1 2 3 4 5 6 
#
# 1 0.014187 -0.003594 -0.004332 0.000000 0.000000 0.000000
# 2 -0.003594 0.011729 -0.002663 0.000000 0.000000 0.000000
# 3 -0.004332 -0.002663 0.010377 0.000000 0.000000 0.000000
# 4 0.000000 0.000000 0.000000 0.124176 0.000000 0.000000
# 5 0.000000 0.000000 0.000000 0.000000 0.039374 0.000000
# 6 0.000000 0.000000 0.000000 0.000000 0.000000 0.045563
#
#
# Mechanical properties :
#
#
# Convention : Reuss Voigt Hill
#
# Bulk Modulus (GPa) = 66.16753 67.44634 66.80694
# Shear Modulus (GPa) = 18.40778 24.19876 21.30327
#
# Velocity S-wave (km/s) = 3.23128 3.70485 3.47614
# Velocity P-wave (km/s) = 7.17306 7.52049 7.34883
#
# Compressibility (1/GPa) = 0.01511315
#
# Stress axis : x y z
#
# Youngs Moduli (GPa) = 70.48612 85.25633 96.36934
#
# Poissons Ratio (x) = 0.30644 0.41752
# Poissons Ratio (y) = 0.25335 0.25666
# Poissons Ratio (z) = 0.30538 0.22706
#
# Static dielectric constant tensor:
#      x y z
#    x 3.333840 0.000000 0.000000 
#    y 0.000000 3.411040 0.000000 
#    z 0.000000 0.000000 3.123710 
# 
# 
# High freq. dielectric constant tensor:
#      x y z
#    x 1.679800 0.000000 0.000000 
#    y 0.000000 1.669320 0.000000 
#    z 0.000000 0.000000 1.669970 
# 
# From -- ./inp_files/4029.got.cif
#   From: 2010.03.12/outbox.cif.g09.slc.cpg/sg19_3_cif.got.tgz:4029.got - 2010.04.10 18:59:41.
