data_PCOD8156387
_publ_section_title
;
Structure prediction by ZEFSAII (Michael W. Deem and Ramdas Pophale) SiO2 
 PCOD8156387
Probable space group: P 21 21 2
;
_chemical_formula_sum "Si O2"
_cell_formula_units_Z 14
_cell_length_a 9.766000
_cell_length_b 7.151883
_cell_length_c 8.522274
_cell_angle_alpha 90.000000
_cell_angle_beta 90.000000
_cell_angle_gamma 90.000000
_cell_volume 595.240694
_symmetry_space_group_name_H-M "P 21 21 2"
_symmetry_group_IT_number 18
_symmetry_cell_setting 'orthorhombic'
loop_
_space_group_symop_operation_xyz
x,y,z
-x,-y,z
1/2+x,1/2-y,-z
1/2-x,1/2+y,-z
loop_
_atom_site_type_symbol
_atom_site_label
_atom_site_fract_x
_atom_site_fract_y
_atom_site_fract_z
Si Si1 0.153550 0.758022 0.666064
Si Si2 0.500000 0.500000 0.122393
Si Si3 0.850712 0.033935 0.177313
Si Si4 0.861923 0.406366 0.332510
O O1 0.235575 0.597127 0.753117
O O2 0.101676 0.687868 0.498994
O O3 0.019927 0.815666 0.768643
O O4 0.242527 0.944706 0.645328
O O5 0.365151 0.511479 0.009500
O O6 0.811054 0.249707 0.209357
O O7 0.000000 0.000000 0.259031
O O8 0.000000 0.500000 0.265587
#
# Coordination Sequence:
#
# PCOD8156387 Si02
#       4
#     4   2   4   4
#     4  12  26  45  73 107 144 184 243 296 359 430
#     4  10  28  42  74 104 142 188 238 286 374 428
#     4  10  24  48  67 102 145 186 233 294 356 428
#     4  12  25  45  74 103 141 188 239 299 354 428
#
# _framework density 23.519895999999999
#
# number of rings (size 3 to 8) (size 9 to 14) (size 15 to 20)
#    0.857    0.000    5.714    0.000   10.000    0.000 
#    0.000    1.429    0.000    0.000    0.000    0.000 
#    0.000    0.000    0.000    0.000    0.000    0.000 
#
# Total GULP energy -173566.581975 kJ/mol
# GULP energy per Si atom -12397.612998 kJ/mol
# Density = 2.346636 g / cm^3
# Si number density = 23.519896 Si / 1000 Ang^3
#
#
#
# Elastic Constant Matrix: (Units=GPa)
#
#
# Indices 1 2 3 4 5 6 
#
# 1 51.9641 44.1666 17.2580 0.0000 0.0000 0.0000
# 2 44.1666 165.7380 52.0864 0.0000 0.0000 0.0000
# 3 17.2580 52.0864 115.7793 0.0000 0.0000 0.0000
# 4 0.0000 0.0000 0.0000 21.7216 0.0000 0.0000
# 5 0.0000 0.0000 0.0000 0.0000 33.0194 0.0000
# 6 0.0000 0.0000 0.0000 0.0000 0.0000 56.3311
#
#
#
# Elastic Compliance Matrix: (Units=1/GPa)
#
#
# Indices 1 2 3 4 5 6 
#
# 1 0.024950 -0.006382 -0.000848 0.000000 0.000000 0.000000
# 2 -0.006382 0.008660 -0.002944 0.000000 0.000000 0.000000
# 3 -0.000848 -0.002944 0.010088 0.000000 0.000000 0.000000
# 4 0.000000 0.000000 0.000000 0.046037 0.000000 0.000000
# 5 0.000000 0.000000 0.000000 0.000000 0.030285 0.000000
# 6 0.000000 0.000000 0.000000 0.000000 0.000000 0.017752
#
#
# Mechanical properties :
#
#
# Convention : Reuss Voigt Hill
#
# Bulk Modulus (GPa) = 42.82858 62.27815 52.55337
# Shear Modulus (GPa) = 30.13767 36.87909 33.50838
#
# Velocity S-wave (km/s) = 3.58351 3.96409 3.77859
# Velocity P-wave (km/s) = 5.94736 6.89118 6.43659
#
# Compressibility (1/GPa) = 0.02334889
#
# Stress axis : x y z
#
# Youngs Moduli (GPa) = 40.07959 115.47610 99.12622
#
# Poissons Ratio (x) = 0.73702 0.08404
# Poissons Ratio (y) = 0.25581 0.29187
# Poissons Ratio (z) = 0.03398 0.34002
#
# Static dielectric constant tensor:
#      x y z
#    x 3.894230 0.000000 0.000000 
#    y 0.000000 4.329770 0.000000 
#    z 0.000000 0.000000 4.276800 
# 
# 
# High freq. dielectric constant tensor:
#      x y z
#    x 1.915840 0.000000 0.000000 
#    y 0.000000 1.940660 0.000000 
#    z 0.000000 0.000000 1.931340 
# 
# From -- ./inp_files/3556.got.cif
#   From: 2010.03.12/outbox.cif.g09.slc.cpg/sg18_2_cif.got.tgz:3556.got - 2010.04.10 18:53:55.
