data_PCOD8156888
_publ_section_title
;
Structure prediction by ZEFSAII (Michael W. Deem and Ramdas Pophale) SiO2 
 PCOD8156888
Probable space group: P 21 21 21
;
_chemical_formula_sum "Si O2"
_cell_formula_units_Z 32
_cell_length_a 8.334197
_cell_length_b 12.702872
_cell_length_c 14.184983
_cell_angle_alpha 90.000000
_cell_angle_beta 90.000000
_cell_angle_gamma 90.000000
_cell_volume 1501.739152
_symmetry_space_group_name_H-M "P 21 21 21"
_symmetry_group_IT_number 19
_symmetry_cell_setting 'orthorhombic'
loop_
_space_group_symop_operation_xyz
x,y,z
1/2-x,-y,1/2+z
1/2+x,1/2-y,-z
-x,1/2+y,1/2-z
loop_
_atom_site_type_symbol
_atom_site_label
_atom_site_fract_x
_atom_site_fract_y
_atom_site_fract_z
Si Si1 0.634830 0.723677 0.516709
Si Si2 0.324636 0.701391 0.637861
Si Si3 0.390670 0.467754 0.688751
Si Si4 0.247549 0.373857 0.509189
Si Si5 0.331757 0.428738 0.894795
Si Si6 0.200978 0.029826 0.057238
Si Si7 0.722245 0.397079 0.746218
Si Si8 0.381711 0.159609 0.440259
O O1 0.455227 0.714570 0.554544
O O2 0.651710 0.768464 0.408820
O O3 0.729868 0.812588 0.577388
O O4 0.721280 0.609728 0.519086
O O5 0.324404 0.584266 0.674167
O O6 0.354258 0.783600 0.723163
O O7 0.345301 0.388686 0.605330
O O8 0.303772 0.432899 0.783885
O O9 0.582378 0.467017 0.699178
O O10 0.267571 0.479530 0.447195
O O11 0.321023 0.278330 0.449806
O O12 0.066381 0.347363 0.534530
O O13 0.516992 0.439446 0.925365
O O14 0.288214 0.040953 0.160335
O O15 0.217762 0.913305 0.014143
O O16 0.858929 0.380042 0.667516
#
# Coordination Sequence:
#
# PCOD8156888 Si02
#       8
#     4   4   4   4   4   4   4   4
#     4  11  18  39  61  92 121 159 211 253 316 365
#     4  11  22  37  65  92 127 169 208 270 313 381
#     4  11  21  38  64  93 119 166 216 251 330 379
#     4  11  24  41  65  88 125 169 205 260 321 376
#     4  10  20  41  62  88 126 159 205 262 312 382
#     4   9  21  39  64  88 121 166 205 261 315 366
#     4  10  21  41  59  91 125 165 212 254 318 373
#     4  11  23  44  62  90 130 165 210 261 313 380
#
# _framework density 21.308626
#
# number of rings (size 3 to 8) (size 9 to 14) (size 15 to 20)
#    0.000    1.500    5.000    2.250    0.000    2.000 
#    6.750    1.250    0.000    0.000    0.000    0.000 
#    0.000    0.000    0.000    0.000    0.000    0.000 
#
# Total GULP energy -396574.805026 kJ/mol
# GULP energy per Si atom -12392.962657 kJ/mol
# Density = 2.126013 g / cm^3
# Si number density = 21.308626 Si / 1000 Ang^3
#
#
#
# Elastic Constant Matrix: (Units=GPa)
#
#
# Indices 1 2 3 4 5 6 
#
# 1 26.8363 3.4747 15.9680 0.0000 0.0000 0.0000
# 2 3.4747 75.1516 26.7324 0.0000 0.0000 0.0000
# 3 15.9680 26.7324 106.9348 0.0000 0.0000 0.0000
# 4 0.0000 0.0000 0.0000 37.4828 0.0000 0.0000
# 5 0.0000 0.0000 0.0000 0.0000 32.8395 0.0000
# 6 0.0000 0.0000 0.0000 0.0000 0.0000 25.3152
#
#
#
# Elastic Compliance Matrix: (Units=1/GPa)
#
#
# Indices 1 2 3 4 5 6 
#
# 1 0.040903 0.000309 -0.006185 0.000000 0.000000 0.000000
# 2 0.000309 0.014608 -0.003698 0.000000 0.000000 0.000000
# 3 -0.006185 -0.003698 0.011199 0.000000 0.000000 0.000000
# 4 0.000000 0.000000 0.000000 0.026679 0.000000 0.000000
# 5 0.000000 0.000000 0.000000 0.000000 0.030451 0.000000
# 6 0.000000 0.000000 0.000000 0.000000 0.000000 0.039502
#
#
# Mechanical properties :
#
#
# Convention : Reuss Voigt Hill
#
# Bulk Modulus (GPa) = 21.02511 33.47478 27.24994
# Shear Modulus (GPa) = 25.20870 29.97733 27.59301
#
# Velocity S-wave (km/s) = 3.44325 3.75482 3.60241
# Velocity P-wave (km/s) = 5.06915 5.87723 5.48809
#
# Compressibility (1/GPa) = 0.04756218
#
# Stress axis : x y z
#
# Youngs Moduli (GPa) = 24.44798 68.45792 89.28976
#
# Poissons Ratio (x) = -0.02115 0.55226
# Poissons Ratio (y) = -0.00755 0.33018
# Poissons Ratio (z) = 0.15121 0.25315
#
# Static dielectric constant tensor:
#      x y z
#    x 3.510200 0.000000 0.000000 
#    y 0.000000 4.092080 0.000000 
#    z 0.000000 0.000000 4.078450 
# 
# 
# High freq. dielectric constant tensor:
#      x y z
#    x 1.804750 0.000000 0.000000 
#    y 0.000000 1.848670 0.000000 
#    z 0.000000 0.000000 1.840400 
# 
# From -- ./inp_files/5929.got.cif
#   From: 2010.03.12/outbox.cif.g09.slc.cpg/sg19_3_cif.got.tgz:5929.got - 2010.04.10 18:59:41.
