data_PCOD8156727
_publ_section_title
;
Structure prediction by ZEFSAII (Michael W. Deem and Ramdas Pophale) SiO2 
 PCOD8156727
Probable space group: P 21 21 21
;
_chemical_formula_sum "Si O2"
_cell_formula_units_Z 28
_cell_length_a 18.044409
_cell_length_b 6.215836
_cell_length_c 13.421129
_cell_angle_alpha 90.000000
_cell_angle_beta 90.000000
_cell_angle_gamma 90.000000
_cell_volume 1505.328418
_symmetry_space_group_name_H-M "P 21 21 21"
_symmetry_group_IT_number 19
_symmetry_cell_setting 'orthorhombic'
loop_
_space_group_symop_operation_xyz
x,y,z
1/2-x,-y,1/2+z
1/2+x,1/2-y,-z
-x,1/2+y,1/2-z
loop_
_atom_site_type_symbol
_atom_site_label
_atom_site_fract_x
_atom_site_fract_y
_atom_site_fract_z
Si Si1 0.509717 0.840690 0.101538
Si Si2 0.422369 0.695579 0.286838
Si Si3 0.142989 0.186091 0.496542
Si Si4 0.704325 0.020976 0.335355
Si Si5 0.258970 0.195136 0.004724
Si Si6 0.851975 0.427252 0.596184
Si Si7 0.733086 0.070580 0.644002
O O1 0.486781 0.764969 0.211621
O O2 0.442931 0.822671 0.023539
O O3 0.574390 0.691081 0.057405
O O4 0.539921 0.084380 0.116080
O O5 0.370466 0.518913 0.231298
O O6 0.373521 0.899983 0.318855
O O7 0.195547 0.283777 0.585629
O O8 0.155079 0.334178 0.397935
O O9 0.169485 0.945142 0.473527
O O10 0.720093 0.794157 0.388866
O O11 0.772607 0.032392 0.255463
O O12 0.240346 0.380443 0.926825
O O13 0.186124 0.041953 0.000228
O O14 0.794127 0.260476 0.644368
#
# Coordination Sequence:
#
# PCOD8156727 Si02
#       7
#     4   4   4   4   4   4   4
#     4  11  21  32  51  86 119 149 183 221 298 353
#     4  11  21  30  53  82 117 153 180 228 286 354
#     4   9  23  33  52  83 117 150 185 235 290 339
#     4  10  20  33  54  82 111 147 196 230 277 341
#     4  10  21  36  54  80 115 154 193 235 280 346
#     4  11  20  35  54  81 118 153 183 227 291 340
#     4  10  20  37  54  80 115 148 194 236 280 341
#
# _framework density 18.600591000000001
#
# number of rings (size 3 to 8) (size 9 to 14) (size 15 to 20)
#    0.000    1.714    4.286    0.000    6.000    1.143 
#    0.000    0.000    0.000    0.000   14.857    0.000 
#    0.000    0.000    0.000    0.000    0.000    0.000 
#
# Total GULP energy -346880.506025 kJ/mol
# GULP energy per Si atom -12388.589501 kJ/mol
# Density = 1.855826 g / cm^3
# Si number density = 18.600591 Si / 1000 Ang^3
#
#
#
# Elastic Constant Matrix: (Units=GPa)
#
#
# Indices 1 2 3 4 5 6 
#
# 1 78.5446 38.1775 3.8125 0.0000 0.0000 0.0000
# 2 38.1775 84.0858 12.1028 0.0000 0.0000 0.0000
# 3 3.8125 12.1028 25.1097 0.0000 0.0000 0.0000
# 4 0.0000 0.0000 0.0000 24.7250 0.0000 0.0000
# 5 0.0000 0.0000 0.0000 0.0000 35.9744 0.0000
# 6 0.0000 0.0000 0.0000 0.0000 0.0000 32.6245
#
#
#
# Elastic Compliance Matrix: (Units=1/GPa)
#
#
# Indices 1 2 3 4 5 6 
#
# 1 0.016369 -0.007602 0.001179 0.000000 0.000000 0.000000
# 2 -0.007602 0.016309 -0.006707 0.000000 0.000000 0.000000
# 3 0.001179 -0.006707 0.042879 0.000000 0.000000 0.000000
# 4 0.000000 0.000000 0.000000 0.040445 0.000000 0.000000
# 5 0.000000 0.000000 0.000000 0.000000 0.027798 0.000000
# 6 0.000000 0.000000 0.000000 0.000000 0.000000 0.030652
#
#
# Mechanical properties :
#
#
# Convention : Reuss Voigt Hill
#
# Bulk Modulus (GPa) = 20.28497 32.88064 26.58281
# Shear Modulus (GPa) = 23.02613 27.57461 25.30037
#
# Velocity S-wave (km/s) = 3.52223 3.85445 3.69208
# Velocity P-wave (km/s) = 5.24125 6.12573 5.70067
#
# Compressibility (1/GPa) = 0.04929758
#
# Stress axis : x y z
#
# Youngs Moduli (GPa) = 61.08966 61.31423 23.32149
#
# Poissons Ratio (x) = 0.46610 -0.02749
# Poissons Ratio (y) = 0.46439 0.15641
# Poissons Ratio (z) = -0.07200 0.41123
#
# Static dielectric constant tensor:
#      x y z
#    x 3.365730 0.000000 0.000000 
#    y 0.000000 3.696560 0.000000 
#    z 0.000000 0.000000 3.390900 
# 
# 
# High freq. dielectric constant tensor:
#      x y z
#    x 1.702670 0.000000 0.000000 
#    y 0.000000 1.741860 0.000000 
#    z 0.000000 0.000000 1.688860 
# 
# From -- ./inp_files/1532.got.cif
#   From: 2010.03.12/outbox.cif.g09.slc.cpg/sg19_1_cif.got.tgz:1532.got - 2010.04.10 18:59:41.
