data_PCOD8156223
_publ_section_title
;
Structure prediction by ZEFSAII (Michael W. Deem and Ramdas Pophale) SiO2 
 PCOD8156223
Probable space group: P 21 21 2
;
_chemical_formula_sum "Si O2"
_cell_formula_units_Z 20
_cell_length_a 12.711222
_cell_length_b 13.736679
_cell_length_c 5.241007
_cell_angle_alpha 90.000000
_cell_angle_beta 90.000000
_cell_angle_gamma 90.000000
_cell_volume 915.132108
_symmetry_space_group_name_H-M "P 21 21 2"
_symmetry_group_IT_number 18
_symmetry_cell_setting 'orthorhombic'
loop_
_space_group_symop_operation_xyz
x,y,z
-x,-y,z
1/2+x,1/2-y,-z
1/2-x,1/2+y,-z
loop_
_atom_site_type_symbol
_atom_site_label
_atom_site_fract_x
_atom_site_fract_y
_atom_site_fract_z
Si Si1 0.104649 0.654982 0.318335
Si Si2 0.482901 0.883358 0.189163
Si Si3 0.274943 0.513372 0.409234
Si Si4 0.754805 0.162733 0.284631
Si Si5 0.378464 0.500177 0.907243
O O1 0.029754 0.670015 0.561319
O O2 0.157654 0.549109 0.346332
O O3 0.204684 0.728053 0.321678
O O4 0.039232 0.661043 0.059050
O O5 0.362283 0.849020 0.172100
O O6 0.500000 0.000000 0.200140
O O7 0.263625 0.396429 0.446094
O O8 0.319707 0.558874 0.676579
O O9 0.353808 0.545708 0.183013
O O10 0.834782 0.110433 0.086219
O O11 0.500000 0.500000 0.846005
#
# Coordination Sequence:
#
# PCOD8156223 Si02
#       5
#     4   4   4   4   4
#     4  12  26  42  73 102 133 190 229 285 355 409
#     4  12  25  46  73 100 141 188 233 287 355 418
#     4  10  22  43  65  97 138 178 223 285 343 413
#     4  10  27  43  70 102 142 172 245 285 339 430
#     4  10  22  41  67  91 137 180 220 279 353 394
#
# _framework density 21.854769000000001
#
# number of rings (size 3 to 8) (size 9 to 14) (size 15 to 20)
#    1.200    0.000    2.000    3.600    5.600    3.200 
#    0.000    0.000    0.000    0.000    0.000    0.000 
#    0.000    0.000    0.000    0.000    0.000    0.000 
#
# Total GULP energy -247812.597716 kJ/mol
# GULP energy per Si atom -12390.629886 kJ/mol
# Density = 2.180503 g / cm^3
# Si number density = 21.854769 Si / 1000 Ang^3
#
#
#
# Elastic Constant Matrix: (Units=GPa)
#
#
# Indices 1 2 3 4 5 6 
#
# 1 154.0897 42.5735 61.1460 0.0000 0.0000 0.0000
# 2 42.5735 77.1214 24.4397 0.0000 0.0000 0.0000
# 3 61.1460 24.4397 179.7676 0.0000 0.0000 0.0000
# 4 0.0000 0.0000 0.0000 15.4084 0.0000 0.0000
# 5 0.0000 0.0000 0.0000 0.0000 33.2205 0.0000
# 6 0.0000 0.0000 0.0000 0.0000 0.0000 42.2007
#
#
#
# Elastic Compliance Matrix: (Units=1/GPa)
#
#
# Indices 1 2 3 4 5 6 
#
# 1 0.008519 -0.003955 -0.002360 0.000000 0.000000 0.000000
# 2 -0.003955 0.015386 -0.000747 0.000000 0.000000 0.000000
# 3 -0.002360 -0.000747 0.006467 0.000000 0.000000 0.000000
# 4 0.000000 0.000000 0.000000 0.064900 0.000000 0.000000
# 5 0.000000 0.000000 0.000000 0.000000 0.030102 0.000000
# 6 0.000000 0.000000 0.000000 0.000000 0.000000 0.023696
#
#
# Mechanical properties :
#
#
# Convention : Reuss Voigt Hill
#
# Bulk Modulus (GPa) = 61.54065 74.14414 67.84240
# Shear Modulus (GPa) = 29.65432 37.02053 33.33743
#
# Velocity S-wave (km/s) = 3.68758 4.12021 3.90988
# Velocity P-wave (km/s) = 6.80816 7.52558 7.17584
#
# Compressibility (1/GPa) = 0.01624942
#
# Stress axis : x y z
#
# Youngs Moduli (GPa) = 117.38623 64.99262 154.63241
#
# Poissons Ratio (x) = 0.25704 0.36492
# Poissons Ratio (y) = 0.46424 0.11545
# Poissons Ratio (z) = 0.27702 0.04852
#
# Static dielectric constant tensor:
#      x y z
#    x 3.860970 0.000000 0.000000 
#    y 0.000000 3.605150 0.000000 
#    z 0.000000 0.000000 4.000990 
# 
# 
# High freq. dielectric constant tensor:
#      x y z
#    x 1.869630 0.000000 0.000000 
#    y 0.000000 1.821050 0.000000 
#    z 0.000000 0.000000 1.870470 
# 
# From -- ./inp_files/978.got.cif
#   From: 2010.03.12/outbox.cif.g09.slc.cpg/sg18_1_cif.got.tgz:978.got - 2010.04.10 18:53:55.
