data_PCOD8156107
_publ_section_title
;
Structure prediction by ZEFSAII (Michael W. Deem and Ramdas Pophale) SiO2 
 PCOD8156107
Probable space group: P 21 21 2
;
_chemical_formula_sum "Si O2"
_cell_formula_units_Z 28
_cell_length_a 5.315479
_cell_length_b 12.716757
_cell_length_c 19.576804
_cell_angle_alpha 90.000000
_cell_angle_beta 90.000000
_cell_angle_gamma 90.000000
_cell_volume 1323.306885
_symmetry_space_group_name_H-M "P 21 21 2"
_symmetry_group_IT_number 18
_symmetry_cell_setting 'orthorhombic'
loop_
_space_group_symop_operation_xyz
x,y,z
-x,-y,z
1/2+x,1/2-y,-z
1/2-x,1/2+y,-z
loop_
_atom_site_type_symbol
_atom_site_label
_atom_site_fract_x
_atom_site_fract_y
_atom_site_fract_z
Si Si1 0.857234 0.110178 0.981445
Si Si2 0.486674 0.617809 0.482452
Si Si3 0.550836 0.268269 0.732821
Si Si4 0.512862 0.195909 0.583563
Si Si5 0.128624 0.276060 0.903946
Si Si6 0.524148 0.123638 0.228568
Si Si7 0.514503 0.117305 0.850879
O O1 0.646388 0.106545 0.923772
O O2 0.997698 0.219614 0.967332
O O3 0.777860 0.127330 0.060331
O O4 0.000000 0.000000 0.977256
O O5 0.500000 0.500000 0.510388
O O6 0.493799 0.689464 0.549425
O O7 0.725526 0.639200 0.434001
O O8 0.227574 0.630208 0.441108
O O9 0.487232 0.205660 0.664472
O O10 0.306639 0.338871 0.752023
O O11 0.641061 0.186282 0.791384
O O12 0.802736 0.337380 0.720677
O O13 0.956799 0.333947 0.847700
O O14 0.256577 0.178183 0.864792
O O15 0.500000 0.000000 0.229674
O O16 0.500000 0.000000 0.820240
#
# Coordination Sequence:
#
# PCOD8156107 Si02
#       7
#     4   4   4   4   4   4   4
#     4  12  23  39  64  87 118 161 213 265 333 391
#     4  10  21  39  66  97 136 174 216 271 317 378
#     4  11  24  44  66  95 132 172 212 267 317 388
#     4  10  22  41  64  99 135 173 220 265 321 382
#     4  11  24  39  61  88 121 159 210 273 328 382
#     4  11  25  43  66  92 129 168 218 267 326 389
#     4  11  23  39  60  87 119 162 209 262 322 388
#
# _framework density 21.159110999999999
#
# number of rings (size 3 to 8) (size 9 to 14) (size 15 to 20)
#    0.000    1.143    4.286    1.714    0.000    6.286 
#    0.000    0.714    0.000    0.000    0.000    0.000 
#    0.000    0.000    0.000    0.000    0.000    0.000 
#
# Total GULP energy -346908.215446 kJ/mol
# GULP energy per Si atom -12389.579123 kJ/mol
# Density = 2.111095 g / cm^3
# Si number density = 21.159111 Si / 1000 Ang^3
#
#
#
# Elastic Constant Matrix: (Units=GPa)
#
#
# Indices 1 2 3 4 5 6 
#
# 1 101.1608 24.4293 5.2830 0.0000 0.0000 0.0000
# 2 24.4293 108.4126 1.0728 0.0000 0.0000 0.0000
# 3 5.2830 1.0728 56.1197 0.0000 0.0000 0.0000
# 4 0.0000 0.0000 0.0000 15.2018 0.0000 0.0000
# 5 0.0000 0.0000 0.0000 0.0000 24.2298 0.0000
# 6 0.0000 0.0000 0.0000 0.0000 0.0000 19.1186
#
#
#
# Elastic Compliance Matrix: (Units=1/GPa)
#
#
# Indices 1 2 3 4 5 6 
#
# 1 0.010504 -0.002358 -0.000944 0.000000 0.000000 0.000000
# 2 -0.002358 0.009755 0.000035 0.000000 0.000000 0.000000
# 3 -0.000944 0.000035 0.017907 0.000000 0.000000 0.000000
# 4 0.000000 0.000000 0.000000 0.065782 0.000000 0.000000
# 5 0.000000 0.000000 0.000000 0.000000 0.041272 0.000000
# 6 0.000000 0.000000 0.000000 0.000000 0.000000 0.052305
#
#
# Mechanical properties :
#
#
# Convention : Reuss Voigt Hill
#
# Bulk Modulus (GPa) = 31.61127 36.36259 33.98693
# Shear Modulus (GPa) = 23.29908 27.37057 25.33483
#
# Velocity S-wave (km/s) = 3.32194 3.60051 3.46403
# Velocity P-wave (km/s) = 5.44848 5.87431 5.66540
#
# Compressibility (1/GPa) = 0.03163429
#
# Stress axis : x y z
#
# Youngs Moduli (GPa) = 95.20300 102.51243 55.84344
#
# Poissons Ratio (x) = 0.24168 0.05270
# Poissons Ratio (y) = 0.22445 -0.00198
# Poissons Ratio (z) = 0.08985 -0.00363
#
# Static dielectric constant tensor:
#      x y z
#    x 3.884960 0.000000 0.000000 
#    y 0.000000 4.175770 0.000000 
#    z 0.000000 0.000000 3.712600 
# 
# 
# High freq. dielectric constant tensor:
#      x y z
#    x 1.831100 0.000000 0.000000 
#    y 0.000000 1.841720 0.000000 
#    z 0.000000 0.000000 1.821640 
# 
# From -- ./inp_files/7483.got.cif
#   From: 2010.03.12/outbox.cif.g09.slc.cpg/sg18_4_cif.got.tgz:7483.got - 2010.04.10 18:53:55.
