data_PCOD8156031
_publ_section_title
;
Structure prediction by ZEFSAII (Michael W. Deem and Ramdas Pophale) SiO2 
 PCOD8156031
Probable space group: P 21 21 2
;
_chemical_formula_sum "Si O2"
_cell_formula_units_Z 26
_cell_length_a 9.446499
_cell_length_b 16.094722
_cell_length_c 7.589648
_cell_angle_alpha 90.000000
_cell_angle_beta 90.000000
_cell_angle_gamma 90.000000
_cell_volume 1153.920787
_symmetry_space_group_name_H-M "P 21 21 2"
_symmetry_group_IT_number 18
_symmetry_cell_setting 'orthorhombic'
loop_
_space_group_symop_operation_xyz
x,y,z
-x,-y,z
1/2+x,1/2-y,-z
1/2-x,1/2+y,-z
loop_
_atom_site_type_symbol
_atom_site_label
_atom_site_fract_x
_atom_site_fract_y
_atom_site_fract_z
Si Si1 0.087033 0.654753 0.238993
Si Si2 0.059911 0.179376 0.297832
Si Si3 0.500000 0.500000 0.049682
Si Si4 0.476149 0.849007 0.134051
Si Si5 0.813459 0.413920 0.577844
Si Si6 0.804882 0.066933 0.239613
Si Si7 0.606545 0.329606 0.106352
O O1 0.991088 0.726694 0.327496
O O2 0.105728 0.585111 0.390186
O O3 0.241177 0.688746 0.187398
O O4 0.012185 0.619584 0.064011
O O5 0.928446 0.118746 0.332728
O O6 0.187453 0.155229 0.430231
O O7 0.121805 0.165260 0.103658
O O8 0.536888 0.418055 0.168627
O O9 0.362762 0.483445 0.928642
O O10 0.577085 0.895556 0.267504
O O11 0.314553 0.871229 0.170730
O O12 0.494975 0.748711 0.152447
O O13 0.751574 0.504887 0.610969
#
# Coordination Sequence:
#
# PCOD8156031 Si02
#       7
#     4   4   2   4   4   4   4
#     4  11  24  41  68 106 136 178 245 286 349 426
#     4  10  21  41  72  95 137 191 233 284 359 426
#     4  10  20  40  72 102 132 180 240 282 352 426
#     4  11  24  43  70  99 138 188 227 292 353 416
#     4  12  24  42  68 101 143 181 235 295 352 423
#     4  11  20  43  72  97 138 190 226 285 365 421
#     4  10  20  41  65  97 136 179 230 284 347 417
#
# _framework density 22.531877000000001
#
# number of rings (size 3 to 8) (size 9 to 14) (size 15 to 20)
#    0.000    1.231    6.154    0.462    2.154    0.000 
#    2.769    6.154    3.385    0.000    0.000    0.000 
#    0.000    0.000    0.000    0.000    0.000    0.000 
#
# Total GULP energy -322390.552261 kJ/mol
# GULP energy per Si atom -12399.636625 kJ/mol
# Density = 2.248059 g / cm^3
# Si number density = 22.531877 Si / 1000 Ang^3
#
#
#
# Elastic Constant Matrix: (Units=GPa)
#
#
# Indices 1 2 3 4 5 6 
#
# 1 89.1273 27.7379 35.9499 0.0000 0.0000 0.0000
# 2 27.7379 72.7899 37.0143 0.0000 0.0000 0.0000
# 3 35.9499 37.0143 74.3815 0.0000 0.0000 0.0000
# 4 0.0000 0.0000 0.0000 22.2097 0.0000 0.0000
# 5 0.0000 0.0000 0.0000 0.0000 17.0054 0.0000
# 6 0.0000 0.0000 0.0000 0.0000 0.0000 39.0177
#
#
#
# Elastic Compliance Matrix: (Units=1/GPa)
#
#
# Indices 1 2 3 4 5 6 
#
# 1 0.014292 -0.002589 -0.005619 0.000000 0.000000 0.000000
# 2 -0.002589 0.018861 -0.008135 0.000000 0.000000 0.000000
# 3 -0.005619 -0.008135 0.020208 0.000000 0.000000 0.000000
# 4 0.000000 0.000000 0.000000 0.045025 0.000000 0.000000
# 5 0.000000 0.000000 0.000000 0.000000 0.058805 0.000000
# 6 0.000000 0.000000 0.000000 0.000000 0.000000 0.025629
#
#
# Mechanical properties :
#
#
# Convention : Reuss Voigt Hill
#
# Bulk Modulus (GPa) = 48.36550 48.63365 48.49958
# Shear Modulus (GPa) = 22.48211 24.68633 23.58422
#
# Velocity S-wave (km/s) = 3.16221 3.31360 3.23879
# Velocity P-wave (km/s) = 5.90294 6.02256 5.96305
#
# Compressibility (1/GPa) = 0.02067589
#
# Stress axis : x y z
#
# Youngs Moduli (GPa) = 69.96831 53.01889 49.48486
#
# Poissons Ratio (x) = 0.13725 0.27808
# Poissons Ratio (y) = 0.18113 0.40254
# Poissons Ratio (z) = 0.39318 0.43129
#
# Static dielectric constant tensor:
#      x y z
#    x 4.147100 0.000000 0.000000 
#    y 0.000000 4.190940 0.000000 
#    z 0.000000 0.000000 3.771600 
# 
# 
# High freq. dielectric constant tensor:
#      x y z
#    x 1.895830 0.000000 0.000000 
#    y 0.000000 1.889040 0.000000 
#    z 0.000000 0.000000 1.859680 
# 
# From -- ./inp_files/3368.got.cif
#   From: 2010.03.12/outbox.cif.g09.slc.cpg/sg18_2_cif.got.tgz:3368.got - 2010.04.10 18:53:55.
