data_PCOD8156393
_publ_section_title
;
Structure prediction by ZEFSAII (Michael W. Deem and Ramdas Pophale) SiO2 
 PCOD8156393
Probable space group: P 21 21 2
;
_chemical_formula_sum "Si O2"
_cell_formula_units_Z 18
_cell_length_a 8.585516
_cell_length_b 9.005612
_cell_length_c 10.855413
_cell_angle_alpha 90.000000
_cell_angle_beta 90.000000
_cell_angle_gamma 90.000000
_cell_volume 839.316933
_symmetry_space_group_name_H-M "P 21 21 2"
_symmetry_group_IT_number 18
_symmetry_cell_setting 'orthorhombic'
loop_
_space_group_symop_operation_xyz
x,y,z
-x,-y,z
1/2+x,1/2-y,-z
1/2-x,1/2+y,-z
loop_
_atom_site_type_symbol
_atom_site_label
_atom_site_fract_x
_atom_site_fract_y
_atom_site_fract_z
Si Si1 0.873999 0.298760 0.754653
Si Si2 0.000000 0.500000 0.554563
Si Si3 0.172073 0.174100 0.861168
Si Si4 0.670425 0.026627 0.681577
Si Si5 0.325893 0.478783 0.903346
O O1 0.971159 0.353201 0.635842
O O2 0.739039 0.184734 0.719610
O O3 0.795714 0.443419 0.812783
O O4 0.993116 0.225536 0.851813
O O5 0.847586 0.523724 0.467305
O O6 0.283849 0.305671 0.906198
O O7 0.220819 0.107669 0.728451
O O8 0.186806 0.042647 0.959463
O O9 0.500000 0.000000 0.743635
O O10 0.500000 0.500000 0.851153
#
# Coordination Sequence:
#
# PCOD8156393 Si02
#       5
#     4   2   4   4   4
#     4  12  24  48  68 103 143 185 237 290 355 422
#     4  10  26  44  70 104 136 192 234 300 342 422
#     4  12  24  45  70 107 138 186 229 298 353 429
#     4  10  25  43  71  98 139 178 244 277 353 407
#     4  12  25  41  71 100 144 179 234 286 365 423
#
# _framework density 21.446010999999999
#
# number of rings (size 3 to 8) (size 9 to 14) (size 15 to 20)
#    0.667    0.000    2.222    6.000    3.111    1.778 
#    0.000    0.000    0.000    0.000    0.000    0.000 
#    0.000    0.000    0.000    0.000    0.000    0.000 
#
# Total GULP energy -223249.849806 kJ/mol
# GULP energy per Si atom -12402.769434 kJ/mol
# Density = 2.139720 g / cm^3
# Si number density = 21.446011 Si / 1000 Ang^3
#
#
#
# Elastic Constant Matrix: (Units=GPa)
#
#
# Indices 1 2 3 4 5 6 
#
# 1 100.2317 32.7059 32.3013 0.0000 0.0000 0.0000
# 2 32.7059 119.3910 44.5679 0.0000 0.0000 0.0000
# 3 32.3013 44.5679 108.8382 0.0000 0.0000 0.0000
# 4 0.0000 0.0000 0.0000 38.5764 0.0000 0.0000
# 5 0.0000 0.0000 0.0000 0.0000 41.1792 0.0000
# 6 0.0000 0.0000 0.0000 0.0000 0.0000 53.9213
#
#
#
# Elastic Compliance Matrix: (Units=1/GPa)
#
#
# Indices 1 2 3 4 5 6 
#
# 1 0.011508 -0.002216 -0.002508 0.000000 0.000000 0.000000
# 2 -0.002216 0.010314 -0.003566 0.000000 0.000000 0.000000
# 3 -0.002508 -0.003566 0.011392 0.000000 0.000000 0.000000
# 4 0.000000 0.000000 0.000000 0.025923 0.000000 0.000000
# 5 0.000000 0.000000 0.000000 0.000000 0.024284 0.000000
# 6 0.000000 0.000000 0.000000 0.000000 0.000000 0.018546
#
#
# Mechanical properties :
#
#
# Convention : Reuss Voigt Hill
#
# Bulk Modulus (GPa) = 60.11507 60.84570 60.48039
# Shear Modulus (GPa) = 40.29276 41.32778 40.81027
#
# Velocity S-wave (km/s) = 4.33921 4.39459 4.36699
# Velocity P-wave (km/s) = 7.29361 7.36092 7.32734
#
# Compressibility (1/GPa) = 0.01663476
#
# Stress axis : x y z
#
# Youngs Moduli (GPa) = 86.89376 96.95515 87.77815
#
# Poissons Ratio (x) = 0.21489 0.22014
# Poissons Ratio (y) = 0.19259 0.31299
# Poissons Ratio (z) = 0.21792 0.34571
#
# Static dielectric constant tensor:
#      x y z
#    x 3.934110 0.000000 0.000000 
#    y 0.000000 3.800920 0.000000 
#    z 0.000000 0.000000 3.733930 
# 
# 
# High freq. dielectric constant tensor:
#      x y z
#    x 1.848340 0.000000 0.000000 
#    y 0.000000 1.852960 0.000000 
#    z 0.000000 0.000000 1.833720 
# 
# From -- ./inp_files/5378.got.cif
#   From: 2010.03.12/outbox.cif.g09.slc.cpg/sg18_3_cif.got.tgz:5378.got - 2010.04.10 18:53:55.
