data_PCOD8156456
_publ_section_title
;
Structure prediction by ZEFSAII (Michael W. Deem and Ramdas Pophale) SiO2 
 PCOD8156456
Probable space group: P 21 21 2
;
_chemical_formula_sum "Si O2"
_cell_formula_units_Z 22
_cell_length_a 8.913603
_cell_length_b 13.664370
_cell_length_c 8.488791
_cell_angle_alpha 90.000000
_cell_angle_beta 90.000000
_cell_angle_gamma 90.000000
_cell_volume 1033.924298
_symmetry_space_group_name_H-M "P 21 21 2"
_symmetry_group_IT_number 18
_symmetry_cell_setting 'orthorhombic'
loop_
_space_group_symop_operation_xyz
x,y,z
-x,-y,z
1/2+x,1/2-y,-z
1/2-x,1/2+y,-z
loop_
_atom_site_type_symbol
_atom_site_label
_atom_site_fract_x
_atom_site_fract_y
_atom_site_fract_z
Si Si1 0.000000 0.000000 0.357950
Si Si2 0.700145 0.651678 0.823379
Si Si3 0.969774 0.325237 0.333304
Si Si4 0.716656 0.635939 0.192125
Si Si5 0.529455 0.244566 0.320765
Si Si6 0.184388 0.062689 0.638127
O O1 0.890163 0.063764 0.252829
O O2 0.112569 0.063561 0.464418
O O3 0.615114 0.751087 0.781803
O O4 0.873124 0.657506 0.759522
O O5 0.701647 0.629552 0.006685
O O6 0.863089 0.417735 0.374068
O O7 0.110725 0.363710 0.238189
O O8 0.021418 0.273002 0.493481
O O9 0.637877 0.737176 0.252154
O O10 0.645518 0.539374 0.274508
O O11 0.612659 0.345271 0.272129
#
# Coordination Sequence:
#
# PCOD8156456 Si02
#       6
#     2   4   4   4   4   4
#     4  12  22  44  68  98 134 176 240 278 336 412
#     4  11  26  40  66 101 136 180 224 286 353 406
#     4  11  23  44  69  96 133 180 234 278 338 425
#     4  12  23  42  66  99 142 172 224 294 350 400
#     4  11  22  43  67  95 131 182 229 273 339 416
#     4  11  22  41  68  97 125 181 229 276 334 410
#
# _framework density 21.278155000000002
#
# number of rings (size 3 to 8) (size 9 to 14) (size 15 to 20)
#    0.000    0.727    3.636    4.909    2.545    0.000 
#    0.000    3.636    0.000    0.000    0.000    0.000 
#    0.000    0.000    0.000    0.000    0.000    0.000 
#
# Total GULP energy -272740.003558 kJ/mol
# GULP energy per Si atom -12397.272889 kJ/mol
# Density = 2.122972 g / cm^3
# Si number density = 21.278155 Si / 1000 Ang^3
#
#
#
# Elastic Constant Matrix: (Units=GPa)
#
#
# Indices 1 2 3 4 5 6 
#
# 1 93.8176 26.2210 25.7090 0.0000 0.0000 0.0000
# 2 26.2210 72.7109 30.0579 0.0000 0.0000 0.0000
# 3 25.7090 30.0579 133.7042 0.0000 0.0000 0.0000
# 4 0.0000 0.0000 0.0000 23.4236 0.0000 0.0000
# 5 0.0000 0.0000 0.0000 0.0000 34.0156 0.0000
# 6 0.0000 0.0000 0.0000 0.0000 0.0000 44.4941
#
#
#
# Elastic Compliance Matrix: (Units=1/GPa)
#
#
# Indices 1 2 3 4 5 6 
#
# 1 0.012116 -0.003755 -0.001485 0.000000 0.000000 0.000000
# 2 -0.003755 0.016326 -0.002948 0.000000 0.000000 0.000000
# 3 -0.001485 -0.002948 0.008428 0.000000 0.000000 0.000000
# 4 0.000000 0.000000 0.000000 0.042692 0.000000 0.000000
# 5 0.000000 0.000000 0.000000 0.000000 0.029398 0.000000
# 6 0.000000 0.000000 0.000000 0.000000 0.000000 0.022475
#
#
# Mechanical properties :
#
#
# Convention : Reuss Voigt Hill
#
# Bulk Modulus (GPa) = 48.80007 51.57871 50.18939
# Shear Modulus (GPa) = 32.33270 34.93631 33.63451
#
# Velocity S-wave (km/s) = 3.90234 4.05642 3.98012
# Velocity P-wave (km/s) = 6.57940 6.79943 6.69032
#
# Compressibility (1/GPa) = 0.02049177
#
# Stress axis : x y z
#
# Youngs Moduli (GPa) = 82.53870 61.25206 118.65768
#
# Poissons Ratio (x) = 0.23000 0.17626
# Poissons Ratio (y) = 0.30994 0.34983
# Poissons Ratio (z) = 0.12261 0.18058
#
# Static dielectric constant tensor:
#      x y z
#    x 4.343780 0.000000 0.000000 
#    y 0.000000 3.847340 0.000000 
#    z 0.000000 0.000000 3.613720 
# 
# 
# High freq. dielectric constant tensor:
#      x y z
#    x 1.859700 0.000000 0.000000 
#    y 0.000000 1.826900 0.000000 
#    z 0.000000 0.000000 1.823150 
# 
# From -- ./inp_files/3170.got.cif
#   From: 2010.03.12/outbox.cif.g09.slc.cpg/sg18_2_cif.got.tgz:3170.got - 2010.04.10 18:53:55.
