data_PCOD8156658
_publ_section_title
;
Structure prediction by ZEFSAII (Michael W. Deem and Ramdas Pophale) SiO2 
 PCOD8156658
Probable space group: P 21 21 21
;
_chemical_formula_sum "Si O2"
_cell_formula_units_Z 20
_cell_length_a 9.604770
_cell_length_b 9.445893
_cell_length_c 10.681039
_cell_angle_alpha 90.000000
_cell_angle_beta 90.000000
_cell_angle_gamma 90.000000
_cell_volume 969.043989
_symmetry_space_group_name_H-M "P 21 21 21"
_symmetry_group_IT_number 19
_symmetry_cell_setting 'orthorhombic'
loop_
_space_group_symop_operation_xyz
x,y,z
1/2-x,-y,1/2+z
1/2+x,1/2-y,-z
-x,1/2+y,1/2-z
loop_
_atom_site_type_symbol
_atom_site_label
_atom_site_fract_x
_atom_site_fract_y
_atom_site_fract_z
Si Si1 0.007877 0.628841 0.659455
Si Si2 0.507371 0.206442 0.924125
Si Si3 0.205321 0.469429 0.226026
Si Si4 0.473134 0.016622 0.584050
Si Si5 0.224430 0.799929 0.232864
O O1 0.013032 0.772910 0.573972
O O2 0.994718 0.492110 0.566194
O O3 0.878982 0.637551 0.753665
O O4 0.147830 0.611435 0.739723
O O5 0.623966 0.088487 0.897054
O O6 0.558302 0.357196 0.864659
O O7 0.360251 0.164724 0.860482
O O8 0.230194 0.634463 0.205392
O O9 0.115764 0.430944 0.349331
O O10 0.347042 0.121540 0.615650
#
# Coordination Sequence:
#
# PCOD8156658 Si02
#       5
#     4   4   4   4   4
#     4  10  20  36  59  84 116 154 190 230 306 349
#     4   8  18  36  61  77 112 152 185 233 303 348
#     4  10  19  36  60  87 111 147 206 240 277 355
#     4   8  20  37  57  81 116 159 186 240 298 342
#     4  10  19  37  57  87 115 146 197 245 280 348
#
# _framework density 20.6389
#
# number of rings (size 3 to 8) (size 9 to 14) (size 15 to 20)
#    1.200    1.600    0.000    1.200    0.000    1.600 
#    0.000   10.000    0.000    0.000    0.000    0.000 
#    0.000    0.000    0.000    0.000    0.000    0.000 
#
# Total GULP energy -247858.965398 kJ/mol
# GULP energy per Si atom -12392.948270 kJ/mol
# Density = 2.059192 g / cm^3
# Si number density = 20.638900 Si / 1000 Ang^3
#
#
#
# Elastic Constant Matrix: (Units=GPa)
#
#
# Indices 1 2 3 4 5 6 
#
# 1 171.1586 63.4213 37.8780 0.0000 0.0000 0.0000
# 2 63.4213 60.7296 15.9568 0.0000 0.0000 0.0000
# 3 37.8780 15.9568 29.9323 0.0000 0.0000 0.0000
# 4 0.0000 0.0000 0.0000 25.1767 0.0000 0.0000
# 5 0.0000 0.0000 0.0000 0.0000 22.5051 0.0000
# 6 0.0000 0.0000 0.0000 0.0000 0.0000 24.4393
#
#
#
# Elastic Compliance Matrix: (Units=1/GPa)
#
#
# Indices 1 2 3 4 5 6 
#
# 1 0.011436 -0.009466 -0.009425 0.000000 0.000000 0.000000
# 2 -0.009466 0.026985 -0.002406 0.000000 0.000000 0.000000
# 3 -0.009425 -0.002406 0.046619 0.000000 0.000000 0.000000
# 4 0.000000 0.000000 0.000000 0.039719 0.000000 0.000000
# 5 0.000000 0.000000 0.000000 0.000000 0.044434 0.000000
# 6 0.000000 0.000000 0.000000 0.000000 0.000000 0.040918
#
#
# Mechanical properties :
#
#
# Convention : Reuss Voigt Hill
#
# Bulk Modulus (GPa) = 23.56058 55.14808 39.35433
# Shear Modulus (GPa) = 18.73680 24.06183 21.39931
#
# Velocity S-wave (km/s) = 3.01631 3.41816 3.22350
# Velocity P-wave (km/s) = 4.85502 6.50821 5.74143
#
# Compressibility (1/GPa) = 0.04244377
#
# Stress axis : x y z
#
# Youngs Moduli (GPa) = 87.44237 37.05814 21.45060
#
# Poissons Ratio (x) = 0.35081 0.20218
# Poissons Ratio (y) = 0.82777 0.05161
# Poissons Ratio (z) = 0.82418 0.08916
#
# Static dielectric constant tensor:
#      x y z
#    x 3.647990 0.000000 0.000000 
#    y 0.000000 3.545450 0.000000 
#    z 0.000000 0.000000 3.294480 
# 
# 
# High freq. dielectric constant tensor:
#      x y z
#    x 1.810990 0.000000 0.000000 
#    y 0.000000 1.788300 0.000000 
#    z 0.000000 0.000000 1.770360 
# 
# From -- ./inp_files/2641.got.cif
#   From: 2010.03.12/outbox.cif.g09.slc.cpg/sg19_2_cif.got.tgz:2641.got - 2010.04.10 18:59:41.
