data_PCOD8156545
_publ_section_title
;
Structure prediction by ZEFSAII (Michael W. Deem and Ramdas Pophale) SiO2 
 PCOD8156545
Probable space group: P 21 21 21
;
_chemical_formula_sum "Si O2"
_cell_formula_units_Z 24
_cell_length_a 23.870426
_cell_length_b 8.056183
_cell_length_c 5.103142
_cell_angle_alpha 90.000000
_cell_angle_beta 90.000000
_cell_angle_gamma 90.000000
_cell_volume 981.357274
_symmetry_space_group_name_H-M "P 21 21 21"
_symmetry_group_IT_number 19
_symmetry_cell_setting 'orthorhombic'
loop_
_space_group_symop_operation_xyz
x,y,z
1/2-x,-y,1/2+z
1/2+x,1/2-y,-z
-x,1/2+y,1/2-z
loop_
_atom_site_type_symbol
_atom_site_label
_atom_site_fract_x
_atom_site_fract_y
_atom_site_fract_z
Si Si1 0.870160 0.646026 0.926823
Si Si2 0.544329 0.875007 0.564573
Si Si3 0.278114 0.071104 0.868613
Si Si4 0.211153 0.370108 0.846100
Si Si5 0.842281 0.975440 0.146639
Si Si6 0.486440 0.005278 0.081813
O O1 0.841098 0.485154 0.061642
O O2 0.833055 0.715100 0.683304
O O3 0.874593 0.797559 0.136293
O O4 0.931018 0.593008 0.827975
O O5 0.611051 0.882090 0.619789
O O6 0.511691 0.920344 0.826371
O O7 0.527863 0.693465 0.475244
O O8 0.529564 0.999397 0.325040
O O9 0.235793 0.989334 0.077102
O O10 0.271542 0.274277 0.877756
O O11 0.193243 0.487065 0.087016
O O12 0.206100 0.481488 0.580877
#
# Coordination Sequence:
#
# PCOD8156545 Si02
#       6
#     4   4   4   4   4   4
#     4   9  21  32  60  84 120 150 198 244 293 347
#     4  12  26  43  61  87 121 159 206 253 304 364
#     4  10  16  30  51  89 117 149 191 250 279 349
#     4   9  18  31  57  86 114 150 197 238 290 346
#     4  10  19  34  57  80 114 152 194 243 289 351
#     4  12  26  42  62  88 120 160 204 252 307 363
#
# _framework density 24.455924
#
# number of rings (size 3 to 8) (size 9 to 14) (size 15 to 20)
#    1.000    0.667    1.667    4.000    4.667    0.000 
#    0.000    0.000    0.000    2.000    0.000    0.000 
#    0.000    0.000    0.000    0.000    0.000    0.000 
#
# Total GULP energy -297526.599609 kJ/mol
# GULP energy per Si atom -12396.941650 kJ/mol
# Density = 2.440026 g / cm^3
# Si number density = 24.455924 Si / 1000 Ang^3
#
#
#
# Elastic Constant Matrix: (Units=GPa)
#
#
# Indices 1 2 3 4 5 6 
#
# 1 107.1199 24.4655 10.0786 0.0000 0.0000 0.0000
# 2 24.4655 60.9278 6.5473 0.0000 0.0000 0.0000
# 3 10.0786 6.5473 119.0380 0.0000 0.0000 0.0000
# 4 0.0000 0.0000 0.0000-1979.1378 0.0000 0.0000
# 5 0.0000 0.0000 0.0000 0.0000 199.2252 0.0000
# 6 0.0000 0.0000 0.0000 0.0000 0.0000 -46.5667
#
#
#
# Elastic Compliance Matrix: (Units=1/GPa)
#
#
# Indices 1 2 3 4 5 6 
#
# 1 0.010328 -0.004077 -0.000650 0.000000 0.000000 0.000000
# 2 -0.004077 0.018120 -0.000651 0.000000 0.000000 0.000000
# 3 -0.000650 -0.000651 0.008492 0.000000 0.000000 0.000000
# 4 0.000000 0.000000 0.000000 -0.000505 0.000000 0.000000
# 5 0.000000 0.000000 0.000000 0.000000 0.005019 0.000000
# 6 0.000000 0.000000 0.000000 0.000000 0.000000 -0.021475
#
#
# Mechanical properties :
#
#
# Convention : Reuss Voigt Hill
#
# Bulk Modulus (GPa) = 38.19456 41.02981 39.61219
# Shear Modulus (GPa) = 126.69835 -348.89623 -111.09894
#
# Velocity S-wave (km/s) = 7.20550 -11.95713 -6.74736
# Velocity P-wave (km/s) = 9.21289 13.18397 6.66858
#
# Compressibility (1/GPa) = 0.02618174
#
# Stress axis : x y z
#
# Youngs Moduli (GPa) = 96.82687 55.18738 117.76405
#
# Poissons Ratio (x) = 0.22501 0.07657
# Poissons Ratio (y) = 0.39478 0.07672
# Poissons Ratio (z) = 0.06295 0.03595
#
# Static dielectric constant tensor:
#      x y z
#    x 5.457760 0.000000 0.000000 
#    y 0.000000 4.433210 0.000000 
#    z 0.000000 0.000000 4.958480 
# 
# 
# High freq. dielectric constant tensor:
#      x y z
#    x 1.976910 0.000000 0.000000 
#    y 0.000000 1.984350 0.000000 
#    z 0.000000 0.000000 1.968210 
# 
# From -- ./inp_files/2235.got.cif
#   From: 2010.03.12/outbox.cif.g09.slc.cpg/sg19_2_cif.got.tgz:2235.got - 2010.04.10 18:59:41.
