data_PCOD8156079
_publ_section_title
;
Structure prediction by ZEFSAII (Michael W. Deem and Ramdas Pophale) SiO2 
 PCOD8156079
Probable space group: P 21 21 2
;
_chemical_formula_sum "Si O2"
_cell_formula_units_Z 32
_cell_length_a 11.221694
_cell_length_b 13.951311
_cell_length_c 9.735750
_cell_angle_alpha 90.000000
_cell_angle_beta 90.000000
_cell_angle_gamma 90.000000
_cell_volume 1524.203152
_symmetry_space_group_name_H-M "P 21 21 2"
_symmetry_group_IT_number 18
_symmetry_cell_setting 'orthorhombic'
loop_
_space_group_symop_operation_xyz
x,y,z
-x,-y,z
1/2+x,1/2-y,-z
1/2-x,1/2+y,-z
loop_
_atom_site_type_symbol
_atom_site_label
_atom_site_fract_x
_atom_site_fract_y
_atom_site_fract_z
Si Si1 0.263011 0.466452 0.546763
Si Si2 0.832812 0.824052 0.406749
Si Si3 0.256897 0.852656 0.179248
Si Si4 0.168921 0.559736 0.297612
Si Si5 0.346032 0.898515 0.893881
Si Si6 0.529233 0.763256 0.781488
Si Si7 0.886154 0.817872 0.708265
Si Si8 0.843292 0.173105 0.674768
O O1 0.334159 0.561227 0.590744
O O2 0.219117 0.417662 0.687041
O O3 0.156891 0.499670 0.441101
O O4 0.344983 0.391220 0.463794
O O5 0.937696 0.795986 0.306918
O O6 0.863760 0.779033 0.554462
O O7 0.704884 0.780035 0.360893
O O8 0.341182 0.760260 0.183632
O O9 0.121425 0.814659 0.157901
O O10 0.294737 0.913603 0.046085
O O11 0.113968 0.501365 0.168769
O O12 0.310168 0.583549 0.272348
O O13 0.099363 0.660037 0.313744
O O14 0.455383 0.822490 0.896757
O O15 0.242246 0.867679 0.790750
O O16 0.025297 0.830200 0.737152
#
# Coordination Sequence:
#
# PCOD8156079 Si02
#       8
#     4   4   4   4   4   4   4   4
#     4  10  21  40  64  99 126 157 211 269 312 372
#     4  10  21  38  66  97 123 167 208 260 326 379
#     4  11  23  41  61  96 129 159 215 270 311 362
#     4   9  21  42  66  89 123 173 212 248 321 392
#     4  10  23  41  63  90 123 177 216 252 311 390
#     4  10  22  42  68  86 131 174 207 255 325 385
#     4  10  21  37  66  90 128 164 206 267 315 373
#     4  10  21  41  61  91 131 167 212 252 321 387
#
# _framework density 20.994577
#
# number of rings (size 3 to 8) (size 9 to 14) (size 15 to 20)
#    0.000    2.000    1.250    1.125    5.250    7.000 
#    9.000    4.375    0.000    0.000    0.000    0.000 
#    0.000    0.000    0.000    0.000    0.000    0.000 
#
# Total GULP energy -396589.332296 kJ/mol
# GULP energy per Si atom -12393.416634 kJ/mol
# Density = 2.094679 g / cm^3
# Si number density = 20.994577 Si / 1000 Ang^3
#
#
#
# Elastic Constant Matrix: (Units=GPa)
#
#
# Indices 1 2 3 4 5 6 
#
# 1 98.1438 30.6771 17.8513 0.0000 0.0000 0.0000
# 2 30.6771 99.9144 40.4491 0.0000 0.0000 0.0000
# 3 17.8513 40.4491 112.4281 0.0000 0.0000 0.0000
# 4 0.0000 0.0000 0.0000 20.7252 0.0000 0.0000
# 5 0.0000 0.0000 0.0000 0.0000 15.7158 0.0000
# 6 0.0000 0.0000 0.0000 0.0000 0.0000 21.8612
#
#
#
# Elastic Compliance Matrix: (Units=1/GPa)
#
#
# Indices 1 2 3 4 5 6 
#
# 1 0.011310 -0.003214 -0.000640 0.000000 0.000000 0.000000
# 2 -0.003214 0.012628 -0.004033 0.000000 0.000000 0.000000
# 3 -0.000640 -0.004033 0.010447 0.000000 0.000000 0.000000
# 4 0.000000 0.000000 0.000000 0.048250 0.000000 0.000000
# 5 0.000000 0.000000 0.000000 0.000000 0.063630 0.000000
# 6 0.000000 0.000000 0.000000 0.000000 0.000000 0.045743
#
#
# Mechanical properties :
#
#
# Convention : Reuss Voigt Hill
#
# Bulk Modulus (GPa) = 53.72703 54.27126 53.99915
# Shear Modulus (GPa) = 23.36606 26.42769 24.89687
#
# Velocity S-wave (km/s) = 3.33972 3.55179 3.44738
# Velocity P-wave (km/s) = 6.36538 6.53655 6.45154
#
# Compressibility (1/GPa) = 0.01861260
#
# Stress axis : x y z
#
# Youngs Moduli (GPa) = 88.41765 79.18934 95.72019
#
# Poissons Ratio (x) = 0.25448 0.06122
# Poissons Ratio (y) = 0.28414 0.38604
# Poissons Ratio (z) = 0.05655 0.31937
#
# Static dielectric constant tensor:
#      x y z
#    x 3.776610 0.000000 0.000000 
#    y 0.000000 3.944800 0.000000 
#    z 0.000000 0.000000 3.609520 
# 
# 
# High freq. dielectric constant tensor:
#      x y z
#    x 1.818320 0.000000 0.000000 
#    y 0.000000 1.826860 0.000000 
#    z 0.000000 0.000000 1.799540 
# 
# From -- ./inp_files/3927.got.cif
#   From: 2010.03.12/outbox.cif.g09.slc.cpg/sg18_2_cif.got.tgz:3927.got - 2010.04.10 18:53:55.
