data_PCOD8156771
_publ_section_title
;
Structure prediction by ZEFSAII (Michael W. Deem and Ramdas Pophale) SiO2 
 PCOD8156771
Probable space group: P 21 21 21
;
_chemical_formula_sum "Si O2"
_cell_formula_units_Z 32
_cell_length_a 7.993468
_cell_length_b 11.760649
_cell_length_c 16.295286
_cell_angle_alpha 90.000000
_cell_angle_beta 90.000000
_cell_angle_gamma 90.000000
_cell_volume 1531.893299
_symmetry_space_group_name_H-M "P 21 21 21"
_symmetry_group_IT_number 19
_symmetry_cell_setting 'orthorhombic'
loop_
_space_group_symop_operation_xyz
x,y,z
1/2-x,-y,1/2+z
1/2+x,1/2-y,-z
-x,1/2+y,1/2-z
loop_
_atom_site_type_symbol
_atom_site_label
_atom_site_fract_x
_atom_site_fract_y
_atom_site_fract_z
Si Si1 0.757400 0.129440 0.276223
Si Si2 0.392556 0.605956 0.753656
Si Si3 0.228901 0.110613 0.501145
Si Si4 0.411286 0.129629 0.998150
Si Si5 0.986894 0.482490 0.626628
Si Si6 0.987434 0.253877 0.395489
Si Si7 0.259194 0.338010 0.083449
Si Si8 0.266720 0.147085 0.821291
O O1 0.731238 0.226645 0.209909
O O2 0.903276 0.154133 0.342220
O O3 0.808810 0.015142 0.228570
O O4 0.582182 0.113582 0.322271
O O5 0.382421 0.677984 0.837483
O O6 0.302336 0.669532 0.677784
O O7 0.586479 0.588616 0.730467
O O8 0.089765 0.201034 0.471087
O O9 0.337744 0.163761 0.574355
O O10 0.133725 0.996590 0.531433
O O11 0.351140 0.082235 0.426740
O O12 0.607751 0.141513 0.979733
O O13 0.306320 0.156105 0.917017
O O14 0.356370 0.221000 0.066140
O O15 0.117066 0.554711 0.571071
O O16 0.897218 0.569426 0.689900
#
# Coordination Sequence:
#
# PCOD8156771 Si02
#       8
#     4   4   4   4   4   4   4   4
#     4  10  20  38  59  83 117 154 194 243 294 347
#     4   9  21  39  61  84 117 160 197 245 302 351
#     4  11  23  39  59  84 117 156 196 246 299 353
#     4  10  20  37  59  85 116 151 193 243 295 348
#     4  10  20  36  57  83 118 153 192 246 297 347
#     4  11  23  40  61  88 120 157 203 244 297 362
#     4  10  20  38  62  89 119 155 200 247 299 358
#     4   9  19  35  56  84 114 148 193 238 289 352
#
# _framework density 20.889184
#
# number of rings (size 3 to 8) (size 9 to 14) (size 15 to 20)
#    0.000    2.000    0.000    5.250    0.000    6.000 
#    0.000    7.500    0.000    0.000    0.000    0.000 
#    0.000    0.000    0.000    0.000    0.000    0.000 
#
# Total GULP energy -396853.853653 kJ/mol
# GULP energy per Si atom -12401.682927 kJ/mol
# Density = 2.084164 g / cm^3
# Si number density = 20.889184 Si / 1000 Ang^3
#
#
#
# Elastic Constant Matrix: (Units=GPa)
#
#
# Indices 1 2 3 4 5 6 
#
# 1 77.6953 21.5044 3.7885 0.0000 0.0000 0.0000
# 2 21.5044 86.5985 23.9418 0.0000 0.0000 0.0000
# 3 3.7885 23.9418 47.6259 0.0000 0.0000 0.0000
# 4 0.0000 0.0000 0.0000 31.3776 0.0000 0.0000
# 5 0.0000 0.0000 0.0000 0.0000 31.7192 0.0000
# 6 0.0000 0.0000 0.0000 0.0000 0.0000 40.4196
#
#
#
# Elastic Compliance Matrix: (Units=1/GPa)
#
#
# Indices 1 2 3 4 5 6 
#
# 1 0.013842 -0.003639 0.000728 0.000000 0.000000 0.000000
# 2 -0.003639 0.014368 -0.006933 0.000000 0.000000 0.000000
# 3 0.000728 -0.006933 0.024425 0.000000 0.000000 0.000000
# 4 0.000000 0.000000 0.000000 0.031870 0.000000 0.000000
# 5 0.000000 0.000000 0.000000 0.000000 0.031527 0.000000
# 6 0.000000 0.000000 0.000000 0.000000 0.000000 0.024740
#
#
# Mechanical properties :
#
#
# Convention : Reuss Voigt Hill
#
# Bulk Modulus (GPa) = 30.35192 34.48768 32.41980
# Shear Modulus (GPa) = 29.16433 31.54894 30.35664
#
# Velocity S-wave (km/s) = 3.74056 3.89047 3.81625
# Velocity P-wave (km/s) = 5.76344 6.06026 5.91371
#
# Compressibility (1/GPa) = 0.03294684
#
# Stress axis : x y z
#
# Youngs Moduli (GPa) = 72.24183 69.59923 40.94242
#
# Poissons Ratio (x) = 0.25325 -0.02981
# Poissons Ratio (y) = 0.26286 0.28387
# Poissons Ratio (z) = -0.05260 0.48256
#
# Static dielectric constant tensor:
#      x y z
#    x 3.989670 0.000000 0.000000 
#    y 0.000000 3.887510 0.000000 
#    z 0.000000 0.000000 3.547430 
# 
# 
# High freq. dielectric constant tensor:
#      x y z
#    x 1.829770 0.000000 0.000000 
#    y 0.000000 1.823100 0.000000 
#    z 0.000000 0.000000 1.793600 
# 
# From -- ./inp_files/4809.got.cif
#   From: 2010.03.12/outbox.cif.g09.slc.cpg/sg19_3_cif.got.tgz:4809.got - 2010.04.10 18:59:41.
