data_PCOD8156409
_publ_section_title
;
Structure prediction by ZEFSAII (Michael W. Deem and Ramdas Pophale) SiO2 
 PCOD8156409
Probable space group: P 21 21 2
;
_chemical_formula_sum "Si O2"
_cell_formula_units_Z 30
_cell_length_a 15.446999
_cell_length_b 15.567486
_cell_length_c 5.267626
_cell_angle_alpha 90.000000
_cell_angle_beta 90.000000
_cell_angle_gamma 90.000000
_cell_volume 1266.710979
_symmetry_space_group_name_H-M "P 21 21 2"
_symmetry_group_IT_number 18
_symmetry_cell_setting 'orthorhombic'
loop_
_space_group_symop_operation_xyz
x,y,z
-x,-y,z
1/2+x,1/2-y,-z
1/2-x,1/2+y,-z
loop_
_atom_site_type_symbol
_atom_site_label
_atom_site_fract_x
_atom_site_fract_y
_atom_site_fract_z
Si Si1 0.861157 0.760643 0.953166
Si Si2 0.672752 0.759233 0.969929
Si Si3 0.632505 0.921479 0.714653
Si Si4 0.500000 0.000000 0.400009
Si Si5 0.655660 0.062793 0.081806
Si Si6 0.931309 0.840335 0.435984
Si Si7 0.129861 0.846107 0.529644
Si Si8 0.209792 0.020053 0.430781
O O1 0.767577 0.802238 0.009829
O O2 0.926658 0.781179 0.183411
O O3 0.830947 0.662329 0.959107
O O4 0.898635 0.790047 0.684097
O O5 0.638276 0.714247 0.223618
O O6 0.616490 0.845282 0.916708
O O7 0.669513 0.699235 0.719622
O O8 0.724100 0.913887 0.567800
O O9 0.546801 0.921121 0.544186
O O10 0.633281 0.018296 0.818535
O O11 0.572386 0.051739 0.253523
O O12 0.743073 0.016652 0.181174
O O13 0.876362 0.925745 0.372148
O O14 0.029831 0.867702 0.479260
O O15 0.180389 0.935036 0.589414
#
# Coordination Sequence:
#
# PCOD8156409 Si02
#       8
#     4   4   4   2   4   4   4   4
#     4  12  26  48  75 108 146 195 249 302 375 447
#     4  12  26  48  75 108 146 195 249 302 375 447
#     4  11  25  45  72 103 143 197 244 305 375 447
#     4  10  26  40  70 106 142 190 244 312 362 454
#     4  11  25  45  72 103 143 197 244 305 375 447
#     4  12  28  47  75 112 149 195 247 317 370 445
#     4  12  28  47  75 112 149 195 247 317 370 445
#     4  11  25  49  73 106 144 200 255 301 381 445
#
# _framework density 23.68338
#
# number of rings (size 3 to 8) (size 9 to 14) (size 15 to 20)
#    0.000    0.533    2.667    4.000    9.333    2.133 
#    0.000    2.667    0.000    0.000    0.000    0.000 
#    0.000    0.000    0.000    0.000    0.000    0.000 
#
# Total GULP energy -371876.312483 kJ/mol
# GULP energy per Si atom -12395.877083 kJ/mol
# Density = 2.362948 g / cm^3
# Si number density = 23.683380 Si / 1000 Ang^3
#
#
#
# Elastic Constant Matrix: (Units=GPa)
#
#
# Indices 1 2 3 4 5 6 
#
# 1 98.2608 -4.0151 13.3524 0.0000 0.0000 0.0000
# 2 -4.0151 70.3337 11.5206 0.0000 0.0000 0.0000
# 3 13.3524 11.5206 113.3403 0.0000 0.0000 0.0000
# 4 0.0000 0.0000 0.0000 38.6890 0.0000 0.0000
# 5 0.0000 0.0000 0.0000 0.0000 21.7681 0.0000
# 6 0.0000 0.0000 0.0000 0.0000 0.0000 28.8566
#
#
#
# Elastic Compliance Matrix: (Units=1/GPa)
#
#
# Indices 1 2 3 4 5 6 
#
# 1 0.010387 0.000807 -0.001306 0.000000 0.000000 0.000000
# 2 0.000807 0.014521 -0.001571 0.000000 0.000000 0.000000
# 3 -0.001306 -0.001571 0.009137 0.000000 0.000000 0.000000
# 4 0.000000 0.000000 0.000000 0.025847 0.000000 0.000000
# 5 0.000000 0.000000 0.000000 0.000000 0.045939 0.000000
# 6 0.000000 0.000000 0.000000 0.000000 0.000000 0.034654
#
#
# Mechanical properties :
#
#
# Convention : Reuss Voigt Hill
#
# Bulk Modulus (GPa) = 33.43887 35.96117 34.70002
# Shear Modulus (GPa) = 32.34285 35.26787 33.80536
#
# Velocity S-wave (km/s) = 3.69946 3.86312 3.78218
# Velocity P-wave (km/s) = 5.69190 5.92583 5.81004
#
# Compressibility (1/GPa) = 0.02990532
#
# Stress axis : x y z
#
# Youngs Moduli (GPa) = 96.27049 68.86417 109.45099
#
# Poissons Ratio (x) = -0.05556 0.14291
# Poissons Ratio (y) = -0.07768 0.17196
# Poissons Ratio (z) = 0.12570 0.10819
#
# Static dielectric constant tensor:
#      x y z
#    x 4.625610 0.000000 0.000000 
#    y 0.000000 4.167350 0.000000 
#    z 0.000000 0.000000 4.267030 
# 
# 
# High freq. dielectric constant tensor:
#      x y z
#    x 1.955400 0.000000 0.000000 
#    y 0.000000 1.942430 0.000000 
#    z 0.000000 0.000000 1.936870 
# 
# From -- ./inp_files/1616.got.cif
#   From: 2010.03.12/outbox.cif.g09.slc.cpg/sg18_1_cif.got.tgz:1616.got - 2010.04.10 18:53:55.
