data_PCOD8156164
_publ_section_title
;
Structure prediction by ZEFSAII (Michael W. Deem and Ramdas Pophale) SiO2 
 PCOD8156164
Probable space group: P 21 21 2
;
_chemical_formula_sum "Si O2"
_cell_formula_units_Z 22
_cell_length_a 5.665493
_cell_length_b 25.379718
_cell_length_c 6.835934
_cell_angle_alpha 90.000000
_cell_angle_beta 90.000000
_cell_angle_gamma 90.000000
_cell_volume 982.929480
_symmetry_space_group_name_H-M "P 21 21 2"
_symmetry_group_IT_number 18
_symmetry_cell_setting 'orthorhombic'
loop_
_space_group_symop_operation_xyz
x,y,z
-x,-y,z
1/2+x,1/2-y,-z
1/2-x,1/2+y,-z
loop_
_atom_site_type_symbol
_atom_site_label
_atom_site_fract_x
_atom_site_fract_y
_atom_site_fract_z
Si Si1 0.000000 0.000000 0.698278
Si Si2 0.392799 0.135543 0.270282
Si Si3 0.805854 0.590621 0.410555
Si Si4 0.576088 0.238120 0.111085
Si Si5 0.808704 0.413991 0.123282
Si Si6 0.575869 0.329145 0.397492
O O1 0.822977 0.968648 0.838527
O O2 0.127034 0.957877 0.555213
O O3 0.508803 0.092242 0.413088
O O4 0.573758 0.176486 0.168471
O O5 0.196616 0.169112 0.388513
O O6 0.278525 0.099287 0.103818
O O7 0.687594 0.648253 0.414577
O O8 0.921904 0.580124 0.197635
O O9 0.573801 0.270164 0.314832
O O10 0.828098 0.248551 0.002750
O O11 0.710135 0.364986 0.242913
#
# Coordination Sequence:
#
# PCOD8156164 Si02
#       6
#     2   4   4   4   4   4
#     4  10  22  44  74  94 142 182 238 296 386 418
#     4  11  25  42  72 102 148 185 247 296 365 431
#     4  10  23  43  70  99 142 184 239 304 359 440
#     4  12  27  45  74 106 152 205 241 294 369 435
#     4  10  21  47  66 100 135 187 230 304 356 438
#     4  10  24  42  67 100 143 183 244 289 356 428
#
# _framework density 22.382073999999999
#
# number of rings (size 3 to 8) (size 9 to 14) (size 15 to 20)
#    0.000    1.455    1.818    1.636    7.636    2.909 
#    0.000   21.818    0.000    0.000    0.000    0.000 
#    0.000    0.000    0.000    0.000    0.000    0.000 
#
# Total GULP energy -272704.230471 kJ/mol
# GULP energy per Si atom -12395.646840 kJ/mol
# Density = 2.233113 g / cm^3
# Si number density = 22.382074 Si / 1000 Ang^3
#
#
#
# Elastic Constant Matrix: (Units=GPa)
#
#
# Indices 1 2 3 4 5 6 
#
# 1 104.6652 10.7535 39.4271 0.0000 0.0000 0.0000
# 2 10.7535 80.5491 23.7317 0.0000 0.0000 0.0000
# 3 39.4271 23.7317 125.6484 0.0000 0.0000 0.0000
# 4 0.0000 0.0000 0.0000 28.5461 0.0000 0.0000
# 5 0.0000 0.0000 0.0000 0.0000 19.4338 0.0000
# 6 0.0000 0.0000 0.0000 0.0000 0.0000 35.4240
#
#
#
# Elastic Compliance Matrix: (Units=1/GPa)
#
#
# Indices 1 2 3 4 5 6 
#
# 1 0.010852 -0.000472 -0.003316 0.000000 0.000000 0.000000
# 2 -0.000472 0.013167 -0.002339 0.000000 0.000000 0.000000
# 3 -0.003316 -0.002339 0.009441 0.000000 0.000000 0.000000
# 4 0.000000 0.000000 0.000000 0.035031 0.000000 0.000000
# 5 0.000000 0.000000 0.000000 0.000000 0.051457 0.000000
# 6 0.000000 0.000000 0.000000 0.000000 0.000000 0.028229
#
#
# Mechanical properties :
#
#
# Convention : Reuss Voigt Hill
#
# Bulk Modulus (GPa) = 47.15566 50.96526 49.06046
# Shear Modulus (GPa) = 29.85088 32.47748 31.16418
#
# Velocity S-wave (km/s) = 3.65594 3.81340 3.73550
# Velocity P-wave (km/s) = 6.23983 6.49687 6.36965
#
# Compressibility (1/GPa) = 0.02120636
#
# Stress axis : x y z
#
# Youngs Moduli (GPa) = 92.14971 75.94838 105.92076
#
# Poissons Ratio (x) = 0.03583 0.35124
# Poissons Ratio (y) = 0.04347 0.24773
# Poissons Ratio (z) = 0.30558 0.17763
#
# Static dielectric constant tensor:
#      x y z
#    x 4.481790 0.000000 0.000000 
#    y 0.000000 3.985860 0.000000 
#    z 0.000000 0.000000 3.972890 
# 
# 
# High freq. dielectric constant tensor:
#      x y z
#    x 1.888140 0.000000 0.000000 
#    y 0.000000 1.883860 0.000000 
#    z 0.000000 0.000000 1.871040 
# 
# From -- ./inp_files/325.got.cif
#   From: 2010.03.12/outbox.cif.g09.slc.cpg/sg18_1_cif.got.tgz:325.got - 2010.04.10 18:53:55.
