data_PCOD8156191
_publ_section_title
;
Structure prediction by ZEFSAII (Michael W. Deem and Ramdas Pophale) SiO2 
 PCOD8156191
Probable space group: P 21 21 2
;
_chemical_formula_sum "Si O2"
_cell_formula_units_Z 18
_cell_length_a 6.775240
_cell_length_b 20.182671
_cell_length_c 6.105950
_cell_angle_alpha 90.000000
_cell_angle_beta 90.000000
_cell_angle_gamma 90.000000
_cell_volume 834.942501
_symmetry_space_group_name_H-M "P 21 21 2"
_symmetry_group_IT_number 18
_symmetry_cell_setting 'orthorhombic'
loop_
_space_group_symop_operation_xyz
x,y,z
-x,-y,z
1/2+x,1/2-y,-z
1/2-x,1/2+y,-z
loop_
_atom_site_type_symbol
_atom_site_label
_atom_site_fract_x
_atom_site_fract_y
_atom_site_fract_z
Si Si1 0.609523 0.160785 0.418546
Si Si2 0.432714 0.388236 0.896381
Si Si3 0.709566 0.399460 0.513580
Si Si4 0.000000 0.000000 0.778531
Si Si5 0.553918 0.704579 0.276024
O O1 0.751517 0.116570 0.269141
O O2 0.443949 0.109822 0.500972
O O3 0.500992 0.218250 0.280473
O O4 0.728730 0.191847 0.622634
O O5 0.632602 0.406257 0.764113
O O6 0.389252 0.445438 0.073855
O O7 0.453532 0.318253 0.022995
O O8 0.661727 0.465301 0.375738
O O9 0.608434 0.334688 0.413419
#
# Coordination Sequence:
#
# PCOD8156191 Si02
#       5
#     4   4   4   2   4
#     4  11  22  39  64 101 128 168 211 262 330 386
#     4  10  24  40  66  96 123 172 216 265 316 383
#     4  10  22  43  66  90 131 174 210 265 321 381
#     4  10  22  48  64  86 134 172 220 268 316 378
#     4  10  22  39  61  97 138 162 204 265 326 388
#
# _framework density 21.558373
#
# number of rings (size 3 to 8) (size 9 to 14) (size 15 to 20)
#    0.000    1.778    2.222    0.667    3.111    3.556 
#    0.000   26.667    0.000    0.000    0.000    0.000 
#    0.000    0.000    0.000    0.000    0.000    0.000 
#
# Total GULP energy -223266.880402 kJ/mol
# GULP energy per Si atom -12403.715578 kJ/mol
# Density = 2.150931 g / cm^3
# Si number density = 21.558373 Si / 1000 Ang^3
#
#
#
# Elastic Constant Matrix: (Units=GPa)
#
#
# Indices 1 2 3 4 5 6 
#
# 1 119.2188 17.6341 33.3788 0.0000 0.0000 0.0000
# 2 17.6341 70.7592 16.1233 0.0000 0.0000 0.0000
# 3 33.3788 16.1233 89.4227 0.0000 0.0000 0.0000
# 4 0.0000 0.0000 0.0000 35.5705 0.0000 0.0000
# 5 0.0000 0.0000 0.0000 0.0000 13.2740 0.0000
# 6 0.0000 0.0000 0.0000 0.0000 0.0000 28.6370
#
#
#
# Elastic Compliance Matrix: (Units=1/GPa)
#
#
# Indices 1 2 3 4 5 6 
#
# 1 0.009545 -0.001634 -0.003268 0.000000 0.000000 0.000000
# 2 -0.001634 0.015018 -0.002098 0.000000 0.000000 0.000000
# 3 -0.003268 -0.002098 0.012781 0.000000 0.000000 0.000000
# 4 0.000000 0.000000 0.000000 0.028113 0.000000 0.000000
# 5 0.000000 0.000000 0.000000 0.000000 0.075335 0.000000
# 6 0.000000 0.000000 0.000000 0.000000 0.000000 0.034920
#
#
# Mechanical properties :
#
#
# Convention : Reuss Voigt Hill
#
# Bulk Modulus (GPa) = 42.83862 45.96369 44.40116
# Shear Modulus (GPa) = 25.31739 29.64727 27.48233
#
# Velocity S-wave (km/s) = 3.43062 3.71240 3.57429
# Velocity P-wave (km/s) = 5.96710 6.30419 6.13796
#
# Compressibility (1/GPa) = 0.02334342
#
# Stress axis : x y z
#
# Youngs Moduli (GPa) = 104.77100 66.58828 78.24131
#
# Poissons Ratio (x) = 0.10880 0.25570
# Poissons Ratio (y) = 0.17119 0.16414
# Poissons Ratio (z) = 0.34240 0.13969
#
# Static dielectric constant tensor:
#      x y z
#    x 3.723900 0.000000 0.000000 
#    y 0.000000 3.838150 0.000000 
#    z 0.000000 0.000000 4.017040 
# 
# 
# High freq. dielectric constant tensor:
#      x y z
#    x 1.832780 0.000000 0.000000 
#    y 0.000000 1.848110 0.000000 
#    z 0.000000 0.000000 1.849460 
# 
# From -- ./inp_files/180.got.cif
#   From: 2010.03.12/outbox.cif.g09.slc.cpg/sg18_1_cif.got.tgz:180.got - 2010.04.10 18:53:55.
