data_PCOD8156789
_publ_section_title
;
Structure prediction by ZEFSAII (Michael W. Deem and Ramdas Pophale) SiO2 
 PCOD8156789
Probable space group: P 21 21 21
;
_chemical_formula_sum "Si O2"
_cell_formula_units_Z 32
_cell_length_a 12.747034
_cell_length_b 8.706392
_cell_length_c 14.411266
_cell_angle_alpha 90.000000
_cell_angle_beta 90.000000
_cell_angle_gamma 90.000000
_cell_volume 1599.372026
_symmetry_space_group_name_H-M "P 21 21 21"
_symmetry_group_IT_number 19
_symmetry_cell_setting 'orthorhombic'
loop_
_space_group_symop_operation_xyz
x,y,z
1/2-x,-y,1/2+z
1/2+x,1/2-y,-z
-x,1/2+y,1/2-z
loop_
_atom_site_type_symbol
_atom_site_label
_atom_site_fract_x
_atom_site_fract_y
_atom_site_fract_z
Si Si1 0.731175 0.317852 0.339816
Si Si2 0.541574 0.320215 0.465370
Si Si3 0.731175 0.682144 0.339815
Si Si4 0.903304 0.180150 0.696189
Si Si5 0.596696 0.180145 0.196191
Si Si6 0.041574 0.820216 0.534631
Si Si7 0.955606 0.817731 0.344053
Si Si8 0.955605 0.182266 0.344052
O O1 0.643957 0.251913 0.412683
O O2 0.742067 0.499998 0.341720
O O3 0.700426 0.265739 0.234471
O O4 0.840186 0.241826 0.366340
O O5 0.431156 0.285138 0.411632
O O6 0.560509 0.499999 0.465191
O O7 0.529720 0.260307 0.570788
O O8 0.700425 0.734255 0.234470
O O9 0.643958 0.748085 0.412682
O O10 0.840186 0.758170 0.366339
O O11 0.000000 0.250003 0.749999
O O12 0.891958 0.000002 0.715580
O O13 0.568844 0.214860 0.088370
O O14 0.029719 0.760305 0.429214
O O15 0.000002 0.749998 0.250001
O O16 0.954310 0.999998 0.337277
#
# Coordination Sequence:
#
# PCOD8156789 Si02
#       8
#     4   4   4   4   4   4   4   4
#     4  10  20  37  58  83 112 147 185 229 280 332
#     4   8  18  36  58  81 110 144 186 231 275 327
#     4  10  20  37  58  83 112 147 185 229 280 332
#     4   9  16  31  55  84 111 140 178 226 275 326
#     4   9  16  31  55  84 111 140 178 226 275 326
#     4   8  18  36  58  81 110 144 186 231 275 327
#     4  11  23  40  57  80 113 149 185 228 275 329
#     4  11  23  40  57  80 113 149 185 228 275 329
#
# _framework density 20.007853000000001
#
# number of rings (size 3 to 8) (size 9 to 14) (size 15 to 20)
#    0.000    2.500    0.000    3.750    0.000    2.000 
#    0.000   20.000    0.000    0.000    0.000    0.000 
#    0.000    0.000    0.000    0.000    0.000    0.000 
#
# Total GULP energy -396482.082585 kJ/mol
# GULP energy per Si atom -12390.065081 kJ/mol
# Density = 1.996231 g / cm^3
# Si number density = 20.007853 Si / 1000 Ang^3
#
#
#
# Elastic Constant Matrix: (Units=GPa)
#
#
# Indices 1 2 3 4 5 6 
#
# 1 110.9157 29.9423 63.4347 0.0000 0.0000 0.0000
# 2 29.9423 74.9499 41.4793 0.0000 0.0000 0.0000
# 3 63.4347 41.4793 153.7860 0.0000 0.0000 0.0000
# 4 0.0000 0.0000 0.0000 26.2365 0.0000 0.0000
# 5 0.0000 0.0000 0.0000 0.0000 29.1668 0.0000
# 6 0.0000 0.0000 0.0000 0.0000 0.0000 34.1855
#
#
#
# Elastic Compliance Matrix: (Units=1/GPa)
#
#
# Indices 1 2 3 4 5 6 
#
# 1 0.012170 -0.002449 -0.004359 0.000000 0.000000 0.000000
# 2 -0.002449 0.016176 -0.003353 0.000000 0.000000 0.000000
# 3 -0.004359 -0.003353 0.009205 0.000000 0.000000 0.000000
# 4 0.000000 0.000000 0.000000 0.038115 0.000000 0.000000
# 5 0.000000 0.000000 0.000000 0.000000 0.034286 0.000000
# 6 0.000000 0.000000 0.000000 0.000000 0.000000 0.029252
#
#
# Mechanical properties :
#
#
# Convention : Reuss Voigt Hill
#
# Bulk Modulus (GPa) = 58.04330 67.70713 62.87522
# Shear Modulus (GPa) = 30.25347 31.57077 30.91212
#
# Velocity S-wave (km/s) = 3.89277 3.97661 3.93491
# Velocity P-wave (km/s) = 7.01983 7.41609 7.22068
#
# Compressibility (1/GPa) = 0.01722852
#
# Stress axis : x y z
#
# Youngs Moduli (GPa) = 82.16702 61.81897 108.63577
#
# Poissons Ratio (x) = 0.15142 0.47359
# Poissons Ratio (y) = 0.20126 0.36423
# Poissons Ratio (z) = 0.35820 0.20726
#
# Static dielectric constant tensor:
#      x y z
#    x 3.689300 0.000000 0.000000 
#    y 0.000000 3.591740 0.000000 
#    z 0.000000 0.000000 4.683190 
# 
# 
# High freq. dielectric constant tensor:
#      x y z
#    x 1.770820 0.000000 0.000000 
#    y 0.000000 1.769370 0.000000 
#    z 0.000000 0.000000 1.783950 
# 
# From -- ./inp_files/6128.got.cif
#   From: 2010.03.12/outbox.cif.g09.slc.cpg/sg19_4_cif.got.tgz:6128.got - 2010.04.10 18:59:41.
