data_PCOD8156861
_publ_section_title
;
Structure prediction by ZEFSAII (Michael W. Deem and Ramdas Pophale) SiO2 
 PCOD8156861
Probable space group: P 21 21 21
;
_chemical_formula_sum "Si O2"
_cell_formula_units_Z 32
_cell_length_a 14.928608
_cell_length_b 8.943211
_cell_length_c 11.587075
_cell_angle_alpha 90.000000
_cell_angle_beta 90.000000
_cell_angle_gamma 90.000000
_cell_volume 1546.986806
_symmetry_space_group_name_H-M "P 21 21 21"
_symmetry_group_IT_number 19
_symmetry_cell_setting 'orthorhombic'
loop_
_space_group_symop_operation_xyz
x,y,z
1/2-x,-y,1/2+z
1/2+x,1/2-y,-z
-x,1/2+y,1/2-z
loop_
_atom_site_type_symbol
_atom_site_label
_atom_site_fract_x
_atom_site_fract_y
_atom_site_fract_z
Si Si1 0.594810 0.706468 0.449600
Si Si2 0.831391 0.995110 0.010581
Si Si3 0.469107 0.691999 0.120688
Si Si4 0.152434 0.911544 0.794742
Si Si5 0.468536 0.928469 0.934697
Si Si6 0.152856 0.430190 0.071048
Si Si7 0.331866 0.738816 0.799798
Si Si8 0.594602 0.264944 0.138203
O O1 0.639194 0.620989 0.341086
O O2 0.577231 0.589244 0.551745
O O3 0.504571 0.795030 0.412467
O O4 0.660186 0.825060 0.510885
O O5 0.821040 0.920340 0.135839
O O6 0.921664 0.931706 0.956181
O O7 0.741511 0.965614 0.935038
O O8 0.574804 0.666342 0.131413
O O9 0.418409 0.679867 0.241571
O O10 0.460142 0.852922 0.060616
O O11 0.247682 0.843374 0.831166
O O12 0.150010 0.085213 0.832267
O O13 0.421276 0.828478 0.837037
O O14 0.571755 0.956838 0.900178
O O15 0.160420 0.298768 0.165495
O O16 0.145818 0.346449 0.947627
#
# Coordination Sequence:
#
# PCOD8156861 Si02
#       8
#     4   4   4   4   4   4   4   4
#     4  10  20  39  67  93 126 161 213 273 327 381
#     4  11  23  41  64  95 132 170 220 268 327 396
#     4  10  21  40  68 100 124 165 214 272 332 378
#     4  11  20  38  66  97 129 157 218 280 320 381
#     4  10  23  44  63  90 131 174 214 264 321 408
#     4  11  25  42  65  96 135 176 221 268 335 397
#     4  11  26  41  64  93 133 176 220 264 334 404
#     4  10  22  37  67  98 126 163 212 273 332 371
#
# _framework density 20.685371
#
# number of rings (size 3 to 8) (size 9 to 14) (size 15 to 20)
#    0.000    1.500    3.750    0.750    3.500    2.000 
#    0.000    1.250    0.000    0.000    0.000    0.000 
#    0.000    0.000    0.000    0.000    0.000    0.000 
#
# Total GULP energy -396678.239736 kJ/mol
# GULP energy per Si atom -12396.194992 kJ/mol
# Density = 2.063829 g / cm^3
# Si number density = 20.685371 Si / 1000 Ang^3
#
#
#
# Elastic Constant Matrix: (Units=GPa)
#
#
# Indices 1 2 3 4 5 6 
#
# 1 94.9260 24.8014 14.7767 0.0000 0.0000 0.0000
# 2 24.8014 78.3355 13.8584 0.0000 0.0000 0.0000
# 3 14.7767 13.8584 58.0196 0.0000 0.0000 0.0000
# 4 0.0000 0.0000 0.0000 29.2297 0.0000 0.0000
# 5 0.0000 0.0000 0.0000 0.0000 24.7117 0.0000
# 6 0.0000 0.0000 0.0000 0.0000 0.0000 38.0639
#
#
#
# Elastic Compliance Matrix: (Units=1/GPa)
#
#
# Indices 1 2 3 4 5 6 
#
# 1 0.011747 -0.003330 -0.002196 0.000000 0.000000 0.000000
# 2 -0.003330 0.014273 -0.002561 0.000000 0.000000 0.000000
# 3 -0.002196 -0.002561 0.018407 0.000000 0.000000 0.000000
# 4 0.000000 0.000000 0.000000 0.034212 0.000000 0.000000
# 5 0.000000 0.000000 0.000000 0.000000 0.040467 0.000000
# 6 0.000000 0.000000 0.000000 0.000000 0.000000 0.026272
#
#
# Mechanical properties :
#
#
# Convention : Reuss Voigt Hill
#
# Bulk Modulus (GPa) = 35.39703 37.57267 36.48485
# Shear Modulus (GPa) = 29.24512 30.25735 29.75124
#
# Velocity S-wave (km/s) = 3.76414 3.82873 3.79657
# Velocity P-wave (km/s) = 6.00341 6.14401 6.07412
#
# Compressibility (1/GPa) = 0.02825096
#
# Stress axis : x y z
#
# Youngs Moduli (GPa) = 85.13136 70.06175 54.32832
#
# Poissons Ratio (x) = 0.23334 0.11931
# Poissons Ratio (y) = 0.28353 0.13914
# Poissons Ratio (z) = 0.18696 0.17943
#
# Static dielectric constant tensor:
#      x y z
#    x 3.842880 0.000000 0.000000 
#    y 0.000000 3.720260 0.000000 
#    z 0.000000 0.000000 3.543880 
# 
# 
# High freq. dielectric constant tensor:
#      x y z
#    x 1.816250 0.000000 0.000000 
#    y 0.000000 1.808540 0.000000 
#    z 0.000000 0.000000 1.794190 
# 
# From -- ./inp_files/3972.got.cif
#   From: 2010.03.12/outbox.cif.g09.slc.cpg/sg19_2_cif.got.tgz:3972.got - 2010.04.10 18:59:41.
