data_PCOD8156288
_publ_section_title
;
Structure prediction by ZEFSAII (Michael W. Deem and Ramdas Pophale) SiO2 
 PCOD8156288
Probable space group: P 21 21 2
;
_chemical_formula_sum "Si O2"
_cell_formula_units_Z 14
_cell_length_a 12.220603
_cell_length_b 5.263218
_cell_length_c 8.577297
_cell_angle_alpha 90.000000
_cell_angle_beta 90.000000
_cell_angle_gamma 90.000000
_cell_volume 551.689150
_symmetry_space_group_name_H-M "P 21 21 2"
_symmetry_group_IT_number 18
_symmetry_cell_setting 'orthorhombic'
loop_
_space_group_symop_operation_xyz
x,y,z
-x,-y,z
1/2+x,1/2-y,-z
1/2-x,1/2+y,-z
loop_
_atom_site_type_symbol
_atom_site_label
_atom_site_fract_x
_atom_site_fract_y
_atom_site_fract_z
Si Si1 0.318074 0.230879 0.967658
Si Si2 0.500000 0.000000 0.173135
Si Si3 0.115909 0.345421 0.539545
Si Si4 0.364836 0.346983 0.614748
O O1 0.360884 0.302494 0.797894
O O2 0.252177 0.470233 0.038490
O O3 0.425268 0.185689 0.071110
O O4 0.424298 0.818048 0.281405
O O5 0.246002 0.355757 0.537295
O O6 0.071072 0.617336 0.472235
O O7 0.077352 0.116167 0.425499
#
# Coordination Sequence:
#
# PCOD8156288 Si02
#       4
#     4   2   4   4
#     4  12  27  48  79 116 160 203 260 328 393 458
#     4  12  28  48  82 116 154 210 270 318 388 470
#     4  10  23  43  75 106 143 196 259 308 376 461
#     4  10  22  46  72 105 151 196 244 321 386 444
#
# _framework density 25.376607
#
# number of rings (size 3 to 8) (size 9 to 14) (size 15 to 20)
#    0.000    1.143    2.857    1.714    8.000    5.714 
#    0.000    2.857    0.000    0.000    0.000    0.000 
#    0.000    0.000    0.000    0.000    0.000    0.000 
#
# Total GULP energy -173677.641178 kJ/mol
# GULP energy per Si atom -12405.545798 kJ/mol
# Density = 2.531885 g / cm^3
# Si number density = 25.376607 Si / 1000 Ang^3
#
#
#
# Elastic Constant Matrix: (Units=GPa)
#
#
# Indices 1 2 3 4 5 6 
#
# 1 78.2266 90.6325 20.5083 0.0000 0.0000 0.0000
# 2 90.6325 239.8591 108.7310 0.0000 0.0000 0.0000
# 3 20.5083 108.7310 178.8187 0.0000 0.0000 0.0000
# 4 0.0000 0.0000 0.0000 47.6329 0.0000 0.0000
# 5 0.0000 0.0000 0.0000 0.0000 54.1773 0.0000
# 6 0.0000 0.0000 0.0000 0.0000 0.0000 51.6084
#
#
#
# Elastic Compliance Matrix: (Units=1/GPa)
#
#
# Indices 1 2 3 4 5 6 
#
# 1 0.024563 -0.011050 0.003902 0.000000 0.000000 0.000000
# 2 -0.011050 0.010727 -0.005255 0.000000 0.000000 0.000000
# 3 0.003902 -0.005255 0.008340 0.000000 0.000000 0.000000
# 4 0.000000 0.000000 0.000000 0.020994 0.000000 0.000000
# 5 0.000000 0.000000 0.000000 0.000000 0.018458 0.000000
# 6 0.000000 0.000000 0.000000 0.000000 0.000000 0.019377
#
#
# Mechanical properties :
#
#
# Convention : Reuss Voigt Hill
#
# Bulk Modulus (GPa) = 53.12559 104.07200 78.59879
# Shear Modulus (GPa) = 37.44226 49.15257 43.29742
#
# Velocity S-wave (km/s) = 3.84534 4.40582 4.13509
# Velocity P-wave (km/s) = 6.37933 8.18424 7.33749
#
# Compressibility (1/GPa) = 0.01882332
#
# Stress axis : x y z
#
# Youngs Moduli (GPa) = 40.71176 93.22576 119.90276
#
# Poissons Ratio (x) = 1.03015 -0.46786
# Poissons Ratio (y) = 0.44987 0.63010
# Poissons Ratio (z) = -0.15886 0.48991
#
# Static dielectric constant tensor:
#      x y z
#    x 4.958100 0.000000 0.000000 
#    y 0.000000 5.189400 0.000000 
#    z 0.000000 0.000000 4.347160 
# 
# 
# High freq. dielectric constant tensor:
#      x y z
#    x 2.073730 0.000000 0.000000 
#    y 0.000000 2.031890 0.000000 
#    z 0.000000 0.000000 2.004050 
# 
# From -- ./inp_files/4069.got.cif
#   From: 2010.03.12/outbox.cif.g09.slc.cpg/sg18_3_cif.got.tgz:4069.got - 2010.04.10 18:53:55.
