data_PCOD8156630
_publ_section_title
;
Structure prediction by ZEFSAII (Michael W. Deem and Ramdas Pophale) SiO2 
 PCOD8156630
Probable space group: P 21 21 21
;
_chemical_formula_sum "Si O2"
_cell_formula_units_Z 24
_cell_length_a 8.474331
_cell_length_b 8.690589
_cell_length_c 16.139298
_cell_angle_alpha 90.000000
_cell_angle_beta 90.000000
_cell_angle_gamma 90.000000
_cell_volume 1188.609714
_symmetry_space_group_name_H-M "P 21 21 21"
_symmetry_group_IT_number 19
_symmetry_cell_setting 'orthorhombic'
loop_
_space_group_symop_operation_xyz
x,y,z
1/2-x,-y,1/2+z
1/2+x,1/2-y,-z
-x,1/2+y,1/2-z
loop_
_atom_site_type_symbol
_atom_site_label
_atom_site_fract_x
_atom_site_fract_y
_atom_site_fract_z
Si Si1 0.212550 0.283562 0.265174
Si Si2 0.157980 0.830977 0.085561
Si Si3 0.786743 0.858688 0.058402
Si Si4 0.453007 0.440919 0.677576
Si Si5 0.303797 0.149764 0.103752
Si Si6 0.584986 0.117949 0.982347
O O1 0.296274 0.323376 0.352358
O O2 0.118503 0.437511 0.240773
O O3 0.332734 0.236775 0.191741
O O4 0.100888 0.135403 0.277174
O O5 0.171797 0.694119 0.153531
O O6 0.974348 0.868081 0.069901
O O7 0.254610 0.974695 0.120467
O O8 0.241499 0.782740 0.000343
O O9 0.725214 0.018855 0.022662
O O10 0.502682 0.523424 0.590905
O O11 0.463674 0.165478 0.052996
O O12 0.160146 0.228098 0.054540
#
# Coordination Sequence:
#
# PCOD8156630 Si02
#       6
#     4   4   4   4   4   4
#     4  10  19  34  55  84 114 144 185 235 276 321
#     4  10  19  35  59  81 111 152 187 227 275 337
#     4  10  20  37  57  81 112 146 188 229 276 331
#     4   9  19  34  55  81 112 150 187 220 274 341
#     4  11  21  37  59  82 111 146 188 231 279 332
#     4  10  22  39  57  81 110 150 191 226 278 342
#
# _framework density 20.191656999999999
#
# number of rings (size 3 to 8) (size 9 to 14) (size 15 to 20)
#    0.000    2.000    0.000    6.000    0.000    1.333 
#    0.000   11.667    0.000    0.000    0.000    0.000 
#    0.000    0.000    0.000    0.000    0.000    0.000 
#
# Total GULP energy -297542.410540 kJ/mol
# GULP energy per Si atom -12397.600439 kJ/mol
# Density = 2.014570 g / cm^3
# Si number density = 20.191657 Si / 1000 Ang^3
#
#
#
# Elastic Constant Matrix: (Units=GPa)
#
#
# Indices 1 2 3 4 5 6 
#
# 1 30.9443 -0.6830 -1.3395 0.0000 0.0000 0.0000
# 2 -0.6830 80.6782 16.9634 0.0000 0.0000 0.0000
# 3 -1.3395 16.9634 84.5060 0.0000 0.0000 0.0000
# 4 0.0000 0.0000 0.0000 30.2485 0.0000 0.0000
# 5 0.0000 0.0000 0.0000 0.0000 29.0346 0.0000
# 6 0.0000 0.0000 0.0000 0.0000 0.0000 22.9690
#
#
#
# Elastic Compliance Matrix: (Units=1/GPa)
#
#
# Indices 1 2 3 4 5 6 
#
# 1 0.032341 0.000173 0.000478 0.000000 0.000000 0.000000
# 2 0.000173 0.012942 -0.002595 0.000000 0.000000 0.000000
# 3 0.000478 -0.002595 0.012362 0.000000 0.000000 0.000000
# 4 0.000000 0.000000 0.000000 0.033059 0.000000 0.000000
# 5 0.000000 0.000000 0.000000 0.000000 0.034442 0.000000
# 6 0.000000 0.000000 0.000000 0.000000 0.000000 0.043537
#
#
# Mechanical properties :
#
#
# Convention : Reuss Voigt Hill
#
# Bulk Modulus (GPa) = 18.60236 25.11227 21.85731
# Shear Modulus (GPa) = 26.24811 28.52958 27.38884
#
# Velocity S-wave (km/s) = 3.60939 3.76299 3.68699
# Velocity P-wave (km/s) = 5.15783 5.59857 5.38271
#
# Compressibility (1/GPa) = 0.05375663
#
# Stress axis : x y z
#
# Youngs Moduli (GPa) = 30.92081 77.26751 80.89300
#
# Poissons Ratio (x) = -0.01339 -0.03865
# Poissons Ratio (y) = -0.00536 0.20993
# Poissons Ratio (z) = -0.01477 0.20052
#
# Static dielectric constant tensor:
#      x y z
#    x 3.216200 0.000000 0.000000 
#    y 0.000000 3.896500 0.000000 
#    z 0.000000 0.000000 3.974990 
# 
# 
# High freq. dielectric constant tensor:
#      x y z
#    x 1.746160 0.000000 0.000000 
#    y 0.000000 1.806650 0.000000 
#    z 0.000000 0.000000 1.804130 
# 
# From -- ./inp_files/2741.got.cif
#   From: 2010.03.12/outbox.cif.g09.slc.cpg/sg19_2_cif.got.tgz:2741.got - 2010.04.10 18:59:41.
