data_PCOD8156450
_publ_section_title
;
Structure prediction by ZEFSAII (Michael W. Deem and Ramdas Pophale) SiO2 
 PCOD8156450
Probable space group: P 21 21 2
;
_chemical_formula_sum "Si O2"
_cell_formula_units_Z 26
_cell_length_a 13.258701
_cell_length_b 12.699656
_cell_length_c 7.262921
_cell_angle_alpha 90.000000
_cell_angle_beta 90.000000
_cell_angle_gamma 90.000000
_cell_volume 1222.937478
_symmetry_space_group_name_H-M "P 21 21 2"
_symmetry_group_IT_number 18
_symmetry_cell_setting 'orthorhombic'
loop_
_space_group_symop_operation_xyz
x,y,z
-x,-y,z
1/2+x,1/2-y,-z
1/2-x,1/2+y,-z
loop_
_atom_site_type_symbol
_atom_site_label
_atom_site_fract_x
_atom_site_fract_y
_atom_site_fract_z
Si Si1 0.002844 0.769122 0.073309
Si Si2 0.778950 0.984504 0.273560
Si Si3 0.702083 0.846979 0.952510
Si Si4 0.648368 0.190192 0.199587
Si Si5 0.532371 0.167429 0.554847
Si Si6 0.845679 0.470837 0.387085
Si Si7 0.000000 0.000000 0.150164
O O1 0.991818 0.757298 0.294750
O O2 0.108275 0.726677 0.993156
O O3 0.917076 0.695874 0.985780
O O4 0.991949 0.893880 0.025934
O O5 0.753089 0.955214 0.484568
O O6 0.704183 0.078466 0.213048
O O7 0.758242 0.886175 0.136566
O O8 0.897439 0.013480 0.269797
O O9 0.770630 0.781987 0.811651
O O10 0.669146 0.945060 0.827309
O O11 0.571667 0.217938 0.365581
O O12 0.431611 0.100589 0.518020
O O13 0.622159 0.092058 0.622952
#
# Coordination Sequence:
#
# PCOD8156450 Si02
#       7
#     4   4   4   4   4   4   2
#     4  11  23  42  62  88 124 159 204 253 301 351
#     4  11  23  42  62  88 124 159 204 253 301 351
#     4  11  22  38  63  89 118 162 203 244 305 361
#     4  11  22  38  63  89 118 162 203 244 305 361
#     4   9  20  39  63  90 114 149 207 256 293 349
#     4   9  20  39  63  90 114 149 207 256 293 349
#     4  12  24  40  58  88 132 162 188 248 306 368
#
# _framework density 21.260286000000001
#
# number of rings (size 3 to 8) (size 9 to 14) (size 15 to 20)
#    0.000    1.538    3.077    1.846    2.154    3.077 
#    0.000    3.077    0.000    0.000    0.000    0.000 
#    0.000    0.000    0.000    0.000    0.000    0.000 
#
# Total GULP energy -322316.195173 kJ/mol
# GULP energy per Si atom -12396.776737 kJ/mol
# Density = 2.121190 g / cm^3
# Si number density = 21.260286 Si / 1000 Ang^3
#
#
#
# Elastic Constant Matrix: (Units=GPa)
#
#
# Indices 1 2 3 4 5 6 
#
# 1 116.9316 15.6581 21.6204 0.0000 0.0000 0.0000
# 2 15.6581 85.0826 22.5089 0.0000 0.0000 0.0000
# 3 21.6204 22.5089 53.5762 0.0000 0.0000 0.0000
# 4 0.0000 0.0000 0.0000 10.3431 0.0000 0.0000
# 5 0.0000 0.0000 0.0000 0.0000 16.4382 0.0000
# 6 0.0000 0.0000 0.0000 0.0000 0.0000 32.2423
#
#
#
# Elastic Compliance Matrix: (Units=1/GPa)
#
#
# Indices 1 2 3 4 5 6 
#
# 1 0.009291 -0.000808 -0.003410 0.000000 0.000000 0.000000
# 2 -0.000808 0.013293 -0.005259 0.000000 0.000000 0.000000
# 3 -0.003410 -0.005259 0.022250 0.000000 0.000000 0.000000
# 4 0.000000 0.000000 0.000000 0.096683 0.000000 0.000000
# 5 0.000000 0.000000 0.000000 0.000000 0.060834 0.000000
# 6 0.000000 0.000000 0.000000 0.000000 0.000000 0.031015
#
#
# Mechanical properties :
#
#
# Convention : Reuss Voigt Hill
#
# Bulk Modulus (GPa) = 38.63785 41.68502 40.16143
# Shear Modulus (GPa) = 19.16104 24.85825 22.00965
#
# Velocity S-wave (km/s) = 3.00536 3.42312 3.22102
# Velocity P-wave (km/s) = 5.50055 5.93912 5.72404
#
# Compressibility (1/GPa) = 0.02588136
#
# Stress axis : x y z
#
# Youngs Moduli (GPa) = 107.63520 75.22643 44.94287
#
# Poissons Ratio (x) = 0.06076 0.15325
# Poissons Ratio (y) = 0.08694 0.23635
# Poissons Ratio (z) = 0.36702 0.39561
#
# Static dielectric constant tensor:
#      x y z
#    x 4.012070 0.000000 0.000000 
#    y 0.000000 3.763820 0.000000 
#    z 0.000000 0.000000 3.558970 
# 
# 
# High freq. dielectric constant tensor:
#      x y z
#    x 1.845290 0.000000 0.000000 
#    y 0.000000 1.829360 0.000000 
#    z 0.000000 0.000000 1.812300 
# 
# From -- ./inp_files/3857.got.cif
#   From: 2010.03.12/outbox.cif.g09.slc.cpg/sg18_2_cif.got.tgz:3857.got - 2010.04.10 18:53:55.
