data_PCOD8156491
_publ_section_title
;
Structure prediction by ZEFSAII (Michael W. Deem and Ramdas Pophale) SiO2 
 PCOD8156491
Probable space group: P 21 21 2
;
_chemical_formula_sum "Si O2"
_cell_formula_units_Z 12
_cell_length_a 9.017645
_cell_length_b 4.885598
_cell_length_c 9.812141
_cell_angle_alpha 90.000000
_cell_angle_beta 90.000000
_cell_angle_gamma 90.000000
_cell_volume 432.289457
_symmetry_space_group_name_H-M "P 21 21 2"
_symmetry_group_IT_number 18
_symmetry_cell_setting 'orthorhombic'
loop_
_space_group_symop_operation_xyz
x,y,z
-x,-y,z
1/2+x,1/2-y,-z
1/2-x,1/2+y,-z
loop_
_atom_site_type_symbol
_atom_site_label
_atom_site_fract_x
_atom_site_fract_y
_atom_site_fract_z
Si Si1 0.825331 0.980639 0.437739
Si Si2 0.162223 0.408027 0.198680
Si Si3 0.899003 0.744565 0.897084
O O1 0.746872 0.781765 0.548979
O O2 0.791322 0.854090 0.287934
O O3 0.000000 0.000000 0.468528
O O4 0.275072 0.665367 0.214285
O O5 0.000000 0.500000 0.247311
O O6 0.175040 0.336133 0.040167
O O7 0.000000 0.500000 0.836084
O O8 0.000000 0.000000 0.932345
#
# Coordination Sequence:
#
# PCOD8156491 Si02
#       3
#     4   4   4
#     4  12  28  52  81 112 150 203 261 316 376 446
#     4  11  24  48  79 111 153 202 251 307 383 455
#     4  11  25  44  74 117 155 193 246 311 379 455
#
# _framework density 27.759174999999999
#
# number of rings (size 3 to 8) (size 9 to 14) (size 15 to 20)
#    0.000    0.667    0.000    8.000    0.000   12.000 
#    0.000   11.667    0.000    2.000    0.000    0.000 
#    0.000    0.000    0.000    0.000    0.000    0.000 
#
# Total GULP energy -148832.491708 kJ/mol
# GULP energy per Si atom -12402.707642 kJ/mol
# Density = 2.769599 g / cm^3
# Si number density = 27.759175 Si / 1000 Ang^3
#
#
#
# Elastic Constant Matrix: (Units=GPa)
#
#
# Indices 1 2 3 4 5 6 
#
# 1 182.9809 47.9116 35.6896 0.0000 0.0000 0.0000
# 2 47.9116 131.3567 -8.4835 0.0000 0.0000 0.0000
# 3 35.6896 -8.4835 34.6187 0.0000 0.0000 0.0000
# 4 0.0000 0.0000 0.0000 48.9714 0.0000 0.0000
# 5 0.0000 0.0000 0.0000 0.0000 6.0673 0.0000
# 6 0.0000 0.0000 0.0000 0.0000 0.0000 58.6325
#
#
#
# Elastic Compliance Matrix: (Units=1/GPa)
#
#
# Indices 1 2 3 4 5 6 
#
# 1 0.008240 -0.003611 -0.009380 0.000000 0.000000 0.000000
# 2 -0.003611 0.009318 0.006006 0.000000 0.000000 0.000000
# 3 -0.009380 0.006006 0.040028 0.000000 0.000000 0.000000
# 4 0.000000 0.000000 0.000000 0.020420 0.000000 0.000000
# 5 0.000000 0.000000 0.000000 0.000000 0.164818 0.000000
# 6 0.000000 0.000000 0.000000 0.000000 0.000000 0.017055
#
#
# Mechanical properties :
#
#
# Convention : Reuss Voigt Hill
#
# Bulk Modulus (GPa) = 22.92708 55.46575 39.19641
# Shear Modulus (GPa) = 17.33773 40.99015 29.16394
#
# Velocity S-wave (km/s) = 2.50186 3.84687 3.24482
# Velocity P-wave (km/s) = 4.07713 6.30521 5.30936
#
# Compressibility (1/GPa) = 0.04361654
#
# Stress axis : x y z
#
# Youngs Moduli (GPa) = 121.35650 107.31908 24.98239
#
# Poissons Ratio (x) = 0.38757 0.23434
# Poissons Ratio (y) = 0.43826 -0.15006
# Poissons Ratio (z) = 1.13833 -0.64461
#
# Static dielectric constant tensor:
#      x y z
#    x 5.229320 0.000000 0.000000 
#    y 0.000000 5.332650 0.000000 
#    z 0.000000 0.000000 4.648220 
# 
# 
# High freq. dielectric constant tensor:
#      x y z
#    x 2.129660 0.000000 0.000000 
#    y 0.000000 2.147950 0.000000 
#    z 0.000000 0.000000 2.117410 
# 
# From -- ./inp_files/4911.got.cif
#   From: 2010.03.12/outbox.cif.g09.slc.cpg/sg18_3_cif.got.tgz:4911.got - 2010.04.10 18:53:55.
