data_PCOD8156750
_publ_section_title
;
Structure prediction by ZEFSAII (Michael W. Deem and Ramdas Pophale) SiO2 
 PCOD8156750
Probable space group: P 21 21 21
;
_chemical_formula_sum "Si O2"
_cell_formula_units_Z 28
_cell_length_a 9.059215
_cell_length_b 10.965936
_cell_length_c 15.092151
_cell_angle_alpha 90.000000
_cell_angle_beta 90.000000
_cell_angle_gamma 90.000000
_cell_volume 1499.296114
_symmetry_space_group_name_H-M "P 21 21 21"
_symmetry_group_IT_number 19
_symmetry_cell_setting 'orthorhombic'
loop_
_space_group_symop_operation_xyz
x,y,z
1/2-x,-y,1/2+z
1/2+x,1/2-y,-z
-x,1/2+y,1/2-z
loop_
_atom_site_type_symbol
_atom_site_label
_atom_site_fract_x
_atom_site_fract_y
_atom_site_fract_z
Si Si1 0.391511 0.119734 0.011419
Si Si2 0.271655 0.878912 0.687149
Si Si3 0.922817 0.580458 0.756996
Si Si4 0.116360 0.755038 0.846263
Si Si5 0.143329 0.494795 0.884565
Si Si6 0.889103 0.505718 0.565379
Si Si7 0.557598 0.866874 0.587643
O O1 0.280062 0.026699 0.962993
O O2 0.429671 0.229956 0.946817
O O3 0.312960 0.170637 0.100035
O O4 0.542765 0.049213 0.033138
O O5 0.231511 0.795994 0.771002
O O6 0.446431 0.870252 0.670762
O O7 0.230308 0.021234 0.707548
O O8 0.924957 0.588526 0.651134
O O9 0.960283 0.712504 0.799835
O O10 0.050330 0.485319 0.792167
O O11 0.184665 0.638466 0.898625
O O12 0.085503 0.863417 0.914512
O O13 0.285682 0.410919 0.876436
O O14 0.002223 0.543336 0.489313
#
# Coordination Sequence:
#
# PCOD8156750 Si02
#       7
#     4   4   4   4   4   4   4
#     4  10  20  35  59  84 115 152 198 240 292 355
#     4   9  18  36  57  81 113 152 194 235 294 349
#     4   8  18  37  57  79 115 157 199 236 297 353
#     4   9  19  37  59  78 118 158 195 242 293 367
#     4   9  20  37  56  83 118 158 187 250 300 349
#     4  10  20  35  61  85 110 158 202 240 299 347
#     4  11  21  35  57  90 117 149 197 253 291 354
#
# _framework density 18.675429999999999
#
# number of rings (size 3 to 8) (size 9 to 14) (size 15 to 20)
#    0.857    1.714    0.000    2.571    0.000    3.429 
#    5.143    0.000    0.000    0.000    0.000    0.000 
#    0.000    0.000    0.000    0.000    0.000    0.000 
#
# Total GULP energy -346977.496437 kJ/mol
# GULP energy per Si atom -12392.053444 kJ/mol
# Density = 1.863292 g / cm^3
# Si number density = 18.675430 Si / 1000 Ang^3
#
#
#
# Elastic Constant Matrix: (Units=GPa)
#
#
# Indices 1 2 3 4 5 6 
#
# 1 106.8683 34.1450 26.8438 0.0000 0.0000 0.0000
# 2 34.1450 101.9113 18.2449 0.0000 0.0000 0.0000
# 3 26.8438 18.2449 50.2464 0.0000 0.0000 0.0000
# 4 0.0000 0.0000 0.0000 32.1369 0.0000 0.0000
# 5 0.0000 0.0000 0.0000 0.0000 27.8387 0.0000
# 6 0.0000 0.0000 0.0000 0.0000 0.0000 19.0977
#
#
#
# Elastic Compliance Matrix: (Units=1/GPa)
#
#
# Indices 1 2 3 4 5 6 
#
# 1 0.011590 -0.002968 -0.005114 0.000000 0.000000 0.000000
# 2 -0.002968 0.011255 -0.002501 0.000000 0.000000 0.000000
# 3 -0.005114 -0.002501 0.023542 0.000000 0.000000 0.000000
# 4 0.000000 0.000000 0.000000 0.031117 0.000000 0.000000
# 5 0.000000 0.000000 0.000000 0.000000 0.035921 0.000000
# 6 0.000000 0.000000 0.000000 0.000000 0.000000 0.052362
#
#
# Mechanical properties :
#
#
# Convention : Reuss Voigt Hill
#
# Bulk Modulus (GPa) = 39.64991 46.38815 43.01903
# Shear Modulus (GPa) = 25.59367 27.80082 26.69725
#
# Velocity S-wave (km/s) = 3.70597 3.86246 3.78503
# Velocity P-wave (km/s) = 6.29201 6.69213 6.49515
#
# Compressibility (1/GPa) = 0.02522074
#
# Stress axis : x y z
#
# Youngs Moduli (GPa) = 86.28018 88.85320 42.47643
#
# Poissons Ratio (x) = 0.26368 0.21724
# Poissons Ratio (y) = 0.25605 0.10624
# Poissons Ratio (z) = 0.44127 0.22224
#
# Static dielectric constant tensor:
#      x y z
#    x 3.348540 0.000000 0.000000 
#    y 0.000000 3.359360 0.000000 
#    z 0.000000 0.000000 3.362000 
# 
# 
# High freq. dielectric constant tensor:
#      x y z
#    x 1.710930 0.000000 0.000000 
#    y 0.000000 1.720090 0.000000 
#    z 0.000000 0.000000 1.715730 
# 
# From -- ./inp_files/4764.got.cif
#   From: 2010.03.12/outbox.cif.g09.slc.cpg/sg19_3_cif.got.tgz:4764.got - 2010.04.10 18:59:41.
