data_PCOD8156868
_publ_section_title
;
Structure prediction by ZEFSAII (Michael W. Deem and Ramdas Pophale) SiO2 
 PCOD8156868
Probable space group: P 21 21 21
;
_chemical_formula_sum "Si O2"
_cell_formula_units_Z 32
_cell_length_a 17.558447
_cell_length_b 13.456317
_cell_length_c 6.536309
_cell_angle_alpha 90.000000
_cell_angle_beta 90.000000
_cell_angle_gamma 90.000000
_cell_volume 1544.346989
_symmetry_space_group_name_H-M "P 21 21 21"
_symmetry_group_IT_number 19
_symmetry_cell_setting 'orthorhombic'
loop_
_space_group_symop_operation_xyz
x,y,z
1/2-x,-y,1/2+z
1/2+x,1/2-y,-z
-x,1/2+y,1/2-z
loop_
_atom_site_type_symbol
_atom_site_label
_atom_site_fract_x
_atom_site_fract_y
_atom_site_fract_z
Si Si1 0.617279 0.781793 0.764930
Si Si2 0.250012 0.752800 0.500017
Si Si3 0.021222 0.902909 0.360371
Si Si4 0.675084 0.341163 0.382482
Si Si5 0.117243 0.281735 0.264970
Si Si6 0.978805 0.597057 0.360485
Si Si7 0.324929 0.158906 0.382513
Si Si8 0.938269 0.499955 0.750017
O O1 0.693695 0.812948 0.641136
O O2 0.582403 0.684437 0.656330
O O3 0.558141 0.872097 0.748671
O O4 0.638938 0.755307 0.999810
O O5 0.306342 0.687083 0.641199
O O6 0.196920 0.818402 0.648818
O O7 0.303083 0.818427 0.351208
O O8 0.009916 0.931592 0.600245
O O9 0.941898 0.872040 0.251177
O O10 0.053204 0.999997 0.249968
O O11 0.638894 0.244805 0.500175
O O12 0.750016 0.378810 0.499986
O O13 0.613811 0.428815 0.389195
O O14 0.082354 0.184428 0.156228
O O15 0.990086 0.568365 0.600366
O O16 0.386267 0.071330 0.389257
#
# Coordination Sequence:
#
# PCOD8156868 Si02
#       8
#     4   4   4   4   4   4   4   4
#     4  10  22  41  62  87 127 163 208 259 317 383
#     4  10  20  40  62  90 120 164 210 256 320 374
#     4  11  23  40  60  91 127 163 210 260 318 384
#     4  10  22  35  61  93 127 165 200 267 323 385
#     4  10  22  41  62  87 127 163 208 259 317 383
#     4  11  23  40  60  91 127 163 210 260 318 384
#     4  10  22  35  61  93 127 165 200 267 323 385
#     4  12  22  36  60  98 126 162 212 262 330 382
#
# _framework density 20.720732000000002
#
# number of rings (size 3 to 8) (size 9 to 14) (size 15 to 20)
#    0.000    1.500    5.000    0.000    1.750    2.000 
#    0.000    0.000   11.000    0.000    0.000    0.000 
#    0.000    0.000    0.000    0.000    0.000    0.000 
#
# Total GULP energy -396648.909982 kJ/mol
# GULP energy per Si atom -12395.278437 kJ/mol
# Density = 2.067357 g / cm^3
# Si number density = 20.720732 Si / 1000 Ang^3
#
#
#
# Elastic Constant Matrix: (Units=GPa)
#
#
# Indices 1 2 3 4 5 6 
#
# 1 86.4952 18.1852 31.2722 0.0000 0.0000 0.0000
# 2 18.1852 48.0998 28.1097 0.0000 0.0000 0.0000
# 3 31.2722 28.1097 128.7501 0.0000 0.0000 0.0000
# 4 0.0000 0.0000 0.0000 30.4895 0.0000 0.0000
# 5 0.0000 0.0000 0.0000 0.0000 36.5680 0.0000
# 6 0.0000 0.0000 0.0000 0.0000 0.0000 19.0190
#
#
#
# Elastic Compliance Matrix: (Units=1/GPa)
#
#
# Indices 1 2 3 4 5 6 
#
# 1 0.013188 -0.003570 -0.002424 0.000000 0.000000 0.000000
# 2 -0.003570 0.024797 -0.004547 0.000000 0.000000 0.000000
# 3 -0.002424 -0.004547 0.009348 0.000000 0.000000 0.000000
# 4 0.000000 0.000000 0.000000 0.032798 0.000000 0.000000
# 5 0.000000 0.000000 0.000000 0.000000 0.027346 0.000000
# 6 0.000000 0.000000 0.000000 0.000000 0.000000 0.052579
#
#
# Mechanical properties :
#
#
# Convention : Reuss Voigt Hill
#
# Bulk Modulus (GPa) = 38.09115 46.49772 42.29444
# Shear Modulus (GPa) = 26.33125 29.60051 27.96588
#
# Velocity S-wave (km/s) = 3.56865 3.78371 3.67775
# Velocity P-wave (km/s) = 5.95007 6.44806 6.20407
#
# Compressibility (1/GPa) = 0.02625282
#
# Stress axis : x y z
#
# Youngs Moduli (GPa) = 75.82544 40.32776 106.96974
#
# Poissons Ratio (x) = 0.14395 0.25929
# Poissons Ratio (y) = 0.27066 0.48637
# Poissons Ratio (z) = 0.18380 0.18336
#
# Static dielectric constant tensor:
#      x y z
#    x 3.772090 0.000000 0.000000 
#    y 0.000000 3.349230 0.000000 
#    z 0.000000 0.000000 3.953560 
# 
# 
# High freq. dielectric constant tensor:
#      x y z
#    x 1.808610 0.000000 0.000000 
#    y 0.000000 1.764720 0.000000 
#    z 0.000000 0.000000 1.828090 
# 
# From -- ./inp_files/1828.got.cif
#   From: 2010.03.12/outbox.cif.g09.slc.cpg/sg19_1_cif.got.tgz:1828.got - 2010.04.10 18:59:41.
