data_PCOD8156230
_publ_section_title
;
Structure prediction by ZEFSAII (Michael W. Deem and Ramdas Pophale) SiO2 
 PCOD8156230
Probable space group: P 21 21 2
;
_chemical_formula_sum "Si O2"
_cell_formula_units_Z 32
_cell_length_a 8.777123
_cell_length_b 26.143977
_cell_length_c 6.995695
_cell_angle_alpha 90.000000
_cell_angle_beta 90.000000
_cell_angle_gamma 90.000000
_cell_volume 1605.294449
_symmetry_space_group_name_H-M "P 21 21 2"
_symmetry_group_IT_number 18
_symmetry_cell_setting 'orthorhombic'
loop_
_space_group_symop_operation_xyz
x,y,z
-x,-y,z
1/2+x,1/2-y,-z
1/2-x,1/2+y,-z
loop_
_atom_site_type_symbol
_atom_site_label
_atom_site_fract_x
_atom_site_fract_y
_atom_site_fract_z
Si Si1 0.951168 0.126847 0.640669
Si Si2 0.623317 0.540977 0.647680
Si Si3 0.217026 0.285167 0.357931
Si Si4 0.709499 0.870128 0.668018
Si Si5 0.450577 0.195015 0.366452
Si Si6 0.676320 0.989911 0.663942
Si Si7 0.533939 0.159892 0.950276
Si Si8 0.732620 0.572556 0.051980
O O1 0.958420 0.084304 0.476595
O O2 0.830403 0.169641 0.578202
O O3 0.118605 0.151450 0.660745
O O4 0.904988 0.102152 0.843573
O O5 0.500000 0.500000 0.716432
O O6 0.754312 0.513550 0.527646
O O7 0.696285 0.567102 0.830961
O O8 0.311284 0.233474 0.333631
O O9 0.088785 0.278177 0.520164
O O10 0.136434 0.297442 0.155922
O O11 0.612189 0.853955 0.482154
O O12 0.716737 0.930922 0.682122
O O13 0.631781 0.845009 0.853902
O O14 0.517114 0.175989 0.167618
O O15 0.500000 0.000000 0.649665
O O16 0.744616 0.017395 0.851099
O O17 0.612050 0.104597 0.928870
#
# Coordination Sequence:
#
# PCOD8156230 Si02
#       8
#     4   4   4   4   4   4   4   4
#     4  10  22  42  60  87 130 161 204 264 310 365
#     4  11  23  37  61  91 119 169 214 253 306 374
#     4  10  23  43  65  90 120 160 199 253 320 365
#     4  11  23  40  61  94 125 165 209 257 309 370
#     4  11  24  42  69  92 125 160 209 258 313 382
#     4  11  23  40  60  86 130 168 209 257 311 361
#     4  10  23  42  62  92 123 159 210 254 308 373
#     4  10  23  38  61  87 126 171 206 261 308 363
#
# _framework density 19.934037
#
# number of rings (size 3 to 8) (size 9 to 14) (size 15 to 20)
#    0.000    1.500    2.500    1.500    5.250    5.500 
#    0.000    2.500    0.000    0.000    0.000    0.000 
#    0.000    0.000    0.000    0.000    0.000    0.000 
#
# Total GULP energy -396952.999067 kJ/mol
# GULP energy per Si atom -12404.781221 kJ/mol
# Density = 1.988867 g / cm^3
# Si number density = 19.934037 Si / 1000 Ang^3
#
#
#
# Elastic Constant Matrix: (Units=GPa)
#
#
# Indices 1 2 3 4 5 6 
#
# 1 107.3516 8.8462 33.9677 0.0000 0.0000 0.0000
# 2 8.8462 76.4573 27.8582 0.0000 0.0000 0.0000
# 3 33.9677 27.8582 127.8101 0.0000 0.0000 0.0000
# 4 0.0000 0.0000 0.0000 22.1293 0.0000 0.0000
# 5 0.0000 0.0000 0.0000 0.0000 20.1041 0.0000
# 6 0.0000 0.0000 0.0000 0.0000 0.0000 32.4325
#
#
#
# Elastic Compliance Matrix: (Units=1/GPa)
#
#
# Indices 1 2 3 4 5 6 
#
# 1 0.010174 -0.000208 -0.002658 0.000000 0.000000 0.000000
# 2 -0.000208 0.014212 -0.003042 0.000000 0.000000 0.000000
# 3 -0.002658 -0.003042 0.009194 0.000000 0.000000 0.000000
# 4 0.000000 0.000000 0.000000 0.045189 0.000000 0.000000
# 5 0.000000 0.000000 0.000000 0.000000 0.049741 0.000000
# 6 0.000000 0.000000 0.000000 0.000000 0.000000 0.030833
#
#
# Mechanical properties :
#
#
# Convention : Reuss Voigt Hill
#
# Bulk Modulus (GPa) = 45.95414 50.32925 48.14169
# Shear Modulus (GPa) = 28.02469 30.99632 29.51051
#
# Velocity S-wave (km/s) = 3.75356 3.94756 3.85178
# Velocity P-wave (km/s) = 6.47216 6.78825 6.63208
#
# Compressibility (1/GPa) = 0.02176083
#
# Stress axis : x y z
#
# Youngs Moduli (GPa) = 98.29453 70.36405 108.76995
#
# Poissons Ratio (x) = 0.01467 0.28915
# Poissons Ratio (y) = 0.02049 0.33091
# Poissons Ratio (z) = 0.26130 0.21407
#
# Static dielectric constant tensor:
#      x y z
#    x 3.778650 0.000000 0.000000 
#    y 0.000000 3.603080 0.000000 
#    z 0.000000 0.000000 3.513540 
# 
# 
# High freq. dielectric constant tensor:
#      x y z
#    x 1.793090 0.000000 0.000000 
#    y 0.000000 1.777970 0.000000 
#    z 0.000000 0.000000 1.774610 
# 
# From -- ./inp_files/789.got.cif
#   From: 2010.03.12/outbox.cif.g09.slc.cpg/sg18_1_cif.got.tgz:789.got - 2010.04.10 18:53:55.
