data_PCOD8156428
_publ_section_title
;
Structure prediction by ZEFSAII (Michael W. Deem and Ramdas Pophale) SiO2 
 PCOD8156428
Probable space group: P 21 21 2
;
_chemical_formula_sum "Si O2"
_cell_formula_units_Z 30
_cell_length_a 14.730986
_cell_length_b 11.675053
_cell_length_c 8.598632
_cell_angle_alpha 90.000000
_cell_angle_beta 90.000000
_cell_angle_gamma 90.000000
_cell_volume 1478.836088
_symmetry_space_group_name_H-M "P 21 21 2"
_symmetry_group_IT_number 18
_symmetry_cell_setting 'orthorhombic'
loop_
_space_group_symop_operation_xyz
x,y,z
-x,-y,z
1/2+x,1/2-y,-z
1/2-x,1/2+y,-z
loop_
_atom_site_type_symbol
_atom_site_label
_atom_site_fract_x
_atom_site_fract_y
_atom_site_fract_z
Si Si1 0.592569 0.939851 0.666321
Si Si2 0.823804 0.068280 0.306835
Si Si3 0.044845 0.620417 0.677357
Si Si4 0.231462 0.657792 0.812681
Si Si5 0.500000 0.500000 0.548638
Si Si6 0.291246 0.850140 0.592814
Si Si7 0.598770 0.299382 0.376199
Si Si8 0.228154 0.709827 0.162926
O O1 0.579562 0.877024 0.500756
O O2 0.632750 0.847554 0.785732
O O3 0.500000 0.000000 0.726263
O O4 0.670570 0.033916 0.661421
O O5 0.781844 0.118694 0.463708
O O6 0.793105 0.153732 0.168458
O O7 0.931776 0.067546 0.336779
O O8 0.791593 0.940422 0.267476
O O9 0.126332 0.627298 0.798464
O O10 0.000000 0.500000 0.713431
O O11 0.976695 0.724967 0.715185
O O12 0.245001 0.778866 0.729201
O O13 0.257290 0.671313 0.992030
O O14 0.557217 0.417835 0.435501
O O15 0.374379 0.777636 0.523559
O O16 0.686960 0.325318 0.271597
#
# Coordination Sequence:
#
# PCOD8156428 Si02
#       8
#     4   4   4   4   2   4   4   4
#     4  11  21  40  70  98 126 167 228 282 318 386
#     4  11  24  43  69  94 130 174 224 277 322 395
#     4  11  20  41  71  97 121 162 233 281 320 378
#     4  12  25  44  64  97 136 181 209 268 345 405
#     4  12  22  40  72  96 126 168 238 272 328 374
#     4  11  21  41  70  91 125 171 227 270 322 380
#     4  11  21  42  66  97 128 171 221 286 318 392
#     4  11  27  43  62  98 145 174 216 262 354 405
#
# _framework density 20.286223
#
# number of rings (size 3 to 8) (size 9 to 14) (size 15 to 20)
#    0.000    0.800    5.333    4.800    1.867    0.533 
#    4.800    0.000    0.000    0.000    0.000    0.000 
#    0.000    0.000    0.000    0.000    0.000    0.000 
#
# Total GULP energy -372070.261446 kJ/mol
# GULP energy per Si atom -12402.342048 kJ/mol
# Density = 2.024005 g / cm^3
# Si number density = 20.286223 Si / 1000 Ang^3
#
#
#
# Elastic Constant Matrix: (Units=GPa)
#
#
# Indices 1 2 3 4 5 6 
#
# 1 110.3136 34.7778 32.7568 0.0000 0.0000 0.0000
# 2 34.7778 75.5894 27.8340 0.0000 0.0000 0.0000
# 3 32.7568 27.8340 72.5030 0.0000 0.0000 0.0000
# 4 0.0000 0.0000 0.0000 9.4777 0.0000 0.0000
# 5 0.0000 0.0000 0.0000 0.0000 21.1200 0.0000
# 6 0.0000 0.0000 0.0000 0.0000 0.0000 47.9451
#
#
#
# Elastic Compliance Matrix: (Units=1/GPa)
#
#
# Indices 1 2 3 4 5 6 
#
# 1 0.011374 -0.003891 -0.003645 0.000000 0.000000 0.000000
# 2 -0.003891 0.016738 -0.004668 0.000000 0.000000 0.000000
# 3 -0.003645 -0.004668 0.017231 0.000000 0.000000 0.000000
# 4 0.000000 0.000000 0.000000 0.105511 0.000000 0.000000
# 5 0.000000 0.000000 0.000000 0.000000 0.047349 0.000000
# 6 0.000000 0.000000 0.000000 0.000000 0.000000 0.020857
#
#
# Mechanical properties :
#
#
# Convention : Reuss Voigt Hill
#
# Bulk Modulus (GPa) = 47.76462 49.90480 48.83471
# Shear Modulus (GPa) = 19.96428 26.57771 23.27100
#
# Velocity S-wave (km/s) = 3.14049 3.62351 3.39061
# Velocity P-wave (km/s) = 6.06190 6.49308 6.28120
#
# Compressibility (1/GPa) = 0.02093600
#
# Stress axis : x y z
#
# Youngs Moduli (GPa) = 87.91906 59.74285 58.03349
#
# Poissons Ratio (x) = 0.23245 0.21154
# Poissons Ratio (y) = 0.34208 0.27090
# Poissons Ratio (z) = 0.32047 0.27888
#
# Static dielectric constant tensor:
#      x y z
#    x 3.858130 0.000000 0.000000 
#    y 0.000000 3.949780 0.000000 
#    z 0.000000 0.000000 3.347760 
# 
# 
# High freq. dielectric constant tensor:
#      x y z
#    x 1.806930 0.000000 0.000000 
#    y 0.000000 1.808990 0.000000 
#    z 0.000000 0.000000 1.754930 
# 
# From -- ./inp_files/4287.got.cif
#   From: 2010.03.12/outbox.cif.g09.slc.cpg/sg18_3_cif.got.tgz:4287.got - 2010.04.10 18:53:55.
