data_PCOD8156807
_publ_section_title
;
Structure prediction by ZEFSAII (Michael W. Deem and Ramdas Pophale) SiO2 
 PCOD8156807
Probable space group: P 21 21 21
;
_chemical_formula_sum "Si O2"
_cell_formula_units_Z 24
_cell_length_a 6.316163
_cell_length_b 17.837642
_cell_length_c 10.101267
_cell_angle_alpha 90.000000
_cell_angle_beta 90.000000
_cell_angle_gamma 90.000000
_cell_volume 1138.063837
_symmetry_space_group_name_H-M "P 21 21 21"
_symmetry_group_IT_number 19
_symmetry_cell_setting 'orthorhombic'
loop_
_space_group_symop_operation_xyz
x,y,z
1/2-x,-y,1/2+z
1/2+x,1/2-y,-z
-x,1/2+y,1/2-z
loop_
_atom_site_type_symbol
_atom_site_label
_atom_site_fract_x
_atom_site_fract_y
_atom_site_fract_z
Si Si1 0.869243 0.461869 0.787901
Si Si2 0.610356 0.701175 0.189232
Si Si3 0.387503 0.061558 0.915514
Si Si4 0.455707 0.680819 0.902918
Si Si5 0.661136 0.321338 0.218046
Si Si6 0.279901 0.434664 0.245178
O O1 0.818517 0.376687 0.750953
O O2 0.710992 0.512395 0.703003
O O3 0.118790 0.482718 0.768620
O O4 0.822675 0.472982 0.944204
O O5 0.814909 0.751939 0.158065
O O6 0.458087 0.741850 0.298457
O O7 0.467390 0.687503 0.059938
O O8 0.303443 0.148449 0.904720
O O9 0.640625 0.062845 0.889622
O O10 0.693152 0.685067 0.847924
O O11 0.360136 0.598847 0.865671
O O12 0.482770 0.382952 0.236249
#
# Coordination Sequence:
#
# PCOD8156807 Si02
#       6
#     4   4   4   4   4   4
#     4  11  26  40  69 100 130 174 223 273 334 405
#     4  11  22  37  65  99 126 177 224 267 331 395
#     4  10  24  45  63  96 133 173 218 277 335 389
#     4  10  20  37  66  92 131 171 220 275 323 387
#     4   9  20  43  61  90 130 170 213 271 323 386
#     4   9  22  40  66  89 132 171 214 275 324 384
#
# _framework density 21.088450999999999
#
# number of rings (size 3 to 8) (size 9 to 14) (size 15 to 20)
#    0.000    2.000    1.667    0.000    9.333    2.667 
#    9.000    0.000    0.000    0.000    0.000    0.000 
#    0.000    0.000    0.000    0.000    0.000    0.000 
#
# Total GULP energy -297329.561813 kJ/mol
# GULP energy per Si atom -12388.731742 kJ/mol
# Density = 2.104045 g / cm^3
# Si number density = 21.088451 Si / 1000 Ang^3
#
#
#
# Elastic Constant Matrix: (Units=GPa)
#
#
# Indices 1 2 3 4 5 6 
#
# 1 102.8616 30.9693 40.5006 0.0000 0.0000 0.0000
# 2 30.9693 86.7716 35.1920 0.0000 0.0000 0.0000
# 3 40.5006 35.1920 101.8058 0.0000 0.0000 0.0000
# 4 0.0000 0.0000 0.0000 29.7376 0.0000 0.0000
# 5 0.0000 0.0000 0.0000 0.0000 21.7889 0.0000
# 6 0.0000 0.0000 0.0000 0.0000 0.0000 38.4681
#
#
#
# Elastic Compliance Matrix: (Units=1/GPa)
#
#
# Indices 1 2 3 4 5 6 
#
# 1 0.012064 -0.002744 -0.003851 0.000000 0.000000 0.000000
# 2 -0.002744 0.014028 -0.003757 0.000000 0.000000 0.000000
# 3 -0.003851 -0.003757 0.012653 0.000000 0.000000 0.000000
# 4 0.000000 0.000000 0.000000 0.033627 0.000000 0.000000
# 5 0.000000 0.000000 0.000000 0.000000 0.045895 0.000000
# 6 0.000000 0.000000 0.000000 0.000000 0.000000 0.025996
#
#
# Mechanical properties :
#
#
# Convention : Reuss Voigt Hill
#
# Bulk Modulus (GPa) = 55.43000 56.08476 55.75738
# Shear Modulus (GPa) = 29.24293 30.31740 29.78016
#
# Velocity S-wave (km/s) = 3.72785 3.79572 3.76194
# Velocity P-wave (km/s) = 6.69857 6.77221 6.73549
#
# Compressibility (1/GPa) = 0.01804077
#
# Stress axis : x y z
#
# Youngs Moduli (GPa) = 82.88997 71.28720 79.02982
#
# Poissons Ratio (x) = 0.19561 0.30433
# Poissons Ratio (y) = 0.22745 0.29695
# Poissons Ratio (z) = 0.31920 0.26786
#
# Static dielectric constant tensor:
#      x y z
#    x 4.176200 0.000000 0.000000 
#    y 0.000000 4.232500 0.000000 
#    z 0.000000 0.000000 3.498640 
# 
# 
# High freq. dielectric constant tensor:
#      x y z
#    x 1.841230 0.000000 0.000000 
#    y 0.000000 1.827970 0.000000 
#    z 0.000000 0.000000 1.796140 
# 
# From -- ./inp_files/420.got.cif
#   From: 2010.03.12/outbox.cif.g09.slc.cpg/sg19_1_cif.got.tgz:420.got - 2010.04.10 18:59:41.
