data_PCOD8156267
_publ_section_title
;
Structure prediction by ZEFSAII (Michael W. Deem and Ramdas Pophale) SiO2 
 PCOD8156267
Probable space group: P 21 21 2
;
_chemical_formula_sum "Si O2"
_cell_formula_units_Z 24
_cell_length_a 16.773522
_cell_length_b 10.817002
_cell_length_c 5.473307
_cell_angle_alpha 90.000000
_cell_angle_beta 90.000000
_cell_angle_gamma 90.000000
_cell_volume 993.072558
_symmetry_space_group_name_H-M "P 21 21 2"
_symmetry_group_IT_number 18
_symmetry_cell_setting 'orthorhombic'
loop_
_space_group_symop_operation_xyz
x,y,z
-x,-y,z
1/2+x,1/2-y,-z
1/2-x,1/2+y,-z
loop_
_atom_site_type_symbol
_atom_site_label
_atom_site_fract_x
_atom_site_fract_y
_atom_site_fract_z
Si Si1 0.564742 0.221863 0.412211
Si Si2 0.150931 0.910013 0.284944
Si Si3 0.100598 0.144430 0.075937
Si Si4 0.198158 0.453098 0.446686
Si Si5 0.107511 0.680460 0.541287
Si Si6 0.736350 0.746409 0.090276
O O1 0.570113 0.287575 0.678715
O O2 0.639534 0.129150 0.378429
O O3 0.483274 0.141530 0.400603
O O4 0.559124 0.314715 0.177581
O O5 0.217926 0.991686 0.425081
O O6 0.096960 0.823553 0.456719
O O7 0.092381 0.995824 0.122587
O O8 0.198863 0.801834 0.155082
O O9 0.194964 0.156713 0.030200
O O10 0.148971 0.576336 0.365673
O O11 0.222422 0.371570 0.217016
O O12 0.166162 0.681678 0.771653
#
# Coordination Sequence:
#
# PCOD8156267 Si02
#       6
#     4   4   4   4   4   4
#     4  11  26  48  69 106 143 187 224 302 358 420
#     4  11  24  41  69 101 133 194 234 294 340 428
#     4  11  25  47  71  97 145 180 239 282 356 424
#     4  10  22  43  71 102 138 182 242 294 354 416
#     4  11  25  43  68 103 144 184 239 292 366 424
#     4  10  23  40  70 102 128 188 236 291 342 423
#
# _framework density 24.167418999999999
#
# number of rings (size 3 to 8) (size 9 to 14) (size 15 to 20)
#    0.000    1.333    3.333    0.500    9.333    0.667 
#    0.000    1.667    0.000    0.000    0.000    0.000 
#    0.000    0.000    0.000    0.000    0.000    0.000 
#
# Total GULP energy -297313.547683 kJ/mol
# GULP energy per Si atom -12388.064487 kJ/mol
# Density = 2.411241 g / cm^3
# Si number density = 24.167419 Si / 1000 Ang^3
#
#
#
# Elastic Constant Matrix: (Units=GPa)
#
#
# Indices 1 2 3 4 5 6 
#
# 1 87.9893 -1.7228 0.7230 0.0000 0.0000 0.0000
# 2 -1.7228 74.0176 -4.9546 0.0000 0.0000 0.0000
# 3 0.7230 -4.9546 77.9734 0.0000 0.0000 0.0000
# 4 0.0000 0.0000 0.0000 27.0283 0.0000 0.0000
# 5 0.0000 0.0000 0.0000 0.0000 13.2187 0.0000
# 6 0.0000 0.0000 0.0000 0.0000 0.0000 22.0450
#
#
#
# Elastic Compliance Matrix: (Units=1/GPa)
#
#
# Indices 1 2 3 4 5 6 
#
# 1 0.011371 0.000259 -0.000089 0.000000 0.000000 0.000000
# 2 0.000259 0.013574 0.000860 0.000000 0.000000 0.000000
# 3 -0.000089 0.000860 0.012880 0.000000 0.000000 0.000000
# 4 0.000000 0.000000 0.000000 0.036998 0.000000 0.000000
# 5 0.000000 0.000000 0.000000 0.000000 0.075650 0.000000
# 6 0.000000 0.000000 0.000000 0.000000 0.000000 0.045362
#
#
# Mechanical properties :
#
#
# Convention : Reuss Voigt Hill
#
# Bulk Modulus (GPa) = 25.07228 25.34130 25.20679
# Shear Modulus (GPa) = 24.14636 28.85406 26.50021
#
# Velocity S-wave (km/s) = 3.16433 3.45907 3.31498
# Velocity P-wave (km/s) = 4.87315 5.14413 5.01047
#
# Compressibility (1/GPa) = 0.03988469
#
# Stress axis : x y z
#
# Youngs Moduli (GPa) = 87.94449 73.67080 77.63760
#
# Poissons Ratio (x) = -0.01906 0.00691
# Poissons Ratio (y) = -0.02275 -0.06678
# Poissons Ratio (z) = 0.00783 -0.06336
#
# Static dielectric constant tensor:
#      x y z
#    x 4.528150 0.000000 0.000000 
#    y 0.000000 4.310670 0.000000 
#    z 0.000000 0.000000 4.029220 
# 
# 
# High freq. dielectric constant tensor:
#      x y z
#    x 1.969920 0.000000 0.000000 
#    y 0.000000 1.959250 0.000000 
#    z 0.000000 0.000000 1.935390 
# 
# From -- ./inp_files/1113.got.cif
#   From: 2010.03.12/outbox.cif.g09.slc.cpg/sg18_1_cif.got.tgz:1113.got - 2010.04.10 18:53:55.
