data_PCOD8156155
_publ_section_title
;
Structure prediction by ZEFSAII (Michael W. Deem and Ramdas Pophale) SiO2 
 PCOD8156155
Probable space group: P 21 21 2
;
_chemical_formula_sum "Si O2"
_cell_formula_units_Z 22
_cell_length_a 5.429214
_cell_length_b 14.697487
_cell_length_c 12.179330
_cell_angle_alpha 90.000000
_cell_angle_beta 90.000000
_cell_angle_gamma 90.000000
_cell_volume 971.859407
_symmetry_space_group_name_H-M "P 21 21 2"
_symmetry_group_IT_number 18
_symmetry_cell_setting 'orthorhombic'
loop_
_space_group_symop_operation_xyz
x,y,z
-x,-y,z
1/2+x,1/2-y,-z
1/2-x,1/2+y,-z
loop_
_atom_site_type_symbol
_atom_site_label
_atom_site_fract_x
_atom_site_fract_y
_atom_site_fract_z
Si Si1 0.752480 0.055343 0.207865
Si Si2 0.076544 0.299043 0.640243
Si Si3 0.134962 0.628667 0.430186
Si Si4 0.759841 0.161699 0.749656
Si Si5 0.749382 0.055838 0.956203
Si Si6 0.500000 0.500000 0.357892
O O1 0.764139 0.146882 0.281014
O O2 0.500000 0.000000 0.232809
O O3 0.755724 0.087809 0.081880
O O4 0.000000 0.000000 0.236146
O O5 0.000774 0.369918 0.546299
O O6 0.853815 0.262818 0.718629
O O7 0.183369 0.214856 0.571870
O O8 0.267970 0.529445 0.432880
O O9 0.979811 0.636684 0.319198
O O10 0.726192 0.146927 0.880438
O O11 0.964792 0.087841 0.717202
O O12 0.500000 0.000000 0.931542
O O13 0.000000 0.000000 0.929561
#
# Coordination Sequence:
#
# PCOD8156155 Si02
#       6
#     4   4   4   4   4   2
#     4  10  25  48  71  98 138 185 233 281 350 420
#     4  11  25  44  63  99 140 184 225 294 344 415
#     4  11  23  43  64  96 142 176 232 290 347 415
#     4  11  22  41  67  98 135 175 233 284 356 410
#     4  10  21  43  70 100 134 175 232 294 342 415
#     4  10  22  38  68 100 124 182 228 278 354 418
#
# _framework density 22.637018999999999
#
# number of rings (size 3 to 8) (size 9 to 14) (size 15 to 20)
#    0.000    1.455    2.727    1.636    5.091    1.455 
#    6.545    0.000    0.000    0.000    0.000    0.000 
#    0.000    0.000    0.000    0.000    0.000    0.000 
#
# Total GULP energy -272670.010901 kJ/mol
# GULP energy per Si atom -12394.091405 kJ/mol
# Density = 2.258550 g / cm^3
# Si number density = 22.637019 Si / 1000 Ang^3
#
#
#
# Elastic Constant Matrix: (Units=GPa)
#
#
# Indices 1 2 3 4 5 6 
#
# 1 124.4250 21.9979 32.0019 0.0000 0.0000 0.0000
# 2 21.9979 68.7363 49.3410 0.0000 0.0000 0.0000
# 3 32.0019 49.3410 128.6636 0.0000 0.0000 0.0000
# 4 0.0000 0.0000 0.0000 41.5272 0.0000 0.0000
# 5 0.0000 0.0000 0.0000 0.0000 23.5527 0.0000
# 6 0.0000 0.0000 0.0000 0.0000 0.0000 40.1302
#
#
#
# Elastic Compliance Matrix: (Units=1/GPa)
#
#
# Indices 1 2 3 4 5 6 
#
# 1 0.008729 -0.001704 -0.001518 0.000000 0.000000 0.000000
# 2 -0.001704 0.020407 -0.007402 0.000000 0.000000 0.000000
# 3 -0.001518 -0.007402 0.010988 0.000000 0.000000 0.000000
# 4 0.000000 0.000000 0.000000 0.024081 0.000000 0.000000
# 5 0.000000 0.000000 0.000000 0.000000 0.042458 0.000000
# 6 0.000000 0.000000 0.000000 0.000000 0.000000 0.024919
#
#
# Mechanical properties :
#
#
# Convention : Reuss Voigt Hill
#
# Bulk Modulus (GPa) = 52.97563 58.72296 55.84930
# Shear Modulus (GPa) = 31.42266 35.60763 33.51514
#
# Velocity S-wave (km/s) = 3.72978 3.97039 3.85196
# Velocity P-wave (km/s) = 6.48084 6.85683 6.67148
#
# Compressibility (1/GPa) = 0.01887660
#
# Stress axis : x y z
#
# Youngs Moduli (GPa) = 114.56654 49.00248 91.00635
#
# Poissons Ratio (x) = 0.08351 0.13810
# Poissons Ratio (y) = 0.19523 0.67363
# Poissons Ratio (z) = 0.17386 0.36272
#
# Static dielectric constant tensor:
#      x y z
#    x 4.300520 0.000000 0.000000 
#    y 0.000000 4.117020 0.000000 
#    z 0.000000 0.000000 4.129480 
# 
# 
# High freq. dielectric constant tensor:
#      x y z
#    x 1.900820 0.000000 0.000000 
#    y 0.000000 1.876680 0.000000 
#    z 0.000000 0.000000 1.898040 
# 
# From -- ./inp_files/5102.got.cif
#   From: 2010.03.12/outbox.cif.g09.slc.cpg/sg18_3_cif.got.tgz:5102.got - 2010.04.10 18:53:55.
