data_PCOD8156124
_publ_section_title
;
Structure prediction by ZEFSAII (Michael W. Deem and Ramdas Pophale) SiO2 
 PCOD8156124
Probable space group: P 21 21 2
;
_chemical_formula_sum "Si O2"
_cell_formula_units_Z 28
_cell_length_a 8.600734
_cell_length_b 17.694063
_cell_length_c 8.842900
_cell_angle_alpha 90.000000
_cell_angle_beta 90.000000
_cell_angle_gamma 90.000000
_cell_volume 1345.729582
_symmetry_space_group_name_H-M "P 21 21 2"
_symmetry_group_IT_number 18
_symmetry_cell_setting 'orthorhombic'
loop_
_space_group_symop_operation_xyz
x,y,z
-x,-y,z
1/2+x,1/2-y,-z
1/2-x,1/2+y,-z
loop_
_atom_site_type_symbol
_atom_site_label
_atom_site_fract_x
_atom_site_fract_y
_atom_site_fract_z
Si Si1 0.012013 0.808158 0.433328
Si Si2 0.810999 0.038745 0.439215
Si Si3 0.207071 0.109483 0.254185
Si Si4 0.782284 0.905017 0.904209
Si Si5 0.500000 0.500000 0.284545
Si Si6 0.434864 0.891247 0.252065
Si Si7 0.500000 0.000000 0.990646
Si Si8 0.704773 0.266410 0.299641
O O1 0.084998 0.889493 0.402114
O O2 0.138879 0.743554 0.400651
O O3 0.871737 0.812315 0.311584
O O4 0.937223 0.797642 0.598633
O O5 0.635147 0.063396 0.397163
O O6 0.847641 0.021733 0.615327
O O7 0.856580 0.965000 0.341687
O O8 0.387117 0.120883 0.290717
O O9 0.173866 0.101836 0.078255
O O10 0.746678 0.823344 0.833181
O O11 0.629999 0.959123 0.886645
O O12 0.937578 0.934013 0.822342
O O13 0.411839 0.939786 0.098960
O O14 0.348009 0.812054 0.224271
#
# Coordination Sequence:
#
# PCOD8156124 Si02
#       8
#     4   4   4   4   2   4   2   4
#     4  11  23  41  65  94 134 181 225 273 354 413
#     4  11  19  40  65  94 126 177 231 277 331 414
#     4  11  21  40  70  95 128 178 233 283 339 419
#     4  11  25  44  64 100 142 173 234 290 349 414
#     4  12  24  38  64  98 136 172 226 284 340 398
#     4  10  21  40  74  92 129 179 232 277 346 417
#     4  10  22  48  66 102 134 184 232 282 354 426
#     4  11  24  43  64 100 139 177 227 292 347 419
#
# _framework density 20.806559
#
# number of rings (size 3 to 8) (size 9 to 14) (size 15 to 20)
#    0.000    1.143    5.714    0.857    2.000    2.286 
#   10.286    0.000    0.000    0.000    0.000    0.000 
#    0.000    0.000    0.000    0.000    0.000    0.000 
#
# Total GULP energy -346945.170083 kJ/mol
# GULP energy per Si atom -12390.898932 kJ/mol
# Density = 2.075920 g / cm^3
# Si number density = 20.806559 Si / 1000 Ang^3
#
#
#
# Elastic Constant Matrix: (Units=GPa)
#
#
# Indices 1 2 3 4 5 6 
#
# 1 100.7354 45.3070 51.7430 0.0000 0.0000 0.0000
# 2 45.3070 103.4685 45.1864 0.0000 0.0000 0.0000
# 3 51.7430 45.1864 116.0291 0.0000 0.0000 0.0000
# 4 0.0000 0.0000 0.0000 28.5273 0.0000 0.0000
# 5 0.0000 0.0000 0.0000 0.0000 37.9558 0.0000
# 6 0.0000 0.0000 0.0000 0.0000 0.0000 31.2219
#
#
#
# Elastic Compliance Matrix: (Units=1/GPa)
#
#
# Indices 1 2 3 4 5 6 
#
# 1 0.014227 -0.004168 -0.004721 0.000000 0.000000 0.000000
# 2 -0.004168 0.012866 -0.003152 0.000000 0.000000 0.000000
# 3 -0.004721 -0.003152 0.011951 0.000000 0.000000 0.000000
# 4 0.000000 0.000000 0.000000 0.035054 0.000000 0.000000
# 5 0.000000 0.000000 0.000000 0.000000 0.026346 0.000000
# 6 0.000000 0.000000 0.000000 0.000000 0.000000 0.032029
#
#
# Mechanical properties :
#
#
# Convention : Reuss Voigt Hill
#
# Bulk Modulus (GPa) = 66.83458 67.18956 67.01207
# Shear Modulus (GPa) = 30.95146 31.40743 31.17944
#
# Velocity S-wave (km/s) = 3.86110 3.88944 3.87530
# Velocity P-wave (km/s) = 7.21589 7.24796 7.23194
#
# Compressibility (1/GPa) = 0.01496231
#
# Stress axis : x y z
#
# Youngs Moduli (GPa) = 70.29108 77.72231 83.67152
#
# Poissons Ratio (x) = 0.32392 0.39503
# Poissons Ratio (y) = 0.29295 0.26374
# Poissons Ratio (z) = 0.33186 0.24499
#
# Static dielectric constant tensor:
#      x y z
#    x 4.073740 0.000000 0.000000 
#    y 0.000000 3.904290 0.000000 
#    z 0.000000 0.000000 3.600650 
# 
# 
# High freq. dielectric constant tensor:
#      x y z
#    x 1.825650 0.000000 0.000000 
#    y 0.000000 1.817940 0.000000 
#    z 0.000000 0.000000 1.796390 
# 
# From -- ./inp_files/3416.got.cif
#   From: 2010.03.12/outbox.cif.g09.slc.cpg/sg18_2_cif.got.tgz:3416.got - 2010.04.10 18:53:55.
