data_PCOD8156584
_publ_section_title
;
Structure prediction by ZEFSAII (Michael W. Deem and Ramdas Pophale) SiO2 
 PCOD8156584
Probable space group: P 21 21 21
;
_chemical_formula_sum "Si O2"
_cell_formula_units_Z 28
_cell_length_a 9.151429
_cell_length_b 18.532880
_cell_length_c 8.644515
_cell_angle_alpha 90.000000
_cell_angle_beta 90.000000
_cell_angle_gamma 90.000000
_cell_volume 1466.129933
_symmetry_space_group_name_H-M "P 21 21 21"
_symmetry_group_IT_number 19
_symmetry_cell_setting 'orthorhombic'
loop_
_space_group_symop_operation_xyz
x,y,z
1/2-x,-y,1/2+z
1/2+x,1/2-y,-z
-x,1/2+y,1/2-z
loop_
_atom_site_type_symbol
_atom_site_label
_atom_site_fract_x
_atom_site_fract_y
_atom_site_fract_z
Si Si1 0.810410 0.904449 0.086528
Si Si2 0.081434 0.788834 0.540103
Si Si3 0.119883 0.956224 0.081509
Si Si4 0.501274 0.124479 0.325807
Si Si5 0.791507 0.834380 0.402421
Si Si6 0.091108 0.470662 0.943627
Si Si7 0.200872 0.931281 0.413949
O O1 0.778350 0.846537 0.219536
O O2 0.947964 0.956800 0.132277
O O3 0.666511 0.951923 0.059903
O O4 0.853601 0.859879 0.930595
O O5 0.152583 0.710265 0.536936
O O6 0.191374 0.848733 0.470707
O O7 0.040335 0.808487 0.717944
O O8 0.936749 0.787522 0.435613
O O9 0.222185 0.935012 0.227622
O O10 0.132821 0.896264 0.942666
O O11 0.166404 0.032958 0.008836
O O12 0.538571 0.053072 0.226071
O O13 0.796315 0.910570 0.490872
O O14 0.948384 0.475078 0.051544
#
# Coordination Sequence:
#
# PCOD8156584 Si02
#       7
#     4   4   4   4   4   4   4
#     4  10  19  36  59  81 114 144 187 242 285 329
#     4  10  20  39  58  79 117 154 193 227 282 349
#     4  10  19  34  59  81 118 149 183 239 296 326
#     4   8  18  33  56  80 114 145 186 234 285 330
#     4  10  21  39  58  82 115 155 187 236 284 345
#     4  10  18  34  59  86 114 141 191 239 289 335
#     4  10  19  35  55  85 116 148 187 239 287 340
#
# _framework density 19.097897
#
# number of rings (size 3 to 8) (size 9 to 14) (size 15 to 20)
#    0.857    1.714    2.857    2.571    0.000    1.143 
#    2.571    5.714    3.143    0.000    0.000    0.000 
#    0.000    0.000    0.000    0.000    0.000    0.000 
#
# Total GULP energy -346913.083844 kJ/mol
# GULP energy per Si atom -12389.752994 kJ/mol
# Density = 1.905443 g / cm^3
# Si number density = 19.097897 Si / 1000 Ang^3
#
#
#
# Elastic Constant Matrix: (Units=GPa)
#
#
# Indices 1 2 3 4 5 6 
#
# 1 40.4510 27.0101 1.2694 0.0000 0.0000 0.0000
# 2 27.0101 52.1656 21.1631 0.0000 0.0000 0.0000
# 3 1.2694 21.1631 106.8224 0.0000 0.0000 0.0000
# 4 0.0000 0.0000 0.0000 20.9279 0.0000 0.0000
# 5 0.0000 0.0000 0.0000 0.0000 22.2266 0.0000
# 6 0.0000 0.0000 0.0000 0.0000 0.0000 35.1410
#
#
#
# Elastic Compliance Matrix: (Units=1/GPa)
#
#
# Indices 1 2 3 4 5 6 
#
# 1 0.039200 -0.021865 0.003866 0.000000 0.000000 0.000000
# 2 -0.021865 0.033041 -0.006286 0.000000 0.000000 0.000000
# 3 0.003866 -0.006286 0.010561 0.000000 0.000000 0.000000
# 4 0.000000 0.000000 0.000000 0.047783 0.000000 0.000000
# 5 0.000000 0.000000 0.000000 0.000000 0.044991 0.000000
# 6 0.000000 0.000000 0.000000 0.000000 0.000000 0.028457
#
#
# Mechanical properties :
#
#
# Convention : Reuss Voigt Hill
#
# Bulk Modulus (GPa) = 29.21309 33.14714 31.18011
# Shear Modulus (GPa) = 18.93842 25.65885 22.29863
#
# Velocity S-wave (km/s) = 3.15246 3.66941 3.42072
# Velocity P-wave (km/s) = 5.34606 5.94533 5.65364
#
# Compressibility (1/GPa) = 0.03423123
#
# Stress axis : x y z
#
# Youngs Moduli (GPa) = 25.51037 30.26529 94.69010
#
# Poissons Ratio (x) = 0.66175 -0.36607
# Poissons Ratio (y) = 0.55779 0.59523
# Poissons Ratio (z) = -0.09862 0.19025
#
# Static dielectric constant tensor:
#      x y z
#    x 3.272940 0.000000 0.000000 
#    y 0.000000 3.008980 0.000000 
#    z 0.000000 0.000000 3.693140 
# 
# 
# High freq. dielectric constant tensor:
#      x y z
#    x 1.721410 0.000000 0.000000 
#    y 0.000000 1.698640 0.000000 
#    z 0.000000 0.000000 1.761520 
# 
# From -- ./inp_files/3083.got.cif
#   From: 2010.03.12/outbox.cif.g09.slc.cpg/sg19_2_cif.got.tgz:3083.got - 2010.04.10 18:59:41.
