data_PCOD8156316
_publ_section_title
;
Structure prediction by ZEFSAII (Michael W. Deem and Ramdas Pophale) SiO2 
 PCOD8156316
Probable space group: P 21 21 2
;
_chemical_formula_sum "Si O2"
_cell_formula_units_Z 18
_cell_length_a 11.059360
_cell_length_b 8.450297
_cell_length_c 7.854333
_cell_angle_alpha 90.000000
_cell_angle_beta 90.000000
_cell_angle_gamma 90.000000
_cell_volume 734.025722
_symmetry_space_group_name_H-M "P 21 21 2"
_symmetry_group_IT_number 18
_symmetry_cell_setting 'orthorhombic'
loop_
_space_group_symop_operation_xyz
x,y,z
-x,-y,z
1/2+x,1/2-y,-z
1/2-x,1/2+y,-z
loop_
_atom_site_type_symbol
_atom_site_label
_atom_site_fract_x
_atom_site_fract_y
_atom_site_fract_z
Si Si1 0.236934 0.546699 0.872394
Si Si2 0.500000 0.000000 0.928005
Si Si3 0.650687 0.369549 0.203380
Si Si4 0.910184 0.212459 0.674074
Si Si5 0.618270 0.733386 0.709143
O O1 0.188475 0.653842 0.716138
O O2 0.339424 0.424276 0.809622
O O3 0.119775 0.464856 0.959753
O O4 0.304032 0.657574 0.009800
O O5 0.477069 0.158619 0.813877
O O6 0.540556 0.248674 0.241523
O O7 0.624819 0.551553 0.234471
O O8 0.759937 0.329959 0.330812
O O9 0.935790 0.189170 0.474104
#
# Coordination Sequence:
#
# PCOD8156316 Si02
#       5
#     4   2   4   4   4
#     4  11  23  45  72  98 135 182 226 274 334 409
#     4  10  24  44  70 102 136 176 224 278 340 406
#     4  10  23  43  66  99 136 178 224 276 338 401
#     4  11  24  44  68  99 137 176 226 282 335 396
#     4  11  24  44  71 101 134 177 226 281 337 396
#
# _framework density 24.522300000000001
#
# number of rings (size 3 to 8) (size 9 to 14) (size 15 to 20)
#    0.000    1.333    0.000    5.333    0.000    9.778 
#    0.000   28.889    0.000    0.000    0.000    0.000 
#    0.000    0.000    0.000    0.000    0.000    0.000 
#
# Total GULP energy -223070.837502 kJ/mol
# GULP energy per Si atom -12392.824306 kJ/mol
# Density = 2.446649 g / cm^3
# Si number density = 24.522300 Si / 1000 Ang^3
#
#
#
# Elastic Constant Matrix: (Units=GPa)
#
#
# Indices 1 2 3 4 5 6 
#
# 1 80.0584 13.4293 16.7111 0.0000 0.0000 0.0000
# 2 13.4293 89.9677 25.4933 0.0000 0.0000 0.0000
# 3 16.7111 25.4933 106.2161 0.0000 0.0000 0.0000
# 4 0.0000 0.0000 0.0000 27.2483 0.0000 0.0000
# 5 0.0000 0.0000 0.0000 0.0000 34.3616 0.0000
# 6 0.0000 0.0000 0.0000 0.0000 0.0000 49.7635
#
#
#
# Elastic Compliance Matrix: (Units=1/GPa)
#
#
# Indices 1 2 3 4 5 6 
#
# 1 0.013094 -0.001471 -0.001707 0.000000 0.000000 0.000000
# 2 -0.001471 0.012091 -0.002671 0.000000 0.000000 0.000000
# 3 -0.001707 -0.002671 0.010324 0.000000 0.000000 0.000000
# 4 0.000000 0.000000 0.000000 0.036700 0.000000 0.000000
# 5 0.000000 0.000000 0.000000 0.000000 0.029102 0.000000
# 6 0.000000 0.000000 0.000000 0.000000 0.000000 0.020095
#
#
# Mechanical properties :
#
#
# Convention : Reuss Voigt Hill
#
# Bulk Modulus (GPa) = 41.99464 43.05662 42.52563
# Shear Modulus (GPa) = 35.45064 36.98191 36.21628
#
# Velocity S-wave (km/s) = 3.80629 3.88763 3.84718
# Velocity P-wave (km/s) = 6.03982 6.14393 6.09210
#
# Compressibility (1/GPa) = 0.02381256
#
# Stress axis : x y z
#
# Youngs Moduli (GPa) = 76.37124 82.70330 96.85835
#
# Poissons Ratio (x) = 0.12164 0.16535
# Poissons Ratio (y) = 0.11233 0.25868
# Poissons Ratio (z) = 0.13037 0.22088
#
# Static dielectric constant tensor:
#      x y z
#    x 4.923400 0.000000 0.000000 
#    y 0.000000 4.232630 0.000000 
#    z 0.000000 0.000000 4.182200 
# 
# 
# High freq. dielectric constant tensor:
#      x y z
#    x 1.985490 0.000000 0.000000 
#    y 0.000000 1.979390 0.000000 
#    z 0.000000 0.000000 1.969300 
# 
# From -- ./inp_files/3618.got.cif
#   From: 2010.03.12/outbox.cif.g09.slc.cpg/sg18_2_cif.got.tgz:3618.got - 2010.04.10 18:53:55.
