data_PCOD8156904
_publ_section_title
;
Structure prediction by ZEFSAII (Michael W. Deem and Ramdas Pophale) SiO2 
 PCOD8156904
Probable space group: P 21 21 21
;
_chemical_formula_sum "Si O2"
_cell_formula_units_Z 32
_cell_length_a 5.793570
_cell_length_b 16.397092
_cell_length_c 14.287679
_cell_angle_alpha 90.000000
_cell_angle_beta 90.000000
_cell_angle_gamma 90.000000
_cell_volume 1357.296648
_symmetry_space_group_name_H-M "P 21 21 21"
_symmetry_group_IT_number 19
_symmetry_cell_setting 'orthorhombic'
loop_
_space_group_symop_operation_xyz
x,y,z
1/2-x,-y,1/2+z
1/2+x,1/2-y,-z
-x,1/2+y,1/2-z
loop_
_atom_site_type_symbol
_atom_site_label
_atom_site_fract_x
_atom_site_fract_y
_atom_site_fract_z
Si Si1 0.230145 0.164762 0.310175
Si Si2 0.769146 0.387004 0.160513
Si Si3 0.453374 0.331694 0.316312
Si Si4 0.050148 0.413438 0.822011
Si Si5 0.918938 0.957301 0.181368
Si Si6 0.825593 0.568926 0.456926
Si Si7 0.916827 0.208722 0.148640
Si Si8 0.163606 0.203342 0.505682
O O1 0.420401 0.235754 0.311237
O O2 0.349573 0.089562 0.256890
O O3 0.160870 0.142169 0.416453
O O4 0.008936 0.195969 0.253728
O O5 0.538790 0.363167 0.216488
O O6 0.910259 0.305680 0.127532
O O7 0.915278 0.444238 0.229959
O O8 0.687051 0.436449 0.069107
O O9 0.212074 0.373919 0.345286
O O10 0.649268 0.347558 0.397026
O O11 0.932578 0.443461 0.917915
O O12 0.234900 0.476477 0.782328
O O13 0.158074 0.326045 0.848729
O O14 0.027478 0.994243 0.086281
O O15 0.927346 0.658085 0.425744
O O16 0.411453 0.250009 0.502689
#
# Coordination Sequence:
#
# PCOD8156904 Si02
#       8
#     4   4   4   4   4   4   4   4
#     4  10  20  41  71 105 140 190 239 309 366 438
#     4  12  24  43  77 107 141 191 253 307 384 455
#     4  11  23  42  73 102 143 189 250 304 364 452
#     4  10  22  46  67  99 149 186 237 306 377 447
#     4  11  25  48  69 100 153 192 239 308 383 462
#     4  10  26  45  68 106 148 185 243 310 384 453
#     4  10  21  39  71 109 138 178 248 312 369 446
#     4  10  23  40  70 110 148 185 245 312 373 433
#
# _framework density 23.576276
#
# number of rings (size 3 to 8) (size 9 to 14) (size 15 to 20)
#    0.000    1.500    2.500    1.500    5.250    2.000 
#    0.000   16.250    0.000    0.000    0.000    0.000 
#    0.000    0.000    0.000    0.000    0.000    0.000 
#
# Total GULP energy -396533.041820 kJ/mol
# GULP energy per Si atom -12391.657557 kJ/mol
# Density = 2.352261 g / cm^3
# Si number density = 23.576276 Si / 1000 Ang^3
#
#
#
# Elastic Constant Matrix: (Units=GPa)
#
#
# Indices 1 2 3 4 5 6 
#
# 1 97.7101 13.5068 32.8086 0.0000 0.0000 0.0000
# 2 13.5068 57.1140 14.6905 0.0000 0.0000 0.0000
# 3 32.8086 14.6905 162.8366 0.0000 0.0000 0.0000
# 4 0.0000 0.0000 0.0000 23.7649 0.0000 0.0000
# 5 0.0000 0.0000 0.0000 0.0000 31.6228 0.0000
# 6 0.0000 0.0000 0.0000 0.0000 0.0000 37.7258
#
#
#
# Elastic Compliance Matrix: (Units=1/GPa)
#
#
# Indices 1 2 3 4 5 6 
#
# 1 0.011223 -0.002122 -0.002070 0.000000 0.000000 0.000000
# 2 -0.002122 0.018326 -0.001226 0.000000 0.000000 0.000000
# 3 -0.002070 -0.001226 0.006669 0.000000 0.000000 0.000000
# 4 0.000000 0.000000 0.000000 0.042079 0.000000 0.000000
# 5 0.000000 0.000000 0.000000 0.000000 0.031623 0.000000
# 6 0.000000 0.000000 0.000000 0.000000 0.000000 0.026507
#
#
# Mechanical properties :
#
#
# Convention : Reuss Voigt Hill
#
# Bulk Modulus (GPa) = 39.39678 48.85251 44.12464
# Shear Modulus (GPa) = 32.10867 35.73303 33.92085
#
# Velocity S-wave (km/s) = 3.69440 3.89734 3.79723
# Velocity P-wave (km/s) = 5.91141 6.40456 6.16292
#
# Compressibility (1/GPa) = 0.02538279
#
# Stress axis : x y z
#
# Youngs Moduli (GPa) = 89.10590 54.56765 149.95367
#
# Poissons Ratio (x) = 0.11577 0.31037
# Poissons Ratio (y) = 0.18905 0.18382
# Poissons Ratio (z) = 0.18443 0.06689
#
# Static dielectric constant tensor:
#      x y z
#    x 4.429850 0.000000 0.000000 
#    y 0.000000 4.166800 0.000000 
#    z 0.000000 0.000000 4.400470 
# 
# 
# High freq. dielectric constant tensor:
#      x y z
#    x 1.944150 0.000000 0.000000 
#    y 0.000000 1.919290 0.000000 
#    z 0.000000 0.000000 1.929070 
# 
# From -- ./inp_files/5757.got.cif
#   From: 2010.03.12/outbox.cif.g09.slc.cpg/sg19_3_cif.got.tgz:5757.got - 2010.04.10 18:59:41.
