data_PCOD8156715
_publ_section_title
;
Structure prediction by ZEFSAII (Michael W. Deem and Ramdas Pophale) SiO2 
 PCOD8156715
Probable space group: P 21 21 21
;
_chemical_formula_sum "Si O2"
_cell_formula_units_Z 28
_cell_length_a 5.531337
_cell_length_b 12.822808
_cell_length_c 17.563648
_cell_angle_alpha 90.000000
_cell_angle_beta 90.000000
_cell_angle_gamma 90.000000
_cell_volume 1245.741645
_symmetry_space_group_name_H-M "P 21 21 21"
_symmetry_group_IT_number 19
_symmetry_cell_setting 'orthorhombic'
loop_
_space_group_symop_operation_xyz
x,y,z
1/2-x,-y,1/2+z
1/2+x,1/2-y,-z
-x,1/2+y,1/2-z
loop_
_atom_site_type_symbol
_atom_site_label
_atom_site_fract_x
_atom_site_fract_y
_atom_site_fract_z
Si Si1 0.558131 0.782053 0.459500
Si Si2 0.609748 0.189786 0.196312
Si Si3 0.413361 0.208766 0.687945
Si Si4 0.621897 0.006533 0.399501
Si Si5 0.256302 0.892245 0.810108
Si Si6 0.362857 0.509930 0.764007
Si Si7 0.261266 0.723595 0.041979
O O1 0.804482 0.734694 0.495594
O O2 0.527077 0.728048 0.377945
O O3 0.605091 0.905210 0.452599
O O4 0.801138 0.276532 0.226960
O O5 0.432156 0.180880 0.267196
O O6 0.732946 0.076453 0.182689
O O7 0.532641 0.317710 0.661220
O O8 0.613934 0.117694 0.689959
O O9 0.224183 0.201817 0.618057
O O10 0.732702 0.975800 0.317193
O O11 0.352277 0.049088 0.382995
O O12 0.764334 0.098811 0.441781
O O13 0.359802 0.976570 0.750445
O O14 0.519330 0.743671 0.002707
#
# Coordination Sequence:
#
# PCOD8156715 Si02
#       7
#     4   4   4   4   4   4   4
#     4  12  31  49  76 109 153 202 245 311 377 453
#     4  10  23  45  70 105 142 190 260 299 363 442
#     4  11  22  42  74 106 139 191 252 306 358 439
#     4  11  24  49  72 103 142 207 236 300 386 437
#     4  10  19  41  74  99 140 184 255 298 362 433
#     4  10  22  39  79 107 137 190 252 318 357 436
#     4  12  27  47  73 107 153 192 238 304 373 454
#
# _framework density 22.476569999999999
#
# number of rings (size 3 to 8) (size 9 to 14) (size 15 to 20)
#    0.000    1.143    4.286    2.571    8.000    2.286 
#    2.571    0.000    0.000    0.000    0.000    0.000 
#    0.000    0.000    0.000    0.000    0.000    0.000 
#
# Total GULP energy -346928.807720 kJ/mol
# GULP energy per Si atom -12390.314561 kJ/mol
# Density = 2.242541 g / cm^3
# Si number density = 22.476570 Si / 1000 Ang^3
#
#
#
# Elastic Constant Matrix: (Units=GPa)
#
#
# Indices 1 2 3 4 5 6 
#
# 1 109.2705 37.2296 28.5327 0.0000 0.0000 0.0000
# 2 37.2296 124.0691 49.6967 0.0000 0.0000 0.0000
# 3 28.5327 49.6967 74.8535 0.0000 0.0000 0.0000
# 4 0.0000 0.0000 0.0000 32.8344 0.0000 0.0000
# 5 0.0000 0.0000 0.0000 0.0000 31.8157 0.0000
# 6 0.0000 0.0000 0.0000 0.0000 0.0000 27.5891
#
#
#
# Elastic Compliance Matrix: (Units=1/GPa)
#
#
# Indices 1 2 3 4 5 6 
#
# 1 0.010557 -0.002120 -0.002617 0.000000 0.000000 0.000000
# 2 -0.002120 0.011406 -0.006764 0.000000 0.000000 0.000000
# 3 -0.002617 -0.006764 0.018848 0.000000 0.000000 0.000000
# 4 0.000000 0.000000 0.000000 0.030456 0.000000 0.000000
# 5 0.000000 0.000000 0.000000 0.000000 0.031431 0.000000
# 6 0.000000 0.000000 0.000000 0.000000 0.000000 0.036246
#
#
# Mechanical properties :
#
#
# Convention : Reuss Voigt Hill
#
# Bulk Modulus (GPa) = 56.15223 59.90124 58.02673
# Shear Modulus (GPa) = 29.78284 31.29679 30.53982
#
# Velocity S-wave (km/s) = 3.64409 3.73556 3.69011
# Velocity P-wave (km/s) = 6.53779 6.73159 6.63539
#
# Compressibility (1/GPa) = 0.01780873
#
# Stress axis : x y z
#
# Youngs Moduli (GPa) = 94.72288 87.67609 53.05619
#
# Poissons Ratio (x) = 0.18585 0.13884
# Poissons Ratio (y) = 0.20078 0.35889
# Poissons Ratio (z) = 0.24788 0.59308
#
# Static dielectric constant tensor:
#      x y z
#    x 4.336150 0.000000 0.000000 
#    y 0.000000 4.128400 0.000000 
#    z 0.000000 0.000000 3.900140 
# 
# 
# High freq. dielectric constant tensor:
#      x y z
#    x 1.900140 0.000000 0.000000 
#    y 0.000000 1.889230 0.000000 
#    z 0.000000 0.000000 1.867930 
# 
# From -- ./inp_files/4486.got.cif
#   From: 2010.03.12/outbox.cif.g09.slc.cpg/sg19_3_cif.got.tgz:4486.got - 2010.04.10 18:59:41.
