data_PCOD8156305
_publ_section_title
;
Structure prediction by ZEFSAII (Michael W. Deem and Ramdas Pophale) SiO2 
 PCOD8156305
Probable space group: P 21 21 2
;
_chemical_formula_sum "Si O2"
_cell_formula_units_Z 32
_cell_length_a 30.780369
_cell_length_b 5.360102
_cell_length_c 8.675097
_cell_angle_alpha 90.000000
_cell_angle_beta 90.000000
_cell_angle_gamma 90.000000
_cell_volume 1431.268837
_symmetry_space_group_name_H-M "P 21 21 2"
_symmetry_group_IT_number 18
_symmetry_cell_setting 'orthorhombic'
loop_
_space_group_symop_operation_xyz
x,y,z
-x,-y,z
1/2+x,1/2-y,-z
1/2-x,1/2+y,-z
loop_
_atom_site_type_symbol
_atom_site_label
_atom_site_fract_x
_atom_site_fract_y
_atom_site_fract_z
Si Si1 0.327324 0.845956 0.254089
Si Si2 0.022028 0.752474 0.541873
Si Si3 0.522162 0.751641 0.822343
Si Si4 0.163789 0.162650 0.063305
Si Si5 0.879984 0.325658 0.544801
Si Si6 0.120650 0.661260 0.186753
Si Si7 0.705699 0.525034 0.464713
Si Si8 0.746058 0.369561 0.754110
O O1 0.370900 0.959857 0.328225
O O2 0.292042 0.035575 0.176485
O O3 0.299125 0.754299 0.400771
O O4 0.339101 0.641830 0.123215
O O5 0.015201 0.751497 0.359860
O O6 0.072584 0.776232 0.585702
O O7 0.000000 0.500000 0.610321
O O8 0.000000 0.000000 0.613699
O O9 0.500000 0.500000 0.891956
O O10 0.572548 0.764237 0.867606
O O11 0.500000 0.000000 0.892555
O O12 0.135948 0.408029 0.104849
O O13 0.214286 0.211026 0.107932
O O14 0.148432 0.905792 0.141696
O O15 0.878408 0.412546 0.367001
O O16 0.842629 0.124621 0.568829
O O17 0.717657 0.554732 0.644139
O O18 0.743416 0.645509 0.362239
#
# Coordination Sequence:
#
# PCOD8156305 Si02
#       8
#     4   4   4   4   4   4   4   4
#     4  11  27  42  65  92 132 181 222 280 330 400
#     4   9  19  34  61 100 131 160 205 271 332 387
#     4   9  17  34  62  95 129 159 208 270 327 386
#     4  12  28  42  64  95 137 174 222 275 337 396
#     4  10  23  41  68  97 132 174 222 274 336 395
#     4  11  24  42  67 100 131 174 218 274 338 400
#     4  11  22  41  64  93 122 172 223 276 327 393
#     4  11  24  40  65  90 128 170 228 274 333 393
#
# _framework density 22.357786999999998
#
# number of rings (size 3 to 8) (size 9 to 14) (size 15 to 20)
#    0.000    1.500    2.500    1.500   10.500    2.000 
#    0.000    0.000    0.000    3.000    0.000    0.000 
#    0.000    0.000    0.000    0.000    0.000    0.000 
#
# Total GULP energy -396461.385575 kJ/mol
# GULP energy per Si atom -12389.418299 kJ/mol
# Density = 2.230690 g / cm^3
# Si number density = 22.357787 Si / 1000 Ang^3
#
#
#
# Elastic Constant Matrix: (Units=GPa)
#
#
# Indices 1 2 3 4 5 6 
#
# 1 129.6255 37.9309 24.3763 0.0000 0.0000 0.0000
# 2 37.9309 109.9790 11.2011 0.0000 0.0000 0.0000
# 3 24.3763 11.2011 71.6968 0.0000 0.0000 0.0000
# 4 0.0000 0.0000 0.0000 23.7577 0.0000 0.0000
# 5 0.0000 0.0000 0.0000 0.0000 15.8424 0.0000
# 6 0.0000 0.0000 0.0000 0.0000 0.0000 29.5973
#
#
#
# Elastic Compliance Matrix: (Units=1/GPa)
#
#
# Indices 1 2 3 4 5 6 
#
# 1 0.009043 -0.002851 -0.002629 0.000000 0.000000 0.000000
# 2 -0.002851 0.010139 -0.000615 0.000000 0.000000 0.000000
# 3 -0.002629 -0.000615 0.014938 0.000000 0.000000 0.000000
# 4 0.000000 0.000000 0.000000 0.042092 0.000000 0.000000
# 5 0.000000 0.000000 0.000000 0.000000 0.063122 0.000000
# 6 0.000000 0.000000 0.000000 0.000000 0.000000 0.033787
#
#
# Mechanical properties :
#
#
# Convention : Reuss Voigt Hill
#
# Bulk Modulus (GPa) = 45.60063 50.92420 48.26241
# Shear Modulus (GPa) = 25.95795 29.69235 27.82515
#
# Velocity S-wave (km/s) = 3.41108 3.64820 3.53163
# Velocity P-wave (km/s) = 5.99617 6.36963 6.18572
#
# Compressibility (1/GPa) = 0.02192952
#
# Stress axis : x y z
#
# Youngs Moduli (GPa) = 110.57952 98.63306 66.94543
#
# Poissons Ratio (x) = 0.28122 0.17601
# Poissons Ratio (y) = 0.31528 0.04114
# Poissons Ratio (z) = 0.29073 0.06062
#
# Static dielectric constant tensor:
#      x y z
#    x 4.123460 0.000000 0.000000 
#    y 0.000000 4.090080 0.000000 
#    z 0.000000 0.000000 3.762110 
# 
# 
# High freq. dielectric constant tensor:
#      x y z
#    x 1.891410 0.000000 0.000000 
#    y 0.000000 1.878810 0.000000 
#    z 0.000000 0.000000 1.849990 
# 
# From -- ./inp_files/4863.got.cif
#   From: 2010.03.12/outbox.cif.g09.slc.cpg/sg18_3_cif.got.tgz:4863.got - 2010.04.10 18:53:55.
