data_PCOD8156089
_publ_section_title
;
Structure prediction by ZEFSAII (Michael W. Deem and Ramdas Pophale) SiO2 
 PCOD8156089
Probable space group: P 21 21 2
;
_chemical_formula_sum "Si O2"
_cell_formula_units_Z 16
_cell_length_a 14.376800
_cell_length_b 4.812344
_cell_length_c 10.465036
_cell_angle_alpha 90.000000
_cell_angle_beta 90.000000
_cell_angle_gamma 90.000000
_cell_volume 724.035103
_symmetry_space_group_name_H-M "P 21 21 2"
_symmetry_group_IT_number 18
_symmetry_cell_setting 'orthorhombic'
loop_
_space_group_symop_operation_xyz
x,y,z
-x,-y,z
1/2+x,1/2-y,-z
1/2-x,1/2+y,-z
loop_
_atom_site_type_symbol
_atom_site_label
_atom_site_fract_x
_atom_site_fract_y
_atom_site_fract_z
Si Si1 0.839600 0.262529 0.600443
Si Si2 0.806867 0.326101 0.048584
Si Si3 0.500000 0.000000 0.072315
Si Si4 0.775031 0.266708 0.333907
Si Si5 0.000000 0.000000 0.758800
O O1 0.850324 0.213318 0.447057
O O2 0.817016 0.579833 0.639103
O O3 0.931351 0.164732 0.668353
O O4 0.753091 0.087587 0.654440
O O5 0.815303 0.212793 0.193454
O O6 0.738837 0.592019 0.041679
O O7 0.912637 0.388888 0.008423
O O8 0.456654 0.743077 0.152966
#
# Coordination Sequence:
#
# PCOD8156089 Si02
#       5
#     4   4   2   4   2
#     4  10  21  38  64  87 116 156 201 257 299 365
#     4  12  24  42  66  91 129 169 203 258 313 367
#     4  12  26  40  64  96 124 164 216 252 304 390
#     4  10  21  40  61  88 118 157 204 243 310 365
#     4  12  22  40  62  90 122 156 208 258 308 356
#
# _framework density 22.098375000000001
#
# number of rings (size 3 to 8) (size 9 to 14) (size 15 to 20)
#    0.000    1.000    0.000    9.000    0.000    0.000 
#    0.000   12.500    0.000    0.000    0.000    0.000 
#    0.000    0.000    0.000    0.000    0.000    0.000 
#
# Total GULP energy -198336.709184 kJ/mol
# GULP energy per Si atom -12396.044324 kJ/mol
# Density = 2.204808 g / cm^3
# Si number density = 22.098375 Si / 1000 Ang^3
#
#
#
# Elastic Constant Matrix: (Units=GPa)
#
#
# Indices 1 2 3 4 5 6 
#
# 1 111.0023 25.4827 63.4678 0.0000 0.0000 0.0000
# 2 25.4827 99.8622 36.4848 0.0000 0.0000 0.0000
# 3 63.4678 36.4848 186.4386 0.0000 0.0000 0.0000
# 4 0.0000 0.0000 0.0000 35.0485 0.0000 0.0000
# 5 0.0000 0.0000 0.0000 0.0000 -28.5041 0.0000
# 6 0.0000 0.0000 0.0000 0.0000 0.0000 31.6544
#
#
#
# Elastic Compliance Matrix: (Units=1/GPa)
#
#
# Indices 1 2 3 4 5 6 
#
# 1 0.011421 -0.001609 -0.003573 0.000000 0.000000 0.000000
# 2 -0.001609 0.011012 -0.001607 0.000000 0.000000 0.000000
# 3 -0.003573 -0.001607 0.006895 0.000000 0.000000 0.000000
# 4 0.000000 0.000000 0.000000 0.028532 0.000000 0.000000
# 5 0.000000 0.000000 0.000000 0.000000 -0.035083 0.000000
# 6 0.000000 0.000000 0.000000 0.000000 0.000000 0.031591
#
#
# Mechanical properties :
#
#
# Convention : Reuss Voigt Hill
#
# Bulk Modulus (GPa) = 63.49712 72.01932 67.75822
# Shear Modulus (GPa) = 68.30976 25.76428 47.03702
#
# Velocity S-wave (km/s) = 5.56586 3.41822 4.61860
# Velocity P-wave (km/s) = 8.37265 6.94550 7.69225
#
# Compressibility (1/GPa) = 0.01574875
#
# Stress axis : x y z
#
# Youngs Moduli (GPa) = 87.55627 90.81370 145.04125
#
# Poissons Ratio (x) = 0.14612 0.51826
# Poissons Ratio (y) = 0.14088 0.23310
# Poissons Ratio (z) = 0.31285 0.14595
#
# Static dielectric constant tensor:
#      x y z
#    x 3.529670 0.000000 0.000000 
#    y 0.000000 5.891230 0.000000 
#    z 0.000000 0.000000 4.216810 
# 
# 
# High freq. dielectric constant tensor:
#      x y z
#    x 1.832660 0.000000 0.000000 
#    y 0.000000 1.895870 0.000000 
#    z 0.000000 0.000000 1.884590 
# 
# From -- ./inp_files/2403.got.cif
#   From: 2010.03.12/outbox.cif.g09.slc.cpg/sg18_2_cif.got.tgz:2403.got - 2010.04.10 18:53:55.
