data_PCOD8156952
_publ_section_title
;
Structure prediction by ZEFSAII (Michael W. Deem and Ramdas Pophale) SiO2 
 PCOD8156952
Probable space group: P 21 21 21
;
_chemical_formula_sum "Si O2"
_cell_formula_units_Z 32
_cell_length_a 8.675496
_cell_length_b 9.880363
_cell_length_c 19.668877
_cell_angle_alpha 90.000000
_cell_angle_beta 90.000000
_cell_angle_gamma 90.000000
_cell_volume 1685.958107
_symmetry_space_group_name_H-M "P 21 21 21"
_symmetry_group_IT_number 19
_symmetry_cell_setting 'orthorhombic'
loop_
_space_group_symop_operation_xyz
x,y,z
1/2-x,-y,1/2+z
1/2+x,1/2-y,-z
-x,1/2+y,1/2-z
loop_
_atom_site_type_symbol
_atom_site_label
_atom_site_fract_x
_atom_site_fract_y
_atom_site_fract_z
Si Si1 0.940201 0.331766 0.554842
Si Si2 0.579998 0.159068 0.794280
Si Si3 0.585770 0.882225 0.455015
Si Si4 0.081542 0.123649 0.453364
Si Si5 0.930944 0.145624 0.798775
Si Si6 0.073619 0.340773 0.696687
Si Si7 0.429055 0.351749 0.687888
Si Si8 0.559189 0.162843 0.949551
O O1 0.762234 0.355730 0.540564
O O2 0.036348 0.463605 0.533075
O O3 0.995969 0.204597 0.512098
O O4 0.965353 0.297322 0.634189
O O5 0.758365 0.185217 0.776530
O O6 0.473894 0.244466 0.744628
O O7 0.545622 0.205433 0.870995
O O8 0.536042 0.001929 0.784596
O O9 0.544749 0.833923 0.379062
O O10 0.766980 0.875502 0.468863
O O11 0.493790 0.789267 0.506737
O O12 0.022149 0.176931 0.380757
O O13 0.048325 0.965435 0.464577
O O14 0.050711 0.240709 0.759759
O O15 0.968766 0.991461 0.778423
O O16 0.249031 0.337578 0.670595
#
# Coordination Sequence:
#
# PCOD8156952 Si02
#       8
#     4   4   4   4   4   4   4   4
#     4  11  22  38  59  82 111 146 185 230 280 331
#     4   9  20  37  55  79 111 145 182 225 271 323
#     4  10  21  38  58  83 115 148 186 229 275 328
#     4  11  22  38  59  82 111 146 185 230 280 331
#     4   9  20  37  55  79 111 145 182 225 271 323
#     4  10  21  37  57  82 111 143 183 228 274 328
#     4  10  21  37  57  82 111 143 183 228 274 328
#     4  10  21  38  58  83 115 148 186 229 275 328
#
# _framework density 18.980307
#
# number of rings (size 3 to 8) (size 9 to 14) (size 15 to 20)
#    0.000    2.000    0.000    5.250    0.000    8.000 
#    0.000    5.000    0.000    0.000    0.000    0.000 
#    0.000    0.000    0.000    0.000    0.000    0.000 
#
# Total GULP energy -396952.881361 kJ/mol
# GULP energy per Si atom -12404.777543 kJ/mol
# Density = 1.893711 g / cm^3
# Si number density = 18.980307 Si / 1000 Ang^3
#
#
#
# Elastic Constant Matrix: (Units=GPa)
#
#
# Indices 1 2 3 4 5 6 
#
# 1 63.1995 7.2569 13.6366 0.0000 0.0000 0.0000
# 2 7.2569 65.4484 43.8412 0.0000 0.0000 0.0000
# 3 13.6366 43.8412 68.2528 0.0000 0.0000 0.0000
# 4 0.0000 0.0000 0.0000 39.7403 0.0000 0.0000
# 5 0.0000 0.0000 0.0000 0.0000 23.4585 0.0000
# 6 0.0000 0.0000 0.0000 0.0000 0.0000 33.9549
#
#
#
# Elastic Compliance Matrix: (Units=1/GPa)
#
#
# Indices 1 2 3 4 5 6 
#
# 1 0.016552 0.000667 -0.003735 0.000000 0.000000 0.000000
# 2 0.000667 0.026845 -0.017377 0.000000 0.000000 0.000000
# 3 -0.003735 -0.017377 0.026560 0.000000 0.000000 0.000000
# 4 0.000000 0.000000 0.000000 0.025163 0.000000 0.000000
# 5 0.000000 0.000000 0.000000 0.000000 0.042628 0.000000
# 6 0.000000 0.000000 0.000000 0.000000 0.000000 0.029451
#
#
# Mechanical properties :
#
#
# Convention : Reuss Voigt Hill
#
# Bulk Modulus (GPa) = 34.40420 36.26337 35.33379
# Shear Modulus (GPa) = 22.95896 28.24181 25.60039
#
# Velocity S-wave (km/s) = 3.48173 3.86158 3.67657
# Velocity P-wave (km/s) = 5.85909 6.24738 6.05634
#
# Compressibility (1/GPa) = 0.02906622
#
# Stress axis : x y z
#
# Youngs Moduli (GPa) = 60.41447 37.25029 37.65114
#
# Poissons Ratio (x) = -0.02484 0.14064
# Poissons Ratio (y) = -0.04029 0.65426
# Poissons Ratio (z) = 0.22568 0.64730
#
# Static dielectric constant tensor:
#      x y z
#    x 3.506510 0.000000 0.000000 
#    y 0.000000 4.552720 0.000000 
#    z 0.000000 0.000000 3.444010 
# 
# 
# High freq. dielectric constant tensor:
#      x y z
#    x 1.748940 0.000000 0.000000 
#    y 0.000000 1.739200 0.000000 
#    z 0.000000 0.000000 1.736940 
# 
# From -- ./inp_files/7049.got.cif
#   From: 2010.03.12/outbox.cif.g09.slc.cpg/sg19_4_cif.got.tgz:7049.got - 2010.04.10 18:59:41.
