data_PCOD8156329
_publ_section_title
;
Structure prediction by ZEFSAII (Michael W. Deem and Ramdas Pophale) SiO2 
 PCOD8156329
Probable space group: P 21 21 2
;
_chemical_formula_sum "Si O2"
_cell_formula_units_Z 20
_cell_length_a 8.643652
_cell_length_b 7.914453
_cell_length_c 12.118560
_cell_angle_alpha 90.000000
_cell_angle_beta 90.000000
_cell_angle_gamma 90.000000
_cell_volume 829.027993
_symmetry_space_group_name_H-M "P 21 21 2"
_symmetry_group_IT_number 18
_symmetry_cell_setting 'orthorhombic'
loop_
_space_group_symop_operation_xyz
x,y,z
-x,-y,z
1/2+x,1/2-y,-z
1/2-x,1/2+y,-z
loop_
_atom_site_type_symbol
_atom_site_label
_atom_site_fract_x
_atom_site_fract_y
_atom_site_fract_z
Si Si1 0.606422 0.727086 0.880789
Si Si2 0.838601 0.401344 0.552390
Si Si3 0.728889 0.357192 0.922519
Si Si4 0.049846 0.806005 0.741756
Si Si5 0.767206 0.211369 0.338874
O O1 0.690419 0.546193 0.888695
O O2 0.432098 0.743434 0.922670
O O3 0.602170 0.765900 0.749466
O O4 0.706123 0.859128 0.952455
O O5 0.856339 0.233854 0.628541
O O6 0.766825 0.349049 0.435590
O O7 0.712010 0.524136 0.609910
O O8 0.000000 0.500000 0.533778
O O9 0.853649 0.261695 0.845832
O O10 0.891250 0.702587 0.731415
O O11 0.000000 0.000000 0.755444
#
# Coordination Sequence:
#
# PCOD8156329 Si02
#       5
#     4   4   4   4   4
#     4  11  26  47  72 104 145 187 239 306 364 440
#     4  10  23  44  68 105 147 190 250 298 368 433
#     4  11  26  47  73 105 143 189 242 300 373 441
#     4  11  24  43  71 101 145 191 246 299 364 433
#     4  11  23  44  70 100 145 194 237 308 356 436
#
# _framework density 24.124638999999998
#
# number of rings (size 3 to 8) (size 9 to 14) (size 15 to 20)
#    0.000    1.200    2.000    2.400    5.600    7.200 
#    3.600    0.000    0.000    0.000    0.000    0.000 
#    0.000    0.000    0.000    0.000    0.000    0.000 
#
# Total GULP energy -247919.083177 kJ/mol
# GULP energy per Si atom -12395.954159 kJ/mol
# Density = 2.406973 g / cm^3
# Si number density = 24.124639 Si / 1000 Ang^3
#
#
#
# Elastic Constant Matrix: (Units=GPa)
#
#
# Indices 1 2 3 4 5 6 
#
# 1 73.7130 17.8248 30.6241 0.0000 0.0000 0.0000
# 2 17.8248 87.6060 38.2649 0.0000 0.0000 0.0000
# 3 30.6241 38.2649 144.9410 0.0000 0.0000 0.0000
# 4 0.0000 0.0000 0.0000 36.9828 0.0000 0.0000
# 5 0.0000 0.0000 0.0000 0.0000 36.7330 0.0000
# 6 0.0000 0.0000 0.0000 0.0000 0.0000 34.9745
#
#
#
# Elastic Compliance Matrix: (Units=1/GPa)
#
#
# Indices 1 2 3 4 5 6 
#
# 1 0.015147 -0.001904 -0.002698 0.000000 0.000000 0.000000
# 2 -0.001904 0.013142 -0.003067 0.000000 0.000000 0.000000
# 3 -0.002698 -0.003067 0.008279 0.000000 0.000000 0.000000
# 4 0.000000 0.000000 0.000000 0.027040 0.000000 0.000000
# 5 0.000000 0.000000 0.000000 0.000000 0.027223 0.000000
# 6 0.000000 0.000000 0.000000 0.000000 0.000000 0.028592
#
#
# Mechanical properties :
#
#
# Convention : Reuss Voigt Hill
#
# Bulk Modulus (GPa) = 47.10141 53.29863 50.20002
# Shear Modulus (GPa) = 35.25151 36.37447 35.81299
#
# Velocity S-wave (km/s) = 3.82674 3.88722 3.85710
# Velocity P-wave (km/s) = 6.25235 6.50294 6.37888
#
# Compressibility (1/GPa) = 0.02123079
#
# Stress axis : x y z
#
# Youngs Moduli (GPa) = 66.01852 76.09310 120.78532
#
# Poissons Ratio (x) = 0.14485 0.32586
# Poissons Ratio (y) = 0.12567 0.37048
# Poissons Ratio (z) = 0.17811 0.23340
#
# Static dielectric constant tensor:
#      x y z
#    x 4.343700 0.000000 0.000000 
#    y 0.000000 4.211780 0.000000 
#    z 0.000000 0.000000 4.591100 
# 
# 
# High freq. dielectric constant tensor:
#      x y z
#    x 1.951530 0.000000 0.000000 
#    y 0.000000 1.949570 0.000000 
#    z 0.000000 0.000000 1.973900 
# 
# From -- ./inp_files/5418.got.cif
#   From: 2010.03.12/outbox.cif.g09.slc.cpg/sg18_3_cif.got.tgz:5418.got - 2010.04.10 18:53:55.
