data_PCOD8156067
_publ_section_title
;
Structure prediction by ZEFSAII (Michael W. Deem and Ramdas Pophale) SiO2 
 PCOD8156067
Probable space group: P 21 21 2
;
_chemical_formula_sum "Si O2"
_cell_formula_units_Z 28
_cell_length_a 9.214291
_cell_length_b 18.400462
_cell_length_c 8.786404
_cell_angle_alpha 90.000000
_cell_angle_beta 90.000000
_cell_angle_gamma 90.000000
_cell_volume 1489.710296
_symmetry_space_group_name_H-M "P 21 21 2"
_symmetry_group_IT_number 18
_symmetry_cell_setting 'orthorhombic'
loop_
_space_group_symop_operation_xyz
x,y,z
-x,-y,z
1/2+x,1/2-y,-z
1/2-x,1/2+y,-z
loop_
_atom_site_type_symbol
_atom_site_label
_atom_site_fract_x
_atom_site_fract_y
_atom_site_fract_z
Si Si1 0.998925 0.788753 0.880060
Si Si2 0.910288 0.201783 0.539413
Si Si3 0.095768 0.936374 0.349872
Si Si4 0.131174 0.115629 0.113824
Si Si5 0.815237 0.668555 0.029138
Si Si6 0.666971 0.018982 0.140125
Si Si7 0.865070 0.747016 0.314566
O O1 0.005800 0.796887 0.699165
O O2 0.154554 0.795179 0.965907
O O3 0.902791 0.854568 0.945770
O O4 0.921350 0.711748 0.914293
O O5 0.984954 0.245724 0.403127
O O6 0.893343 0.119670 0.485991
O O7 0.753620 0.236975 0.555102
O O8 0.259158 0.957811 0.300181
O O9 0.015215 0.913091 0.193707
O O10 0.000000 0.000000 0.423686
O O11 0.186193 0.182134 0.219241
O O12 0.251734 0.054177 0.086291
O O13 0.877939 0.677959 0.201140
O O14 0.815478 0.583672 0.983941
O O15 0.500000 0.000000 0.169490
#
# Coordination Sequence:
#
# PCOD8156067 Si02
#       7
#     4   4   4   4   4   4   4
#     4  10  21  37  62  88 116 157 200 247 293 350
#     4  10  21  36  59  86 114 158 188 239 296 352
#     4   9  19  39  57  80 117 158 194 235 294 357
#     4   9  19  40  58  83 119 155 197 244 289 353
#     4  10  22  38  58  90 116 149 201 249 288 344
#     4  11  23  35  63  90 115 153 200 251 299 347
#     4   9  21  37  58  85 120 150 200 236 291 355
#
# _framework density 18.795601000000001
#
# number of rings (size 3 to 8) (size 9 to 14) (size 15 to 20)
#    0.000    2.286    1.429    0.000    8.000    0.000 
#    5.143    0.000    0.000    3.429    0.000    0.000 
#    0.000    0.000    0.000    0.000    0.000    0.000 
#
# Total GULP energy -346998.699988 kJ/mol
# GULP energy per Si atom -12392.810714 kJ/mol
# Density = 1.875282 g / cm^3
# Si number density = 18.795601 Si / 1000 Ang^3
#
#
#
# Elastic Constant Matrix: (Units=GPa)
#
#
# Indices 1 2 3 4 5 6 
#
# 1 96.4907 40.2719 35.1080 0.0000 0.0000 0.0000
# 2 40.2719 80.3795 28.2117 0.0000 0.0000 0.0000
# 3 35.1080 28.2117 74.7872 0.0000 0.0000 0.0000
# 4 0.0000 0.0000 0.0000 26.6757 0.0000 0.0000
# 5 0.0000 0.0000 0.0000 0.0000 24.5835 0.0000
# 6 0.0000 0.0000 0.0000 0.0000 0.0000 29.6868
#
#
#
# Elastic Compliance Matrix: (Units=1/GPa)
#
#
# Indices 1 2 3 4 5 6 
#
# 1 0.014381 -0.005574 -0.004649 0.000000 0.000000 0.000000
# 2 -0.005574 0.016500 -0.003608 0.000000 0.000000 0.000000
# 3 -0.004649 -0.003608 0.016914 0.000000 0.000000 0.000000
# 4 0.000000 0.000000 0.000000 0.037487 0.000000 0.000000
# 5 0.000000 0.000000 0.000000 0.000000 0.040678 0.000000
# 6 0.000000 0.000000 0.000000 0.000000 0.000000 0.033685
#
#
# Mechanical properties :
#
#
# Convention : Reuss Voigt Hill
#
# Bulk Modulus (GPa) = 49.66337 50.98228 50.32283
# Shear Modulus (GPa) = 25.77087 26.06024 25.91556
#
# Velocity S-wave (km/s) = 3.70687 3.72762 3.71726
# Velocity P-wave (km/s) = 6.69339 6.76094 6.72725
#
# Compressibility (1/GPa) = 0.02013556
#
# Stress axis : x y z
#
# Youngs Moduli (GPa) = 69.53422 60.60681 59.12138
#
# Poissons Ratio (x) = 0.33781 0.27483
# Poissons Ratio (y) = 0.38757 0.21328
# Poissons Ratio (z) = 0.32324 0.21864
#
# Static dielectric constant tensor:
#      x y z
#    x 3.549100 0.000000 0.000000 
#    y 0.000000 3.720920 0.000000 
#    z 0.000000 0.000000 3.334620 
# 
# 
# High freq. dielectric constant tensor:
#      x y z
#    x 1.735180 0.000000 0.000000 
#    y 0.000000 1.730410 0.000000 
#    z 0.000000 0.000000 1.716180 
# 
# From -- ./inp_files/3391.got.cif
#   From: 2010.03.12/outbox.cif.g09.slc.cpg/sg18_2_cif.got.tgz:3391.got - 2010.04.10 18:53:55.
