data_PCOD8156030
_publ_section_title
;
Structure prediction by ZEFSAII (Michael W. Deem and Ramdas Pophale) SiO2 
 PCOD8156030
Probable space group: P 21 21 2
;
_chemical_formula_sum "Si O2"
_cell_formula_units_Z 32
_cell_length_a 15.686511
_cell_length_b 7.687750
_cell_length_c 11.724828
_cell_angle_alpha 90.000000
_cell_angle_beta 90.000000
_cell_angle_gamma 90.000000
_cell_volume 1413.943614
_symmetry_space_group_name_H-M "P 21 21 2"
_symmetry_group_IT_number 18
_symmetry_cell_setting 'orthorhombic'
loop_
_space_group_symop_operation_xyz
x,y,z
-x,-y,z
1/2+x,1/2-y,-z
1/2-x,1/2+y,-z
loop_
_atom_site_type_symbol
_atom_site_label
_atom_site_fract_x
_atom_site_fract_y
_atom_site_fract_z
Si Si1 0.881455 0.134887 0.337566
Si Si2 0.007431 0.313529 0.179037
Si Si3 0.856585 0.390079 0.747107
Si Si4 0.792592 0.777162 0.703038
Si Si5 0.136888 0.078872 0.919544
Si Si6 0.533974 0.762016 0.072697
Si Si7 0.091492 0.933377 0.597489
Si Si8 0.319649 0.643222 0.834157
O O1 0.967051 0.181669 0.268738
O O2 0.805687 0.278723 0.339241
O O3 0.911207 0.087243 0.462543
O O4 0.839913 0.975749 0.272689
O O5 0.000000 0.500000 0.236059
O O6 0.108165 0.289280 0.160177
O O7 0.953290 0.305016 0.061107
O O8 0.834533 0.582284 0.697821
O O9 0.930979 0.413940 0.843808
O O10 0.776228 0.294139 0.809904
O O11 0.886872 0.256758 0.648833
O O12 0.791808 0.857404 0.830694
O O13 0.842173 0.912549 0.623315
O O14 0.066049 0.229974 0.913574
O O15 0.089888 0.902060 0.885211
O O16 0.179473 0.048478 0.042944
O O17 0.000000 0.000000 0.642999
#
# Coordination Sequence:
#
# PCOD8156030 Si02
#       8
#     4   4   4   4   4   4   4   4
#     4  11  26  49  71 100 140 188 244 298 351 432
#     4  11  24  41  68 107 142 189 240 293 358 439
#     4  11  26  43  70 106 142 184 240 299 352 435
#     4  11  27  45  74 106 141 181 242 295 360 434
#     4  10  20  40  68  98 139 192 221 283 366 427
#     4  10  21  39  66  98 147 181 229 285 355 427
#     4  12  27  51  76  99 142 197 235 304 368 419
#     4  10  23  43  67  98 142 189 230 293 363 426
#
# _framework density 22.631734999999999
#
# number of rings (size 3 to 8) (size 9 to 14) (size 15 to 20)
#    0.000    1.250    2.500    1.875   10.500    1.500 
#    4.500    0.000    0.000    0.000    0.000    0.000 
#    0.000    0.000    0.000    0.000    0.000    0.000 
#
# Total GULP energy -396587.024752 kJ/mol
# GULP energy per Si atom -12393.344523 kJ/mol
# Density = 2.258022 g / cm^3
# Si number density = 22.631735 Si / 1000 Ang^3
#
#
#
# Elastic Constant Matrix: (Units=GPa)
#
#
# Indices 1 2 3 4 5 6 
#
# 1 81.5966 -1.0401 8.3880 0.0000 0.0000 0.0000
# 2 -1.0401 65.9759 10.2350 0.0000 0.0000 0.0000
# 3 8.3880 10.2350 115.0045 0.0000 0.0000 0.0000
# 4 0.0000 0.0000 0.0000 17.8926 0.0000 0.0000
# 5 0.0000 0.0000 0.0000 0.0000 26.8352 0.0000
# 6 0.0000 0.0000 0.0000 0.0000 0.0000 30.9569
#
#
#
# Elastic Compliance Matrix: (Units=1/GPa)
#
#
# Indices 1 2 3 4 5 6 
#
# 1 0.012355 0.000339 -0.000931 0.000000 0.000000 0.000000
# 2 0.000339 0.015379 -0.001393 0.000000 0.000000 0.000000
# 3 -0.000931 -0.001393 0.008887 0.000000 0.000000 0.000000
# 4 0.000000 0.000000 0.000000 0.055889 0.000000 0.000000
# 5 0.000000 0.000000 0.000000 0.000000 0.037265 0.000000
# 6 0.000000 0.000000 0.000000 0.000000 0.000000 0.032303
#
#
# Mechanical properties :
#
#
# Convention : Reuss Voigt Hill
#
# Bulk Modulus (GPa) = 30.62755 33.08253 31.85504
# Shear Modulus (GPa) = 28.25941 31.46988 29.86464
#
# Velocity S-wave (km/s) = 3.53748 3.73301 3.63656
# Velocity P-wave (km/s) = 5.49976 5.76455 5.63371
#
# Compressibility (1/GPa) = 0.03265035
#
# Stress axis : x y z
#
# Youngs Moduli (GPa) = 80.93575 65.02561 112.52080
#
# Poissons Ratio (x) = -0.02206 0.10480
# Poissons Ratio (y) = -0.02746 0.15678
# Poissons Ratio (z) = 0.07538 0.09061
#
# Static dielectric constant tensor:
#      x y z
#    x 4.936990 0.000000 0.000000 
#    y 0.000000 3.985680 0.000000 
#    z 0.000000 0.000000 3.981870 
# 
# 
# High freq. dielectric constant tensor:
#      x y z
#    x 1.902720 0.000000 0.000000 
#    y 0.000000 1.887680 0.000000 
#    z 0.000000 0.000000 1.888120 
# 
# From -- ./inp_files/6157.got.cif
#   From: 2010.03.12/outbox.cif.g09.slc.cpg/sg18_4_cif.got.tgz:6157.got - 2010.04.10 18:53:55.
