data_PCOD8156569
_publ_section_title
;
Structure prediction by ZEFSAII (Michael W. Deem and Ramdas Pophale) SiO2 
 PCOD8156569
Probable space group: P 21 21 21
;
_chemical_formula_sum "Si O2"
_cell_formula_units_Z 32
_cell_length_a 5.171997
_cell_length_b 10.065142
_cell_length_c 29.382806
_cell_angle_alpha 90.000000
_cell_angle_beta 90.000000
_cell_angle_gamma 90.000000
_cell_volume 1529.577330
_symmetry_space_group_name_H-M "P 21 21 21"
_symmetry_group_IT_number 19
_symmetry_cell_setting 'orthorhombic'
loop_
_space_group_symop_operation_xyz
x,y,z
1/2-x,-y,1/2+z
1/2+x,1/2-y,-z
-x,1/2+y,1/2-z
loop_
_atom_site_type_symbol
_atom_site_label
_atom_site_fract_x
_atom_site_fract_y
_atom_site_fract_z
Si Si1 0.780317 0.579032 0.113257
Si Si2 0.126358 0.559059 0.292267
Si Si3 0.669443 0.676739 0.763038
Si Si4 0.116103 0.796185 0.557421
Si Si5 0.133825 0.870866 0.655222
Si Si6 0.492307 0.915961 0.317169
Si Si7 0.213390 0.328336 0.652842
Si Si8 0.619151 0.627883 0.542259
O O1 0.744263 0.455602 0.148661
O O2 0.524350 0.673138 0.116531
O O3 0.833725 0.518208 0.063392
O O4 0.018967 0.672599 0.125921
O O5 0.083625 0.684528 0.259119
O O6 0.399677 0.559844 0.317712
O O7 0.083719 0.418608 0.266098
O O8 0.899714 0.564893 0.329288
O O9 0.792105 0.703387 0.813024
O O10 0.887222 0.602938 0.733666
O O11 0.123620 0.893529 0.600869
O O12 0.343874 0.686245 0.558351
O O13 0.135122 0.886734 0.512317
O O14 0.842268 0.724079 0.559759
O O15 0.134495 0.713335 0.664046
O O16 0.694700 0.037751 0.316047
#
# Coordination Sequence:
#
# PCOD8156569 Si02
#       8
#     4   4   4   4   4   4   4   4
#     4  10  19  36  53  86 113 159 188 243 303 356
#     4  11  28  39  63  81 124 160 212 249 310 352
#     4  11  25  44  58  92 115 167 212 258 299 357
#     4  10  19  31  55  86 124 156 199 239 314 369
#     4  11  22  38  57  85 120 165 191 248 310 367
#     4   9  22  33  59  77 118 154 196 240 299 351
#     4  10  23  36  58  80 116 156 197 252 288 357
#     4  10  18  31  55  89 122 157 193 251 299 381
#
# _framework density 20.920812000000002
#
# number of rings (size 3 to 8) (size 9 to 14) (size 15 to 20)
#    0.750    1.000    1.250    3.000   10.500    2.000 
#    0.000    0.000    0.000    0.000    0.000    3.500 
#    0.000    0.000    0.000    0.000    0.000    0.000 
#
# Total GULP energy -396702.741715 kJ/mol
# GULP energy per Si atom -12396.960679 kJ/mol
# Density = 2.087320 g / cm^3
# Si number density = 20.920812 Si / 1000 Ang^3
#
#
#
# Elastic Constant Matrix: (Units=GPa)
#
#
# Indices 1 2 3 4 5 6 
#
# 1 70.9055 1.9462 0.3558 0.0000 0.0000 0.0000
# 2 1.9462 39.4240 12.0730 0.0000 0.0000 0.0000
# 3 0.3558 12.0730 78.6029 0.0000 0.0000 0.0000
# 4 0.0000 0.0000 0.0000 28.0104 0.0000 0.0000
# 5 0.0000 0.0000 0.0000 0.0000 25.9371 0.0000
# 6 0.0000 0.0000 0.0000 0.0000 0.0000 24.9058
#
#
#
# Elastic Compliance Matrix: (Units=1/GPa)
#
#
# Indices 1 2 3 4 5 6 
#
# 1 0.014123 -0.000711 0.000045 0.000000 0.000000 0.000000
# 2 -0.000711 0.026653 -0.004091 0.000000 0.000000 0.000000
# 3 0.000045 -0.004091 0.013350 0.000000 0.000000 0.000000
# 4 0.000000 0.000000 0.000000 0.035701 0.000000 0.000000
# 5 0.000000 0.000000 0.000000 0.000000 0.038555 0.000000
# 6 0.000000 0.000000 0.000000 0.000000 0.000000 0.040151
#
#
# Mechanical properties :
#
#
# Convention : Reuss Voigt Hill
#
# Bulk Modulus (GPa) = 22.41486 24.18693 23.30090
# Shear Modulus (GPa) = 25.91793 27.40783 26.66288
#
# Velocity S-wave (km/s) = 3.52356 3.62342 3.57384
# Velocity P-wave (km/s) = 5.22412 5.39369 5.30958
#
# Compressibility (1/GPa) = 0.04461326
#
# Stress axis : x y z
#
# Youngs Moduli (GPa) = 70.80868 37.51920 74.90496
#
# Poissons Ratio (x) = 0.02668 -0.00339
# Poissons Ratio (y) = 0.05035 0.30640
# Poissons Ratio (z) = -0.00321 0.15347
#
# Static dielectric constant tensor:
#      x y z
#    x 3.754080 0.000000 0.000000 
#    y 0.000000 3.503790 0.000000 
#    z 0.000000 0.000000 3.923980 
# 
# 
# High freq. dielectric constant tensor:
#      x y z
#    x 1.831610 0.000000 0.000000 
#    y 0.000000 1.783440 0.000000 
#    z 0.000000 0.000000 1.809130 
# 
# From -- ./inp_files/7536.got.cif
#   From: 2010.03.12/outbox.cif.g09.slc.cpg/sg19_4_cif.got.tgz:7536.got - 2010.04.10 18:59:41.
