data_PCOD8156763
_publ_section_title
;
Structure prediction by ZEFSAII (Michael W. Deem and Ramdas Pophale) SiO2 
 PCOD8156763
Probable space group: P 21 21 21
;
_chemical_formula_sum "Si O2"
_cell_formula_units_Z 32
_cell_length_a 11.625872
_cell_length_b 7.906146
_cell_length_c 13.315867
_cell_angle_alpha 90.000000
_cell_angle_beta 90.000000
_cell_angle_gamma 90.000000
_cell_volume 1223.939119
_symmetry_space_group_name_H-M "P 21 21 21"
_symmetry_group_IT_number 19
_symmetry_cell_setting 'orthorhombic'
loop_
_space_group_symop_operation_xyz
x,y,z
1/2-x,-y,1/2+z
1/2+x,1/2-y,-z
-x,1/2+y,1/2-z
loop_
_atom_site_type_symbol
_atom_site_label
_atom_site_fract_x
_atom_site_fract_y
_atom_site_fract_z
Si Si1 0.252940 0.551347 0.426500
Si Si2 0.665205 0.206555 0.278603
Si Si3 0.979578 0.113897 0.551579
Si Si4 0.982763 0.982898 0.990423
Si Si5 0.233096 0.380405 0.142640
Si Si6 0.948667 0.288193 0.838061
Si Si7 0.015764 0.562444 0.175625
Si Si8 0.363903 0.089084 0.669293
O O1 0.276429 0.661202 0.328437
O O2 0.341105 0.392079 0.434175
O O3 0.280626 0.665825 0.525110
O O4 0.121377 0.488336 0.428310
O O5 0.529738 0.244438 0.258814
O O6 0.726657 0.375147 0.323720
O O7 0.685501 0.049731 0.354920
O O8 0.024600 0.305445 0.573357
O O9 0.019751 0.058990 0.440400
O O10 0.036703 0.979740 0.626315
O O11 0.099122 0.973975 0.058505
O O12 0.985421 0.151095 0.923126
O O13 0.313313 0.235579 0.193588
O O14 0.111141 0.411866 0.196316
O O15 0.077419 0.736048 0.200790
O O16 0.904804 0.544560 0.246546
#
# Coordination Sequence:
#
# PCOD8156763 Si02
#       8
#     4   4   4   4   4   4   4   4
#     4   9  19  39  66  87 128 174 197 269 327 364
#     4  10  21  41  66  93 135 169 214 269 326 378
#     4   9  20  38  60  93 123 162 221 251 313 387
#     4  10  20  39  65  93 124 168 217 264 324 381
#     4   9  19  39  64  90 124 171 210 254 325 377
#     4  10  22  41  68  87 126 182 210 263 321 385
#     4   9  19  34  60  89 126 159 204 266 317 375
#     4  10  20  35  63  94 126 163 207 278 323 371
#
# _framework density 26.145094
#
# number of rings (size 3 to 8) (size 9 to 14) (size 15 to 20)
#    0.000    2.500    0.000    2.250    5.250    0.000 
#   13.500    1.250   11.000    0.000    0.000    0.000 
#    0.000    0.000    0.000    0.000    0.000    0.000 
#
# Total GULP energy -396569.834814 kJ/mol
# GULP energy per Si atom -12392.807338 kJ/mol
# Density = 2.608559 g / cm^3
# Si number density = 26.145094 Si / 1000 Ang^3
#
#
#
# Elastic Constant Matrix: (Units=GPa)
#
#
# Indices 1 2 3 4 5 6 
#
# 1 43.1228 3.6008 0.7733 0.0000 0.0000 0.0000
# 2 3.6008 59.3848 38.1014 0.0000 0.0000 0.0000
# 3 0.7733 38.1014 68.6982 0.0000 0.0000 0.0000
# 4 0.0000 0.0000 0.0000 33.3709 0.0000 0.0000
# 5 0.0000 0.0000 0.0000 0.0000 28.4827 0.0000
# 6 0.0000 0.0000 0.0000 0.0000 0.0000 44.2878
#
#
#
# Elastic Compliance Matrix: (Units=1/GPa)
#
#
# Indices 1 2 3 4 5 6 
#
# 1 0.023337 -0.001935 0.000811 0.000000 0.000000 0.000000
# 2 -0.001935 0.026302 -0.014566 0.000000 0.000000 0.000000
# 3 0.000811 -0.014566 0.022626 0.000000 0.000000 0.000000
# 4 0.000000 0.000000 0.000000 0.029966 0.000000 0.000000
# 5 0.000000 0.000000 0.000000 0.000000 0.035109 0.000000
# 6 0.000000 0.000000 0.000000 0.000000 0.000000 0.022580
#
#
# Mechanical properties :
#
#
# Convention : Reuss Voigt Hill
#
# Bulk Modulus (GPa) = 24.45959 28.46186 26.46073
# Shear Modulus (GPa) = 24.39876 29.81030 27.10453
#
# Velocity S-wave (km/s) = 3.05816 3.38033 3.22327
# Velocity P-wave (km/s) = 4.67391 5.11324 4.89850
#
# Compressibility (1/GPa) = 0.04088375
#
# Stress axis : x y z
#
# Youngs Moduli (GPa) = 42.85111 38.01962 44.19719
#
# Poissons Ratio (x) = 0.07357 -0.03582
# Poissons Ratio (y) = 0.08292 0.64377
# Poissons Ratio (z) = -0.03473 0.55379
#
# Static dielectric constant tensor:
#      x y z
#    x 5.127040 0.000000 0.000000 
#    y 0.000000 4.509790 0.000000 
#    z 0.000000 0.000000 4.682090 
# 
# 
# High freq. dielectric constant tensor:
#      x y z
#    x 2.051950 0.000000 0.000000 
#    y 0.000000 2.030400 0.000000 
#    z 0.000000 0.000000 2.055740 
# 
# From -- ./inp_files/6186.got.cif
#   From: 2010.03.12/outbox.cif.g09.slc.cpg/sg19_4_cif.got.tgz:6186.got - 2010.04.10 18:59:41.
