data_PCOD8156384
_publ_section_title
;
Structure prediction by ZEFSAII (Michael W. Deem and Ramdas Pophale) SiO2 
 PCOD8156384
Probable space group: P 21 21 2
;
_chemical_formula_sum "Si O2"
_cell_formula_units_Z 18
_cell_length_a 12.710326
_cell_length_b 7.079907
_cell_length_c 8.550210
_cell_angle_alpha 90.000000
_cell_angle_beta 90.000000
_cell_angle_gamma 90.000000
_cell_volume 769.415665
_symmetry_space_group_name_H-M "P 21 21 2"
_symmetry_group_IT_number 18
_symmetry_cell_setting 'orthorhombic'
loop_
_space_group_symop_operation_xyz
x,y,z
-x,-y,z
1/2+x,1/2-y,-z
1/2-x,1/2+y,-z
loop_
_atom_site_type_symbol
_atom_site_label
_atom_site_fract_x
_atom_site_fract_y
_atom_site_fract_z
Si Si1 0.259782 0.528527 0.683147
Si Si2 0.105523 0.774957 0.510186
Si Si3 0.582636 0.344380 0.911666
Si Si4 0.500000 0.000000 0.721442
Si Si5 0.561199 0.192807 0.246781
O O1 0.204754 0.713692 0.614792
O O2 0.360048 0.467585 0.576331
O O3 0.302588 0.582905 0.856042
O O4 0.177761 0.355732 0.692778
O O5 0.083555 0.608582 0.386442
O O6 0.002763 0.806467 0.619433
O O7 0.500000 0.500000 0.853894
O O8 0.562567 0.144471 0.830114
O O9 0.575627 0.326371 0.097770
O O10 0.500000 0.000000 0.202871
#
# Coordination Sequence:
#
# PCOD8156384 Si02
#       5
#     4   4   4   2   4
#     4  11  24  41  75 107 134 190 245 278 362 433
#     4  11  23  45  72 103 145 184 234 305 350 418
#     4  12  26  43  73 103 140 190 236 288 360 426
#     4  12  22  46  72  98 146 180 224 306 346 416
#     4  10  24  47  68  99 150 182 228 304 356 410
#
# _framework density 23.394376000000001
#
# number of rings (size 3 to 8) (size 9 to 14) (size 15 to 20)
#    0.000    0.889    6.667    1.333    0.000    7.111 
#    0.000    0.000    0.000    0.000    0.000    0.000 
#    0.000    0.000    0.000    0.000    0.000    0.000 
#
# Total GULP energy -223240.903998 kJ/mol
# GULP energy per Si atom -12402.272444 kJ/mol
# Density = 2.334113 g / cm^3
# Si number density = 23.394376 Si / 1000 Ang^3
#
#
#
# Elastic Constant Matrix: (Units=GPa)
#
#
# Indices 1 2 3 4 5 6 
#
# 1 115.2037 24.9505 58.7308 0.0000 0.0000 0.0000
# 2 24.9505 51.7630 28.1805 0.0000 0.0000 0.0000
# 3 58.7308 28.1805 136.4607 0.0000 0.0000 0.0000
# 4 0.0000 0.0000 0.0000 48.6030 0.0000 0.0000
# 5 0.0000 0.0000 0.0000 0.0000 37.4277 0.0000
# 6 0.0000 0.0000 0.0000 0.0000 0.0000 18.9223
#
#
#
# Elastic Compliance Matrix: (Units=1/GPa)
#
#
# Indices 1 2 3 4 5 6 
#
# 1 0.011581 -0.003232 -0.004317 0.000000 0.000000 0.000000
# 2 -0.003232 0.022668 -0.003290 0.000000 0.000000 0.000000
# 3 -0.004317 -0.003290 0.009865 0.000000 0.000000 0.000000
# 4 0.000000 0.000000 0.000000 0.020575 0.000000 0.000000
# 5 0.000000 0.000000 0.000000 0.000000 0.026718 0.000000
# 6 0.000000 0.000000 0.000000 0.000000 0.000000 0.052848
#
#
# Mechanical properties :
#
#
# Convention : Reuss Voigt Hill
#
# Bulk Modulus (GPa) = 44.57059 58.57236 51.57147
# Shear Modulus (GPa) = 28.83310 33.76165 31.29738
#
# Velocity S-wave (km/s) = 3.51448 3.80301 3.66159
# Velocity P-wave (km/s) = 5.96338 6.66146 6.32207
#
# Compressibility (1/GPa) = 0.02243632
#
# Stress axis : x y z
#
# Youngs Moduli (GPa) = 86.34838 44.11523 101.36362
#
# Poissons Ratio (x) = 0.14258 0.43757
# Poissons Ratio (y) = 0.27908 0.33350
# Poissons Ratio (z) = 0.37275 0.14514
#
# Static dielectric constant tensor:
#      x y z
#    x 4.188370 0.000000 0.000000 
#    y 0.000000 4.043650 0.000000 
#    z 0.000000 0.000000 4.236020 
# 
# 
# High freq. dielectric constant tensor:
#      x y z
#    x 1.927810 0.000000 0.000000 
#    y 0.000000 1.919180 0.000000 
#    z 0.000000 0.000000 1.928990 
# 
# From -- ./inp_files/2960.got.cif
#   From: 2010.03.12/outbox.cif.g09.slc.cpg/sg18_2_cif.got.tgz:2960.got - 2010.04.10 18:53:55.
