data_PCOD8156129
_publ_section_title
;
Structure prediction by ZEFSAII (Michael W. Deem and Ramdas Pophale) SiO2 
 PCOD8156129
Probable space group: P 21 21 2
;
_chemical_formula_sum "Si O2"
_cell_formula_units_Z 32
_cell_length_a 12.332219
_cell_length_b 15.425754
_cell_length_c 8.371961
_cell_angle_alpha 90.000000
_cell_angle_beta 90.000000
_cell_angle_gamma 90.000000
_cell_volume 1592.629758
_symmetry_space_group_name_H-M "P 21 21 2"
_symmetry_group_IT_number 18
_symmetry_cell_setting 'orthorhombic'
loop_
_space_group_symop_operation_xyz
x,y,z
-x,-y,z
1/2+x,1/2-y,-z
1/2-x,1/2+y,-z
loop_
_atom_site_type_symbol
_atom_site_label
_atom_site_fract_x
_atom_site_fract_y
_atom_site_fract_z
Si Si1 0.774561 0.706092 0.951428
Si Si2 0.574372 0.811567 0.374033
Si Si3 0.918505 0.570305 0.804452
Si Si4 0.111337 0.958093 0.524655
Si Si5 0.916772 0.851243 0.093499
Si Si6 0.256204 0.559795 0.689655
Si Si7 0.913958 0.142416 0.831461
Si Si8 0.603773 0.710525 0.683458
O O1 0.878989 0.644098 0.925887
O O2 0.709958 0.731542 0.789662
O O3 0.818798 0.792550 0.030793
O O4 0.694119 0.657362 0.069694
O O5 0.481336 0.883519 0.343547
O O6 0.690549 0.851044 0.324393
O O7 0.549813 0.728065 0.265215
O O8 0.578242 0.788658 0.561093
O O9 0.812449 0.521336 0.747998
O O10 0.000000 0.500000 0.886568
O O11 0.112921 0.935584 0.711302
O O12 0.132691 0.874691 0.415715
O O13 0.201082 0.031258 0.485427
O O14 0.000000 0.000000 0.471749
O O15 0.858010 0.928972 0.189128
O O16 0.996627 0.798113 0.209306
O O17 0.986739 0.887235 0.944758
#
# Coordination Sequence:
#
# PCOD8156129 Si02
#       8
#     4   4   4   4   4   4   4   4
#     4  11  21  40  62  95 123 165 207 257 319 374
#     4  10  21  41  62  92 120 164 215 251 306 379
#     4  10  22  38  62  89 126 165 202 255 312 374
#     4  11  22  40  58  90 122 159 204 256 313 364
#     4  11  22  39  64  91 127 164 209 264 313 380
#     4  11  22  39  64  89 124 168 205 254 325 370
#     4  10  23  38  63  94 123 158 212 263 303 377
#     4  10  23  38  64  90 123 163 212 259 309 373
#
# _framework density 20.092555999999998
#
# number of rings (size 3 to 8) (size 9 to 14) (size 15 to 20)
#    0.000    1.500    5.000    0.000    0.000    4.000 
#    0.000    1.250    0.000    0.000    0.000    0.000 
#    0.000    0.000    0.000    0.000    0.000    0.000 
#
# Total GULP energy -396769.143939 kJ/mol
# GULP energy per Si atom -12399.035748 kJ/mol
# Density = 2.004682 g / cm^3
# Si number density = 20.092556 Si / 1000 Ang^3
#
#
#
# Elastic Constant Matrix: (Units=GPa)
#
#
# Indices 1 2 3 4 5 6 
#
# 1 110.1519 32.7005 54.1122 0.0000 0.0000 0.0000
# 2 32.7005 66.7724 39.5365 0.0000 0.0000 0.0000
# 3 54.1122 39.5365 123.6250 0.0000 0.0000 0.0000
# 4 0.0000 0.0000 0.0000 19.7542 0.0000 0.0000
# 5 0.0000 0.0000 0.0000 0.0000 27.5306 0.0000
# 6 0.0000 0.0000 0.0000 0.0000 0.0000 34.5840
#
#
#
# Elastic Compliance Matrix: (Units=1/GPa)
#
#
# Indices 1 2 3 4 5 6 
#
# 1 0.012182 -0.003465 -0.004224 0.000000 0.000000 0.000000
# 2 -0.003465 0.019460 -0.004707 0.000000 0.000000 0.000000
# 3 -0.004224 -0.004707 0.011443 0.000000 0.000000 0.000000
# 4 0.000000 0.000000 0.000000 0.050622 0.000000 0.000000
# 5 0.000000 0.000000 0.000000 0.000000 0.036323 0.000000
# 6 0.000000 0.000000 0.000000 0.000000 0.000000 0.028915
#
#
# Mechanical properties :
#
#
# Convention : Reuss Voigt Hill
#
# Bulk Modulus (GPa) = 54.66381 61.47197 58.06789
# Shear Modulus (GPa) = 26.33856 27.98709 27.16283
#
# Velocity S-wave (km/s) = 3.62451 3.73622 3.68079
# Velocity P-wave (km/s) = 6.69187 7.01949 6.85764
#
# Compressibility (1/GPa) = 0.01829364
#
# Stress axis : x y z
#
# Youngs Moduli (GPa) = 82.08776 51.38728 87.38751
#
# Poissons Ratio (x) = 0.17804 0.36914
# Poissons Ratio (y) = 0.28441 0.41133
# Poissons Ratio (z) = 0.34675 0.24188
#
# Static dielectric constant tensor:
#      x y z
#    x 3.772000 0.000000 0.000000 
#    y 0.000000 3.608860 0.000000 
#    z 0.000000 0.000000 3.691830 
# 
# 
# High freq. dielectric constant tensor:
#      x y z
#    x 1.796530 0.000000 0.000000 
#    y 0.000000 1.780740 0.000000 
#    z 0.000000 0.000000 1.775680 
# 
# From -- ./inp_files/3959.got.cif
#   From: 2010.03.12/outbox.cif.g09.slc.cpg/sg18_2_cif.got.tgz:3959.got - 2010.04.10 18:53:55.
