data_PCOD8156810
_publ_section_title
;
Structure prediction by ZEFSAII (Michael W. Deem and Ramdas Pophale) SiO2 
 PCOD8156810
Probable space group: P 21 21 21
;
_chemical_formula_sum "Si O2"
_cell_formula_units_Z 32
_cell_length_a 10.794026
_cell_length_b 11.711231
_cell_length_c 13.448365
_cell_angle_alpha 90.000000
_cell_angle_beta 90.000000
_cell_angle_gamma 90.000000
_cell_volume 1700.025732
_symmetry_space_group_name_H-M "P 21 21 21"
_symmetry_group_IT_number 19
_symmetry_cell_setting 'orthorhombic'
loop_
_space_group_symop_operation_xyz
x,y,z
1/2-x,-y,1/2+z
1/2+x,1/2-y,-z
-x,1/2+y,1/2-z
loop_
_atom_site_type_symbol
_atom_site_label
_atom_site_fract_x
_atom_site_fract_y
_atom_site_fract_z
Si Si1 0.842649 0.350422 0.874734
Si Si2 0.413006 0.557757 0.045829
Si Si3 0.411066 0.752945 0.676162
Si Si4 0.544883 0.425336 0.440943
Si Si5 0.605847 0.826222 0.533569
Si Si6 0.673058 0.055661 0.956041
Si Si7 0.425408 0.221460 0.337511
Si Si8 0.650295 0.257914 0.597525
O O1 0.694999 0.334138 0.869947
O O2 0.865341 0.485261 0.885728
O O3 0.902514 0.292244 0.778304
O O4 0.910070 0.285712 0.965294
O O5 0.469330 0.436515 0.008991
O O6 0.400259 0.644348 0.953864
O O7 0.274448 0.533136 0.090225
O O8 0.504641 0.607028 0.128166
O O9 0.546569 0.795535 0.640140
O O10 0.386795 0.624462 0.635890
O O11 0.412654 0.759068 0.794499
O O12 0.423834 0.489426 0.477937
O O13 0.511457 0.330790 0.358502
O O14 0.610961 0.369650 0.536129
O O15 0.752250 0.860207 0.533705
O O16 0.298367 0.239637 0.397328
#
# Coordination Sequence:
#
# PCOD8156810 Si02
#       8
#     4   4   4   4   4   4   4   4
#     4  10  22  35  59  87 110 157 193 241 288 340
#     4   9  20  37  58  81 112 154 190 237 291 338
#     4  10  20  38  57  87 118 148 196 240 296 350
#     4  11  21  38  61  83 120 150 194 241 291 344
#     4   9  19  36  58  80 112 149 190 236 286 336
#     4   9  19  37  59  81 115 153 187 235 288 345
#     4  10  21  38  58  82 117 150 198 235 288 353
#     4  10  22  37  58  85 114 155 190 245 298 336
#
# _framework density 18.823243999999999
#
# number of rings (size 3 to 8) (size 9 to 14) (size 15 to 20)
#    0.750    1.500    2.500    0.000    3.500    1.000 
#    0.000    0.000    0.000    0.000    0.000    0.000 
#    0.000    0.000    0.000    0.000    0.000    0.000 
#
# Total GULP energy -396574.823958 kJ/mol
# GULP energy per Si atom -12392.963249 kJ/mol
# Density = 1.878040 g / cm^3
# Si number density = 18.823244 Si / 1000 Ang^3
#
#
#
# Elastic Constant Matrix: (Units=GPa)
#
#
# Indices 1 2 3 4 5 6 
#
# 1 42.4049 12.5222 20.7470 0.0000 0.0000 0.0000
# 2 12.5222 94.9871 29.5968 0.0000 0.0000 0.0000
# 3 20.7470 29.5968 68.8445 0.0000 0.0000 0.0000
# 4 0.0000 0.0000 0.0000 21.2817 0.0000 0.0000
# 5 0.0000 0.0000 0.0000 0.0000 27.1623 0.0000
# 6 0.0000 0.0000 0.0000 0.0000 0.0000 28.4635
#
#
#
# Elastic Compliance Matrix: (Units=1/GPa)
#
#
# Indices 1 2 3 4 5 6 
#
# 1 0.027782 -0.001217 -0.007849 0.000000 0.000000 0.000000
# 2 -0.001217 0.012209 -0.004882 0.000000 0.000000 0.000000
# 3 -0.007849 -0.004882 0.018990 0.000000 0.000000 0.000000
# 4 0.000000 0.000000 0.000000 0.046989 0.000000 0.000000
# 5 0.000000 0.000000 0.000000 0.000000 0.036816 0.000000
# 6 0.000000 0.000000 0.000000 0.000000 0.000000 0.035133
#
#
# Mechanical properties :
#
#
# Convention : Reuss Voigt Hill
#
# Bulk Modulus (GPa) = 32.17029 36.88538 34.52784
# Shear Modulus (GPa) = 23.12928 24.93953 24.03441
#
# Velocity S-wave (km/s) = 3.50917 3.64391 3.57718
# Velocity P-wave (km/s) = 5.79197 6.11084 5.95354
#
# Compressibility (1/GPa) = 0.03108458
#
# Stress axis : x y z
#
# Youngs Moduli (GPa) = 35.99483 81.90406 52.65970
#
# Poissons Ratio (x) = 0.09966 0.41334
# Poissons Ratio (y) = 0.04380 0.25710
# Poissons Ratio (z) = 0.28253 0.39988
#
# Static dielectric constant tensor:
#      x y z
#    x 3.398020 0.000000 0.000000 
#    y 0.000000 3.587900 0.000000 
#    z 0.000000 0.000000 3.174800 
# 
# 
# High freq. dielectric constant tensor:
#      x y z
#    x 1.726190 0.000000 0.000000 
#    y 0.000000 1.740880 0.000000 
#    z 0.000000 0.000000 1.710400 
# 
# From -- ./inp_files/5029.got.cif
#   From: 2010.03.12/outbox.cif.g09.slc.cpg/sg19_3_cif.got.tgz:5029.got - 2010.04.10 18:59:41.
