data_PCOD8156802
_publ_section_title
;
Structure prediction by ZEFSAII (Michael W. Deem and Ramdas Pophale) SiO2 
 PCOD8156802
Probable space group: P 21 21 21
;
_chemical_formula_sum "Si O2"
_cell_formula_units_Z 20
_cell_length_a 12.989219
_cell_length_b 5.107807
_cell_length_c 12.863207
_cell_angle_alpha 90.000000
_cell_angle_beta 90.000000
_cell_angle_gamma 90.000000
_cell_volume 853.427782
_symmetry_space_group_name_H-M "P 21 21 21"
_symmetry_group_IT_number 19
_symmetry_cell_setting 'orthorhombic'
loop_
_space_group_symop_operation_xyz
x,y,z
1/2-x,-y,1/2+z
1/2+x,1/2-y,-z
-x,1/2+y,1/2-z
loop_
_atom_site_type_symbol
_atom_site_label
_atom_site_fract_x
_atom_site_fract_y
_atom_site_fract_z
Si Si1 0.359536 0.536078 0.425139
Si Si2 0.436342 0.469888 0.222590
Si Si3 0.920973 0.303904 0.975696
Si Si4 0.015985 0.101369 0.181187
Si Si5 0.795533 0.470025 0.463729
O O1 0.338579 0.491812 0.301808
O O2 0.481106 0.516627 0.449669
O O3 0.323858 0.831033 0.444578
O O4 0.304385 0.328783 0.499251
O O5 0.509187 0.711564 0.236914
O O6 0.407562 0.444435 0.101711
O O7 0.825153 0.488981 0.946259
O O8 0.932850 0.185775 0.092239
O O9 0.027700 0.343581 0.261210
O O10 0.129124 0.033428 0.133819
#
# Coordination Sequence:
#
# PCOD8156802 Si02
#       5
#     4   4   4   4   4
#     4  10  22  42  62  92 127 156 205 272 317 365
#     4  10  20  37  63  88 119 158 200 260 320 358
#     4  10  24  42  66  92 126 167 215 263 311 385
#     4  11  24  44  63  91 135 174 209 262 319 379
#     4  11  24  41  66  95 125 171 215 253 319 385
#
# _framework density 23.434908
#
# number of rings (size 3 to 8) (size 9 to 14) (size 15 to 20)
#    0.000    1.600    0.000    6.000    0.000   12.800 
#    0.000    0.000    0.000    0.000    0.000    0.000 
#    0.000    0.000    0.000    0.000    0.000    0.000 
#
# Total GULP energy -247785.114729 kJ/mol
# GULP energy per Si atom -12389.255736 kJ/mol
# Density = 2.338157 g / cm^3
# Si number density = 23.434908 Si / 1000 Ang^3
#
#
#
# Elastic Constant Matrix: (Units=GPa)
#
#
# Indices 1 2 3 4 5 6 
#
# 1 73.3046 -13.1906 -10.3735 0.0000 0.0000 0.0000
# 2 -13.1906 81.9561 16.4697 0.0000 0.0000 0.0000
# 3 -10.3735 16.4697 117.7306 0.0000 0.0000 0.0000
# 4 0.0000 0.0000 0.0000 33.2508 0.0000 0.0000
# 5 0.0000 0.0000 0.0000 0.0000 13.2310 0.0000
# 6 0.0000 0.0000 0.0000 0.0000 0.0000 18.9567
#
#
#
# Elastic Compliance Matrix: (Units=1/GPa)
#
#
# Indices 1 2 3 4 5 6 
#
# 1 0.014152 0.002086 0.000955 0.000000 0.000000 0.000000
# 2 0.002086 0.012862 -0.001616 0.000000 0.000000 0.000000
# 3 0.000955 -0.001616 0.008804 0.000000 0.000000 0.000000
# 4 0.000000 0.000000 0.000000 0.030074 0.000000 0.000000
# 5 0.000000 0.000000 0.000000 0.000000 0.075580 0.000000
# 6 0.000000 0.000000 0.000000 0.000000 0.000000 0.052752
#
#
# Mechanical properties :
#
#
# Convention : Reuss Voigt Hill
#
# Bulk Modulus (GPa) = 25.86031 28.75583 27.30807
# Shear Modulus (GPa) = 24.47815 31.76006 28.11911
#
# Velocity S-wave (km/s) = 3.23540 3.68536 3.46769
# Velocity P-wave (km/s) = 5.00160 5.51419 5.26414
#
# Compressibility (1/GPa) = 0.03866930
#
# Stress axis : x y z
#
# Youngs Moduli (GPa) = 70.66032 77.74832 113.58299
#
# Poissons Ratio (x) = -0.16217 -0.10849
# Poissons Ratio (y) = -0.14738 0.18350
# Poissons Ratio (z) = -0.06749 0.12560
#
# Static dielectric constant tensor:
#      x y z
#    x 4.257130 0.000000 0.000000 
#    y 0.000000 4.174300 0.000000 
#    z 0.000000 0.000000 4.934220 
# 
# 
# High freq. dielectric constant tensor:
#      x y z
#    x 1.903800 0.000000 0.000000 
#    y 0.000000 1.943540 0.000000 
#    z 0.000000 0.000000 1.938690 
# 
# From -- ./inp_files/823.got.cif
#   From: 2010.03.12/outbox.cif.g09.slc.cpg/sg19_1_cif.got.tgz:823.got - 2010.04.10 18:59:41.
