data_PCOD8156746
_publ_section_title
;
Structure prediction by ZEFSAII (Michael W. Deem and Ramdas Pophale) SiO2 
 PCOD8156746
Probable space group: P 21 21 21
;
_chemical_formula_sum "Si O2"
_cell_formula_units_Z 32
_cell_length_a 9.454095
_cell_length_b 8.657617
_cell_length_c 19.463267
_cell_angle_alpha 90.000000
_cell_angle_beta 90.000000
_cell_angle_gamma 90.000000
_cell_volume 1593.067111
_symmetry_space_group_name_H-M "P 21 21 21"
_symmetry_group_IT_number 19
_symmetry_cell_setting 'orthorhombic'
loop_
_space_group_symop_operation_xyz
x,y,z
1/2-x,-y,1/2+z
1/2+x,1/2-y,-z
-x,1/2+y,1/2-z
loop_
_atom_site_type_symbol
_atom_site_label
_atom_site_fract_x
_atom_site_fract_y
_atom_site_fract_z
Si Si1 0.762049 0.982757 0.424710
Si Si2 0.933722 0.867730 0.821199
Si Si3 0.223684 0.380281 0.427293
Si Si4 0.561177 0.625207 0.559953
Si Si5 0.455397 0.962596 0.560006
Si Si6 0.046098 0.532584 0.816726
Si Si7 0.658013 0.639402 0.409792
Si Si8 0.671291 0.545001 0.081165
O O1 0.686259 0.821036 0.408600
O O2 0.929464 0.971322 0.409698
O O3 0.692862 0.113896 0.376610
O O4 0.746369 0.018437 0.504818
O O5 0.954926 0.687503 0.805224
O O6 0.081100 0.933843 0.850363
O O7 0.893541 0.966037 0.754252
O O8 0.320548 0.440528 0.365749
O O9 0.255342 0.203110 0.443984
O O10 0.056166 0.402278 0.409052
O O11 0.539552 0.804879 0.572631
O O12 0.580033 0.586780 0.479356
O O13 0.705177 0.576831 0.598781
O O14 0.304226 0.957179 0.597601
O O15 0.432724 0.984229 0.478273
O O16 0.941966 0.402424 0.846626
#
# Coordination Sequence:
#
# PCOD8156746 Si02
#       8
#     4   4   4   4   4   4   4   4
#     4  11  21  35  62  92 126 159 207 257 312 374
#     4  11  24  42  61  90 122 171 206 257 314 380
#     4  11  22  36  60  93 126 158 207 262 316 364
#     4  10  20  35  57  91 121 158 197 258 308 360
#     4  10  21  35  57  92 123 155 203 255 312 363
#     4  11  25  42  63  89 128 169 212 253 315 377
#     4  10  20  36  59  91 125 159 206 253 307 372
#     4  10  23  35  59  90 125 157 204 259 308 368
#
# _framework density 20.087036000000001
#
# number of rings (size 3 to 8) (size 9 to 14) (size 15 to 20)
#    0.000    1.500    3.750    0.750    5.250    2.000 
#    0.000    1.250    0.000    0.000    0.000    0.000 
#    0.000    0.000    0.000    0.000    0.000    0.000 
#
# Total GULP energy -396839.993282 kJ/mol
# GULP energy per Si atom -12401.249790 kJ/mol
# Density = 2.004132 g / cm^3
# Si number density = 20.087036 Si / 1000 Ang^3
#
#
#
# Elastic Constant Matrix: (Units=GPa)
#
#
# Indices 1 2 3 4 5 6 
#
# 1 103.1567 32.4189 22.8587 0.0000 0.0000 0.0000
# 2 32.4189 66.4115 18.0336 0.0000 0.0000 0.0000
# 3 22.8587 18.0336 70.8649 0.0000 0.0000 0.0000
# 4 0.0000 0.0000 0.0000 26.8520 0.0000 0.0000
# 5 0.0000 0.0000 0.0000 0.0000 25.7219 0.0000
# 6 0.0000 0.0000 0.0000 0.0000 0.0000 39.0389
#
#
#
# Elastic Compliance Matrix: (Units=1/GPa)
#
#
# Indices 1 2 3 4 5 6 
#
# 1 0.011857 -0.005102 -0.002526 0.000000 0.000000 0.000000
# 2 -0.005102 0.018371 -0.003029 0.000000 0.000000 0.000000
# 3 -0.002526 -0.003029 0.015697 0.000000 0.000000 0.000000
# 4 0.000000 0.000000 0.000000 0.037241 0.000000 0.000000
# 5 0.000000 0.000000 0.000000 0.000000 0.038877 0.000000
# 6 0.000000 0.000000 0.000000 0.000000 0.000000 0.025615
#
#
# Mechanical properties :
#
#
# Convention : Reuss Voigt Hill
#
# Bulk Modulus (GPa) = 40.63419 43.00616 41.82018
# Shear Modulus (GPa) = 28.22022 29.46401 28.84211
#
# Velocity S-wave (km/s) = 3.75226 3.83406 3.79338
# Velocity P-wave (km/s) = 6.24865 6.40753 6.32859
#
# Compressibility (1/GPa) = 0.02460982
#
# Stress axis : x y z
#
# Youngs Moduli (GPa) = 84.33650 54.43417 63.70578
#
# Poissons Ratio (x) = 0.27773 0.16095
# Poissons Ratio (y) = 0.43030 0.19298
# Poissons Ratio (z) = 0.21307 0.16489
#
# Static dielectric constant tensor:
#      x y z
#    x 3.988420 0.000000 0.000000 
#    y 0.000000 3.677120 0.000000 
#    z 0.000000 0.000000 3.264730 
# 
# 
# High freq. dielectric constant tensor:
#      x y z
#    x 1.799070 0.000000 0.000000 
#    y 0.000000 1.791140 0.000000 
#    z 0.000000 0.000000 1.743890 
# 
# From -- ./inp_files/7051.got.cif
#   From: 2010.03.12/outbox.cif.g09.slc.cpg/sg19_4_cif.got.tgz:7051.got - 2010.04.10 18:59:41.
