data_PCOD8156785
_publ_section_title
;
Structure prediction by ZEFSAII (Michael W. Deem and Ramdas Pophale) SiO2 
 PCOD8156785
Probable space group: P 21 21 21
;
_chemical_formula_sum "Si O2"
_cell_formula_units_Z 28
_cell_length_a 12.717096
_cell_length_b 8.822802
_cell_length_c 12.328079
_cell_angle_alpha 90.000000
_cell_angle_beta 90.000000
_cell_angle_gamma 90.000000
_cell_volume 1383.215642
_symmetry_space_group_name_H-M "P 21 21 21"
_symmetry_group_IT_number 19
_symmetry_cell_setting 'orthorhombic'
loop_
_space_group_symop_operation_xyz
x,y,z
1/2-x,-y,1/2+z
1/2+x,1/2-y,-z
-x,1/2+y,1/2-z
loop_
_atom_site_type_symbol
_atom_site_label
_atom_site_fract_x
_atom_site_fract_y
_atom_site_fract_z
Si Si1 0.381467 0.492121 0.462164
Si Si2 0.806859 0.508926 0.262854
Si Si3 0.760582 0.252277 0.416955
Si Si4 0.909357 0.574544 0.663079
Si Si5 0.879715 0.501172 0.030975
Si Si6 0.102125 0.391796 0.732069
Si Si7 0.301621 0.799938 0.538932
O O1 0.341517 0.328727 0.501570
O O2 0.504531 0.511774 0.483929
O O3 0.362790 0.504443 0.333438
O O4 0.314690 0.620975 0.524249
O O5 0.826901 0.359798 0.336237
O O6 0.687048 0.509989 0.221242
O O7 0.886454 0.509636 0.161734
O O8 0.826237 0.657433 0.336446
O O9 0.677186 0.349687 0.485381
O O10 0.701107 0.124357 0.347392
O O11 0.936189 0.728201 0.726716
O O12 0.882305 0.609344 0.538482
O O13 0.008854 0.465695 0.663813
O O14 0.816736 0.350549 0.993612
#
# Coordination Sequence:
#
# PCOD8156785 Si02
#       7
#     4   4   4   4   4   4   4
#     4  11  23  38  60  89 118 152 196 242 292 350
#     4   9  19  38  57  79 118 157 191 239 292 342
#     4  10  23  39  58  87 120 153 196 244 288 347
#     4   9  19  34  57  82 110 153 196 242 292 341
#     4  10  22  41  61  84 119 158 196 240 290 347
#     4  10  20  37  57  83 116 149 196 249 289 339
#     4   9  20  37  56  84 117 152 195 240 289 346
#
# _framework density 20.242685000000002
#
# number of rings (size 3 to 8) (size 9 to 14) (size 15 to 20)
#    0.000    2.286    0.000    3.429    0.000   12.571 
#    0.000    1.429    0.000    0.000    0.000    0.000 
#    0.000    0.000    0.000    0.000    0.000    0.000 
#
# Total GULP energy -347255.481550 kJ/mol
# GULP energy per Si atom -12401.981484 kJ/mol
# Density = 2.019661 g / cm^3
# Si number density = 20.242685 Si / 1000 Ang^3
#
#
#
# Elastic Constant Matrix: (Units=GPa)
#
#
# Indices 1 2 3 4 5 6 
#
# 1 71.5957 32.4788 13.1172 0.0000 0.0000 0.0000
# 2 32.4788 54.7921 30.9632 0.0000 0.0000 0.0000
# 3 13.1172 30.9632 95.9336 0.0000 0.0000 0.0000
# 4 0.0000 0.0000 0.0000 37.5403 0.0000 0.0000
# 5 0.0000 0.0000 0.0000 0.0000 18.0372 0.0000
# 6 0.0000 0.0000 0.0000 0.0000 0.0000 36.9375
#
#
#
# Elastic Compliance Matrix: (Units=1/GPa)
#
#
# Indices 1 2 3 4 5 6 
#
# 1 0.019233 -0.012126 0.001284 0.000000 0.000000 0.000000
# 2 -0.012126 0.029968 -0.008014 0.000000 0.000000 0.000000
# 3 0.001284 -0.008014 0.012835 0.000000 0.000000 0.000000
# 4 0.000000 0.000000 0.000000 0.026638 0.000000 0.000000
# 5 0.000000 0.000000 0.000000 0.000000 0.055441 0.000000
# 6 0.000000 0.000000 0.000000 0.000000 0.000000 0.027073
#
#
# Mechanical properties :
#
#
# Convention : Reuss Voigt Hill
#
# Bulk Modulus (GPa) = 41.11369 41.71554 41.41462
# Shear Modulus (GPa) = 23.04063 28.22048 25.63056
#
# Velocity S-wave (km/s) = 3.37741 3.73783 3.56218
# Velocity P-wave (km/s) = 5.96353 6.26745 6.11738
#
# Compressibility (1/GPa) = 0.02432280
#
# Stress axis : x y z
#
# Youngs Moduli (GPa) = 51.99387 33.36930 77.91227
#
# Poissons Ratio (x) = 0.40464 -0.10004
# Poissons Ratio (y) = 0.63049 0.62441
# Poissons Ratio (z) = -0.06676 0.26743
#
# Static dielectric constant tensor:
#      x y z
#    x 3.379230 0.000000 0.000000 
#    y 0.000000 3.630420 0.000000 
#    z 0.000000 0.000000 3.921580 
# 
# 
# High freq. dielectric constant tensor:
#      x y z
#    x 1.765990 0.000000 0.000000 
#    y 0.000000 1.785240 0.000000 
#    z 0.000000 0.000000 1.805410 
# 
# From -- ./inp_files/3464.got.cif
#   From: 2010.03.12/outbox.cif.g09.slc.cpg/sg19_2_cif.got.tgz:3464.got - 2010.04.10 18:59:41.
