data_PCOD8156983
_publ_section_title
;
Structure prediction by ZEFSAII (Michael W. Deem and Ramdas Pophale) SiO2 
 PCOD8156983
Probable space group: P 21 21 21
;
_chemical_formula_sum "Si O2"
_cell_formula_units_Z 32
_cell_length_a 9.235639
_cell_length_b 16.725845
_cell_length_c 10.326347
_cell_angle_alpha 90.000000
_cell_angle_beta 90.000000
_cell_angle_gamma 90.000000
_cell_volume 1595.150747
_symmetry_space_group_name_H-M "P 21 21 21"
_symmetry_group_IT_number 19
_symmetry_cell_setting 'orthorhombic'
loop_
_space_group_symop_operation_xyz
x,y,z
1/2-x,-y,1/2+z
1/2+x,1/2-y,-z
-x,1/2+y,1/2-z
loop_
_atom_site_type_symbol
_atom_site_label
_atom_site_fract_x
_atom_site_fract_y
_atom_site_fract_z
Si Si1 0.908770 0.719966 0.942358
Si Si2 0.691226 0.642318 0.765751
Si Si3 0.041892 0.004195 0.139536
Si Si4 0.848299 0.183433 0.745053
Si Si5 0.684891 0.113121 0.529580
Si Si6 0.448262 0.747702 0.675773
Si Si7 0.942276 0.116983 0.349080
Si Si8 0.933258 0.646847 0.551066
O O1 0.752533 0.701122 0.878020
O O2 0.028043 0.733648 0.830027
O O3 0.899702 0.801474 0.025276
O O4 0.952929 0.645271 0.033845
O O5 0.675135 0.554893 0.829742
O O6 0.532858 0.665864 0.709413
O O7 0.800930 0.641263 0.648021
O O8 0.923440 0.959616 0.050517
O O9 0.987274 0.034068 0.280600
O O10 0.094544 0.077827 0.053443
O O11 0.791654 0.112764 0.652745
O O12 0.717388 0.243910 0.776450
O O13 0.914816 0.140662 0.871797
O O14 0.777810 0.103811 0.398295
O O15 0.548985 0.815423 0.739617
O O16 0.438507 0.767556 0.522785
#
# Coordination Sequence:
#
# PCOD8156983 Si02
#       8
#     4   4   4   4   4   4   4   4
#     4  10  21  39  66  91 119 156 217 263 289 366
#     4  11  22  41  64  91 122 166 209 254 311 364
#     4  11  25  38  63  87 130 169 196 257 315 387
#     4  10  21  38  63  91 117 156 202 258 298 361
#     4  11  21  39  66  88 117 163 209 259 299 369
#     4  11  19  40  67  90 120 158 207 255 304 364
#     4  10  22  38  60  94 124 155 209 256 316 357
#     4  10  25  41  59  92 129 159 201 254 314 368
#
# _framework density 20.060798999999999
#
# number of rings (size 3 to 8) (size 9 to 14) (size 15 to 20)
#    0.000    1.500    3.750    0.750    5.250    0.000 
#    2.250    0.000    2.750    0.000    0.000    0.000 
#    0.000    0.000    0.000    0.000    0.000    0.000 
#
# Total GULP energy -396685.707136 kJ/mol
# GULP energy per Si atom -12396.428348 kJ/mol
# Density = 2.001514 g / cm^3
# Si number density = 20.060799 Si / 1000 Ang^3
#
#
#
# Elastic Constant Matrix: (Units=GPa)
#
#
# Indices 1 2 3 4 5 6 
#
# 1 98.5054 24.9448 40.5814 0.0000 0.0000 0.0000
# 2 24.9448 73.9740 31.0692 0.0000 0.0000 0.0000
# 3 40.5814 31.0692 101.6043 0.0000 0.0000 0.0000
# 4 0.0000 0.0000 0.0000 37.7960 0.0000 0.0000
# 5 0.0000 0.0000 0.0000 0.0000 33.7295 0.0000
# 6 0.0000 0.0000 0.0000 0.0000 0.0000 26.2630
#
#
#
# Elastic Compliance Matrix: (Units=1/GPa)
#
#
# Indices 1 2 3 4 5 6 
#
# 1 0.012522 -0.002435 -0.004257 0.000000 0.000000 0.000000
# 2 -0.002435 0.015984 -0.003915 0.000000 0.000000 0.000000
# 3 -0.004257 -0.003915 0.012740 0.000000 0.000000 0.000000
# 4 0.000000 0.000000 0.000000 0.026458 0.000000 0.000000
# 5 0.000000 0.000000 0.000000 0.000000 0.029648 0.000000
# 6 0.000000 0.000000 0.000000 0.000000 0.000000 0.038076
#
#
# Mechanical properties :
#
#
# Convention : Reuss Voigt Hill
#
# Bulk Modulus (GPa) = 49.92071 51.91940 50.92005
# Shear Modulus (GPa) = 30.61521 31.39026 31.00273
#
# Velocity S-wave (km/s) = 3.91080 3.95999 3.93547
# Velocity P-wave (km/s) = 6.73284 6.84441 6.78885
#
# Compressibility (1/GPa) = 0.02003177
#
# Stress axis : x y z
#
# Youngs Moduli (GPa) = 79.85961 62.56398 78.49583
#
# Poissons Ratio (x) = 0.15232 0.33415
# Poissons Ratio (y) = 0.19443 0.30732
# Poissons Ratio (z) = 0.33995 0.24495
#
# Static dielectric constant tensor:
#      x y z
#    x 3.656310 0.000000 0.000000 
#    y 0.000000 3.435720 0.000000 
#    z 0.000000 0.000000 3.938320 
# 
# 
# High freq. dielectric constant tensor:
#      x y z
#    x 1.783430 0.000000 0.000000 
#    y 0.000000 1.757280 0.000000 
#    z 0.000000 0.000000 1.798360 
# 
# From -- ./inp_files/4672.got.cif
#   From: 2010.03.12/outbox.cif.g09.slc.cpg/sg19_3_cif.got.tgz:4672.got - 2010.04.10 18:59:41.
