data_PCOD8156208
_publ_section_title
;
Structure prediction by ZEFSAII (Michael W. Deem and Ramdas Pophale) SiO2 
 PCOD8156208
Probable space group: P 21 21 2
;
_chemical_formula_sum "Si O2"
_cell_formula_units_Z 20
_cell_length_a 12.239886
_cell_length_b 15.060581
_cell_length_c 5.049078
_cell_angle_alpha 90.000000
_cell_angle_beta 90.000000
_cell_angle_gamma 90.000000
_cell_volume 930.746001
_symmetry_space_group_name_H-M "P 21 21 2"
_symmetry_group_IT_number 18
_symmetry_cell_setting 'orthorhombic'
loop_
_space_group_symop_operation_xyz
x,y,z
-x,-y,z
1/2+x,1/2-y,-z
1/2-x,1/2+y,-z
loop_
_atom_site_type_symbol
_atom_site_label
_atom_site_fract_x
_atom_site_fract_y
_atom_site_fract_z
Si Si1 0.321247 0.447289 0.006753
Si Si2 0.187291 0.640228 0.466008
Si Si3 0.387956 0.046336 0.049552
Si Si4 0.627659 0.659679 0.497210
Si Si5 0.577822 0.423508 0.373906
O O1 0.303014 0.397858 0.288372
O O2 0.391578 0.537191 0.080144
O O3 0.201189 0.470183 0.904878
O O4 0.376396 0.385144 0.787660
O O5 0.102887 0.601692 0.679768
O O6 0.185265 0.745888 0.482195
O O7 0.309963 0.602063 0.525498
O O8 0.146965 0.614200 0.177476
O O9 0.500000 0.000000 0.974640
O O10 0.502474 0.662655 0.376162
O O11 0.500000 0.500000 0.514505
#
# Coordination Sequence:
#
# PCOD8156208 Si02
#       5
#     4   4   4   4   4
#     4  10  22  40  62  90 119 164 211 245 303 384
#     4  11  24  40  61  96 124 157 210 261 310 370
#     4  11  23  41  62  85 123 166 203 245 304 376
#     4  11  23  40  63  93 124 156 202 267 313 349
#     4   9  21  39  64  88 122 165 206 250 306 377
#
# _framework density 21.488139
#
# number of rings (size 3 to 8) (size 9 to 14) (size 15 to 20)
#    0.000    1.600    0.000    5.400    0.000   18.400 
#    0.000    0.000    0.000    0.000    0.000    0.000 
#    0.000    0.000    0.000    0.000    0.000    0.000 
#
# Total GULP energy -247769.000576 kJ/mol
# GULP energy per Si atom -12388.450029 kJ/mol
# Density = 2.143923 g / cm^3
# Si number density = 21.488139 Si / 1000 Ang^3
#
#
#
# Elastic Constant Matrix: (Units=GPa)
#
#
# Indices 1 2 3 4 5 6 
#
# 1 124.4276 56.1806 18.4686 0.0000 0.0000 0.0000
# 2 56.1806 95.5421 41.2853 0.0000 0.0000 0.0000
# 3 18.4686 41.2853 102.6650 0.0000 0.0000 0.0000
# 4 0.0000 0.0000 0.0000 32.9094 0.0000 0.0000
# 5 0.0000 0.0000 0.0000 0.0000 18.8084 0.0000
# 6 0.0000 0.0000 0.0000 0.0000 0.0000 34.1890
#
#
#
# Elastic Compliance Matrix: (Units=1/GPa)
#
#
# Indices 1 2 3 4 5 6 
#
# 1 0.010990 -0.006787 0.000752 0.000000 0.000000 0.000000
# 2 -0.006787 0.016860 -0.005559 0.000000 0.000000 0.000000
# 3 0.000752 -0.005559 0.011841 0.000000 0.000000 0.000000
# 4 0.000000 0.000000 0.000000 0.030386 0.000000 0.000000
# 5 0.000000 0.000000 0.000000 0.000000 0.053168 0.000000
# 6 0.000000 0.000000 0.000000 0.000000 0.000000 0.029249
#
#
# Mechanical properties :
#
#
# Convention : Reuss Voigt Hill
#
# Bulk Modulus (GPa) = 60.59726 61.61152 61.10439
# Shear Modulus (GPa) = 27.59663 30.96138 29.27900
#
# Velocity S-wave (km/s) = 3.58756 3.79998 3.69530
# Velocity P-wave (km/s) = 6.73961 6.92732 6.83411
#
# Compressibility (1/GPa) = 0.01650240
#
# Stress axis : x y z
#
# Youngs Moduli (GPa) = 90.99468 59.31283 84.45581
#
# Poissons Ratio (x) = 0.40257 -0.06355
# Poissons Ratio (y) = 0.61761 0.46949
# Poissons Ratio (z) = -0.06847 0.32972
#
# Static dielectric constant tensor:
#      x y z
#    x 4.099770 0.000000 0.000000 
#    y 0.000000 3.815980 0.000000 
#    z 0.000000 0.000000 3.868480 
# 
# 
# High freq. dielectric constant tensor:
#      x y z
#    x 1.840870 0.000000 0.000000 
#    y 0.000000 1.823870 0.000000 
#    z 0.000000 0.000000 1.850920 
# 
# From -- ./inp_files/1024.got.cif
#   From: 2010.03.12/outbox.cif.g09.slc.cpg/sg18_1_cif.got.tgz:1024.got - 2010.04.10 18:53:55.
