data_PCOD8156678
_publ_section_title
;
Structure prediction by ZEFSAII (Michael W. Deem and Ramdas Pophale) SiO2 
 PCOD8156678
Probable space group: P 21 21 21
;
_chemical_formula_sum "Si O2"
_cell_formula_units_Z 28
_cell_length_a 7.227306
_cell_length_b 13.732456
_cell_length_c 11.989616
_cell_angle_alpha 90.000000
_cell_angle_beta 90.000000
_cell_angle_gamma 90.000000
_cell_volume 1189.953342
_symmetry_space_group_name_H-M "P 21 21 21"
_symmetry_group_IT_number 19
_symmetry_cell_setting 'orthorhombic'
loop_
_space_group_symop_operation_xyz
x,y,z
1/2-x,-y,1/2+z
1/2+x,1/2-y,-z
-x,1/2+y,1/2-z
loop_
_atom_site_type_symbol
_atom_site_label
_atom_site_fract_x
_atom_site_fract_y
_atom_site_fract_z
Si Si1 0.939045 0.568797 0.052775
Si Si2 0.694561 0.837651 0.307432
Si Si3 0.188932 0.926558 0.140867
Si Si4 0.381126 0.338871 0.953690
Si Si5 0.307341 0.865452 0.717173
Si Si6 0.882163 0.359605 0.129325
Si Si7 0.759269 0.961234 0.100781
O O1 0.927919 0.625368 0.169273
O O2 0.851922 0.460650 0.064662
O O3 0.808125 0.618532 0.959342
O O4 0.151743 0.574122 0.010566
O O5 0.567612 0.860735 0.415990
O O6 0.664581 0.724906 0.266389
O O7 0.655255 0.914588 0.208140
O O8 0.899092 0.853263 0.353836
O O9 0.210054 0.856486 0.247571
O O10 0.975408 0.932808 0.100122
O O11 0.276616 0.030382 0.181985
O O12 0.566525 0.333431 0.884508
O O13 0.294252 0.229906 0.941456
O O14 0.246027 0.420891 0.900005
#
# Coordination Sequence:
#
# PCOD8156678 Si02
#       7
#     4   4   4   4   4   4   4
#     4  11  20  42  64  93 126 166 204 268 316 377
#     4  10  19  40  60  87 126 163 208 263 310 375
#     4   9  20  40  61  90 128 166 202 259 321 365
#     4  10  19  37  67  86 122 171 202 260 318 360
#     4   9  21  39  62  90 130 163 207 268 314 366
#     4   9  19  37  61  89 128 155 210 263 302 369
#     4  10  22  39  63  93 122 164 215 255 315 378
#
# _framework density 23.530332000000001
#
# number of rings (size 3 to 8) (size 9 to 14) (size 15 to 20)
#    0.000    2.286    1.429    1.714    0.000    0.000 
#   23.143    0.000    0.000    0.000    0.000    0.000 
#    0.000    0.000    0.000    0.000    0.000    0.000 
#
# Total GULP energy -346898.590762 kJ/mol
# GULP energy per Si atom -12389.235384 kJ/mol
# Density = 2.347678 g / cm^3
# Si number density = 23.530332 Si / 1000 Ang^3
#
#
#
# Elastic Constant Matrix: (Units=GPa)
#
#
# Indices 1 2 3 4 5 6 
#
# 1 16.0176 1.8877 -0.2264 0.0000 0.0000 0.0000
# 2 1.8877 93.8900 48.1896 0.0000 0.0000 0.0000
# 3 -0.2264 48.1896 97.4148 0.0000 0.0000 0.0000
# 4 0.0000 0.0000 0.0000 33.8377 0.0000 0.0000
# 5 0.0000 0.0000 0.0000 0.0000 39.6389 0.0000
# 6 0.0000 0.0000 0.0000 0.0000 0.0000 17.6684
#
#
#
# Elastic Compliance Matrix: (Units=1/GPa)
#
#
# Indices 1 2 3 4 5 6 
#
# 1 0.062657 -0.001789 0.001030 0.000000 0.000000 0.000000
# 2 -0.001789 0.014326 -0.007091 0.000000 0.000000 0.000000
# 3 0.001030 -0.007091 0.013776 0.000000 0.000000 0.000000
# 4 0.000000 0.000000 0.000000 0.029553 0.000000 0.000000
# 5 0.000000 0.000000 0.000000 0.000000 0.025228 0.000000
# 6 0.000000 0.000000 0.000000 0.000000 0.000000 0.056598
#
#
# Mechanical properties :
#
#
# Convention : Reuss Voigt Hill
#
# Bulk Modulus (GPa) = 13.32270 34.11382 23.71826
# Shear Modulus (GPa) = 20.58832 28.72709 24.65771
#
# Velocity S-wave (km/s) = 2.96120 3.49786 3.24066
# Velocity P-wave (km/s) = 4.16723 5.55362 4.90961
#
# Compressibility (1/GPa) = 0.07505984
#
# Stress axis : x y z
#
# Youngs Moduli (GPa) = 15.96000 69.80174 72.59187
#
# Poissons Ratio (x) = 0.12485 -0.07480
# Poissons Ratio (y) = 0.02855 0.51476
# Poissons Ratio (z) = -0.01645 0.49497
#
# Static dielectric constant tensor:
#      x y z
#    x 3.754690 0.000000 0.000000 
#    y 0.000000 4.903640 0.000000 
#    z 0.000000 0.000000 4.469870 
# 
# 
# High freq. dielectric constant tensor:
#      x y z
#    x 1.895650 0.000000 0.000000 
#    y 0.000000 1.923350 0.000000 
#    z 0.000000 0.000000 1.945170 
# 
# From -- ./inp_files/4645.got.cif
#   From: 2010.03.12/outbox.cif.g09.slc.cpg/sg19_3_cif.got.tgz:4645.got - 2010.04.10 18:59:41.
