data_PCOD8156049
_publ_section_title
;
Structure prediction by ZEFSAII (Michael W. Deem and Ramdas Pophale) SiO2 
 PCOD8156049
Probable space group: P 21 21 2
;
_chemical_formula_sum "Si O2"
_cell_formula_units_Z 14
_cell_length_a 12.737915
_cell_length_b 4.871187
_cell_length_c 9.278960
_cell_angle_alpha 90.000000
_cell_angle_beta 90.000000
_cell_angle_gamma 90.000000
_cell_volume 575.748017
_symmetry_space_group_name_H-M "P 21 21 2"
_symmetry_group_IT_number 18
_symmetry_cell_setting 'orthorhombic'
loop_
_space_group_symop_operation_xyz
x,y,z
-x,-y,z
1/2+x,1/2-y,-z
1/2-x,1/2+y,-z
loop_
_atom_site_type_symbol
_atom_site_label
_atom_site_fract_x
_atom_site_fract_y
_atom_site_fract_z
Si Si1 0.500000 0.000000 0.168584
Si Si2 0.652612 0.280998 0.361383
Si Si3 0.184837 0.455879 0.032333
Si Si4 0.707209 0.273625 0.672829
O O1 0.455416 0.762929 0.273846
O O2 0.592951 0.902509 0.061725
O O3 0.632970 0.234352 0.533445
O O4 0.686887 0.593465 0.339924
O O5 0.747917 0.080811 0.309838
O O6 0.144951 0.327845 0.184508
O O7 0.231076 0.198116 0.941167
#
# Coordination Sequence:
#
# PCOD8156049 Si02
#       4
#     2   4   4   4
#     4  12  24  40  68 100 124 180 216 262 324 394
#     4  10  22  37  67  87 123 165 217 255 315 379
#     4  12  24  41  64  96 133 168 214 271 322 378
#     4  10  20  43  59  90 126 167 201 271 317 366
#
# _framework density 24.316192000000001
#
# number of rings (size 3 to 8) (size 9 to 14) (size 15 to 20)
#    0.000    1.143    5.714    0.000    0.000    5.714 
#    0.000    0.000    0.000   10.286    0.000    0.000 
#    0.000    0.000    0.000    0.000    0.000    0.000 
#
# Total GULP energy -173505.804785 kJ/mol
# GULP energy per Si atom -12393.271770 kJ/mol
# Density = 2.426085 g / cm^3
# Si number density = 24.316192 Si / 1000 Ang^3
#
#
#
# Elastic Constant Matrix: (Units=GPa)
#
#
# Indices 1 2 3 4 5 6 
#
# 1 58.6923 -0.1394 28.4510 0.0000 0.0000 0.0000
# 2 -0.1394 68.4315 1.4761 0.0000 0.0000 0.0000
# 3 28.4510 1.4761 174.2244 0.0000 0.0000 0.0000
# 4 0.0000 0.0000 0.0000 36.2962 0.0000 0.0000
# 5 0.0000 0.0000 0.0000 0.0000 57.4046 0.0000
# 6 0.0000 0.0000 0.0000 0.0000 0.0000 7.3764
#
#
#
# Elastic Compliance Matrix: (Units=1/GPa)
#
#
# Indices 1 2 3 4 5 6 
#
# 1 0.018503 0.000103 -0.003022 0.000000 0.000000 0.000000
# 2 0.000103 0.014616 -0.000141 0.000000 0.000000 0.000000
# 3 -0.003022 -0.000141 0.006234 0.000000 0.000000 0.000000
# 4 0.000000 0.000000 0.000000 0.027551 0.000000 0.000000
# 5 0.000000 0.000000 0.000000 0.000000 0.017420 0.000000
# 6 0.000000 0.000000 0.000000 0.000000 0.000000 0.135567
#
#
# Mechanical properties :
#
#
# Convention : Reuss Voigt Hill
#
# Bulk Modulus (GPa) = 30.08985 40.10264 35.09624
# Shear Modulus (GPa) = 21.08890 38.31947 29.70418
#
# Velocity S-wave (km/s) = 2.94815 3.97405 3.49890
# Velocity P-wave (km/s) = 4.89797 6.13069 5.54867
#
# Compressibility (1/GPa) = 0.03323380
#
# Stress axis : x y z
#
# Youngs Moduli (GPa) = 54.04407 68.41631 160.39801
#
# Poissons Ratio (x) = -0.00704 0.48480
# Poissons Ratio (y) = -0.00556 0.02256
# Poissons Ratio (z) = 0.16335 0.00962
#
# Static dielectric constant tensor:
#      x y z
#    x 3.725500 0.000000 0.000000 
#    y 0.000000 4.190600 0.000000 
#    z 0.000000 0.000000 4.941360 
# 
# 
# High freq. dielectric constant tensor:
#      x y z
#    x 1.899890 0.000000 0.000000 
#    y 0.000000 1.967360 0.000000 
#    z 0.000000 0.000000 2.007450 
# 
# From -- ./inp_files/2389.got.cif
#   From: 2010.03.12/outbox.cif.g09.slc.cpg/sg18_2_cif.got.tgz:2389.got - 2010.04.10 18:53:55.
