data_PCOD8156532
_publ_section_title
;
Structure prediction by ZEFSAII (Michael W. Deem and Ramdas Pophale) SiO2 
 PCOD8156532
Probable space group: P 21 21 2
;
_chemical_formula_sum "Si O2"
_cell_formula_units_Z 16
_cell_length_a 8.022956
_cell_length_b 14.019827
_cell_length_c 5.459167
_cell_angle_alpha 90.000000
_cell_angle_beta 90.000000
_cell_angle_gamma 90.000000
_cell_volume 614.049589
_symmetry_space_group_name_H-M "P 21 21 2"
_symmetry_group_IT_number 18
_symmetry_cell_setting 'orthorhombic'
loop_
_space_group_symop_operation_xyz
x,y,z
-x,-y,z
1/2+x,1/2-y,-z
1/2-x,1/2+y,-z
loop_
_atom_site_type_symbol
_atom_site_label
_atom_site_fract_x
_atom_site_fract_y
_atom_site_fract_z
Si Si1 0.355749 0.936791 0.861611
Si Si2 0.134487 0.068135 0.116326
Si Si3 0.097490 0.847435 0.501763
Si Si4 0.130034 0.260130 0.838944
O O1 0.211475 0.917743 0.662378
O O2 0.500000 0.000000 0.732358
O O3 0.427710 0.836071 0.957098
O O4 0.296228 0.999066 0.102314
O O5 0.059599 0.094539 0.384594
O O6 0.177034 0.161312 0.964371
O O7 0.000000 0.000000 0.979434
O O8 0.203849 0.799966 0.286477
O O9 0.024658 0.758734 0.657527
#
# Coordination Sequence:
#
# PCOD8156532 Si02
#       4
#     4   4   4   4
#     4  12  31  52  81 121 164 210 278 334 394 487
#     4  12  27  53  77 114 165 214 265 328 402 483
#     4  12  28  52  83 118 165 219 258 340 417 463
#     4  12  28  50  80 120 164 211 268 339 396 491
#
# _framework density 26.056525000000001
#
# number of rings (size 3 to 8) (size 9 to 14) (size 15 to 20)
#    0.000    0.000    5.000    1.500   17.500    1.000 
#    0.000    0.000    0.000    0.000    0.000    0.000 
#    0.000    0.000    0.000    0.000    0.000    0.000 
#
# Total GULP energy -198266.939518 kJ/mol
# GULP energy per Si atom -12391.683720 kJ/mol
# Density = 2.599722 g / cm^3
# Si number density = 26.056525 Si / 1000 Ang^3
#
#
#
# Elastic Constant Matrix: (Units=GPa)
#
#
# Indices 1 2 3 4 5 6 
#
# 1 69.8284 30.7806 29.6897 0.0000 0.0000 0.0000
# 2 30.7806 176.7921 53.1898 0.0000 0.0000 0.0000
# 3 29.6897 53.1898 111.0953 0.0000 0.0000 0.0000
# 4 0.0000 0.0000 0.0000 15.2798 0.0000 0.0000
# 5 0.0000 0.0000 0.0000 0.0000 50.5518 0.0000
# 6 0.0000 0.0000 0.0000 0.0000 0.0000 46.4599
#
#
#
# Elastic Compliance Matrix: (Units=1/GPa)
#
#
# Indices 1 2 3 4 5 6 
#
# 1 0.016644 -0.001822 -0.003576 0.000000 0.000000 0.000000
# 2 -0.001822 0.006808 -0.002772 0.000000 0.000000 0.000000
# 3 -0.003576 -0.002772 0.011284 0.000000 0.000000 0.000000
# 4 0.000000 0.000000 0.000000 0.065446 0.000000 0.000000
# 5 0.000000 0.000000 0.000000 0.000000 0.019782 0.000000
# 6 0.000000 0.000000 0.000000 0.000000 0.000000 0.021524
#
#
# Mechanical properties :
#
#
# Convention : Reuss Voigt Hill
#
# Bulk Modulus (GPa) = 54.36027 65.00400 59.68214
# Shear Modulus (GPa) = 30.49518 38.72868 34.61193
#
# Velocity S-wave (km/s) = 3.42475 3.85948 3.64859
# Velocity P-wave (km/s) = 6.04535 6.69793 6.37999
#
# Compressibility (1/GPa) = 0.01839579
#
# Stress axis : x y z
#
# Youngs Moduli (GPa) = 60.08047 146.89222 88.61908
#
# Poissons Ratio (x) = 0.26765 0.31688
# Poissons Ratio (y) = 0.10947 0.24569
# Poissons Ratio (z) = 0.21483 0.40725
#
# Static dielectric constant tensor:
#      x y z
#    x 5.082680 0.000000 0.000000 
#    y 0.000000 4.716030 0.000000 
#    z 0.000000 0.000000 4.524450 
# 
# 
# High freq. dielectric constant tensor:
#      x y z
#    x 2.041340 0.000000 0.000000 
#    y 0.000000 2.072070 0.000000 
#    z 0.000000 0.000000 2.023670 
# 
# From -- ./inp_files/408.got.cif
#   From: 2010.03.12/outbox.cif.g09.slc.cpg/sg18_1_cif.got.tgz:408.got - 2010.04.10 18:53:55.
