data_PCOD8156793
_publ_section_title
;
Structure prediction by ZEFSAII (Michael W. Deem and Ramdas Pophale) SiO2 
 PCOD8156793
Probable space group: P 21 21 21
;
_chemical_formula_sum "Si O2"
_cell_formula_units_Z 24
_cell_length_a 9.526479
_cell_length_b 9.526476
_cell_length_c 13.585178
_cell_angle_alpha 90.000000
_cell_angle_beta 90.000000
_cell_angle_gamma 90.000000
_cell_volume 1232.906168
_symmetry_space_group_name_H-M "P 21 21 21"
_symmetry_group_IT_number 19
_symmetry_cell_setting 'orthorhombic'
loop_
_space_group_symop_operation_xyz
x,y,z
1/2-x,-y,1/2+z
1/2+x,1/2-y,-z
-x,1/2+y,1/2-z
loop_
_atom_site_type_symbol
_atom_site_label
_atom_site_fract_x
_atom_site_fract_y
_atom_site_fract_z
Si Si1 0.289975 0.752494 0.574694
Si Si2 0.275282 0.194172 0.661295
Si Si3 0.716032 0.151098 0.139974
Si Si4 0.944172 0.474718 0.911295
Si Si5 0.401099 0.466033 0.610026
Si Si6 0.502494 0.460026 0.824694
O O1 0.310502 0.743600 0.457226
O O2 0.292370 0.596091 0.621084
O O3 0.419569 0.830432 0.624999
O O4 0.146641 0.833008 0.597185
O O5 0.245215 0.240678 0.772653
O O6 0.140134 0.109866 0.625000
O O7 0.303239 0.329323 0.592143
O O8 0.416993 0.103360 0.652816
O O9 0.846090 0.042369 0.128917
O O10 0.579322 0.053238 0.157857
O O11 0.990677 0.504785 0.022653
O O12 0.493601 0.439498 0.707226
#
# Coordination Sequence:
#
# PCOD8156793 Si02
#       6
#     4   4   4   4   4   4
#     4  10  20  37  61  86 115 154 196 236 290 358
#     4  10  22  38  58  87 116 149 195 245 294 341
#     4  10  20  37  59  83 116 153 193 237 292 355
#     4  10  22  38  58  87 116 149 195 245 294 341
#     4  10  20  37  59  83 116 153 193 237 292 355
#     4  10  20  37  61  86 115 154 196 236 290 358
#
# _framework density 19.466201000000002
#
# number of rings (size 3 to 8) (size 9 to 14) (size 15 to 20)
#    0.000    2.000    0.000    5.000    0.000    5.333 
#    0.000    6.667    0.000    2.000    0.000    0.000 
#    0.000    0.000    0.000    0.000    0.000    0.000 
#
# Total GULP energy -297518.766387 kJ/mol
# GULP energy per Si atom -12396.615266 kJ/mol
# Density = 1.942190 g / cm^3
# Si number density = 19.466201 Si / 1000 Ang^3
#
#
#
# Elastic Constant Matrix: (Units=GPa)
#
#
# Indices 1 2 3 4 5 6 
#
# 1 163.0158 86.5634 43.7702 0.0000 0.0000 0.0000
# 2 86.5634 163.0150 43.7699 0.0000 0.0000 0.0000
# 3 43.7702 43.7699 91.5358 0.0000 0.0000 0.0000
# 4 0.0000 0.0000 0.0000 32.2812 0.0000 0.0000
# 5 0.0000 0.0000 0.0000 0.0000 32.2812 0.0000
# 6 0.0000 0.0000 0.0000 0.0000 0.0000 26.5959
#
#
#
# Elastic Compliance Matrix: (Units=1/GPa)
#
#
# Indices 1 2 3 4 5 6 
#
# 1 0.008947 -0.004133 -0.002302 0.000000 0.000000 0.000000
# 2 -0.004133 0.008947 -0.002302 0.000000 0.000000 0.000000
# 3 -0.002302 -0.002302 0.013126 0.000000 0.000000 0.000000
# 4 0.000000 0.000000 0.000000 0.030978 0.000000 0.000000
# 5 0.000000 0.000000 0.000000 0.000000 0.030978 0.000000
# 6 0.000000 0.000000 0.000000 0.000000 0.000000 0.037600
#
#
# Mechanical properties :
#
#
# Convention : Reuss Voigt Hill
#
# Bulk Modulus (GPa) = 73.81972 85.08595 79.45284
# Shear Modulus (GPa) = 32.77285 34.46254 33.61769
#
# Velocity S-wave (km/s) = 4.10759 4.21215 4.16020
# Velocity P-wave (km/s) = 7.77822 8.21345 7.99880
#
# Compressibility (1/GPa) = 0.01354652
#
# Stress axis : x y z
#
# Youngs Moduli (GPa) = 111.76773 111.76730 76.18340
#
# Poissons Ratio (x) = 0.46193 0.17538
# Poissons Ratio (y) = 0.46193 0.17538
# Poissons Ratio (z) = 0.25729 0.25729
#
# Static dielectric constant tensor:
#      x y z
#    x 3.752690 0.000000 0.000000 
#    y 0.000000 3.752690 0.000000 
#    z 0.000000 0.000000 3.480630 
# 
# 
# High freq. dielectric constant tensor:
#      x y z
#    x 1.765060 0.000000 0.000000 
#    y 0.000000 1.765060 0.000000 
#    z 0.000000 0.000000 1.749720 
# 
# From -- ./inp_files/2746.got.cif
#   From: 2010.03.12/outbox.cif.g09.slc.cpg/sg19_2_cif.got.tgz:2746.got - 2010.04.10 18:59:41.
