data_PCOD8156594
_publ_section_title
;
Structure prediction by ZEFSAII (Michael W. Deem and Ramdas Pophale) SiO2 
 PCOD8156594
Probable space group: P 21 21 21
;
_chemical_formula_sum "Si O2"
_cell_formula_units_Z 32
_cell_length_a 12.558272
_cell_length_b 10.044488
_cell_length_c 11.556690
_cell_angle_alpha 90.000000
_cell_angle_beta 90.000000
_cell_angle_gamma 90.000000
_cell_volume 1457.777199
_symmetry_space_group_name_H-M "P 21 21 21"
_symmetry_group_IT_number 19
_symmetry_cell_setting 'orthorhombic'
loop_
_space_group_symop_operation_xyz
x,y,z
1/2-x,-y,1/2+z
1/2+x,1/2-y,-z
-x,1/2+y,1/2-z
loop_
_atom_site_type_symbol
_atom_site_label
_atom_site_fract_x
_atom_site_fract_y
_atom_site_fract_z
Si Si1 0.150198 0.372589 0.956289
Si Si2 0.896874 0.577173 0.506708
Si Si3 0.937896 0.404809 0.063856
Si Si4 0.406450 0.389239 0.311673
Si Si5 0.730009 0.688074 0.061425
Si Si6 0.126502 0.633471 0.551339
Si Si7 0.360435 0.895459 0.126999
Si Si8 0.174878 0.042272 0.244071
O O1 0.114265 0.454374 0.840817
O O2 0.144093 0.213375 0.929895
O O3 0.265558 0.426086 0.996981
O O4 0.065995 0.404342 0.058414
O O5 0.829535 0.453478 0.549602
O O6 0.882416 0.597848 0.369526
O O7 0.021267 0.544005 0.531729
O O8 0.901556 0.432510 0.195223
O O9 0.890333 0.269779 0.015232
O O10 0.889734 0.516363 0.982773
O O11 0.352478 0.306001 0.415134
O O12 0.356858 0.348034 0.188863
O O13 0.532129 0.351201 0.307890
O O14 0.807063 0.669652 0.172484
O O15 0.792467 0.720863 0.940014
O O16 0.288428 0.973572 0.218274
#
# Coordination Sequence:
#
# PCOD8156594 Si02
#       8
#     4   4   4   4   4   4   4   4
#     4  10  22  41  58  87 127 159 195 248 310 369
#     4  10  22  38  61  90 115 156 213 244 289 375
#     4   9  20  38  61  89 118 157 209 250 297 369
#     4  11  23  38  60  89 124 160 197 255 315 358
#     4  10  20  37  61  87 117 156 205 254 298 358
#     4  11  22  39  63  89 122 160 204 250 306 373
#     4   9  19  36  58  86 119 156 202 249 301 364
#     4  10  18  37  64  85 114 160 203 252 296 350
#
# _framework density 21.951229000000001
#
# number of rings (size 3 to 8) (size 9 to 14) (size 15 to 20)
#    0.000    2.000    0.000    4.500    0.000    5.000 
#    0.000   21.250    0.000    0.000    0.000    0.000 
#    0.000    0.000    0.000    0.000    0.000    0.000 
#
# Total GULP energy -396630.490517 kJ/mol
# GULP energy per Si atom -12394.702829 kJ/mol
# Density = 2.190127 g / cm^3
# Si number density = 21.951229 Si / 1000 Ang^3
#
#
#
# Elastic Constant Matrix: (Units=GPa)
#
#
# Indices 1 2 3 4 5 6 
#
# 1 134.8164 6.7094 13.7933 0.0000 0.0000 0.0000
# 2 6.7094 50.6880 21.0091 0.0000 0.0000 0.0000
# 3 13.7933 21.0091 53.7958 0.0000 0.0000 0.0000
# 4 0.0000 0.0000 0.0000 -12.7982 0.0000 0.0000
# 5 0.0000 0.0000 0.0000 0.0000 52.7875 0.0000
# 6 0.0000 0.0000 0.0000 0.0000 0.0000 26.5935
#
#
#
# Elastic Compliance Matrix: (Units=1/GPa)
#
#
# Indices 1 2 3 4 5 6 
#
# 1 0.007620 -0.000237 -0.001861 0.000000 0.000000 0.000000
# 2 -0.000237 0.023546 -0.009135 0.000000 0.000000 0.000000
# 3 -0.001861 -0.009135 0.022633 0.000000 0.000000 0.000000
# 4 0.000000 0.000000 0.000000 -0.078136 0.000000 0.000000
# 5 0.000000 0.000000 0.000000 0.000000 0.018944 0.000000
# 6 0.000000 0.000000 0.000000 0.000000 0.000000 0.037603
#
#
# Mechanical properties :
#
#
# Convention : Reuss Voigt Hill
#
# Bulk Modulus (GPa) = 31.91507 35.81378 33.86443
# Shear Modulus (GPa) = 76.78034 26.50243 51.64139
#
# Velocity S-wave (km/s) = 5.92061 3.47844 4.85557
# Velocity P-wave (km/s) = 7.82999 5.69941 6.84807
#
# Compressibility (1/GPa) = 0.03133316
#
# Stress axis : x y z
#
# Youngs Moduli (GPa) = 131.23858 42.46990 44.18245
#
# Poissons Ratio (x) = 0.01008 0.08223
# Poissons Ratio (y) = 0.03113 0.40360
# Poissons Ratio (z) = 0.24424 0.38795
#
# Static dielectric constant tensor:
#      x y z
#    x 4.556090 0.000000 0.000000 
#    y 0.000000 3.565150 0.000000 
#    z 0.000000 0.000000 3.865140 
# 
# 
# High freq. dielectric constant tensor:
#      x y z
#    x 1.877840 0.000000 0.000000 
#    y 0.000000 1.833530 0.000000 
#    z 0.000000 0.000000 1.861850 
# 
# From -- ./inp_files/5031.got.cif
#   From: 2010.03.12/outbox.cif.g09.slc.cpg/sg19_3_cif.got.tgz:5031.got - 2010.04.10 18:59:41.
