data_PCOD8156339
_publ_section_title
;
Structure prediction by ZEFSAII (Michael W. Deem and Ramdas Pophale) SiO2 
 PCOD8156339
Probable space group: P 21 21 2
;
_chemical_formula_sum "Si O2"
_cell_formula_units_Z 20
_cell_length_a 16.682961
_cell_length_b 7.684745
_cell_length_c 6.546399
_cell_angle_alpha 90.000000
_cell_angle_beta 90.000000
_cell_angle_gamma 90.000000
_cell_volume 839.276509
_symmetry_space_group_name_H-M "P 21 21 2"
_symmetry_group_IT_number 18
_symmetry_cell_setting 'orthorhombic'
loop_
_space_group_symop_operation_xyz
x,y,z
-x,-y,z
1/2+x,1/2-y,-z
1/2-x,1/2+y,-z
loop_
_atom_site_type_symbol
_atom_site_label
_atom_site_fract_x
_atom_site_fract_y
_atom_site_fract_z
Si Si1 0.347583 0.708909 0.047304
Si Si2 0.916775 0.070196 0.218614
Si Si3 0.849476 0.311606 0.551875
Si Si4 0.517765 0.815051 0.122913
Si Si5 0.732591 0.052294 0.749561
O O1 0.431126 0.729291 0.171812
O O2 0.285461 0.618234 0.200431
O O3 0.361975 0.589241 0.850029
O O4 0.317209 0.894067 0.954353
O O5 0.865845 0.166486 0.385234
O O6 0.931317 0.194478 0.025605
O O7 0.000000 0.000000 0.311820
O O8 0.931521 0.350755 0.672403
O O9 0.822028 0.491917 0.443118
O O10 0.782676 0.226148 0.697573
O O11 0.500000 0.000000 0.014437
#
# Coordination Sequence:
#
# PCOD8156339 Si02
#       5
#     4   4   4   4   4
#     4  11  25  48  77 103 155 203 243 314 382 452
#     4  10  23  45  72 104 148 192 253 307 368 443
#     4  12  27  45  74 111 146 199 253 312 372 454
#     4  11  26  45  74 105 149 200 253 301 378 450
#     4  12  27  44  79 109 154 194 257 308 390 442
#
# _framework density 23.830048999999999
#
# number of rings (size 3 to 8) (size 9 to 14) (size 15 to 20)
#    0.000    0.800    2.000    3.600    8.400    4.000 
#    0.000    0.000    0.000    0.000    0.000    0.000 
#    0.000    0.000    0.000    0.000    0.000    0.000 
#
# Total GULP energy -248057.748037 kJ/mol
# GULP energy per Si atom -12402.887402 kJ/mol
# Density = 2.377581 g / cm^3
# Si number density = 23.830049 Si / 1000 Ang^3
#
#
#
# Elastic Constant Matrix: (Units=GPa)
#
#
# Indices 1 2 3 4 5 6 
#
# 1 110.5288 24.6461 50.1197 0.0000 0.0000 0.0000
# 2 24.6461 89.8167 11.3735 0.0000 0.0000 0.0000
# 3 50.1197 11.3735 59.2389 0.0000 0.0000 0.0000
# 4 0.0000 0.0000 0.0000 44.5093 0.0000 0.0000
# 5 0.0000 0.0000 0.0000 0.0000 32.6812 0.0000
# 6 0.0000 0.0000 0.0000 0.0000 0.0000 35.9652
#
#
#
# Elastic Compliance Matrix: (Units=1/GPa)
#
#
# Indices 1 2 3 4 5 6 
#
# 1 0.015256 -0.002615 -0.012405 0.000000 0.000000 0.000000
# 2 -0.002615 0.011860 -0.000064 0.000000 0.000000 0.000000
# 3 -0.012405 -0.000064 0.027389 0.000000 0.000000 0.000000
# 4 0.000000 0.000000 0.000000 0.022467 0.000000 0.000000
# 5 0.000000 0.000000 0.000000 0.000000 0.030599 0.000000
# 6 0.000000 0.000000 0.000000 0.000000 0.000000 0.027805
#
#
# Mechanical properties :
#
#
# Convention : Reuss Voigt Hill
#
# Bulk Modulus (GPa) = 41.09391 47.98479 44.53935
# Shear Modulus (GPa) = 28.79264 34.19416 31.49340
#
# Velocity S-wave (km/s) = 3.47976 3.79214 3.63930
# Velocity P-wave (km/s) = 5.78161 6.27326 6.03244
#
# Compressibility (1/GPa) = 0.02433451
#
# Stress axis : x y z
#
# Youngs Moduli (GPa) = 65.54893 84.31996 36.51147
#
# Poissons Ratio (x) = 0.22053 0.45293
# Poissons Ratio (y) = 0.17144 0.00234
# Poissons Ratio (z) = 0.81315 0.00541
#
# Static dielectric constant tensor:
#      x y z
#    x 4.471920 0.000000 0.000000 
#    y 0.000000 4.936540 0.000000 
#    z 0.000000 0.000000 4.126800 
# 
# 
# High freq. dielectric constant tensor:
#      x y z
#    x 1.961890 0.000000 0.000000 
#    y 0.000000 1.954340 0.000000 
#    z 0.000000 0.000000 1.923670 
# 
# From -- ./inp_files/1725.got.cif
#   From: 2010.03.12/outbox.cif.g09.slc.cpg/sg18_1_cif.got.tgz:1725.got - 2010.04.10 18:53:55.
