data_PCOD8156335
_publ_section_title
;
Structure prediction by ZEFSAII (Michael W. Deem and Ramdas Pophale) SiO2 
 PCOD8156335
Probable space group: P 21 21 2
;
_chemical_formula_sum "Si O2"
_cell_formula_units_Z 22
_cell_length_a 13.337456
_cell_length_b 5.166114
_cell_length_c 13.175788
_cell_angle_alpha 90.000000
_cell_angle_beta 90.000000
_cell_angle_gamma 90.000000
_cell_volume 907.848925
_symmetry_space_group_name_H-M "P 21 21 2"
_symmetry_group_IT_number 18
_symmetry_cell_setting 'orthorhombic'
loop_
_space_group_symop_operation_xyz
x,y,z
-x,-y,z
1/2+x,1/2-y,-z
1/2-x,1/2+y,-z
loop_
_atom_site_type_symbol
_atom_site_label
_atom_site_fract_x
_atom_site_fract_y
_atom_site_fract_z
Si Si1 0.870936 0.866736 0.035454
Si Si2 0.500000 0.000000 0.269919
Si Si3 0.727111 0.277500 0.620907
Si Si4 0.945623 0.757595 0.242767
Si Si5 0.650340 0.276151 0.405708
Si Si6 0.142073 0.629326 0.909217
O O1 0.950695 0.806770 0.122676
O O2 0.762552 0.857498 0.090716
O O3 0.888269 0.649015 0.951670
O O4 0.896548 0.138276 0.980961
O O5 0.452973 0.783047 0.345988
O O6 0.588044 0.863840 0.201635
O O7 0.668672 0.227730 0.724119
O O8 0.647169 0.245969 0.528117
O O9 0.767960 0.567389 0.630173
O O10 0.816524 0.069115 0.617958
O O11 0.000000 0.500000 0.275699
O O12 0.000000 0.000000 0.297811
#
# Coordination Sequence:
#
# PCOD8156335 Si02
#       6
#     4   2   4   4   4   4
#     4  10  23  45  61  93 135 179 216 275 354 401
#     4  12  26  42  74 112 130 182 242 300 326 418
#     4  10  23  48  67 100 142 187 216 279 366 416
#     4  12  25  39  71  99 128 178 237 282 320 418
#     4  10  24  44  72  98 145 178 222 285 353 421
#     4  10  24  41  68  92 135 175 220 280 344 407
#
# _framework density 24.233104999999998
#
# number of rings (size 3 to 8) (size 9 to 14) (size 15 to 20)
#    0.000    1.455    0.000    3.273    5.091    8.000 
#    0.000    0.000    0.000    0.000    0.000    0.000 
#    0.000    0.000    0.000    0.000    0.000    0.000 
#
# Total GULP energy -272697.113667 kJ/mol
# GULP energy per Si atom -12395.323348 kJ/mol
# Density = 2.417795 g / cm^3
# Si number density = 24.233105 Si / 1000 Ang^3
#
#
#
# Elastic Constant Matrix: (Units=GPa)
#
#
# Indices 1 2 3 4 5 6 
#
# 1 50.4317 19.8352 25.9085 0.0000 0.0000 0.0000
# 2 19.8352 121.8987 11.7972 0.0000 0.0000 0.0000
# 3 25.9085 11.7972 87.0772 0.0000 0.0000 0.0000
# 4 0.0000 0.0000 0.0000 22.9123 0.0000 0.0000
# 5 0.0000 0.0000 0.0000 0.0000 65.5766 0.0000
# 6 0.0000 0.0000 0.0000 0.0000 0.0000 13.5720
#
#
#
# Elastic Compliance Matrix: (Units=1/GPa)
#
#
# Indices 1 2 3 4 5 6 
#
# 1 0.024687 -0.003350 -0.006891 0.000000 0.000000 0.000000
# 2 -0.003350 0.008767 -0.000191 0.000000 0.000000 0.000000
# 3 -0.006891 -0.000191 0.013560 0.000000 0.000000 0.000000
# 4 0.000000 0.000000 0.000000 0.043645 0.000000 0.000000
# 5 0.000000 0.000000 0.000000 0.000000 0.015249 0.000000
# 6 0.000000 0.000000 0.000000 0.000000 0.000000 0.073681
#
#
# Mechanical properties :
#
#
# Convention : Reuss Voigt Hill
#
# Bulk Modulus (GPa) = 38.24170 41.60993 39.92581
# Shear Modulus (GPa) = 23.90396 33.86996 28.88696
#
# Velocity S-wave (km/s) = 3.14414 3.74260 3.45635
# Velocity P-wave (km/s) = 5.38478 5.99033 5.69561
#
# Compressibility (1/GPa) = 0.02614947
#
# Stress axis : x y z
#
# Youngs Moduli (GPa) = 40.50762 114.06226 73.74451
#
# Poissons Ratio (x) = 0.38212 0.50819
# Poissons Ratio (y) = 0.13570 0.01409
# Poissons Ratio (z) = 0.27915 0.02179
#
# Static dielectric constant tensor:
#      x y z
#    x 4.358560 0.000000 0.000000 
#    y 0.000000 4.356070 0.000000 
#    z 0.000000 0.000000 4.348050 
# 
# 
# High freq. dielectric constant tensor:
#      x y z
#    x 1.962440 0.000000 0.000000 
#    y 0.000000 1.970540 0.000000 
#    z 0.000000 0.000000 1.964340 
# 
# From -- ./inp_files/6036.got.cif
#   From: 2010.03.12/outbox.cif.g09.slc.cpg/sg18_4_cif.got.tgz:6036.got - 2010.04.10 18:53:55.
