data_PCOD8156766
_publ_section_title
;
Structure prediction by ZEFSAII (Michael W. Deem and Ramdas Pophale) SiO2 
 PCOD8156766
Probable space group: P 21 21 21
;
_chemical_formula_sum "Si O2"
_cell_formula_units_Z 32
_cell_length_a 5.816342
_cell_length_b 16.836254
_cell_length_c 15.728396
_cell_angle_alpha 90.000000
_cell_angle_beta 90.000000
_cell_angle_gamma 90.000000
_cell_volume 1540.209647
_symmetry_space_group_name_H-M "P 21 21 21"
_symmetry_group_IT_number 19
_symmetry_cell_setting 'orthorhombic'
loop_
_space_group_symop_operation_xyz
x,y,z
1/2-x,-y,1/2+z
1/2+x,1/2-y,-z
-x,1/2+y,1/2-z
loop_
_atom_site_type_symbol
_atom_site_label
_atom_site_fract_x
_atom_site_fract_y
_atom_site_fract_z
Si Si1 0.336371 0.494154 0.844353
Si Si2 0.977660 0.858567 0.065116
Si Si3 0.952907 0.910042 0.785974
Si Si4 0.124589 0.266073 0.043231
Si Si5 0.043970 0.432216 0.997307
Si Si6 0.657887 0.808779 0.911756
Si Si7 0.223203 0.125801 0.144341
Si Si8 0.784407 0.570521 0.069468
O O1 0.376023 0.588874 0.857037
O O2 0.171507 0.482377 0.763142
O O3 0.557831 0.442399 0.819685
O O4 0.241288 0.458956 0.932644
O O5 0.126532 0.785505 0.102046
O O6 0.782303 0.825416 0.001698
O O7 0.141661 0.920863 0.017024
O O8 0.793181 0.845883 0.832656
O O9 0.085374 0.858328 0.715459
O O10 0.118711 0.952974 0.853245
O O11 0.101368 0.211265 0.127486
O O12 0.383234 0.248768 0.006647
O O13 0.131596 0.360983 0.058208
O O14 0.820914 0.405727 0.944881
O O15 0.980812 0.504330 0.059733
O O16 0.403468 0.845353 0.911677
#
# Coordination Sequence:
#
# PCOD8156766 Si02
#       8
#     4   4   4   4   4   4   4   4
#     4  11  20  40  67  97 127 176 217 273 339 421
#     4  11  22  37  73 101 124 169 233 273 335 409
#     4  10  25  40  66  88 140 178 212 272 354 408
#     4  10  20  36  65 101 128 166 227 283 331 405
#     4  10  20  35  67  97 123 163 225 277 329 400
#     4  11  22  41  66  98 131 167 218 288 337 395
#     4  10  20  39  65  91 128 176 212 268 342 408
#     4  11  21  40  65  97 127 171 214 282 335 396
#
# _framework density 20.776392999999999
#
# number of rings (size 3 to 8) (size 9 to 14) (size 15 to 20)
#    0.000    1.500    5.000    0.750    0.000    0.000 
#    0.000    0.000   16.500    0.000    0.000    0.000 
#    0.000    0.000    0.000    0.000    0.000    0.000 
#
# Total GULP energy -396568.310172 kJ/mol
# GULP energy per Si atom -12392.759693 kJ/mol
# Density = 2.072910 g / cm^3
# Si number density = 20.776393 Si / 1000 Ang^3
#
#
#
# Elastic Constant Matrix: (Units=GPa)
#
#
# Indices 1 2 3 4 5 6 
#
# 1 96.3046 34.5202 31.8491 0.0000 0.0000 0.0000
# 2 34.5202 134.1417 53.8541 0.0000 0.0000 0.0000
# 3 31.8491 53.8541 87.5989 0.0000 0.0000 0.0000
# 4 0.0000 0.0000 0.0000 21.8288 0.0000 0.0000
# 5 0.0000 0.0000 0.0000 0.0000 25.2208 0.0000
# 6 0.0000 0.0000 0.0000 0.0000 0.0000 34.7973
#
#
#
# Elastic Compliance Matrix: (Units=1/GPa)
#
#
# Indices 1 2 3 4 5 6 
#
# 1 0.012119 -0.001792 -0.003304 0.000000 0.000000 0.000000
# 2 -0.001792 0.010163 -0.005596 0.000000 0.000000 0.000000
# 3 -0.003304 -0.005596 0.016058 0.000000 0.000000 0.000000
# 4 0.000000 0.000000 0.000000 0.045811 0.000000 0.000000
# 5 0.000000 0.000000 0.000000 0.000000 0.039650 0.000000
# 6 0.000000 0.000000 0.000000 0.000000 0.000000 0.028738
#
#
# Mechanical properties :
#
#
# Convention : Reuss Voigt Hill
#
# Bulk Modulus (GPa) = 58.98444 62.05464 60.51954
# Shear Modulus (GPa) = 27.84355 29.55749 28.70052
#
# Velocity S-wave (km/s) = 3.66478 3.77589 3.72075
# Velocity P-wave (km/s) = 6.80876 6.99589 6.90296
#
# Compressibility (1/GPa) = 0.01695362
#
# Stress axis : x y z
#
# Youngs Moduli (GPa) = 82.51579 98.39884 62.27586
#
# Poissons Ratio (x) = 0.17634 0.20579
# Poissons Ratio (y) = 0.14787 0.34851
# Poissons Ratio (z) = 0.27267 0.55067
#
# Static dielectric constant tensor:
#      x y z
#    x 3.956960 0.000000 0.000000 
#    y 0.000000 3.837300 0.000000 
#    z 0.000000 0.000000 3.529000 
# 
# 
# High freq. dielectric constant tensor:
#      x y z
#    x 1.829180 0.000000 0.000000 
#    y 0.000000 1.810530 0.000000 
#    z 0.000000 0.000000 1.783080 
# 
# From -- ./inp_files/5776.got.cif
#   From: 2010.03.12/outbox.cif.g09.slc.cpg/sg19_3_cif.got.tgz:5776.got - 2010.04.10 18:59:41.
