data_PCOD8156112
_publ_section_title
;
Structure prediction by ZEFSAII (Michael W. Deem and Ramdas Pophale) SiO2 
 PCOD8156112
Probable space group: P 21 21 2
;
_chemical_formula_sum "Si O2"
_cell_formula_units_Z 32
_cell_length_a 9.703231
_cell_length_b 33.024603
_cell_length_c 5.006636
_cell_angle_alpha 90.000000
_cell_angle_beta 90.000000
_cell_angle_gamma 90.000000
_cell_volume 1604.353233
_symmetry_space_group_name_H-M "P 21 21 2"
_symmetry_group_IT_number 18
_symmetry_cell_setting 'orthorhombic'
loop_
_space_group_symop_operation_xyz
x,y,z
-x,-y,z
1/2+x,1/2-y,-z
1/2-x,1/2+y,-z
loop_
_atom_site_type_symbol
_atom_site_label
_atom_site_fract_x
_atom_site_fract_y
_atom_site_fract_z
Si Si1 0.647160 0.231122 0.250608
Si Si2 0.785826 0.437687 0.200227
Si Si3 0.010517 0.952251 0.852878
Si Si4 0.045558 0.730011 0.249770
Si Si5 0.643978 0.137452 0.219492
Si Si6 0.350071 0.011609 0.300083
Si Si7 0.472051 0.136439 0.719129
Si Si8 0.666317 0.566181 0.648321
O O1 0.550296 0.243207 0.500998
O O2 0.685500 0.183941 0.256304
O O3 0.799480 0.251455 0.249674
O O4 0.549612 0.242988 0.000977
O O5 0.625885 0.431726 0.265732
O O6 0.855936 0.468852 0.405959
O O7 0.848728 0.393201 0.207376
O O8 0.789341 0.455824 0.903419
O O9 0.131743 0.935731 0.664098
O O10 0.034487 0.939640 0.159519
O O11 0.000000 0.000000 0.821121
O O12 0.077567 0.682320 0.246597
O O13 0.518093 0.126929 0.417915
O O14 0.773575 0.110164 0.291436
O O15 0.599338 0.127885 0.917706
O O16 0.500000 0.000000 0.201903
O O17 0.268224 0.970043 0.282849
#
# Coordination Sequence:
#
# PCOD8156112 Si02
#       8
#     4   4   4   4   4   4   4   4
#     4  10  21  41  66  95 127 162 200 247 306 366
#     4  12  23  38  55  81 112 147 192 231 289 341
#     4  12  23  40  56  75 116 156 188 237 292 346
#     4  10  21  40  66  92 127 162 198 247 304 366
#     4  10  22  40  62  86 118 152 190 242 290 340
#     4  12  23  35  58  81 106 142 193 242 276 339
#     4  10  21  40  60  85 119 150 187 240 295 336
#     4  12  22  39  57  80 111 151 195 232 291 342
#
# _framework density 19.945733000000001
#
# number of rings (size 3 to 8) (size 9 to 14) (size 15 to 20)
#    0.000    1.000    2.500    5.250    0.000    0.000 
#    4.500    0.000    0.000    0.000    0.000    0.000 
#    0.000    0.000    0.000    0.000    0.000    0.000 
#
# Total GULP energy -396778.236448 kJ/mol
# GULP energy per Si atom -12399.319889 kJ/mol
# Density = 1.990034 g / cm^3
# Si number density = 19.945733 Si / 1000 Ang^3
#
#
#
# Elastic Constant Matrix: (Units=GPa)
#
#
# Indices 1 2 3 4 5 6 
#
# 1 121.8886 52.2498 31.5148 0.0000 0.0000 0.0000
# 2 52.2498 81.6472 23.7530 0.0000 0.0000 0.0000
# 3 31.5148 23.7530 107.6630 0.0000 0.0000 0.0000
# 4 0.0000 0.0000 0.0000 14.5770 0.0000 0.0000
# 5 0.0000 0.0000 0.0000 0.0000 23.1904 0.0000
# 6 0.0000 0.0000 0.0000 0.0000 0.0000 35.4754
#
#
#
# Elastic Compliance Matrix: (Units=1/GPa)
#
#
# Indices 1 2 3 4 5 6 
#
# 1 0.011654 -0.006909 -0.001887 0.000000 0.000000 0.000000
# 2 -0.006909 0.017184 -0.001769 0.000000 0.000000 0.000000
# 3 -0.001887 -0.001769 0.010231 0.000000 0.000000 0.000000
# 4 0.000000 0.000000 0.000000 0.068601 0.000000 0.000000
# 5 0.000000 0.000000 0.000000 0.000000 0.043121 0.000000
# 6 0.000000 0.000000 0.000000 0.000000 0.000000 0.028189
#
#
# Mechanical properties :
#
#
# Convention : Reuss Voigt Hill
#
# Bulk Modulus (GPa) = 55.74435 58.47044 57.10739
# Shear Modulus (GPa) = 24.26147 28.22731 26.24439
#
# Velocity S-wave (km/s) = 3.49144 3.76600 3.63132
# Velocity P-wave (km/s) = 6.65298 6.94901 6.80261
#
# Compressibility (1/GPa) = 0.01793904
#
# Stress axis : x y z
#
# Youngs Moduli (GPa) = 85.81001 58.19493 97.74375
#
# Poissons Ratio (x) = 0.40205 0.18444
# Poissons Ratio (y) = 0.59284 0.17289
# Poissons Ratio (z) = 0.16192 0.10294
#
# Static dielectric constant tensor:
#      x y z
#    x 3.655110 0.000000 0.000000 
#    y 0.000000 3.567120 0.000000 
#    z 0.000000 0.000000 3.885560 
# 
# 
# High freq. dielectric constant tensor:
#      x y z
#    x 1.778250 0.000000 0.000000 
#    y 0.000000 1.768060 0.000000 
#    z 0.000000 0.000000 1.799090 
# 
# From -- ./inp_files/783.got.cif
#   From: 2010.03.12/outbox.cif.g09.slc.cpg/sg18_1_cif.got.tgz:783.got - 2010.04.10 18:53:55.
