data_PCOD8156317
_publ_section_title
;
Structure prediction by ZEFSAII (Michael W. Deem and Ramdas Pophale) SiO2 
 PCOD8156317
Probable space group: P 21 21 2
;
_chemical_formula_sum "Si O2"
_cell_formula_units_Z 22
_cell_length_a 11.291155
_cell_length_b 12.789462
_cell_length_c 5.973559
_cell_angle_alpha 90.000000
_cell_angle_beta 90.000000
_cell_angle_gamma 90.000000
_cell_volume 862.628500
_symmetry_space_group_name_H-M "P 21 21 2"
_symmetry_group_IT_number 18
_symmetry_cell_setting 'orthorhombic'
loop_
_space_group_symop_operation_xyz
x,y,z
-x,-y,z
1/2+x,1/2-y,-z
1/2-x,1/2+y,-z
loop_
_atom_site_type_symbol
_atom_site_label
_atom_site_fract_x
_atom_site_fract_y
_atom_site_fract_z
Si Si1 0.009869 0.225091 0.630056
Si Si2 0.000000 0.000000 0.487351
Si Si3 0.907475 0.388698 0.941656
Si Si4 0.251599 0.967157 0.356827
Si Si5 0.237916 0.261605 0.880574
Si Si6 0.117986 0.364451 0.257744
O O1 0.114697 0.213370 0.806585
O O2 0.050695 0.274024 0.394744
O O3 0.918115 0.306082 0.738246
O O4 0.961439 0.105755 0.616589
O O5 0.125092 0.029393 0.362189
O O6 0.839659 0.487492 0.832470
O O7 0.828367 0.334202 0.130721
O O8 0.031540 0.416418 0.067368
O O9 0.216510 0.848705 0.292685
O O10 0.328217 0.958307 0.588164
O O11 0.226637 0.309525 0.129703
#
# Coordination Sequence:
#
# PCOD8156317 Si02
#       6
#     4   2   4   4   4   4
#     4  10  24  43  68  98 136 186 231 285 356 417
#     4  12  24  44  68  98 144 184 226 290 354 428
#     4  11  24  43  71 104 139 184 237 293 350 418
#     4  11  26  44  70 104 139 188 236 283 356 422
#     4  10  23  43  66  99 136 180 235 288 349 417
#     4  10  23  46  68  95 140 181 234 295 341 419
#
# _framework density 25.503447000000001
#
# number of rings (size 3 to 8) (size 9 to 14) (size 15 to 20)
#    0.000    1.455    0.000    3.273    0.000   18.182 
#    0.000    4.545    0.000    0.000    0.000    0.000 
#    0.000    0.000    0.000    0.000    0.000    0.000 
#
# Total GULP energy -272612.442525 kJ/mol
# GULP energy per Si atom -12391.474660 kJ/mol
# Density = 2.544540 g / cm^3
# Si number density = 25.503447 Si / 1000 Ang^3
#
#
#
# Elastic Constant Matrix: (Units=GPa)
#
#
# Indices 1 2 3 4 5 6 
#
# 1 124.4299 30.7001 38.3100 0.0000 0.0000 0.0000
# 2 30.7001 112.0485 28.4246 0.0000 0.0000 0.0000
# 3 38.3100 28.4246 95.1861 0.0000 0.0000 0.0000
# 4 0.0000 0.0000 0.0000 38.7537 0.0000 0.0000
# 5 0.0000 0.0000 0.0000 0.0000 26.8634 0.0000
# 6 0.0000 0.0000 0.0000 0.0000 0.0000 44.9326
#
#
#
# Elastic Compliance Matrix: (Units=1/GPa)
#
#
# Indices 1 2 3 4 5 6 
#
# 1 0.009485 -0.001764 -0.003291 0.000000 0.000000 0.000000
# 2 -0.001764 0.009984 -0.002272 0.000000 0.000000 0.000000
# 3 -0.003291 -0.002272 0.012508 0.000000 0.000000 0.000000
# 4 0.000000 0.000000 0.000000 0.025804 0.000000 0.000000
# 5 0.000000 0.000000 0.000000 0.000000 0.037225 0.000000
# 6 0.000000 0.000000 0.000000 0.000000 0.000000 0.022256
#
#
# Mechanical properties :
#
#
# Convention : Reuss Voigt Hill
#
# Bulk Modulus (GPa) = 57.71916 58.50375 58.11146
# Shear Modulus (GPa) = 36.31339 37.72529 37.01934
#
# Velocity S-wave (km/s) = 3.77750 3.85024 3.81404
# Velocity P-wave (km/s) = 6.45810 6.53874 6.49855
#
# Compressibility (1/GPa) = 0.01732527
#
# Stress axis : x y z
#
# Youngs Moduli (GPa) = 105.42926 100.15756 79.94567
#
# Poissons Ratio (x) = 0.17668 0.26308
# Poissons Ratio (y) = 0.18598 0.18160
# Poissons Ratio (z) = 0.34694 0.22751
#
# Static dielectric constant tensor:
#      x y z
#    x 4.685690 0.000000 0.000000 
#    y 0.000000 4.557440 0.000000 
#    z 0.000000 0.000000 4.571960 
# 
# 
# High freq. dielectric constant tensor:
#      x y z
#    x 2.027980 0.000000 0.000000 
#    y 0.000000 2.023790 0.000000 
#    z 0.000000 0.000000 2.010140 
# 
# From -- ./inp_files/1051.got.cif
#   From: 2010.03.12/outbox.cif.g09.slc.cpg/sg18_1_cif.got.tgz:1051.got - 2010.04.10 18:53:55.
