data_PCOD8156927
_publ_section_title
;
Structure prediction by ZEFSAII (Michael W. Deem and Ramdas Pophale) SiO2 
 PCOD8156927
Probable space group: P 21 21 21
;
_chemical_formula_sum "Si O2"
_cell_formula_units_Z 32
_cell_length_a 13.604464
_cell_length_b 9.370214
_cell_length_c 11.045090
_cell_angle_alpha 90.000000
_cell_angle_beta 90.000000
_cell_angle_gamma 90.000000
_cell_volume 1407.992056
_symmetry_space_group_name_H-M "P 21 21 21"
_symmetry_group_IT_number 19
_symmetry_cell_setting 'orthorhombic'
loop_
_space_group_symop_operation_xyz
x,y,z
1/2-x,-y,1/2+z
1/2+x,1/2-y,-z
-x,1/2+y,1/2-z
loop_
_atom_site_type_symbol
_atom_site_label
_atom_site_fract_x
_atom_site_fract_y
_atom_site_fract_z
Si Si1 0.171169 0.145504 0.221956
Si Si2 0.840890 0.349110 0.366109
Si Si3 0.344630 0.234401 0.375115
Si Si4 0.431216 0.656285 0.882088
Si Si5 0.629230 0.054303 0.119221
Si Si6 0.160571 0.629378 0.332461
Si Si7 0.532731 0.063815 0.369884
Si Si8 0.023601 0.209847 0.014631
O O1 0.268572 0.232400 0.262855
O O2 0.092019 0.187486 0.327462
O O3 0.203024 0.979629 0.213822
O O4 0.122019 0.187791 0.094913
O O5 0.800732 0.344522 0.504393
O O6 0.821547 0.202194 0.297004
O O7 0.955759 0.384546 0.373505
O O8 0.368276 0.391875 0.425550
O O9 0.443362 0.162660 0.326220
O O10 0.372232 0.534084 0.808132
O O11 0.404526 0.643071 0.024188
O O12 0.735041 0.129803 0.097377
O O13 0.608293 0.044036 0.262065
O O14 0.542294 0.139181 0.051216
O O15 0.076963 0.716394 0.407019
O O16 0.488160 0.912865 0.414330
#
# Coordination Sequence:
#
# PCOD8156927 Si02
#       8
#     4   4   4   4   4   4   4   4
#     4  12  23  43  72 102 140 191 234 308 362 436
#     4  11  23  42  68  99 143 181 239 294 366 429
#     4  11  26  44  69 106 142 192 244 295 363 448
#     4  10  20  44  70 100 141 183 234 302 359 433
#     4  12  27  43  75 105 142 194 240 303 371 431
#     4  11  24  42  71 107 135 184 243 295 360 445
#     4  10  24  49  67 102 148 187 234 308 361 438
#     4  11  25  47  72 103 151 186 242 309 368 436
#
# _framework density 22.727398999999998
#
# number of rings (size 3 to 8) (size 9 to 14) (size 15 to 20)
#    0.000    1.000    6.250    0.750    5.250    5.000 
#    0.000    0.000    0.000    0.000    0.000    0.000 
#    0.000    0.000    0.000    0.000    0.000    0.000 
#
# Total GULP energy -396623.241519 kJ/mol
# GULP energy per Si atom -12394.476297 kJ/mol
# Density = 2.267567 g / cm^3
# Si number density = 22.727399 Si / 1000 Ang^3
#
#
#
# Elastic Constant Matrix: (Units=GPa)
#
#
# Indices 1 2 3 4 5 6 
#
# 1 77.3362 34.3621 20.9409 0.0000 0.0000 0.0000
# 2 34.3621 95.9258 48.8421 0.0000 0.0000 0.0000
# 3 20.9409 48.8421 85.8026 0.0000 0.0000 0.0000
# 4 0.0000 0.0000 0.0000 36.7206 0.0000 0.0000
# 5 0.0000 0.0000 0.0000 0.0000 37.5510 0.0000
# 6 0.0000 0.0000 0.0000 0.0000 0.0000 26.1263
#
#
#
# Elastic Compliance Matrix: (Units=1/GPa)
#
#
# Indices 1 2 3 4 5 6 
#
# 1 0.015424 -0.005081 -0.000872 0.000000 0.000000 0.000000
# 2 -0.005081 0.016353 -0.008069 0.000000 0.000000 0.000000
# 3 -0.000872 -0.008069 0.016461 0.000000 0.000000 0.000000
# 4 0.000000 0.000000 0.000000 0.027233 0.000000 0.000000
# 5 0.000000 0.000000 0.000000 0.000000 0.026630 0.000000
# 6 0.000000 0.000000 0.000000 0.000000 0.000000 0.038276
#
#
# Mechanical properties :
#
#
# Convention : Reuss Voigt Hill
#
# Bulk Modulus (GPa) = 49.51940 51.92829 50.72384
# Shear Modulus (GPa) = 28.54657 30.40754 29.47706
#
# Velocity S-wave (km/s) = 3.54791 3.66173 3.60527
# Velocity P-wave (km/s) = 6.21444 6.38558 6.30059
#
# Compressibility (1/GPa) = 0.02019410
#
# Stress axis : x y z
#
# Youngs Moduli (GPa) = 64.83236 61.14996 60.75140
#
# Poissons Ratio (x) = 0.31072 0.05298
# Poissons Ratio (y) = 0.32943 0.49019
# Poissons Ratio (z) = 0.05653 0.49340
#
# Static dielectric constant tensor:
#      x y z
#    x 4.013170 0.000000 0.000000 
#    y 0.000000 4.110230 0.000000 
#    z 0.000000 0.000000 4.114440 
# 
# 
# High freq. dielectric constant tensor:
#      x y z
#    x 1.889950 0.000000 0.000000 
#    y 0.000000 1.894020 0.000000 
#    z 0.000000 0.000000 1.890450 
# 
# From -- ./inp_files/5281.got.cif
#   From: 2010.03.12/outbox.cif.g09.slc.cpg/sg19_3_cif.got.tgz:5281.got - 2010.04.10 18:59:41.
