data_PCOD8156022
_publ_section_title
;
Structure prediction by ZEFSAII (Michael W. Deem and Ramdas Pophale) SiO2 
 PCOD8156022
Probable space group: P 21 21 2
;
_chemical_formula_sum "Si O2"
_cell_formula_units_Z 28
_cell_length_a 8.311598
_cell_length_b 24.595812
_cell_length_c 6.776928
_cell_angle_alpha 90.000000
_cell_angle_beta 90.000000
_cell_angle_gamma 90.000000
_cell_volume 1385.410792
_symmetry_space_group_name_H-M "P 21 21 2"
_symmetry_group_IT_number 18
_symmetry_cell_setting 'orthorhombic'
loop_
_space_group_symop_operation_xyz
x,y,z
-x,-y,z
1/2+x,1/2-y,-z
1/2-x,1/2+y,-z
loop_
_atom_site_type_symbol
_atom_site_label
_atom_site_fract_x
_atom_site_fract_y
_atom_site_fract_z
Si Si1 0.500000 0.500000 0.206041
Si Si2 0.978092 0.913046 0.126867
Si Si3 0.790508 0.045522 0.459406
Si Si4 0.117134 0.344692 0.551746
Si Si5 0.518214 0.197035 0.853265
Si Si6 0.824246 0.194543 0.114618
Si Si7 0.117043 0.610934 0.872316
Si Si8 0.500000 0.000000 0.224140
O O1 0.348897 0.484900 0.343917
O O2 0.456562 0.550937 0.069048
O O3 0.801533 0.894313 0.191527
O O4 0.062266 0.945846 0.305457
O O5 0.080273 0.860499 0.071863
O O6 0.712828 0.102583 0.525903
O O7 0.657428 0.007633 0.358383
O O8 0.240636 0.306454 0.671114
O O9 0.039157 0.309890 0.378953
O O10 0.969884 0.361433 0.688946
O O11 0.439215 0.254341 0.901192
O O12 0.693998 0.197519 0.944076
O O13 0.406989 0.148023 0.934573
O O14 0.033184 0.552311 0.913578
#
# Coordination Sequence:
#
# PCOD8156022 Si02
#       8
#     2   4   4   4   4   4   4   2
#     4  12  22  36  62  88 116 160 198 236 292 352
#     4  11  23  40  59  88 125 155 193 249 298 345
#     4  10  22  39  58  86 122 157 200 241 289 353
#     4   9  22  41  60  85 118 156 195 242 294 348
#     4  11  22  41  64  89 118 156 201 241 293 358
#     4  10  23  40  60  87 120 153 194 247 295 346
#     4  10  22  38  61  89 120 156 195 242 296 349
#     4  10  20  40  60  84 126 158 188 248 296 338
#
# _framework density 20.210612999999999
#
# number of rings (size 3 to 8) (size 9 to 14) (size 15 to 20)
#    0.000    1.714    0.000    4.714    0.000    8.000 
#    0.000    4.286    0.000    0.000    0.000    0.000 
#    0.000    0.000    0.000    0.000    0.000    0.000 
#
# Total GULP energy -347298.123045 kJ/mol
# GULP energy per Si atom -12403.504394 kJ/mol
# Density = 2.016461 g / cm^3
# Si number density = 20.210613 Si / 1000 Ang^3
#
#
#
# Elastic Constant Matrix: (Units=GPa)
#
#
# Indices 1 2 3 4 5 6 
#
# 1 126.9152 38.7638 35.0355 0.0000 0.0000 0.0000
# 2 38.7638 113.4878 42.0183 0.0000 0.0000 0.0000
# 3 35.0355 42.0183 83.5881 0.0000 0.0000 0.0000
# 4 0.0000 0.0000 0.0000 24.8754 0.0000 0.0000
# 5 0.0000 0.0000 0.0000 0.0000 15.8867 0.0000
# 6 0.0000 0.0000 0.0000 0.0000 0.0000 40.1917
#
#
#
# Elastic Compliance Matrix: (Units=1/GPa)
#
#
# Indices 1 2 3 4 5 6 
#
# 1 0.009312 -0.002133 -0.002831 0.000000 0.000000 0.000000
# 2 -0.002133 0.011315 -0.004794 0.000000 0.000000 0.000000
# 3 -0.002831 -0.004794 0.015560 0.000000 0.000000 0.000000
# 4 0.000000 0.000000 0.000000 0.040200 0.000000 0.000000
# 5 0.000000 0.000000 0.000000 0.000000 0.062946 0.000000
# 6 0.000000 0.000000 0.000000 0.000000 0.000000 0.024881
#
#
# Mechanical properties :
#
#
# Convention : Reuss Voigt Hill
#
# Bulk Modulus (GPa) = 59.98192 61.73626 60.85909
# Shear Modulus (GPa) = 26.41505 30.06901 28.24203
#
# Velocity S-wave (km/s) = 3.61915 3.86136 3.74222
# Velocity P-wave (km/s) = 6.87075 7.10584 6.98928
#
# Compressibility (1/GPa) = 0.01667169
#
# Stress axis : x y z
#
# Youngs Moduli (GPa) = 107.38641 88.37935 64.26762
#
# Poissons Ratio (x) = 0.18847 0.18195
# Poissons Ratio (y) = 0.22900 0.30810
# Poissons Ratio (z) = 0.30403 0.42369
#
# Static dielectric constant tensor:
#      x y z
#    x 3.845850 0.000000 0.000000 
#    y 0.000000 3.840090 0.000000 
#    z 0.000000 0.000000 3.495930 
# 
# 
# High freq. dielectric constant tensor:
#      x y z
#    x 1.803320 0.000000 0.000000 
#    y 0.000000 1.800040 0.000000 
#    z 0.000000 0.000000 1.776680 
# 
# From -- ./inp_files/718.got.cif
#   From: 2010.03.12/outbox.cif.g09.slc.cpg/sg18_1_cif.got.tgz:718.got - 2010.04.10 18:53:55.
