data_PCOD8156186
_publ_section_title
;
Structure prediction by ZEFSAII (Michael W. Deem and Ramdas Pophale) SiO2 
 PCOD8156186
Probable space group: P 21 21 2
;
_chemical_formula_sum "Si O2"
_cell_formula_units_Z 28
_cell_length_a 10.455523
_cell_length_b 17.660460
_cell_length_c 6.419450
_cell_angle_alpha 90.000000
_cell_angle_beta 90.000000
_cell_angle_gamma 90.000000
_cell_volume 1185.347242
_symmetry_space_group_name_H-M "P 21 21 2"
_symmetry_group_IT_number 18
_symmetry_cell_setting 'orthorhombic'
loop_
_space_group_symop_operation_xyz
x,y,z
-x,-y,z
1/2+x,1/2-y,-z
1/2-x,1/2+y,-z
loop_
_atom_site_type_symbol
_atom_site_label
_atom_site_fract_x
_atom_site_fract_y
_atom_site_fract_z
Si Si1 0.947026 0.879235 0.657366
Si Si2 0.605420 0.893940 0.164211
Si Si3 0.180304 0.013574 0.338792
Si Si4 0.500000 0.000000 0.822782
Si Si5 0.312443 0.200183 0.805464
Si Si6 0.500000 0.500000 0.026010
Si Si7 0.310168 0.339995 0.557938
Si Si8 0.951486 0.633724 0.448573
O O1 0.821949 0.833961 0.727329
O O2 0.057366 0.823517 0.565951
O O3 0.919634 0.944461 0.487952
O O4 0.012871 0.922436 0.847649
O O5 0.479453 0.876438 0.301148
O O6 0.696704 0.932290 0.334810
O O7 0.662252 0.818463 0.050184
O O8 0.591265 0.951614 0.971979
O O9 0.211669 0.929011 0.408184
O O10 0.127287 0.008840 0.107009
O O11 0.579928 0.054805 0.670318
O O12 0.311204 0.290997 0.771630
O O13 0.428035 0.172188 0.660060
O O14 0.179760 0.316727 0.432198
#
# Coordination Sequence:
#
# PCOD8156186 Si02
#       8
#     4   4   4   2   4   2   4   4
#     4  12  24  46  73 101 141 183 238 292 349 419
#     4  11  23  44  70  98 136 183 230 283 350 414
#     4  12  23  43  72 105 133 178 243 293 337 417
#     4  10  22  38  70 102 126 176 228 284 330 410
#     4  11  26  47  67  98 144 187 227 285 366 421
#     4  12  22  42  72 106 130 186 234 300 338 416
#     4  12  25  45  67 106 138 180 234 294 350 421
#     4  11  24  44  67  99 142 177 229 286 345 419
#
# _framework density 23.621770999999999
#
# number of rings (size 3 to 8) (size 9 to 14) (size 15 to 20)
#    0.000    0.571    5.714    3.000    4.000    0.000 
#    7.714    0.000    0.000    0.000    0.000    0.000 
#    0.000    0.000    0.000    0.000    0.000    0.000 
#
# Total GULP energy -347007.163056 kJ/mol
# GULP energy per Si atom -12393.112966 kJ/mol
# Density = 2.356801 g / cm^3
# Si number density = 23.621771 Si / 1000 Ang^3
#
#
#
# Elastic Constant Matrix: (Units=GPa)
#
#
# Indices 1 2 3 4 5 6 
#
# 1 132.8162 23.9168 30.1584 0.0000 0.0000 0.0000
# 2 23.9168 47.4637 14.3029 0.0000 0.0000 0.0000
# 3 30.1584 14.3029 94.0382 0.0000 0.0000 0.0000
# 4 0.0000 0.0000 0.0000 27.7762 0.0000 0.0000
# 5 0.0000 0.0000 0.0000 0.0000 30.9453 0.0000
# 6 0.0000 0.0000 0.0000 0.0000 0.0000 18.5973
#
#
#
# Elastic Compliance Matrix: (Units=1/GPa)
#
#
# Indices 1 2 3 4 5 6 
#
# 1 0.008704 -0.003715 -0.002226 0.000000 0.000000 0.000000
# 2 -0.003715 0.023666 -0.002408 0.000000 0.000000 0.000000
# 3 -0.002226 -0.002408 0.011714 0.000000 0.000000 0.000000
# 4 0.000000 0.000000 0.000000 0.036002 0.000000 0.000000
# 5 0.000000 0.000000 0.000000 0.000000 0.032315 0.000000
# 6 0.000000 0.000000 0.000000 0.000000 0.000000 0.053771
#
#
# Mechanical properties :
#
#
# Convention : Reuss Voigt Hill
#
# Bulk Modulus (GPa) = 36.51561 45.67494 41.09527
# Shear Modulus (GPa) = 26.04167 29.19308 27.61738
#
# Velocity S-wave (km/s) = 3.32391 3.51929 3.42299
# Velocity P-wave (km/s) = 5.49756 5.99097 5.74956
#
# Compressibility (1/GPa) = 0.02738555
#
# Stress axis : x y z
#
# Youngs Moduli (GPa) = 114.89400 42.25407 85.36624
#
# Poissons Ratio (x) = 0.15697 0.19005
# Poissons Ratio (y) = 0.42682 0.20558
# Poissons Ratio (z) = 0.25579 0.10176
#
# Static dielectric constant tensor:
#      x y z
#    x 4.394790 0.000000 0.000000 
#    y 0.000000 4.328110 0.000000 
#    z 0.000000 0.000000 4.223080 
# 
# 
# High freq. dielectric constant tensor:
#      x y z
#    x 1.947880 0.000000 0.000000 
#    y 0.000000 1.928530 0.000000 
#    z 0.000000 0.000000 1.929650 
# 
# From -- ./inp_files/1258.got.cif
#   From: 2010.03.12/outbox.cif.g09.slc.cpg/sg18_1_cif.got.tgz:1258.got - 2010.04.10 18:53:55.
