data_PCOD8156242
_publ_section_title
;
Structure prediction by ZEFSAII (Michael W. Deem and Ramdas Pophale) SiO2 
 PCOD8156242
Probable space group: P 21 21 2
;
_chemical_formula_sum "Si O2"
_cell_formula_units_Z 18
_cell_length_a 12.534060
_cell_length_b 8.097067
_cell_length_c 8.346907
_cell_angle_alpha 90.000000
_cell_angle_beta 90.000000
_cell_angle_gamma 90.000000
_cell_volume 847.120276
_symmetry_space_group_name_H-M "P 21 21 2"
_symmetry_group_IT_number 18
_symmetry_cell_setting 'orthorhombic'
loop_
_space_group_symop_operation_xyz
x,y,z
-x,-y,z
1/2+x,1/2-y,-z
1/2-x,1/2+y,-z
loop_
_atom_site_type_symbol
_atom_site_label
_atom_site_fract_x
_atom_site_fract_y
_atom_site_fract_z
Si Si1 0.948540 0.674349 0.398705
Si Si2 0.262173 0.327052 0.205267
Si Si3 0.855711 0.881851 0.963756
Si Si4 0.000000 0.000000 0.222350
Si Si5 0.012587 0.682539 0.756648
O O1 0.825856 0.677987 0.343811
O O2 0.000000 0.500000 0.342346
O O3 0.949826 0.691457 0.589362
O O4 0.010587 0.832637 0.326647
O O5 0.293577 0.515892 0.170927
O O6 0.363426 0.224719 0.269120
O O7 0.221248 0.257696 0.035015
O O8 0.961705 0.806016 0.884312
O O9 0.894112 0.994463 0.112665
O O10 0.000000 0.500000 0.829161
#
# Coordination Sequence:
#
# PCOD8156242 Si02
#       5
#     4   4   4   2   4
#     4  10  26  45  67 100 141 178 229 286 341 418
#     4  11  24  42  68 102 130 188 225 280 361 397
#     4  11  23  41  68  99 133 176 233 283 337 411
#     4  10  22  42  66  94 134 176 216 290 330 402
#     4  11  24  46  65 100 143 175 232 287 340 418
#
# _framework density 21.248459
#
# number of rings (size 3 to 8) (size 9 to 14) (size 15 to 20)
#    0.000    1.333    2.222    1.333    6.222    7.111 
#    8.000    0.000    0.000    0.000    0.000    0.000 
#    0.000    0.000    0.000    0.000    0.000    0.000 
#
# Total GULP energy -223257.318590 kJ/mol
# GULP energy per Si atom -12403.184366 kJ/mol
# Density = 2.120010 g / cm^3
# Si number density = 21.248459 Si / 1000 Ang^3
#
#
#
# Elastic Constant Matrix: (Units=GPa)
#
#
# Indices 1 2 3 4 5 6 
#
# 1 128.4982 44.5455 31.8836 0.0000 0.0000 0.0000
# 2 44.5455 136.9982 34.6884 0.0000 0.0000 0.0000
# 3 31.8836 34.6884 68.0763 0.0000 0.0000 0.0000
# 4 0.0000 0.0000 0.0000 30.0853 0.0000 0.0000
# 5 0.0000 0.0000 0.0000 0.0000 32.4523 0.0000
# 6 0.0000 0.0000 0.0000 0.0000 0.0000 33.9079
#
#
#
# Elastic Compliance Matrix: (Units=1/GPa)
#
#
# Indices 1 2 3 4 5 6 
#
# 1 0.009359 -0.002220 -0.003252 0.000000 0.000000 0.000000
# 2 -0.002220 0.008907 -0.003499 0.000000 0.000000 0.000000
# 3 -0.003252 -0.003499 0.017995 0.000000 0.000000 0.000000
# 4 0.000000 0.000000 0.000000 0.033239 0.000000 0.000000
# 5 0.000000 0.000000 0.000000 0.000000 0.030814 0.000000
# 6 0.000000 0.000000 0.000000 0.000000 0.000000 0.029492
#
#
# Mechanical properties :
#
#
# Convention : Reuss Voigt Hill
#
# Bulk Modulus (GPa) = 54.58624 61.75640 58.17132
# Shear Modulus (GPa) = 32.49833 34.11944 33.30888
#
# Velocity S-wave (km/s) = 3.91505 4.01151 3.96358
# Velocity P-wave (km/s) = 6.79574 7.11220 6.95577
#
# Compressibility (1/GPa) = 0.01831963
#
# Stress axis : x y z
#
# Youngs Moduli (GPa) = 106.85393 112.27087 55.56951
#
# Poissons Ratio (x) = 0.24919 0.18072
# Poissons Ratio (y) = 0.23717 0.19444
# Poissons Ratio (z) = 0.34750 0.39284
#
# Static dielectric constant tensor:
#      x y z
#    x 3.733110 0.000000 0.000000 
#    y 0.000000 4.074520 0.000000 
#    z 0.000000 0.000000 3.648980 
# 
# 
# High freq. dielectric constant tensor:
#      x y z
#    x 1.833450 0.000000 0.000000 
#    y 0.000000 1.847770 0.000000 
#    z 0.000000 0.000000 1.828580 
# 
# From -- ./inp_files/2805.got.cif
#   From: 2010.03.12/outbox.cif.g09.slc.cpg/sg18_2_cif.got.tgz:2805.got - 2010.04.10 18:53:55.
