data_PCOD8156801
_publ_section_title
;
Structure prediction by ZEFSAII (Michael W. Deem and Ramdas Pophale) SiO2 
 PCOD8156801
Probable space group: P 21 21 21
;
_chemical_formula_sum "Si O2"
_cell_formula_units_Z 32
_cell_length_a 9.877319
_cell_length_b 10.769770
_cell_length_c 15.794493
_cell_angle_alpha 90.000000
_cell_angle_beta 90.000000
_cell_angle_gamma 90.000000
_cell_volume 1680.162156
_symmetry_space_group_name_H-M "P 21 21 21"
_symmetry_group_IT_number 19
_symmetry_cell_setting 'orthorhombic'
loop_
_space_group_symop_operation_xyz
x,y,z
1/2-x,-y,1/2+z
1/2+x,1/2-y,-z
-x,1/2+y,1/2-z
loop_
_atom_site_type_symbol
_atom_site_label
_atom_site_fract_x
_atom_site_fract_y
_atom_site_fract_z
Si Si1 0.612119 0.789480 0.114118
Si Si2 0.320392 0.918993 0.867646
Si Si3 0.103870 0.588872 0.062160
Si Si4 0.794975 0.507244 0.805722
Si Si5 0.829123 0.791648 0.833294
Si Si6 0.417040 0.662993 0.485709
Si Si7 0.724518 0.612400 0.484910
Si Si8 0.602608 0.041392 0.188593
O O1 0.743114 0.705517 0.105357
O O2 0.485723 0.705205 0.140730
O O3 0.646868 0.897404 0.181954
O O4 0.563365 0.859510 0.029658
O O5 0.478977 0.887543 0.874803
O O6 0.297408 0.955238 0.769888
O O7 0.271722 0.024209 0.933072
O O8 0.236795 0.662021 0.090030
O O9 0.126401 0.440587 0.054934
O O10 0.786018 0.655856 0.802338
O O11 0.747274 0.464260 0.898854
O O12 0.944117 0.454903 0.788856
O O13 0.808233 0.893029 0.760089
O O14 0.579594 0.681522 0.483093
O O15 0.347084 0.791463 0.509253
O O16 0.364035 0.618861 0.395119
#
# Coordination Sequence:
#
# PCOD8156801 Si02
#       8
#     4   4   4   4   4   4   4   4
#     4  10  20  37  63  83 113 151 203 237 290 358
#     4  11  21  40  60  86 123 159 189 249 303 346
#     4  10  22  38  56  87 120 153 187 247 301 345
#     4  10  21  38  59  87 116 156 204 236 298 357
#     4  11  20  38  61  82 116 150 198 246 285 351
#     4   9  20  39  58  83 118 151 197 242 295 341
#     4  10  21  39  62  86 121 156 198 247 291 357
#     4   9  19  37  59  86 107 150 202 248 273 351
#
# _framework density 19.045781000000002
#
# number of rings (size 3 to 8) (size 9 to 14) (size 15 to 20)
#    0.000    2.000    1.250    4.500    0.000    2.000 
#   11.250    1.250    0.000    0.000    0.000    0.000 
#    0.000    0.000    0.000    0.000    0.000    0.000 
#
# Total GULP energy -396806.211562 kJ/mol
# GULP energy per Si atom -12400.194111 kJ/mol
# Density = 1.900243 g / cm^3
# Si number density = 19.045781 Si / 1000 Ang^3
#
#
#
# Elastic Constant Matrix: (Units=GPa)
#
#
# Indices 1 2 3 4 5 6 
#
# 1 59.0906 57.2400 29.3869 0.0000 0.0000 0.0000
# 2 57.2400 103.0991 36.4538 0.0000 0.0000 0.0000
# 3 29.3869 36.4538 84.6250 0.0000 0.0000 0.0000
# 4 0.0000 0.0000 0.0000 32.1226 0.0000 0.0000
# 5 0.0000 0.0000 0.0000 0.0000 28.1709 0.0000
# 6 0.0000 0.0000 0.0000 0.0000 0.0000 36.8887
#
#
#
# Elastic Compliance Matrix: (Units=1/GPa)
#
#
# Indices 1 2 3 4 5 6 
#
# 1 0.038249 -0.019511 -0.004878 0.000000 0.000000 0.000000
# 2 -0.019511 0.021395 -0.002441 0.000000 0.000000 0.000000
# 3 -0.004878 -0.002441 0.014562 0.000000 0.000000 0.000000
# 4 0.000000 0.000000 0.000000 0.031131 0.000000 0.000000
# 5 0.000000 0.000000 0.000000 0.000000 0.035498 0.000000
# 6 0.000000 0.000000 0.000000 0.000000 0.000000 0.027109
#
#
# Mechanical properties :
#
#
# Convention : Reuss Voigt Hill
#
# Bulk Modulus (GPa) = 48.66902 54.77512 51.72207
# Shear Modulus (GPa) = 21.88667 27.68538 24.78602
#
# Velocity S-wave (km/s) = 3.39361 3.81678 3.61139
# Velocity P-wave (km/s) = 6.40036 6.94592 6.67871
#
# Compressibility (1/GPa) = 0.02054695
#
# Stress axis : x y z
#
# Youngs Moduli (GPa) = 26.14477 46.74062 68.67153
#
# Poissons Ratio (x) = 0.91194 0.33495
# Poissons Ratio (y) = 0.51010 0.16762
# Poissons Ratio (z) = 0.12752 0.11409
#
# Static dielectric constant tensor:
#      x y z
#    x 3.249830 0.000000 0.000000 
#    y 0.000000 3.483450 0.000000 
#    z 0.000000 0.000000 3.458030 
# 
# 
# High freq. dielectric constant tensor:
#      x y z
#    x 1.724040 0.000000 0.000000 
#    y 0.000000 1.747860 0.000000 
#    z 0.000000 0.000000 1.744410 
# 
# From -- ./inp_files/3647.got.cif
#   From: 2010.03.12/outbox.cif.g09.slc.cpg/sg19_2_cif.got.tgz:3647.got - 2010.04.10 18:59:41.
