data_PCOD8156386
_publ_section_title
;
Structure prediction by ZEFSAII (Michael W. Deem and Ramdas Pophale) SiO2 
 PCOD8156386
Probable space group: P 21 21 2
;
_chemical_formula_sum "Si O2"
_cell_formula_units_Z 20
_cell_length_a 8.254672
_cell_length_b 17.220273
_cell_length_c 4.987157
_cell_angle_alpha 90.000000
_cell_angle_beta 90.000000
_cell_angle_gamma 90.000000
_cell_volume 708.912924
_symmetry_space_group_name_H-M "P 21 21 2"
_symmetry_group_IT_number 18
_symmetry_cell_setting 'orthorhombic'
loop_
_space_group_symop_operation_xyz
x,y,z
-x,-y,z
1/2+x,1/2-y,-z
1/2-x,1/2+y,-z
loop_
_atom_site_type_symbol
_atom_site_label
_atom_site_fract_x
_atom_site_fract_y
_atom_site_fract_z
Si Si1 0.329445 0.005243 0.461956
Si Si2 0.432441 0.579832 0.929179
Si Si3 0.489542 0.224707 0.270376
Si Si4 0.687302 0.654710 0.556568
Si Si5 0.842925 0.355316 0.225876
O O1 0.279685 0.919535 0.558759
O O2 0.500000 0.000000 0.296793
O O3 0.190466 0.049446 0.299190
O O4 0.370041 0.051775 0.738350
O O5 0.500000 0.500000 0.074181
O O6 0.576088 0.629943 0.803838
O O7 0.344035 0.644220 0.119112
O O8 0.421447 0.312296 0.312019
O O9 0.682109 0.218512 0.333395
O O10 0.462293 0.189159 0.976664
O O11 0.376688 0.178187 0.480188
#
# Coordination Sequence:
#
# PCOD8156386 Si02
#       5
#     4   4   4   4   4
#     4  11  23  49  80 115 157 211 272 331 396 472
#     4  10  24  47  79 114 159 203 276 322 401 469
#     4  12  28  50  78 115 161 208 265 328 417 477
#     4  11  26  53  79 121 160 219 261 343 399 497
#     4  12  25  52  75 116 157 209 268 330 397 485
#
# _framework density 28.212209000000001
#
# number of rings (size 3 to 8) (size 9 to 14) (size 15 to 20)
#    0.000    0.800    4.000    1.200    0.000    9.600 
#   10.800    0.000    0.000    0.000    0.000    0.000 
#    0.000    0.000    0.000    0.000    0.000    0.000 
#
# Total GULP energy -247857.767158 kJ/mol
# GULP energy per Si atom -12392.888358 kJ/mol
# Density = 2.814800 g / cm^3
# Si number density = 28.212209 Si / 1000 Ang^3
#
#
#
# Elastic Constant Matrix: (Units=GPa)
#
#
# Indices 1 2 3 4 5 6 
#
# 1 152.9578 30.3849 -14.2006 0.0000 0.0000 0.0000
# 2 30.3849 51.7042 0.6290 0.0000 0.0000 0.0000
# 3 -14.2006 0.6290 45.2208 0.0000 0.0000 0.0000
# 4 0.0000 0.0000 0.0000 16.5170 0.0000 0.0000
# 5 0.0000 0.0000 0.0000 0.0000 31.8920 0.0000
# 6 0.0000 0.0000 0.0000 0.0000 0.0000 59.2928
#
#
#
# Elastic Compliance Matrix: (Units=1/GPa)
#
#
# Indices 1 2 3 4 5 6 
#
# 1 0.007668 -0.004536 0.002471 0.000000 0.000000 0.000000
# 2 -0.004536 0.022028 -0.001731 0.000000 0.000000 0.000000
# 3 0.002471 -0.001731 0.022914 0.000000 0.000000 0.000000
# 4 0.000000 0.000000 0.000000 0.060544 0.000000 0.000000
# 5 0.000000 0.000000 0.000000 0.000000 0.031356 0.000000
# 6 0.000000 0.000000 0.000000 0.000000 0.000000 0.016865
#
#
# Mechanical properties :
#
#
# Convention : Reuss Voigt Hill
#
# Bulk Modulus (GPa) = 22.21365 31.50104 26.85734
# Shear Modulus (GPa) = 27.17787 37.07833 32.12810
#
# Velocity S-wave (km/s) = 3.10713 3.62921 3.37827
# Velocity P-wave (km/s) = 4.55667 5.36205 4.97568
#
# Compressibility (1/GPa) = 0.04501737
#
# Stress axis : x y z
#
# Youngs Moduli (GPa) = 130.40630 45.39720 43.64178
#
# Poissons Ratio (x) = 0.20594 -0.10785
# Poissons Ratio (y) = 0.59159 0.07554
# Poissons Ratio (z) = -0.32226 0.07858
#
# Static dielectric constant tensor:
#      x y z
#    x 5.603810 0.000000 0.000000 
#    y 0.000000 6.204420 0.000000 
#    z 0.000000 0.000000 4.621010 
# 
# 
# High freq. dielectric constant tensor:
#      x y z
#    x 2.169450 0.000000 0.000000 
#    y 0.000000 2.176460 0.000000 
#    z 0.000000 0.000000 2.109380 
# 
# From -- ./inp_files/530.got.cif
#   From: 2010.03.12/outbox.cif.g09.slc.cpg/sg18_1_cif.got.tgz:530.got - 2010.04.10 18:53:55.
