data_PCOD8156760
_publ_section_title
;
Structure prediction by ZEFSAII (Michael W. Deem and Ramdas Pophale) SiO2 
 PCOD8156760
Probable space group: P 21 21 21
;
_chemical_formula_sum "Si O2"
_cell_formula_units_Z 28
_cell_length_a 16.087195
_cell_length_b 8.656914
_cell_length_c 8.295765
_cell_angle_alpha 90.000000
_cell_angle_beta 90.000000
_cell_angle_gamma 90.000000
_cell_volume 1155.313559
_symmetry_space_group_name_H-M "P 21 21 21"
_symmetry_group_IT_number 19
_symmetry_cell_setting 'orthorhombic'
loop_
_space_group_symop_operation_xyz
x,y,z
1/2-x,-y,1/2+z
1/2+x,1/2-y,-z
-x,1/2+y,1/2-z
loop_
_atom_site_type_symbol
_atom_site_label
_atom_site_fract_x
_atom_site_fract_y
_atom_site_fract_z
Si Si1 0.622636 0.523628 0.667440
Si Si2 0.185258 0.072780 0.873328
Si Si3 0.759413 0.922382 0.069893
Si Si4 0.521921 0.013551 0.041233
Si Si5 0.645700 0.128789 0.268020
Si Si6 0.864820 0.772608 0.334336
Si Si7 0.613326 0.713029 0.979282
O O1 0.721346 0.513987 0.648229
O O2 0.575042 0.551226 0.496461
O O3 0.589724 0.354281 0.721751
O O4 0.597438 0.653403 0.797997
O O5 0.153818 0.183697 0.726098
O O6 0.183999 0.174181 0.033409
O O7 0.121808 0.928927 0.893344
O O8 0.833191 0.951953 0.938981
O O9 0.701339 0.800285 0.979063
O O10 0.795305 0.865735 0.237844
O O11 0.705439 0.072348 0.118531
O O12 0.569987 0.103758 0.899128
O O13 0.540317 0.829224 0.033817
O O14 0.551855 0.078819 0.215798
#
# Coordination Sequence:
#
# PCOD8156760 Si02
#       7
#     4   4   4   4   4   4   4
#     4  11  20  37  64  91 126 162 208 266 308 369
#     4  10  20  36  60  94 116 161 217 260 299 361
#     4  11  19  38  62  92 118 163 212 256 302 367
#     4  10  22  39  61  90 129 165 202 257 320 375
#     4  10  21  36  63  89 124 157 209 251 311 373
#     4  10  22  37  62  92 123 167 216 254 303 384
#     4  10  20  35  62  90 120 163 206 256 303 367
#
# _framework density 24.235842999999999
#
# number of rings (size 3 to 8) (size 9 to 14) (size 15 to 20)
#    0.000    1.714    2.857    3.429    0.000    0.000 
#    0.000    0.000   12.571    0.000    0.000    0.000 
#    0.000    0.000    0.000    0.000    0.000    0.000 
#
# Total GULP energy -347017.801327 kJ/mol
# GULP energy per Si atom -12393.492905 kJ/mol
# Density = 2.418068 g / cm^3
# Si number density = 24.235843 Si / 1000 Ang^3
#
#
#
# Elastic Constant Matrix: (Units=GPa)
#
#
# Indices 1 2 3 4 5 6 
#
# 1 31.0905 8.4037 -13.6328 0.0000 0.0000 0.0000
# 2 8.4037 122.5447 1.4749 0.0000 0.0000 0.0000
# 3 -13.6328 1.4749 25.7828 0.0000 0.0000 0.0000
# 4 0.0000 0.0000 0.0000 24.5172 0.0000 0.0000
# 5 0.0000 0.0000 0.0000 0.0000 25.9726 0.0000
# 6 0.0000 0.0000 0.0000 0.0000 0.0000 16.2380
#
#
#
# Elastic Compliance Matrix: (Units=1/GPa)
#
#
# Indices 1 2 3 4 5 6 
#
# 1 0.043116 -0.003233 0.022983 0.000000 0.000000 0.000000
# 2 -0.003233 0.008408 -0.002191 0.000000 0.000000 0.000000
# 3 0.022983 -0.002191 0.051063 0.000000 0.000000 0.000000
# 4 0.000000 0.000000 0.000000 0.040788 0.000000 0.000000
# 5 0.000000 0.000000 0.000000 0.000000 0.038502 0.000000
# 6 0.000000 0.000000 0.000000 0.000000 0.000000 0.061584
#
#
# Mechanical properties :
#
#
# Convention : Reuss Voigt Hill
#
# Bulk Modulus (GPa) = 7.26193 19.10109 13.18151
# Shear Modulus (GPa) = 19.66606 25.55704 22.61155
#
# Velocity S-wave (km/s) = 2.85168 3.25085 3.05779
# Velocity P-wave (km/s) = 3.72097 4.68926 4.23289
#
# Compressibility (1/GPa) = 0.13770441
#
# Stress axis : x y z
#
# Youngs Moduli (GPa) = 23.19338 118.92886 19.58362
#
# Poissons Ratio (x) = 0.38454 -0.45008
# Poissons Ratio (y) = 0.07499 0.04290
# Poissons Ratio (z) = -0.53304 0.26053
#
# Static dielectric constant tensor:
#      x y z
#    x 4.011560 0.000000 0.000000 
#    y 0.000000 4.774930 0.000000 
#    z 0.000000 0.000000 4.235280 
# 
# 
# High freq. dielectric constant tensor:
#      x y z
#    x 1.935980 0.000000 0.000000 
#    y 0.000000 1.975250 0.000000 
#    z 0.000000 0.000000 1.954930 
# 
# From -- ./inp_files/2949.got.cif
#   From: 2010.03.12/outbox.cif.g09.slc.cpg/sg19_2_cif.got.tgz:2949.got - 2010.04.10 18:59:41.
