data_PCOD8156095
_publ_section_title
;
Structure prediction by ZEFSAII (Michael W. Deem and Ramdas Pophale) SiO2 
 PCOD8156095
Probable space group: P 21 21 2
;
_chemical_formula_sum "Si O2"
_cell_formula_units_Z 18
_cell_length_a 5.037644
_cell_length_b 11.856078
_cell_length_c 12.447833
_cell_angle_alpha 90.000000
_cell_angle_beta 90.000000
_cell_angle_gamma 90.000000
_cell_volume 743.467990
_symmetry_space_group_name_H-M "P 21 21 2"
_symmetry_group_IT_number 18
_symmetry_cell_setting 'orthorhombic'
loop_
_space_group_symop_operation_xyz
x,y,z
-x,-y,z
1/2+x,1/2-y,-z
1/2-x,1/2+y,-z
loop_
_atom_site_type_symbol
_atom_site_label
_atom_site_fract_x
_atom_site_fract_y
_atom_site_fract_z
Si Si1 0.533666 0.229148 0.936575
Si Si2 0.000000 0.500000 0.992188
Si Si3 0.989055 0.366959 0.402981
Si Si4 0.507198 0.775303 0.361837
Si Si5 0.813458 0.091792 0.200731
O O1 0.487970 0.297163 0.826930
O O2 0.845492 0.227192 0.965440
O O3 0.431547 0.100445 0.925555
O O4 0.761861 0.533857 0.912110
O O5 0.216742 0.290889 0.345594
O O6 0.007135 0.348297 0.530253
O O7 0.000000 0.500000 0.376775
O O8 0.711628 0.322218 0.359338
O O9 0.443420 0.868447 0.268831
O O10 0.000000 0.000000 0.263751
#
# Coordination Sequence:
#
# PCOD8156095 Si02
#       5
#     4   2   4   4   4
#     4  10  21  39  61  92 129 168 209 264 341 382
#     4  10  22  40  66  92 134 166 220 272 342 380
#     4  10  22  44  65  90 140 173 212 277 345 399
#     4  10  24  38  67 102 125 174 229 270 332 408
#     4  11  23  39  66 101 132 170 229 282 320 409
#
# _framework density 24.210858999999999
#
# number of rings (size 3 to 8) (size 9 to 14) (size 15 to 20)
#    0.000    1.778    2.222    0.667    4.667    3.556 
#    2.000    0.000   19.556    0.000    0.000    0.000 
#    0.000    0.000    0.000    0.000    0.000    0.000 
#
# Total GULP energy -223012.593763 kJ/mol
# GULP energy per Si atom -12389.588542 kJ/mol
# Density = 2.415575 g / cm^3
# Si number density = 24.210859 Si / 1000 Ang^3
#
#
#
# Elastic Constant Matrix: (Units=GPa)
#
#
# Indices 1 2 3 4 5 6 
#
# 1 84.4971 16.1990 10.8345 0.0000 0.0000 0.0000
# 2 16.1990 158.5312 34.6655 0.0000 0.0000 0.0000
# 3 10.8345 34.6655 39.4620 0.0000 0.0000 0.0000
# 4 0.0000 0.0000 0.0000 10.3310 0.0000 0.0000
# 5 0.0000 0.0000 0.0000 0.0000 27.9053 0.0000
# 6 0.0000 0.0000 0.0000 0.0000 0.0000 40.1210
#
#
#
# Elastic Compliance Matrix: (Units=1/GPa)
#
#
# Indices 1 2 3 4 5 6 
#
# 1 0.012319 -0.000643 -0.002818 0.000000 0.000000 0.000000
# 2 -0.000643 0.007841 -0.006712 0.000000 0.000000 0.000000
# 3 -0.002818 -0.006712 0.032010 0.000000 0.000000 0.000000
# 4 0.000000 0.000000 0.000000 0.096796 0.000000 0.000000
# 5 0.000000 0.000000 0.000000 0.000000 0.035835 0.000000
# 6 0.000000 0.000000 0.000000 0.000000 0.000000 0.024925
#
#
# Mechanical properties :
#
#
# Convention : Reuss Voigt Hill
#
# Bulk Modulus (GPa) = 31.42026 45.09870 38.25948
# Shear Modulus (GPa) = 20.77451 30.39088 25.58270
#
# Velocity S-wave (km/s) = 2.93245 3.54681 3.25416
# Velocity P-wave (km/s) = 4.94688 5.95324 5.47324
#
# Compressibility (1/GPa) = 0.03182660
#
# Stress axis : x y z
#
# Youngs Moduli (GPa) = 81.17391 127.53148 31.23987
#
# Poissons Ratio (x) = 0.08196 0.08803
# Poissons Ratio (y) = 0.05217 0.20967
# Poissons Ratio (z) = 0.22873 0.85595
#
# Static dielectric constant tensor:
#      x y z
#    x 4.469880 0.000000 0.000000 
#    y 0.000000 4.842850 0.000000 
#    z 0.000000 0.000000 3.980690 
# 
# 
# High freq. dielectric constant tensor:
#      x y z
#    x 1.966950 0.000000 0.000000 
#    y 0.000000 1.980950 0.000000 
#    z 0.000000 0.000000 1.922960 
# 
# From -- ./inp_files/5007.got.cif
#   From: 2010.03.12/outbox.cif.g09.slc.cpg/sg18_3_cif.got.tgz:5007.got - 2010.04.10 18:53:55.
