data_PCOD8156159
_publ_section_title
;
Structure prediction by ZEFSAII (Michael W. Deem and Ramdas Pophale) SiO2 
 PCOD8156159
Probable space group: P 21 21 2
;
_chemical_formula_sum "Si O2"
_cell_formula_units_Z 30
_cell_length_a 10.781571
_cell_length_b 15.520663
_cell_length_c 8.271537
_cell_angle_alpha 90.000000
_cell_angle_beta 90.000000
_cell_angle_gamma 90.000000
_cell_volume 1384.135263
_symmetry_space_group_name_H-M "P 21 21 2"
_symmetry_group_IT_number 18
_symmetry_cell_setting 'orthorhombic'
loop_
_space_group_symop_operation_xyz
x,y,z
-x,-y,z
1/2+x,1/2-y,-z
1/2-x,1/2+y,-z
loop_
_atom_site_type_symbol
_atom_site_label
_atom_site_fract_x
_atom_site_fract_y
_atom_site_fract_z
Si Si1 0.463311 0.160673 0.115475
Si Si2 0.725025 0.780219 0.651935
Si Si3 0.819834 0.854269 0.169072
Si Si4 0.622777 0.118318 0.433998
Si Si5 0.500000 0.500000 0.332285
Si Si6 0.951714 0.842551 0.861111
Si Si7 0.228565 0.051102 0.464146
Si Si8 0.963436 0.686954 0.231930
O O1 0.322888 0.129549 0.120897
O O2 0.534555 0.127476 0.276051
O O3 0.455115 0.264000 0.115702
O O4 0.526839 0.134213 0.940754
O O5 0.768060 0.690329 0.570459
O O6 0.827091 0.807666 0.780054
O O7 0.708538 0.859828 0.526660
O O8 0.594195 0.763490 0.739686
O O9 0.850441 0.921642 0.308925
O O10 0.852125 0.756020 0.219597
O O11 0.909990 0.884805 0.027948
O O12 0.557280 0.127055 0.610152
O O13 0.668974 0.020311 0.425035
O O14 0.527035 0.585889 0.233228
O O15 0.628972 0.491177 0.420754
#
# Coordination Sequence:
#
# PCOD8156159 Si02
#       8
#     4   4   4   4   2   4   4   4
#     4  10  23  44  70  98 134 171 233 274 341 410
#     4  10  21  44  65  95 136 171 225 272 331 403
#     4  11  22  42  66  99 133 175 224 286 336 397
#     4  11  25  42  70 100 135 181 222 280 338 403
#     4  10  24  42  62  92 138 172 224 282 330 404
#     4   9  21  42  65  93 129 178 214 283 332 393
#     4  11  25  42  67 102 136 177 230 276 344 399
#     4  11  23  42  72  96 133 188 218 275 346 403
#
# _framework density 21.674181999999998
#
# number of rings (size 3 to 8) (size 9 to 14) (size 15 to 20)
#    0.000    1.600    2.667    0.800    3.733    2.667 
#    7.200    1.333    0.000    0.000    0.000    0.000 
#    0.000    0.000    0.000    0.000    0.000    0.000 
#
# Total GULP energy -371755.694435 kJ/mol
# GULP energy per Si atom -12391.856481 kJ/mol
# Density = 2.162485 g / cm^3
# Si number density = 21.674182 Si / 1000 Ang^3
#
#
#
# Elastic Constant Matrix: (Units=GPa)
#
#
# Indices 1 2 3 4 5 6 
#
# 1 58.4936 22.1443 21.3508 0.0000 0.0000 0.0000
# 2 22.1443 78.2692 36.2019 0.0000 0.0000 0.0000
# 3 21.3508 36.2019 151.2655 0.0000 0.0000 0.0000
# 4 0.0000 0.0000 0.0000 7.6412 0.0000 0.0000
# 5 0.0000 0.0000 0.0000 0.0000 -43.3847 0.0000
# 6 0.0000 0.0000 0.0000 0.0000 0.0000 28.9966
#
#
#
# Elastic Compliance Matrix: (Units=1/GPa)
#
#
# Indices 1 2 3 4 5 6 
#
# 1 0.019489 -0.004770 -0.001609 0.000000 0.000000 0.000000
# 2 -0.004770 0.015534 -0.003045 0.000000 0.000000 0.000000
# 3 -0.001609 -0.003045 0.007567 0.000000 0.000000 0.000000
# 4 0.000000 0.000000 0.000000 0.130870 0.000000 0.000000
# 5 0.000000 0.000000 0.000000 0.000000 -0.023050 0.000000
# 6 0.000000 0.000000 0.000000 0.000000 0.000000 0.034487
#
#
# Mechanical properties :
#
#
# Convention : Reuss Voigt Hill
#
# Bulk Modulus (GPa) = 42.11789 49.71360 45.91575
# Shear Modulus (GPa) = 23.62304 12.53936 18.08120
#
# Velocity S-wave (km/s) = 3.30497 2.40789 2.89143
# Velocity P-wave (km/s) = 5.83423 5.54231 5.69014
#
# Compressibility (1/GPa) = 0.02374288
#
# Stress axis : x y z
#
# Youngs Moduli (GPa) = 51.31118 64.37485 132.15831
#
# Poissons Ratio (x) = 0.30704 0.21269
# Poissons Ratio (y) = 0.24473 0.40236
# Poissons Ratio (z) = 0.08258 0.19599
#
# Static dielectric constant tensor:
#      x y z
#    x 3.723980 0.000000 0.000000 
#    y 0.000000 3.779800 0.000000 
#    z 0.000000 0.000000 4.335390 
# 
# 
# High freq. dielectric constant tensor:
#      x y z
#    x 1.847740 0.000000 0.000000 
#    y 0.000000 1.832440 0.000000 
#    z 0.000000 0.000000 1.872550 
# 
# From -- ./inp_files/3899.got.cif
#   From: 2010.03.12/outbox.cif.g09.slc.cpg/sg18_2_cif.got.tgz:3899.got - 2010.04.10 18:53:55.
