data_PCOD8156646
_publ_section_title
;
Structure prediction by ZEFSAII (Michael W. Deem and Ramdas Pophale) SiO2 
 PCOD8156646
Probable space group: P 21 21 21
;
_chemical_formula_sum "Si O2"
_cell_formula_units_Z 28
_cell_length_a 13.165563
_cell_length_b 9.299560
_cell_length_c 10.008604
_cell_angle_alpha 90.000000
_cell_angle_beta 90.000000
_cell_angle_gamma 90.000000
_cell_volume 1225.392852
_symmetry_space_group_name_H-M "P 21 21 21"
_symmetry_group_IT_number 19
_symmetry_cell_setting 'orthorhombic'
loop_
_space_group_symop_operation_xyz
x,y,z
1/2-x,-y,1/2+z
1/2+x,1/2-y,-z
-x,1/2+y,1/2-z
loop_
_atom_site_type_symbol
_atom_site_label
_atom_site_fract_x
_atom_site_fract_y
_atom_site_fract_z
Si Si1 0.083151 0.218393 0.916455
Si Si2 0.780017 0.248346 0.595979
Si Si3 0.846740 0.220328 0.899058
Si Si4 0.335137 0.524730 0.543097
Si Si5 0.076522 0.349846 0.305320
Si Si6 0.762536 0.442645 0.107196
Si Si7 0.914718 0.563854 0.320611
O O1 0.167078 0.143318 0.820700
O O2 0.966512 0.177641 0.895608
O O3 0.102665 0.388751 0.927000
O O4 0.133352 0.147588 0.053324
O O5 0.818561 0.262825 0.748449
O O6 0.668852 0.176661 0.594860
O O7 0.777848 0.409412 0.535825
O O8 0.844512 0.142066 0.501260
O O9 0.781289 0.082474 0.946879
O O10 0.830546 0.350606 0.003204
O O11 0.391482 0.547425 0.682112
O O12 0.031424 0.195246 0.260364
O O13 0.991675 0.444789 0.378479
O O14 0.831487 0.487383 0.231146
#
# Coordination Sequence:
#
# PCOD8156646 Si02
#       7
#     4   4   4   4   4   4   4
#     4  10  21  37  58  84 117 159 198 239 295 356
#     4  10  21  37  57  87 122 152 192 247 296 349
#     4  10  21  40  61  84 119 158 199 243 297 361
#     4   9  19  37  57  83 115 151 196 243 291 352
#     4   9  19  34  57  85 112 148 194 239 288 351
#     4  10  20  36  58  84 117 152 193 243 293 348
#     4  10  19  35  58  85 114 150 196 244 290 347
#
# _framework density 22.849813999999999
#
# number of rings (size 3 to 8) (size 9 to 14) (size 15 to 20)
#    0.000    2.286    0.000    5.143    0.000    3.429 
#    0.000   12.857    0.000    0.000    0.000    0.000 
#    0.000    0.000    0.000    0.000    0.000    0.000 
#
# Total GULP energy -346883.815461 kJ/mol
# GULP energy per Si atom -12388.707695 kJ/mol
# Density = 2.279781 g / cm^3
# Si number density = 22.849814 Si / 1000 Ang^3
#
#
#
# Elastic Constant Matrix: (Units=GPa)
#
#
# Indices 1 2 3 4 5 6 
#
# 1 103.0892 20.3572 -5.1798 0.0000 0.0000 0.0000
# 2 20.3572 94.0574 8.0885 0.0000 0.0000 0.0000
# 3 -5.1798 8.0885 26.4454 0.0000 0.0000 0.0000
# 4 0.0000 0.0000 0.0000 34.9513 0.0000 0.0000
# 5 0.0000 0.0000 0.0000 0.0000 8.0929 0.0000
# 6 0.0000 0.0000 0.0000 0.0000 0.0000 37.3879
#
#
#
# Elastic Compliance Matrix: (Units=1/GPa)
#
#
# Indices 1 2 3 4 5 6 
#
# 1 0.010329 -0.002475 0.002780 0.000000 0.000000 0.000000
# 2 -0.002475 0.011512 -0.004006 0.000000 0.000000 0.000000
# 3 0.002780 -0.004006 0.039583 0.000000 0.000000 0.000000
# 4 0.000000 0.000000 0.000000 0.028611 0.000000 0.000000
# 5 0.000000 0.000000 0.000000 0.000000 0.123565 0.000000
# 6 0.000000 0.000000 0.000000 0.000000 0.000000 0.026747
#
#
# Mechanical properties :
#
#
# Convention : Reuss Voigt Hill
#
# Bulk Modulus (GPa) = 18.51049 30.01373 24.26211
# Shear Modulus (GPa) = 18.81433 29.44150 24.12792
#
# Velocity S-wave (km/s) = 2.87259 3.59343 3.25304
# Velocity P-wave (km/s) = 4.37275 5.51187 4.97502
#
# Compressibility (1/GPa) = 0.05402341
#
# Stress axis : x y z
#
# Youngs Moduli (GPa) = 96.81791 86.86704 25.26309
#
# Poissons Ratio (x) = 0.21495 -0.07023
# Poissons Ratio (y) = 0.23958 0.10119
# Poissons Ratio (z) = -0.26914 0.34796
#
# Static dielectric constant tensor:
#      x y z
#    x 4.105150 0.000000 0.000000 
#    y 0.000000 4.395220 0.000000 
#    z 0.000000 0.000000 3.729340 
# 
# 
# High freq. dielectric constant tensor:
#      x y z
#    x 1.903380 0.000000 0.000000 
#    y 0.000000 1.916020 0.000000 
#    z 0.000000 0.000000 1.864750 
# 
# From -- ./inp_files/4652.got.cif
#   From: 2010.03.12/outbox.cif.g09.slc.cpg/sg19_3_cif.got.tgz:4652.got - 2010.04.10 18:59:41.
