data_PCOD8156494
_publ_section_title
;
Structure prediction by ZEFSAII (Michael W. Deem and Ramdas Pophale) SiO2 
 PCOD8156494
Probable space group: P 21 21 2
;
_chemical_formula_sum "Si O2"
_cell_formula_units_Z 18
_cell_length_a 5.047472
_cell_length_b 17.199955
_cell_length_c 8.765373
_cell_angle_alpha 90.000000
_cell_angle_beta 90.000000
_cell_angle_gamma 90.000000
_cell_volume 760.977175
_symmetry_space_group_name_H-M "P 21 21 2"
_symmetry_group_IT_number 18
_symmetry_cell_setting 'orthorhombic'
loop_
_space_group_symop_operation_xyz
x,y,z
-x,-y,z
1/2+x,1/2-y,-z
1/2-x,1/2+y,-z
loop_
_atom_site_type_symbol
_atom_site_label
_atom_site_fract_x
_atom_site_fract_y
_atom_site_fract_z
Si Si1 0.538808 0.759052 0.595263
Si Si2 0.356885 0.081480 0.702259
Si Si3 0.000000 0.000000 0.472026
Si Si4 0.849081 0.419292 0.955773
Si Si5 0.840191 0.112656 0.225821
O O1 0.338896 0.735686 0.463406
O O2 0.461199 0.846105 0.650008
O O3 0.534786 0.695416 0.728080
O O4 0.126815 0.066562 0.579059
O O5 0.500000 0.000000 0.712061
O O6 0.271368 0.106773 0.872973
O O7 0.796223 0.051427 0.367106
O O8 0.566867 0.426510 0.876311
O O9 0.000000 0.500000 0.956204
O O10 0.064668 0.367118 0.862441
#
# Coordination Sequence:
#
# PCOD8156494 Si02
#       5
#     4   4   2   4   4
#     4  12  26  46  71 108 142 182 242 305 352 420
#     4  11  28  45  74 103 146 190 241 295 365 427
#     4  12  24  44  76 104 136 192 240 286 358 424
#     4  11  25  45  69 105 146 191 234 295 354 430
#     4  12  25  44  75 103 144 186 242 290 360 422
#
# _framework density 23.653796
#
# number of rings (size 3 to 8) (size 9 to 14) (size 15 to 20)
#    0.000    0.444    4.444    2.667    9.333    1.778 
#    0.000    0.000    0.000    0.000    0.000    0.000 
#    0.000    0.000    0.000    0.000    0.000    0.000 
#
# Total GULP energy -223007.946336 kJ/mol
# GULP energy per Si atom -12389.330352 kJ/mol
# Density = 2.359996 g / cm^3
# Si number density = 23.653796 Si / 1000 Ang^3
#
#
#
# Elastic Constant Matrix: (Units=GPa)
#
#
# Indices 1 2 3 4 5 6 
#
# 1 83.0583 0.4433 44.6917 0.0000 0.0000 0.0000
# 2 0.4433 119.9123 35.3733 0.0000 0.0000 0.0000
# 3 44.6917 35.3733 151.7636 0.0000 0.0000 0.0000
# 4 0.0000 0.0000 0.0000 31.1437 0.0000 0.0000
# 5 0.0000 0.0000 0.0000 0.0000 13.8296 0.0000
# 6 0.0000 0.0000 0.0000 0.0000 0.0000 27.4430
#
#
#
# Elastic Compliance Matrix: (Units=1/GPa)
#
#
# Indices 1 2 3 4 5 6 
#
# 1 0.014491 0.001294 -0.004569 0.000000 0.000000 0.000000
# 2 0.001294 0.009071 -0.002495 0.000000 0.000000 0.000000
# 3 -0.004569 -0.002495 0.008516 0.000000 0.000000 0.000000
# 4 0.000000 0.000000 0.000000 0.032109 0.000000 0.000000
# 5 0.000000 0.000000 0.000000 0.000000 0.072309 0.000000
# 6 0.000000 0.000000 0.000000 0.000000 0.000000 0.036439
#
#
# Mechanical properties :
#
#
# Convention : Reuss Voigt Hill
#
# Bulk Modulus (GPa) = 48.69009 57.30564 52.99787
# Shear Modulus (GPa) = 26.13397 32.76499 29.44948
#
# Velocity S-wave (km/s) = 3.32754 3.72585 3.53231
# Velocity P-wave (km/s) = 5.94916 6.54131 6.25225
#
# Compressibility (1/GPa) = 0.02053806
#
# Stress axis : x y z
#
# Youngs Moduli (GPa) = 69.00657 110.24434 117.42121
#
# Poissons Ratio (x) = -0.14269 0.53651
# Poissons Ratio (y) = -0.08931 0.29301
# Poissons Ratio (z) = 0.31530 0.27510
#
# Static dielectric constant tensor:
#      x y z
#    x 4.140350 0.000000 0.000000 
#    y 0.000000 4.423310 0.000000 
#    z 0.000000 0.000000 5.031040 
# 
# 
# High freq. dielectric constant tensor:
#      x y z
#    x 1.918780 0.000000 0.000000 
#    y 0.000000 1.943080 0.000000 
#    z 0.000000 0.000000 1.947490 
# 
# From -- ./inp_files/2439.got.cif
#   From: 2010.03.12/outbox.cif.g09.slc.cpg/sg18_2_cif.got.tgz:2439.got - 2010.04.10 18:53:55.
