data_PCOD8156285
_publ_section_title
;
Structure prediction by ZEFSAII (Michael W. Deem and Ramdas Pophale) SiO2 
 PCOD8156285
Probable space group: P 21 21 2
;
_chemical_formula_sum "Si O2"
_cell_formula_units_Z 26
_cell_length_a 8.942528
_cell_length_b 10.296427
_cell_length_c 12.358794
_cell_angle_alpha 90.000000
_cell_angle_beta 90.000000
_cell_angle_gamma 90.000000
_cell_volume 1137.949388
_symmetry_space_group_name_H-M "P 21 21 2"
_symmetry_group_IT_number 18
_symmetry_cell_setting 'orthorhombic'
loop_
_space_group_symop_operation_xyz
x,y,z
-x,-y,z
1/2+x,1/2-y,-z
1/2-x,1/2+y,-z
loop_
_atom_site_type_symbol
_atom_site_label
_atom_site_fract_x
_atom_site_fract_y
_atom_site_fract_z
Si Si1 0.797733 0.938693 0.366810
Si Si2 0.085125 0.264641 0.882959
Si Si3 0.757872 0.468914 0.395182
Si Si4 0.000000 0.000000 0.192776
Si Si5 0.000000 0.500000 0.732194
Si Si6 0.436574 0.235586 0.898746
Si Si7 0.500000 0.500000 0.224444
Si Si8 0.484631 0.819292 0.669297
O O1 0.825881 0.981629 0.489952
O O2 0.621027 0.927427 0.344761
O O3 0.902374 0.815024 0.348019
O O4 0.859569 0.034381 0.273092
O O5 0.072060 0.382788 0.799167
O O6 0.257706 0.235174 0.906268
O O7 0.999265 0.132489 0.845957
O O8 0.004391 0.319432 0.990472
O O9 0.644892 0.493351 0.298745
O O10 0.883089 0.576887 0.388905
O O11 0.846998 0.330236 0.383574
O O12 0.011265 0.122145 0.114034
O O13 0.493039 0.150082 0.797110
#
# Coordination Sequence:
#
# PCOD8156285 Si02
#       8
#     4   4   4   2   2   4   2   4
#     4  11  24  43  72 100 143 191 238 289 357 433
#     4  12  28  45  74 104 140 186 240 304 364 435
#     4  11  24  44  71 106 143 186 238 295 365 425
#     4  10  22  46  70 100 144 184 238 290 356 438
#     4  12  26  46  70 110 142 184 246 296 352 448
#     4  11  25  47  71 101 140 188 238 295 371 428
#     4  12  26  46  70 110 144 180 242 300 356 438
#     4  10  24  46  68 101 145 187 235 301 356 436
#
# _framework density 22.848117999999999
#
# number of rings (size 3 to 8) (size 9 to 14) (size 15 to 20)
#    0.000    0.923    3.077    2.769    6.462    8.615 
#    0.000    0.000    0.000    0.000    0.000    0.000 
#    0.000    0.000    0.000    0.000    0.000    0.000 
#
# Total GULP energy -322182.401081 kJ/mol
# GULP energy per Si atom -12391.630811 kJ/mol
# Density = 2.279612 g / cm^3
# Si number density = 22.848118 Si / 1000 Ang^3
#
#
#
# Elastic Constant Matrix: (Units=GPa)
#
#
# Indices 1 2 3 4 5 6 
#
# 1 132.2173 22.8457 37.9950 0.0000 0.0000 0.0000
# 2 22.8457 72.8299 16.2687 0.0000 0.0000 0.0000
# 3 37.9950 16.2687 113.7602 0.0000 0.0000 0.0000
# 4 0.0000 0.0000 0.0000 16.6880 0.0000 0.0000
# 5 0.0000 0.0000 0.0000 0.0000 45.9680 0.0000
# 6 0.0000 0.0000 0.0000 0.0000 0.0000 33.6216
#
#
#
# Elastic Compliance Matrix: (Units=1/GPa)
#
#
# Indices 1 2 3 4 5 6 
#
# 1 0.008679 -0.002143 -0.002592 0.000000 0.000000 0.000000
# 2 -0.002143 0.014713 -0.001388 0.000000 0.000000 0.000000
# 3 -0.002592 -0.001388 0.009855 0.000000 0.000000 0.000000
# 4 0.000000 0.000000 0.000000 0.059923 0.000000 0.000000
# 5 0.000000 0.000000 0.000000 0.000000 0.021754 0.000000
# 6 0.000000 0.000000 0.000000 0.000000 0.000000 0.029743
#
#
# Mechanical properties :
#
#
# Convention : Reuss Voigt Hill
#
# Bulk Modulus (GPa) = 47.62121 52.55846 50.08983
# Shear Modulus (GPa) = 30.50391 35.36872 32.93631
#
# Velocity S-wave (km/s) = 3.65783 3.93872 3.80087
# Velocity P-wave (km/s) = 6.22313 6.61348 6.42127
#
# Compressibility (1/GPa) = 0.02099905
#
# Stress axis : x y z
#
# Youngs Moduli (GPa) = 115.22696 67.96681 101.47467
#
# Poissons Ratio (x) = 0.14568 0.26303
# Poissons Ratio (y) = 0.24697 0.14087
# Poissons Ratio (z) = 0.29867 0.09435
#
# Static dielectric constant tensor:
#      x y z
#    x 4.471570 0.000000 0.000000 
#    y 0.000000 2.832310 0.000000 
#    z 0.000000 0.000000 4.206190 
# 
# 
# High freq. dielectric constant tensor:
#      x y z
#    x 1.918460 0.000000 0.000000 
#    y 0.000000 1.891810 0.000000 
#    z 0.000000 0.000000 1.911050 
# 
# From -- ./inp_files/5573.got.cif
#   From: 2010.03.12/outbox.cif.g09.slc.cpg/sg18_3_cif.got.tgz:5573.got - 2010.04.10 18:53:55.
