data_PCOD8156568
_publ_section_title
;
Structure prediction by ZEFSAII (Michael W. Deem and Ramdas Pophale) SiO2 
 PCOD8156568
Probable space group: P 21 21 21
;
_chemical_formula_sum "Si O2"
_cell_formula_units_Z 24
_cell_length_a 8.880989
_cell_length_b 15.606550
_cell_length_c 9.414945
_cell_angle_alpha 90.000000
_cell_angle_beta 90.000000
_cell_angle_gamma 90.000000
_cell_volume 1304.926430
_symmetry_space_group_name_H-M "P 21 21 21"
_symmetry_group_IT_number 19
_symmetry_cell_setting 'orthorhombic'
loop_
_space_group_symop_operation_xyz
x,y,z
1/2-x,-y,1/2+z
1/2+x,1/2-y,-z
-x,1/2+y,1/2-z
loop_
_atom_site_type_symbol
_atom_site_label
_atom_site_fract_x
_atom_site_fract_y
_atom_site_fract_z
Si Si1 0.104442 0.908301 0.823635
Si Si2 0.565403 0.405756 0.175238
Si Si3 0.603072 0.405580 0.849230
Si Si4 0.367287 0.093404 0.647078
Si Si5 0.555875 0.260467 0.643642
Si Si6 0.089637 0.727641 0.855087
O O1 0.223267 0.907086 0.696591
O O2 0.010781 0.819265 0.810742
O O3 0.006913 0.995446 0.810051
O O4 0.182217 0.907566 0.980960
O O5 0.720944 0.393028 0.257616
O O6 0.436982 0.344338 0.237217
O O7 0.590572 0.379908 0.012984
O O8 0.546243 0.503245 0.819416
O O9 0.515998 0.332221 0.761648
O O10 0.480522 0.170252 0.683507
O O11 0.486277 0.301253 0.501329
O O12 0.733335 0.244637 0.627323
#
# Coordination Sequence:
#
# PCOD8156568 Si02
#       6
#     4   4   4   4   4   4
#     4   8  17  33  52  70  97 134 169 196 241 311
#     4  10  18  31  54  77  99 127 165 211 254 292
#     4   9  18  32  52  77 102 130 167 208 252 305
#     4   9  18  35  55  74  98 135 172 205 248 306
#     4  10  20  35  53  73 101 136 174 205 245 305
#     4  10  19  34  52  73  99 136 171 203 244 301
#
# _framework density 18.391842
#
# number of rings (size 3 to 8) (size 9 to 14) (size 15 to 20)
#    0.000    2.667    0.000    3.000    0.000    4.000 
#    0.000    6.667    0.000    2.000    0.000    0.000 
#    0.000    0.000    0.000    0.000    0.000    0.000 
#
# Total GULP energy -297334.385668 kJ/mol
# GULP energy per Si atom -12388.932736 kJ/mol
# Density = 1.834998 g / cm^3
# Si number density = 18.391842 Si / 1000 Ang^3
#
#
#
# Elastic Constant Matrix: (Units=GPa)
#
#
# Indices 1 2 3 4 5 6 
#
# 1 39.8155 16.7760 8.5882 0.0000 0.0000 0.0000
# 2 16.7760 121.7977 32.9290 0.0000 0.0000 0.0000
# 3 8.5882 32.9290 72.2395 0.0000 0.0000 0.0000
# 4 0.0000 0.0000 0.0000 35.6810 0.0000 0.0000
# 5 0.0000 0.0000 0.0000 0.0000 22.8679 0.0000
# 6 0.0000 0.0000 0.0000 0.0000 0.0000 28.8598
#
#
#
# Elastic Compliance Matrix: (Units=1/GPa)
#
#
# Indices 1 2 3 4 5 6 
#
# 1 0.026849 -0.003234 -0.001718 0.000000 0.000000 0.000000
# 2 -0.003234 0.009754 -0.004062 0.000000 0.000000 0.000000
# 3 -0.001718 -0.004062 0.015899 0.000000 0.000000 0.000000
# 4 0.000000 0.000000 0.000000 0.028026 0.000000 0.000000
# 5 0.000000 0.000000 0.000000 0.000000 0.043729 0.000000
# 6 0.000000 0.000000 0.000000 0.000000 0.000000 0.034650
#
#
# Mechanical properties :
#
#
# Convention : Reuss Voigt Hill
#
# Bulk Modulus (GPa) = 29.00673 38.93769 33.97221
# Shear Modulus (GPa) = 26.53574 29.18570 27.86072
#
# Velocity S-wave (km/s) = 3.80254 3.98789 3.89632
# Velocity P-wave (km/s) = 5.92325 6.51318 6.22520
#
# Compressibility (1/GPa) = 0.03447476
#
# Stress axis : x y z
#
# Youngs Moduli (GPa) = 37.24550 102.52386 62.89897
#
# Poissons Ratio (x) = 0.33152 0.10806
# Poissons Ratio (y) = 0.12044 0.25547
# Poissons Ratio (z) = 0.06399 0.41642
#
# Static dielectric constant tensor:
#      x y z
#    x 2.864570 0.000000 0.000000 
#    y 0.000000 4.103040 0.000000 
#    z 0.000000 0.000000 3.445400 
# 
# 
# High freq. dielectric constant tensor:
#      x y z
#    x 1.658110 0.000000 0.000000 
#    y 0.000000 1.743840 0.000000 
#    z 0.000000 0.000000 1.716810 
# 
# From -- ./inp_files/2747.got.cif
#   From: 2010.03.12/outbox.cif.g09.slc.cpg/sg19_2_cif.got.tgz:2747.got - 2010.04.10 18:59:41.
