data_PCOD8156912
_publ_section_title
;
Structure prediction by ZEFSAII (Michael W. Deem and Ramdas Pophale) SiO2 
 PCOD8156912
Probable space group: P 21 21 21
;
_chemical_formula_sum "Si O2"
_cell_formula_units_Z 28
_cell_length_a 8.727058
_cell_length_b 28.360922
_cell_length_c 5.296458
_cell_angle_alpha 90.000000
_cell_angle_beta 90.000000
_cell_angle_gamma 90.000000
_cell_volume 1310.912608
_symmetry_space_group_name_H-M "P 21 21 21"
_symmetry_group_IT_number 19
_symmetry_cell_setting 'orthorhombic'
loop_
_space_group_symop_operation_xyz
x,y,z
1/2-x,-y,1/2+z
1/2+x,1/2-y,-z
-x,1/2+y,1/2-z
loop_
_atom_site_type_symbol
_atom_site_label
_atom_site_fract_x
_atom_site_fract_y
_atom_site_fract_z
Si Si1 0.933592 0.258197 0.227976
Si Si2 0.199731 0.672215 0.443848
Si Si3 0.216772 0.203666 0.404532
Si Si4 0.461336 0.359580 0.437007
Si Si5 0.958334 0.347150 0.932444
Si Si6 0.669032 0.554829 0.450939
Si Si7 0.136499 0.049541 0.551180
O O1 0.837708 0.228152 0.019267
O O2 0.830723 0.257087 0.479420
O O3 0.101843 0.236212 0.244588
O O4 0.941783 0.313964 0.176151
O O5 0.158566 0.646688 0.707143
O O6 0.369924 0.662980 0.338632
O O7 0.095105 0.655576 0.212224
O O8 0.320218 0.166641 0.251994
O O9 0.116890 0.171725 0.604227
O O10 0.493162 0.415360 0.458001
O O11 0.949989 0.402582 0.992780
O O12 0.579500 0.504824 0.466126
O O13 0.788651 0.557945 0.677157
O O14 0.749115 0.560320 0.179388
#
# Coordination Sequence:
#
# PCOD8156912 Si02
#       7
#     4   4   4   4   4   4   4
#     4  11  26  40  64  94 131 180 221 277 328 401
#     4  11  28  41  64  94 139 170 229 262 342 391
#     4  11  25  40  68  90 134 174 229 267 342 388
#     4  11  24  45  65  96 129 183 212 280 326 410
#     4  12  25  42  64  97 130 179 218 286 323 414
#     4  10  22  38  69 103 125 169 216 283 323 402
#     4  10  20  42  68  98 132 161 225 271 338 388
#
# _framework density 21.359165000000001
#
# number of rings (size 3 to 8) (size 9 to 14) (size 15 to 20)
#    0.000    1.143    1.429    3.429   18.000    0.000 
#    0.000    1.429    0.000    0.000    0.000    0.000 
#    0.000    0.000    0.000    0.000    0.000    0.000 
#
# Total GULP energy -346944.798155 kJ/mol
# GULP energy per Si atom -12390.885648 kJ/mol
# Density = 2.131055 g / cm^3
# Si number density = 21.359165 Si / 1000 Ang^3
#
#
#
# Elastic Constant Matrix: (Units=GPa)
#
#
# Indices 1 2 3 4 5 6 
#
# 1 111.7882 45.4532 23.3160 0.0000 0.0000 0.0000
# 2 45.4532 138.2121 24.4038 0.0000 0.0000 0.0000
# 3 23.3160 24.4038 82.8267 0.0000 0.0000 0.0000
# 4 0.0000 0.0000 0.0000 24.5545 0.0000 0.0000
# 5 0.0000 0.0000 0.0000 0.0000 25.2763 0.0000
# 6 0.0000 0.0000 0.0000 0.0000 0.0000 30.4102
#
#
#
# Elastic Compliance Matrix: (Units=1/GPa)
#
#
# Indices 1 2 3 4 5 6 
#
# 1 0.010654 -0.003137 -0.002075 0.000000 0.000000 0.000000
# 2 -0.003137 0.008556 -0.001638 0.000000 0.000000 0.000000
# 3 -0.002075 -0.001638 0.013140 0.000000 0.000000 0.000000
# 4 0.000000 0.000000 0.000000 0.040726 0.000000 0.000000
# 5 0.000000 0.000000 0.000000 0.000000 0.039563 0.000000
# 6 0.000000 0.000000 0.000000 0.000000 0.000000 0.032884
#
#
# Mechanical properties :
#
#
# Convention : Reuss Voigt Hill
#
# Bulk Modulus (GPa) = 53.61837 57.68589 55.65213
# Shear Modulus (GPa) = 30.22264 32.02512 31.12388
#
# Velocity S-wave (km/s) = 3.76569 3.87636 3.82143
# Velocity P-wave (km/s) = 6.63815 6.86302 6.75152
#
# Compressibility (1/GPa) = 0.01865033
#
# Stress axis : x y z
#
# Youngs Moduli (GPa) = 93.86256 116.87418 76.10348
#
# Poissons Ratio (x) = 0.36668 0.15789
# Poissons Ratio (y) = 0.29448 0.12464
# Poissons Ratio (z) = 0.19474 0.19142
#
# Static dielectric constant tensor:
#      x y z
#    x 3.812270 0.000000 0.000000 
#    y 0.000000 4.504680 0.000000 
#    z 0.000000 0.000000 3.723230 
# 
# 
# High freq. dielectric constant tensor:
#      x y z
#    x 1.823100 0.000000 0.000000 
#    y 0.000000 1.850470 0.000000 
#    z 0.000000 0.000000 1.838860 
# 
# From -- ./inp_files/653.got.cif
#   From: 2010.03.12/outbox.cif.g09.slc.cpg/sg19_1_cif.got.tgz:653.got - 2010.04.10 18:59:41.
