data_PCOD8156245
_publ_section_title
;
Structure prediction by ZEFSAII (Michael W. Deem and Ramdas Pophale) SiO2 
 PCOD8156245
Probable space group: P 21 21 2
;
_chemical_formula_sum "Si O2"
_cell_formula_units_Z 28
_cell_length_a 11.875124
_cell_length_b 4.975532
_cell_length_c 18.686829
_cell_angle_alpha 90.000000
_cell_angle_beta 90.000000
_cell_angle_gamma 90.000000
_cell_volume 1104.112403
_symmetry_space_group_name_H-M "P 21 21 2"
_symmetry_group_IT_number 18
_symmetry_cell_setting 'orthorhombic'
loop_
_space_group_symop_operation_xyz
x,y,z
-x,-y,z
1/2+x,1/2-y,-z
1/2-x,1/2+y,-z
loop_
_atom_site_type_symbol
_atom_site_label
_atom_site_fract_x
_atom_site_fract_y
_atom_site_fract_z
Si Si1 0.745830 0.430400 0.256787
Si Si2 0.500000 0.000000 0.427672
Si Si3 0.881103 0.915124 0.215122
Si Si4 0.384443 0.614790 0.532976
Si Si5 0.677308 0.763797 0.015373
Si Si6 0.571569 0.743191 0.159319
Si Si7 0.500000 0.500000 0.922559
Si Si8 0.809448 0.154607 0.602881
O O1 0.779736 0.133816 0.228700
O O2 0.643664 0.586697 0.218865
O O3 0.708947 0.411546 0.340734
O O4 0.852190 0.626782 0.247778
O O5 0.589078 0.143944 0.478869
O O6 0.424921 0.189948 0.375706
O O7 0.901762 0.877124 0.129212
O O8 0.000000 0.000000 0.251378
O O9 0.500000 0.500000 0.565702
O O10 0.307263 0.676009 0.602225
O O11 0.321396 0.406603 0.481308
O O12 0.648467 0.860549 0.095734
O O13 0.746593 0.487677 0.021780
O O14 0.560906 0.725066 0.971023
O O15 0.500000 0.500000 0.124778
O O16 0.500000 0.000000 0.190261
#
# Coordination Sequence:
#
# PCOD8156245 Si02
#       8
#     4   2   4   4   4   4   2   4
#     4  12  26  46  73 104 147 195 239 297 365 444
#     4  10  22  42  66  98 136 178 228 294 358 426
#     4  10  25  47  69 102 141 190 243 295 357 439
#     4  10  22  43  67 104 136 177 235 304 352 432
#     4  12  25  42  72 106 137 186 244 301 370 427
#     4  12  26  46  68 105 148 184 241 303 361 440
#     4  10  24  46  76  98 146 188 240 300 366 430
#     4  11  24  41  75  99 144 184 243 293 375 430
#
# _framework density 25.359739999999999
#
# number of rings (size 3 to 8) (size 9 to 14) (size 15 to 20)
#    0.429    0.571    2.143    3.857    3.000    3.429 
#    2.571    0.000    0.000    0.000    0.000    0.000 
#    0.000    0.000    0.000    0.000    0.000    0.000 
#
# Total GULP energy -346932.825255 kJ/mol
# GULP energy per Si atom -12390.458045 kJ/mol
# Density = 2.530202 g / cm^3
# Si number density = 25.359740 Si / 1000 Ang^3
#
#
#
# Elastic Constant Matrix: (Units=GPa)
#
#
# Indices 1 2 3 4 5 6 
#
# 1 116.5632 21.7639 29.3595 0.0000 0.0000 0.0000
# 2 21.7639 89.8222 -6.2150 0.0000 0.0000 0.0000
# 3 29.3595 -6.2150 74.1552 0.0000 0.0000 0.0000
# 4 0.0000 0.0000 0.0000 17.5827 0.0000 0.0000
# 5 0.0000 0.0000 0.0000 0.0000 53.5533 0.0000
# 6 0.0000 0.0000 0.0000 0.0000 0.0000 38.0468
#
#
#
# Elastic Compliance Matrix: (Units=1/GPa)
#
#
# Indices 1 2 3 4 5 6 
#
# 1 0.010166 -0.002758 -0.004256 0.000000 0.000000 0.000000
# 2 -0.002758 0.011946 0.002093 0.000000 0.000000 0.000000
# 3 -0.004256 0.002093 0.015346 0.000000 0.000000 0.000000
# 4 0.000000 0.000000 0.000000 0.056874 0.000000 0.000000
# 5 0.000000 0.000000 0.000000 0.000000 0.018673 0.000000
# 6 0.000000 0.000000 0.000000 0.000000 0.000000 0.026283
#
#
# Mechanical properties :
#
#
# Convention : Reuss Voigt Hill
#
# Bulk Modulus (GPa) = 36.21038 41.15082 38.68060
# Shear Modulus (GPa) = 31.57861 37.54538 34.56199
#
# Velocity S-wave (km/s) = 3.53260 3.85192 3.69571
# Velocity P-wave (km/s) = 5.56316 6.00375 5.78765
#
# Compressibility (1/GPa) = 0.02761639
#
# Stress axis : x y z
#
# Youngs Moduli (GPa) = 98.36788 83.70928 65.16490
#
# Poissons Ratio (x) = 0.23084 0.27734
# Poissons Ratio (y) = 0.27127 -0.13639
# Poissons Ratio (z) = 0.41865 -0.17521
#
# Static dielectric constant tensor:
#      x y z
#    x 4.195310 0.000000 0.000000 
#    y 0.000000 3.003570 0.000000 
#    z 0.000000 0.000000 4.114790 
# 
# 
# High freq. dielectric constant tensor:
#      x y z
#    x 2.036490 0.000000 0.000000 
#    y 0.000000 2.000470 0.000000 
#    z 0.000000 0.000000 1.989820 
# 
# From -- ./inp_files/7558.got.cif
#   From: 2010.03.12/outbox.cif.g09.slc.cpg/sg18_4_cif.got.tgz:7558.got - 2010.04.10 18:53:55.
