data_PCOD8156773
_publ_section_title
;
Structure prediction by ZEFSAII (Michael W. Deem and Ramdas Pophale) SiO2 
 PCOD8156773
Probable space group: P 21 21 21
;
_chemical_formula_sum "Si O2"
_cell_formula_units_Z 28
_cell_length_a 15.924161
_cell_length_b 5.500572
_cell_length_c 14.180427
_cell_angle_alpha 90.000000
_cell_angle_beta 90.000000
_cell_angle_gamma 90.000000
_cell_volume 1242.091878
_symmetry_space_group_name_H-M "P 21 21 21"
_symmetry_group_IT_number 19
_symmetry_cell_setting 'orthorhombic'
loop_
_space_group_symop_operation_xyz
x,y,z
1/2-x,-y,1/2+z
1/2+x,1/2-y,-z
-x,1/2+y,1/2-z
loop_
_atom_site_type_symbol
_atom_site_label
_atom_site_fract_x
_atom_site_fract_y
_atom_site_fract_z
Si Si1 0.191488 0.090738 0.050078
Si Si2 0.086427 0.249933 0.212055
Si Si3 0.774860 0.095824 0.525630
Si Si4 0.415415 0.092209 0.870445
Si Si5 0.783515 0.080901 0.212746
Si Si6 0.357948 0.610606 0.137756
Si Si7 0.887635 0.395368 0.915458
O O1 0.171800 0.345570 0.994427
O O2 0.172200 0.844763 0.990785
O O3 0.133950 0.062587 0.142988
O O4 0.287159 0.094853 0.083183
O O5 0.144219 0.490495 0.214475
O O6 0.991945 0.261300 0.175570
O O7 0.082528 0.170876 0.321740
O O8 0.691824 0.098179 0.461223
O O9 0.747068 0.112368 0.634599
O O10 0.323258 0.198044 0.846579
O O11 0.429251 0.091708 0.981684
O O12 0.703163 0.149841 0.274019
O O13 0.411706 0.356063 0.140167
O O14 0.416932 0.853821 0.136812
#
# Coordination Sequence:
#
# PCOD8156773 Si02
#       7
#     4   4   4   4   4   4   4
#     4  10  20  38  55  78 120 155 204 246 286 365
#     4  12  24  36  57  90 132 166 197 247 323 397
#     4  10  20  36  58  81 115 153 206 254 292 353
#     4  12  24  36  57  90 132 166 197 247 323 397
#     4  12  22  38  60  88 124 162 202 264 312 372
#     4  10  20  36  58  81 115 153 206 254 292 353
#     4  10  20  38  55  78 120 155 204 246 286 365
#
# _framework density 22.542617
#
# number of rings (size 3 to 8) (size 9 to 14) (size 15 to 20)
#    0.000    1.143    7.143    3.429    0.000    0.000 
#    0.000    0.000    0.000    0.000    0.000    4.000 
#    0.000    0.000    0.000    0.000    0.000    0.000 
#
# Total GULP energy -346883.522690 kJ/mol
# GULP energy per Si atom -12388.697239 kJ/mol
# Density = 2.249131 g / cm^3
# Si number density = 22.542617 Si / 1000 Ang^3
#
#
#
# Elastic Constant Matrix: (Units=GPa)
#
#
# Indices 1 2 3 4 5 6 
#
# 1 12.7685 5.3797 7.6791 0.0000 0.0000 0.0000
# 2 5.3797 173.3795 8.4639 0.0000 0.0000 0.0000
# 3 7.6791 8.4639 54.4838 0.0000 0.0000 0.0000
# 4 0.0000 0.0000 0.0000 33.6330 0.0000 0.0000
# 5 0.0000 0.0000 0.0000 0.0000 26.8435 0.0000
# 6 0.0000 0.0000 0.0000 0.0000 0.0000 15.3216
#
#
#
# Elastic Compliance Matrix: (Units=1/GPa)
#
#
# Indices 1 2 3 4 5 6 
#
# 1 0.086324 -0.002100 -0.011841 0.000000 0.000000 0.000000
# 2 -0.002100 0.005863 -0.000615 0.000000 0.000000 0.000000
# 3 -0.011841 -0.000615 0.020118 0.000000 0.000000 0.000000
# 4 0.000000 0.000000 0.000000 0.029733 0.000000 0.000000
# 5 0.000000 0.000000 0.000000 0.000000 0.037253 0.000000
# 6 0.000000 0.000000 0.000000 0.000000 0.000000 0.065267
#
#
# Mechanical properties :
#
#
# Convention : Reuss Voigt Hill
#
# Bulk Modulus (GPa) = 12.02012 31.51968 21.76990
# Shear Modulus (GPa) = 16.58920 29.76689 23.17805
#
# Velocity S-wave (km/s) = 2.71570 3.63777 3.21002
# Velocity P-wave (km/s) = 3.89578 5.62647 4.83912
#
# Compressibility (1/GPa) = 0.08319388
#
# Stress axis : x y z
#
# Youngs Moduli (GPa) = 11.58426 170.56469 49.70565
#
# Poissons Ratio (x) = 0.35826 0.58854
# Poissons Ratio (y) = 0.02433 0.03056
# Poissons Ratio (z) = 0.13716 0.10485
#
# Static dielectric constant tensor:
#      x y z
#    x 3.476370 0.000000 0.000000 
#    y 0.000000 5.527540 0.000000 
#    z 0.000000 0.000000 3.982690 
# 
# 
# High freq. dielectric constant tensor:
#      x y z
#    x 1.823300 0.000000 0.000000 
#    y 0.000000 1.908760 0.000000 
#    z 0.000000 0.000000 1.879020 
# 
# From -- ./inp_files/5685.got.cif
#   From: 2010.03.12/outbox.cif.g09.slc.cpg/sg19_3_cif.got.tgz:5685.got - 2010.04.10 18:59:41.
