data_PCOD8156588
_publ_section_title
;
Structure prediction by ZEFSAII (Michael W. Deem and Ramdas Pophale) SiO2 
 PCOD8156588
Probable space group: P 21 21 21
;
_chemical_formula_sum "Si O2"
_cell_formula_units_Z 32
_cell_length_a 9.734834
_cell_length_b 9.423036
_cell_length_c 18.701090
_cell_angle_alpha 90.000000
_cell_angle_beta 90.000000
_cell_angle_gamma 90.000000
_cell_volume 1715.482614
_symmetry_space_group_name_H-M "P 21 21 21"
_symmetry_group_IT_number 19
_symmetry_cell_setting 'orthorhombic'
loop_
_space_group_symop_operation_xyz
x,y,z
1/2-x,-y,1/2+z
1/2+x,1/2-y,-z
-x,1/2+y,1/2-z
loop_
_atom_site_type_symbol
_atom_site_label
_atom_site_fract_x
_atom_site_fract_y
_atom_site_fract_z
Si Si1 0.680012 0.215666 0.375395
Si Si2 0.631732 0.673889 0.085548
Si Si3 0.469485 0.930951 0.512059
Si Si4 0.839917 0.435652 0.731761
Si Si5 0.245416 0.027211 0.121830
Si Si6 0.908345 0.758773 0.725704
Si Si7 0.243310 0.558428 0.991022
Si Si8 0.037118 0.349977 0.923804
O O1 0.518267 0.232911 0.393287
O O2 0.759650 0.359522 0.394327
O O3 0.692673 0.185008 0.289597
O O4 0.745816 0.090157 0.423411
O O5 0.715322 0.613416 0.154455
O O6 0.724192 0.796262 0.051975
O O7 0.618958 0.545642 0.030713
O O8 0.379006 0.893706 0.581884
O O9 0.495276 0.794570 0.464184
O O10 0.616025 0.990114 0.537098
O O11 0.723151 0.446421 0.792918
O O12 0.915330 0.587863 0.724746
O O13 0.940266 0.312514 0.758052
O O14 0.392538 0.082947 0.096527
O O15 0.869089 0.819680 0.647075
O O16 0.117595 0.453235 0.977400
#
# Coordination Sequence:
#
# PCOD8156588 Si02
#       8
#     4   4   4   4   4   4   4   4
#     4   9  18  34  56  85 107 141 191 235 272 331
#     4  10  18  35  56  81 111 146 191 228 276 339
#     4  11  22  36  54  83 121 145 183 233 286 344
#     4   9  18  32  56  83 110 146 189 238 286 322
#     4  10  19  35  59  80 111 146 187 236 279 329
#     4   9  18  32  55  85 112 140 187 245 282 325
#     4  11  22  35  59  84 114 154 187 228 291 347
#     4  11  21  37  57  87 114 148 187 239 290 337
#
# _framework density 18.653644
#
# number of rings (size 3 to 8) (size 9 to 14) (size 15 to 20)
#    0.000    2.000    3.750    0.750    1.750    0.000 
#    0.000    0.000    5.500    0.000    0.000    0.000 
#    0.000    0.000    0.000    0.000    0.000    0.000 
#
# Total GULP energy -396597.108961 kJ/mol
# GULP energy per Si atom -12393.659655 kJ/mol
# Density = 1.861119 g / cm^3
# Si number density = 18.653644 Si / 1000 Ang^3
#
#
#
# Elastic Constant Matrix: (Units=GPa)
#
#
# Indices 1 2 3 4 5 6 
#
# 1 42.5632 16.7765 11.7983 0.0000 0.0000 0.0000
# 2 16.7765 81.2958 24.6346 0.0000 0.0000 0.0000
# 3 11.7983 24.6346 50.9203 0.0000 0.0000 0.0000
# 4 0.0000 0.0000 0.0000 28.5306 0.0000 0.0000
# 5 0.0000 0.0000 0.0000 0.0000 21.1919 0.0000
# 6 0.0000 0.0000 0.0000 0.0000 0.0000 20.6126
#
#
#
# Elastic Compliance Matrix: (Units=1/GPa)
#
#
# Indices 1 2 3 4 5 6 
#
# 1 0.026272 -0.004191 -0.004059 0.000000 0.000000 0.000000
# 2 -0.004191 0.015083 -0.006326 0.000000 0.000000 0.000000
# 3 -0.004059 -0.006326 0.023639 0.000000 0.000000 0.000000
# 4 0.000000 0.000000 0.000000 0.035050 0.000000 0.000000
# 5 0.000000 0.000000 0.000000 0.000000 0.047188 0.000000
# 6 0.000000 0.000000 0.000000 0.000000 0.000000 0.048514
#
#
# Mechanical properties :
#
#
# Convention : Reuss Voigt Hill
#
# Bulk Modulus (GPa) = 27.90118 31.24422 29.57270
# Shear Modulus (GPa) = 21.11083 22.17169 21.64126
#
# Velocity S-wave (km/s) = 3.36776 3.45135 3.40981
# Velocity P-wave (km/s) = 5.48748 5.71563 5.60271
#
# Compressibility (1/GPa) = 0.03584077
#
# Stress axis : x y z
#
# Youngs Moduli (GPa) = 38.06366 66.30195 42.30237
#
# Poissons Ratio (x) = 0.27790 0.17172
# Poissons Ratio (y) = 0.15954 0.26759
# Poissons Ratio (z) = 0.15452 0.41940
#
# Static dielectric constant tensor:
#      x y z
#    x 2.966040 0.000000 0.000000 
#    y 0.000000 3.518710 0.000000 
#    z 0.000000 0.000000 3.928320 
# 
# 
# High freq. dielectric constant tensor:
#      x y z
#    x 1.671700 0.000000 0.000000 
#    y 0.000000 1.732710 0.000000 
#    z 0.000000 0.000000 1.740630 
# 
# From -- ./inp_files/3107.got.cif
#   From: 2010.03.12/outbox.cif.g09.slc.cpg/sg19_2_cif.got.tgz:3107.got - 2010.04.10 18:59:41.
