data_PCOD8156985
_publ_section_title
;
Structure prediction by ZEFSAII (Michael W. Deem and Ramdas Pophale) SiO2 
 PCOD8156985
Probable space group: P 21 21 21
;
_chemical_formula_sum "Si O2"
_cell_formula_units_Z 24
_cell_length_a 8.781886
_cell_length_b 9.046050
_cell_length_c 13.466267
_cell_angle_alpha 90.000000
_cell_angle_beta 90.000000
_cell_angle_gamma 90.000000
_cell_volume 1069.778832
_symmetry_space_group_name_H-M "P 21 21 21"
_symmetry_group_IT_number 19
_symmetry_cell_setting 'orthorhombic'
loop_
_space_group_symop_operation_xyz
x,y,z
1/2-x,-y,1/2+z
1/2+x,1/2-y,-z
-x,1/2+y,1/2-z
loop_
_atom_site_type_symbol
_atom_site_label
_atom_site_fract_x
_atom_site_fract_y
_atom_site_fract_z
Si Si1 0.485863 0.523425 0.091623
Si Si2 0.455456 0.747908 0.697475
Si Si3 0.649743 0.714195 0.397776
Si Si4 0.371499 0.595373 0.301736
Si Si5 0.227886 0.878133 0.392511
Si Si6 0.410878 0.560193 0.872341
O O1 0.455784 0.350516 0.070621
O O2 0.385549 0.583847 0.182130
O O3 0.668454 0.527020 0.120176
O O4 0.443799 0.601062 0.987420
O O5 0.276597 0.728712 0.678007
O O6 0.549053 0.619024 0.636694
O O7 0.472349 0.704141 0.813612
O O8 0.505459 0.913429 0.669909
O O9 0.540318 0.588627 0.350223
O O10 0.742070 0.655377 0.491382
O O11 0.293321 0.752142 0.319894
O O12 0.269936 0.465912 0.351853
#
# Coordination Sequence:
#
# PCOD8156985 Si02
#       6
#     4   4   4   4   4   4
#     4  11  21  38  62  91 128 165 216 270 330 381
#     4  11  22  39  65  95 125 170 220 266 324 387
#     4  11  19  38  64  89 120 171 217 257 321 393
#     4  10  22  36  62  94 124 162 221 275 314 383
#     4  10  21  38  64  92 119 169 225 260 319 400
#     4  11  23  41  65  95 130 175 215 272 326 394
#
# _framework density 22.434545
#
# number of rings (size 3 to 8) (size 9 to 14) (size 15 to 20)
#    0.000    1.333    6.667    1.000    2.333    0.000 
#    0.000    3.333   14.667    0.000    0.000    0.000 
#    0.000    0.000    0.000    0.000    0.000    0.000 
#
# Total GULP energy -297330.679202 kJ/mol
# GULP energy per Si atom -12388.778300 kJ/mol
# Density = 2.238348 g / cm^3
# Si number density = 22.434545 Si / 1000 Ang^3
#
#
#
# Elastic Constant Matrix: (Units=GPa)
#
#
# Indices 1 2 3 4 5 6 
#
# 1 119.9623 15.0925 28.7042 0.0000 0.0000 0.0000
# 2 15.0925 22.1489 35.4785 0.0000 0.0000 0.0000
# 3 28.7042 35.4785 148.4958 0.0000 0.0000 0.0000
# 4 0.0000 0.0000 0.0000 33.3028 0.0000 0.0000
# 5 0.0000 0.0000 0.0000 0.0000 33.1396 0.0000
# 6 0.0000 0.0000 0.0000 0.0000 0.0000 17.5492
#
#
#
# Elastic Compliance Matrix: (Units=1/GPa)
#
#
# Indices 1 2 3 4 5 6 
#
# 1 0.009136 -0.005503 -0.000451 0.000000 0.000000 0.000000
# 2 -0.005503 0.076454 -0.017203 0.000000 0.000000 0.000000
# 3 -0.000451 -0.017203 0.010932 0.000000 0.000000 0.000000
# 4 0.000000 0.000000 0.000000 0.030027 0.000000 0.000000
# 5 0.000000 0.000000 0.000000 0.000000 0.030175 0.000000
# 6 0.000000 0.000000 0.000000 0.000000 0.000000 0.056983
#
#
# Mechanical properties :
#
#
# Convention : Reuss Voigt Hill
#
# Bulk Modulus (GPa) = 19.91687 49.90639 34.91163
# Shear Modulus (GPa) = 18.06637 30.88709 24.47673
#
# Velocity S-wave (km/s) = 2.84085 3.71450 3.30666
# Velocity P-wave (km/s) = 4.43369 6.37890 5.49308
#
# Compressibility (1/GPa) = 0.05020869
#
# Stress axis : x y z
#
# Youngs Moduli (GPa) = 109.45430 13.07971 91.47852
#
# Poissons Ratio (x) = 0.07197 0.04129
# Poissons Ratio (y) = 0.60228 1.57368
# Poissons Ratio (z) = 0.04940 0.22501
#
# Static dielectric constant tensor:
#      x y z
#    x 4.658440 0.000000 0.000000 
#    y 0.000000 3.458950 0.000000 
#    z 0.000000 0.000000 4.012800 
# 
# 
# High freq. dielectric constant tensor:
#      x y z
#    x 1.905750 0.000000 0.000000 
#    y 0.000000 1.823950 0.000000 
#    z 0.000000 0.000000 1.890850 
# 
# From -- ./inp_files/2807.got.cif
#   From: 2010.03.12/outbox.cif.g09.slc.cpg/sg19_2_cif.got.tgz:2807.got - 2010.04.10 18:59:41.
