data_PCOD8156037
_publ_section_title
;
Structure prediction by ZEFSAII (Michael W. Deem and Ramdas Pophale) SiO2 
 PCOD8156037
Probable space group: P 21 21 2
;
_chemical_formula_sum "Si O2"
_cell_formula_units_Z 14
_cell_length_a 5.163612
_cell_length_b 14.743304
_cell_length_c 8.596895
_cell_angle_alpha 90.000000
_cell_angle_beta 90.000000
_cell_angle_gamma 90.000000
_cell_volume 654.470453
_symmetry_space_group_name_H-M "P 21 21 2"
_symmetry_group_IT_number 18
_symmetry_cell_setting 'orthorhombic'
loop_
_space_group_symop_operation_xyz
x,y,z
-x,-y,z
1/2+x,1/2-y,-z
1/2-x,1/2+y,-z
loop_
_atom_site_type_symbol
_atom_site_label
_atom_site_fract_x
_atom_site_fract_y
_atom_site_fract_z
Si Si1 0.951437 0.199509 0.067735
Si Si2 0.878858 0.260415 0.407326
Si Si3 0.500000 0.500000 0.062116
Si Si4 0.749326 0.459467 0.359061
O O1 0.922706 0.201797 0.253619
O O2 0.207747 0.254245 0.017427
O O3 0.970025 0.091802 0.036840
O O4 0.158752 0.284576 0.482775
O O5 0.736054 0.352465 0.361180
O O6 0.747467 0.491447 0.177800
O O7 0.500000 0.500000 0.449812
O O8 0.000000 0.500000 0.443507
#
# Coordination Sequence:
#
# PCOD8156037 Si02
#       4
#     4   4   2   4
#     4  12  24  45  74 102 131 181 236 283 327 408
#     4  12  25  44  66 101 142 178 214 281 353 405
#     4  10  24  40  76  98 130 174 242 280 334 382
#     4  10  20  41  67  94 126 178 226 269 337 397
#
# _framework density 21.391338000000001
#
# number of rings (size 3 to 8) (size 9 to 14) (size 15 to 20)
#    0.857    0.000    2.857    5.143    0.000    0.000 
#    7.714    0.000    0.000    0.000    0.000    0.000 
#    0.000    0.000    0.000    0.000    0.000    0.000 
#
# Total GULP energy -173441.396410 kJ/mol
# GULP energy per Si atom -12388.671172 kJ/mol
# Density = 2.134265 g / cm^3
# Si number density = 21.391338 Si / 1000 Ang^3
#
#
#
# Elastic Constant Matrix: (Units=GPa)
#
#
# Indices 1 2 3 4 5 6 
#
# 1 170.0219 44.3137 37.6786 0.0000 0.0000 0.0000
# 2 44.3137 152.0072 18.3056 0.0000 0.0000 0.0000
# 3 37.6786 18.3056 91.3623 0.0000 0.0000 0.0000
# 4 0.0000 0.0000 0.0000 18.6506 0.0000 0.0000
# 5 0.0000 0.0000 0.0000 0.0000 24.7410 0.0000
# 6 0.0000 0.0000 0.0000 0.0000 0.0000 32.0755
#
#
#
# Elastic Compliance Matrix: (Units=1/GPa)
#
#
# Indices 1 2 3 4 5 6 
#
# 1 0.006879 -0.001705 -0.002495 0.000000 0.000000 0.000000
# 2 -0.001705 0.007164 -0.000732 0.000000 0.000000 0.000000
# 3 -0.002495 -0.000732 0.012121 0.000000 0.000000 0.000000
# 4 0.000000 0.000000 0.000000 0.053618 0.000000 0.000000
# 5 0.000000 0.000000 0.000000 0.000000 0.040419 0.000000
# 6 0.000000 0.000000 0.000000 0.000000 0.000000 0.031176
#
#
# Mechanical properties :
#
#
# Convention : Reuss Voigt Hill
#
# Bulk Modulus (GPa) = 61.35315 68.22079 64.78697
# Shear Modulus (GPa) = 29.99854 35.96632 32.98243
#
# Velocity S-wave (km/s) = 3.74888 4.10488 3.93091
# Velocity P-wave (km/s) = 6.89075 7.37751 7.13828
#
# Compressibility (1/GPa) = 0.01629908
#
# Stress axis : x y z
#
# Youngs Moduli (GPa) = 145.37127 139.59019 82.49971
#
# Poissons Ratio (x) = 0.23798 0.20586
# Poissons Ratio (y) = 0.24784 0.06041
# Poissons Ratio (z) = 0.36275 0.10222
#
# Static dielectric constant tensor:
#      x y z
#    x 4.047710 0.000000 0.000000 
#    y 0.000000 3.807650 0.000000 
#    z 0.000000 0.000000 3.702960 
# 
# 
# High freq. dielectric constant tensor:
#      x y z
#    x 1.859610 0.000000 0.000000 
#    y 0.000000 1.849140 0.000000 
#    z 0.000000 0.000000 1.814520 
# 
# From -- ./inp_files/2381.got.cif
#   From: 2010.03.12/outbox.cif.g09.slc.cpg/sg18_2_cif.got.tgz:2381.got - 2010.04.10 18:53:55.
