data_PCOD8156905
_publ_section_title
;
Structure prediction by ZEFSAII (Michael W. Deem and Ramdas Pophale) SiO2 
 PCOD8156905
Probable space group: P 21 21 21
;
_chemical_formula_sum "Si O2"
_cell_formula_units_Z 24
_cell_length_a 11.128021
_cell_length_b 4.890333
_cell_length_c 21.925319
_cell_angle_alpha 90.000000
_cell_angle_beta 90.000000
_cell_angle_gamma 90.000000
_cell_volume 1193.169903
_symmetry_space_group_name_H-M "P 21 21 21"
_symmetry_group_IT_number 19
_symmetry_cell_setting 'orthorhombic'
loop_
_space_group_symop_operation_xyz
x,y,z
1/2-x,-y,1/2+z
1/2+x,1/2-y,-z
-x,1/2+y,1/2-z
loop_
_atom_site_type_symbol
_atom_site_label
_atom_site_fract_x
_atom_site_fract_y
_atom_site_fract_z
Si Si1 0.332350 0.325726 0.468235
Si Si2 0.048674 0.940714 0.587175
Si Si3 0.870952 0.993160 0.296931
Si Si4 0.206689 0.438088 0.591009
Si Si5 0.184949 0.204602 0.889387
Si Si6 0.642129 0.510452 0.715733
O O1 0.471135 0.436901 0.469953
O O2 0.283583 0.309620 0.536441
O O3 0.255148 0.533583 0.424276
O O4 0.329289 0.025445 0.440646
O O5 0.134642 0.697692 0.565015
O O6 0.948571 0.807443 0.633507
O O7 0.121734 0.194222 0.616924
O O8 0.791145 0.942306 0.356168
O O9 0.847666 0.299319 0.274803
O O10 0.010849 0.953893 0.314658
O O11 0.834483 0.793639 0.241002
O O12 0.258672 0.092031 0.833057
#
# Coordination Sequence:
#
# PCOD8156905 Si02
#       6
#     4   4   4   4   4   4
#     4  10  22  38  61  90 120 167 200 247 318 365
#     4  10  22  40  58  89 131 153 206 261 295 377
#     4  10  23  38  63  95 118 166 196 273 303 355
#     4  12  22  39  64  91 131 157 205 260 320 364
#     4  10  20  42  63  86 120 167 202 255 303 363
#     4  10  21  43  63  87 128 152 221 246 305 380
#
# _framework density 20.114484000000001
#
# number of rings (size 3 to 8) (size 9 to 14) (size 15 to 20)
#    1.000    0.667    1.667    3.000    0.000    2.667 
#    0.000    3.333    0.000    0.000    0.000    0.000 
#    0.000    0.000    0.000    0.000    0.000    0.000 
#
# Total GULP energy -297363.669010 kJ/mol
# GULP energy per Si atom -12390.152875 kJ/mol
# Density = 2.006870 g / cm^3
# Si number density = 20.114484 Si / 1000 Ang^3
#
#
#
# Elastic Constant Matrix: (Units=GPa)
#
#
# Indices 1 2 3 4 5 6 
#
# 1 108.2379 33.0868 52.2232 0.0000 0.0000 0.0000
# 2 33.0868 102.6597 11.5763 0.0000 0.0000 0.0000
# 3 52.2232 11.5763 72.9830 0.0000 0.0000 0.0000
# 4 0.0000 0.0000 0.0000 19.1348 0.0000 0.0000
# 5 0.0000 0.0000 0.0000 0.0000 20.7037 0.0000
# 6 0.0000 0.0000 0.0000 0.0000 0.0000 34.3601
#
#
#
# Elastic Compliance Matrix: (Units=1/GPa)
#
#
# Indices 1 2 3 4 5 6 
#
# 1 0.015440 -0.003798 -0.010446 0.000000 0.000000 0.000000
# 2 -0.003798 0.010853 0.000996 0.000000 0.000000 0.000000
# 3 -0.010446 0.000996 0.021018 0.000000 0.000000 0.000000
# 4 0.000000 0.000000 0.000000 0.052261 0.000000 0.000000
# 5 0.000000 0.000000 0.000000 0.000000 0.048300 0.000000
# 6 0.000000 0.000000 0.000000 0.000000 0.000000 0.029104
#
#
# Mechanical properties :
#
#
# Convention : Reuss Voigt Hill
#
# Bulk Modulus (GPa) = 48.04023 53.07260 50.55641
# Shear Modulus (GPa) = 23.76326 27.30601 25.53464
#
# Velocity S-wave (km/s) = 3.44088 3.68846 3.56682
# Velocity P-wave (km/s) = 6.30250 6.67699 6.49245
#
# Compressibility (1/GPa) = 0.02081589
#
# Stress axis : x y z
#
# Youngs Moduli (GPa) = 64.76764 92.14271 47.57810
#
# Poissons Ratio (x) = 0.34999 0.49698
# Poissons Ratio (y) = 0.24601 -0.04741
# Poissons Ratio (z) = 0.67653 -0.09182
#
# Static dielectric constant tensor:
#      x y z
#    x 3.721040 0.000000 0.000000 
#    y 0.000000 3.914420 0.000000 
#    z 0.000000 0.000000 3.077630 
# 
# 
# High freq. dielectric constant tensor:
#      x y z
#    x 1.782340 0.000000 0.000000 
#    y 0.000000 1.815620 0.000000 
#    z 0.000000 0.000000 1.739190 
# 
# From -- ./inp_files/7110.got.cif
#   From: 2010.03.12/outbox.cif.g09.slc.cpg/sg19_4_cif.got.tgz:7110.got - 2010.04.10 18:59:41.
