data_PCOD8156043
_publ_section_title
;
Structure prediction by ZEFSAII (Michael W. Deem and Ramdas Pophale) SiO2 
 PCOD8156043
Probable space group: P 21 21 2
;
_chemical_formula_sum "Si O2"
_cell_formula_units_Z 32
_cell_length_a 31.969971
_cell_length_b 8.646248
_cell_length_c 5.255587
_cell_angle_alpha 90.000000
_cell_angle_beta 90.000000
_cell_angle_gamma 90.000000
_cell_volume 1452.750924
_symmetry_space_group_name_H-M "P 21 21 2"
_symmetry_group_IT_number 18
_symmetry_cell_setting 'orthorhombic'
loop_
_space_group_symop_operation_xyz
x,y,z
-x,-y,z
1/2+x,1/2-y,-z
1/2-x,1/2+y,-z
loop_
_atom_site_type_symbol
_atom_site_label
_atom_site_fract_x
_atom_site_fract_y
_atom_site_fract_z
Si Si1 0.228100 0.003731 0.544748
Si Si2 0.193300 0.511801 0.157338
Si Si3 0.971837 0.650230 0.427597
Si Si4 0.810329 0.134356 0.045923
Si Si5 0.529850 0.353136 0.075883
Si Si6 0.185982 0.276660 0.770639
Si Si7 0.621610 0.421040 0.933866
Si Si8 0.879391 0.641400 0.398851
O O1 0.278533 0.990038 0.587167
O O2 0.216376 0.187098 0.573348
O O3 0.217069 0.949545 0.263321
O O4 0.204059 0.907477 0.761391
O O5 0.195715 0.683765 0.058741
O O6 0.144757 0.460718 0.188368
O O7 0.212682 0.394566 0.945723
O O8 0.978512 0.743963 0.166405
O O9 0.925478 0.577202 0.445872
O O10 0.000000 0.500000 0.435076
O O11 0.981003 0.760819 0.667410
O O12 0.860250 0.095286 0.102875
O O13 0.500000 0.500000 0.054553
O O14 0.578087 0.412788 0.089265
O O15 0.148527 0.374924 0.647162
O O16 0.162779 0.146545 0.932927
O O17 0.615701 0.323854 0.674252
#
# Coordination Sequence:
#
# PCOD8156043 Si02
#       8
#     4   4   4   4   4   4   4   4
#     4  11  25  42  64  88 132 175 217 267 333 388
#     4  11  26  37  64  97 130 163 228 277 322 374
#     4  11  24  45  69 100 134 176 219 271 331 402
#     4  11  25  42  62  96 127 170 221 280 320 380
#     4  11  23  42  70 102 135 169 220 269 333 399
#     4  10  20  42  63  88 122 182 210 260 320 402
#     4   9  20  41  65  89 128 175 214 255 328 401
#     4  10  21  41  67  88 129 175 217 256 332 402
#
# _framework density 22.027176000000001
#
# number of rings (size 3 to 8) (size 9 to 14) (size 15 to 20)
#    0.000    1.500    2.500    1.500    5.250    1.000 
#    2.250    0.000    0.000    0.000    0.000    0.000 
#    0.000    0.000    0.000    0.000    0.000    0.000 
#
# Total GULP energy -396584.215193 kJ/mol
# GULP energy per Si atom -12393.256725 kJ/mol
# Density = 2.197704 g / cm^3
# Si number density = 22.027176 Si / 1000 Ang^3
#
#
#
# Elastic Constant Matrix: (Units=GPa)
#
#
# Indices 1 2 3 4 5 6 
#
# 1 117.2367 43.8345 15.7730 0.0000 0.0000 0.0000
# 2 43.8345 102.0786 14.5205 0.0000 0.0000 0.0000
# 3 15.7730 14.5205 88.0880 0.0000 0.0000 0.0000
# 4 0.0000 0.0000 0.0000 17.3928 0.0000 0.0000
# 5 0.0000 0.0000 0.0000 0.0000 26.7315 0.0000
# 6 0.0000 0.0000 0.0000 0.0000 0.0000 27.4634
#
#
#
# Elastic Compliance Matrix: (Units=1/GPa)
#
#
# Indices 1 2 3 4 5 6 
#
# 1 0.010272 -0.004249 -0.001139 0.000000 0.000000 0.000000
# 2 -0.004249 0.011789 -0.001183 0.000000 0.000000 0.000000
# 3 -0.001139 -0.001183 0.011751 0.000000 0.000000 0.000000
# 4 0.000000 0.000000 0.000000 0.057495 0.000000 0.000000
# 5 0.000000 0.000000 0.000000 0.000000 0.037409 0.000000
# 6 0.000000 0.000000 0.000000 0.000000 0.000000 0.036412
#
#
# Mechanical properties :
#
#
# Convention : Reuss Voigt Hill
#
# Bulk Modulus (GPa) = 48.37593 50.62881 49.50237
# Shear Modulus (GPa) = 27.00384 29.86923 28.43653
#
# Velocity S-wave (km/s) = 3.50513 3.68641 3.59691
# Velocity P-wave (km/s) = 6.19604 6.41514 6.30654
#
# Compressibility (1/GPa) = 0.02067144
#
# Stress axis : x y z
#
# Youngs Moduli (GPa) = 97.35582 84.82401 85.09815
#
# Poissons Ratio (x) = 0.36040 0.09691
# Poissons Ratio (y) = 0.41365 0.10063
# Poissons Ratio (z) = 0.11087 0.10031
#
# Static dielectric constant tensor:
#      x y z
#    x 4.180900 0.000000 0.000000 
#    y 0.000000 4.040890 0.000000 
#    z 0.000000 0.000000 3.979580 
# 
# 
# High freq. dielectric constant tensor:
#      x y z
#    x 1.866970 0.000000 0.000000 
#    y 0.000000 1.859570 0.000000 
#    z 0.000000 0.000000 1.872880 
# 
# From -- ./inp_files/2299.got.cif
#   From: 2010.03.12/outbox.cif.g09.slc.cpg/sg18_2_cif.got.tgz:2299.got - 2010.04.10 18:53:55.
