data_PCOD8156522
_publ_section_title
;
Structure prediction by ZEFSAII (Michael W. Deem and Ramdas Pophale) SiO2 
 PCOD8156522
Probable space group: P 21 21 2
;
_chemical_formula_sum "Si O2"
_cell_formula_units_Z 22
_cell_length_a 11.103539
_cell_length_b 14.771128
_cell_length_c 5.156549
_cell_angle_alpha 90.000000
_cell_angle_beta 90.000000
_cell_angle_gamma 90.000000
_cell_volume 845.734862
_symmetry_space_group_name_H-M "P 21 21 2"
_symmetry_group_IT_number 18
_symmetry_cell_setting 'orthorhombic'
loop_
_space_group_symop_operation_xyz
x,y,z
-x,-y,z
1/2+x,1/2-y,-z
1/2-x,1/2+y,-z
loop_
_atom_site_type_symbol
_atom_site_label
_atom_site_fract_x
_atom_site_fract_y
_atom_site_fract_z
Si Si1 0.652192 0.893077 0.409277
Si Si2 0.473874 0.341082 0.216658
Si Si3 0.342372 0.760338 0.573077
Si Si4 0.708409 0.577492 0.579385
Si Si5 0.028904 0.670859 0.074930
Si Si6 0.500000 0.500000 0.927950
O O1 0.751737 0.817907 0.332899
O O2 0.604355 0.870513 0.692252
O O3 0.702852 0.993293 0.438523
O O4 0.548774 0.891161 0.184029
O O5 0.541462 0.286735 0.442246
O O6 0.356049 0.396114 0.309152
O O7 0.427312 0.272141 0.997315
O O8 0.561281 0.419544 0.099224
O O9 0.285128 0.830697 0.363453
O O10 0.390333 0.817313 0.824769
O O11 0.602292 0.552989 0.774723
#
# Coordination Sequence:
#
# PCOD8156522 Si02
#       6
#     4   4   4   4   4   2
#     4  12  28  51  81 119 164 214 275 338 409 492
#     4  12  25  51  80 119 169 210 277 344 398 501
#     4  12  26  52  82 117 169 216 269 340 418 481
#     4  12  28  52  81 121 161 224 268 341 417 478
#     4  12  27  52  76 119 165 207 276 338 405 500
#     4  12  26  48  82 124 162 202 292 334 398 496
#
# _framework density 26.012881
#
# number of rings (size 3 to 8) (size 9 to 14) (size 15 to 20)
#    0.000    0.000    3.636    6.000    7.636    2.182 
#    3.273    0.000    0.000    0.000    0.000    0.000 
#    0.000    0.000    0.000    0.000    0.000    0.000 
#
# Total GULP energy -272562.397508 kJ/mol
# GULP energy per Si atom -12389.199887 kJ/mol
# Density = 2.595367 g / cm^3
# Si number density = 26.012881 Si / 1000 Ang^3
#
#
#
# Elastic Constant Matrix: (Units=GPa)
#
#
# Indices 1 2 3 4 5 6 
#
# 1 63.5288 27.4011 26.3873 0.0000 0.0000 0.0000
# 2 27.4011 156.0208 40.6273 0.0000 0.0000 0.0000
# 3 26.3873 40.6273 118.6939 0.0000 0.0000 0.0000
# 4 0.0000 0.0000 0.0000 41.7222 0.0000 0.0000
# 5 0.0000 0.0000 0.0000 0.0000-1598.5653 0.0000
# 6 0.0000 0.0000 0.0000 0.0000 0.0000 56.8553
#
#
#
# Elastic Compliance Matrix: (Units=1/GPa)
#
#
# Indices 1 2 3 4 5 6 
#
# 1 0.018087 -0.002338 -0.003221 0.000000 0.000000 0.000000
# 2 -0.002338 0.007339 -0.001992 0.000000 0.000000 0.000000
# 3 -0.003221 -0.001992 0.009823 0.000000 0.000000 0.000000
# 4 0.000000 0.000000 0.000000 0.023968 0.000000 0.000000
# 5 0.000000 0.000000 0.000000 0.000000 -0.000626 0.000000
# 6 0.000000 0.000000 0.000000 0.000000 0.000000 0.017589
#
#
# Mechanical properties :
#
#
# Convention : Reuss Voigt Hill
#
# Bulk Modulus (GPa) = 49.63507 58.56388 54.09948
# Shear Modulus (GPa) = 51.02187 -283.74238 -116.36025
#
# Velocity S-wave (km/s) = 4.43358 -10.45535 -6.69544
# Velocity P-wave (km/s) = 6.73285 11.09911 6.23935
#
# Compressibility (1/GPa) = 0.02014705
#
# Stress axis : x y z
#
# Youngs Moduli (GPa) = 55.28819 136.26287 101.80217
#
# Poissons Ratio (x) = 0.31856 0.32788
# Poissons Ratio (y) = 0.12926 0.20281
# Poissons Ratio (z) = 0.17807 0.27147
#
# Static dielectric constant tensor:
#      x y z
#    x 4.721970 0.000000 0.000000 
#    y 0.000000 102.696020 0.000000 
#    z 0.000000 0.000000 4.801830 
# 
# 
# High freq. dielectric constant tensor:
#      x y z
#    x 2.030250 0.000000 0.000000 
#    y 0.000000 2.064390 0.000000 
#    z 0.000000 0.000000 2.042520 
# 
# From -- ./inp_files/1045.got.cif
#   From: 2010.03.12/outbox.cif.g09.slc.cpg/sg18_1_cif.got.tgz:1045.got - 2010.04.10 18:53:55.
