data_PCOD8156327
_publ_section_title
;
Structure prediction by ZEFSAII (Michael W. Deem and Ramdas Pophale) SiO2 
 PCOD8156327
Probable space group: P 21 21 2
;
_chemical_formula_sum "Si O2"
_cell_formula_units_Z 32
_cell_length_a 12.068779
_cell_length_b 8.336071
_cell_length_c 15.413020
_cell_angle_alpha 90.000000
_cell_angle_beta 90.000000
_cell_angle_gamma 90.000000
_cell_volume 1550.645352
_symmetry_space_group_name_H-M "P 21 21 2"
_symmetry_group_IT_number 18
_symmetry_cell_setting 'orthorhombic'
loop_
_space_group_symop_operation_xyz
x,y,z
-x,-y,z
1/2+x,1/2-y,-z
1/2-x,1/2+y,-z
loop_
_atom_site_type_symbol
_atom_site_label
_atom_site_fract_x
_atom_site_fract_y
_atom_site_fract_z
Si Si1 0.366540 0.685484 0.739229
Si Si2 0.784308 0.191115 0.588653
Si Si3 0.376251 0.305854 0.749176
Si Si4 0.276692 0.685663 0.401791
Si Si5 0.002540 0.316488 0.668394
Si Si6 0.494830 0.683174 0.150520
Si Si7 0.764767 0.682167 0.909932
Si Si8 0.775459 0.310812 0.901415
O O1 0.316919 0.758807 0.651149
O O2 0.355770 0.494092 0.734772
O O3 0.494185 0.738768 0.747953
O O4 0.298408 0.757834 0.821550
O O5 0.765268 0.245352 0.491450
O O6 0.894968 0.285689 0.611964
O O7 0.803923 0.001667 0.592513
O O8 0.314787 0.211302 0.672703
O O9 0.326094 0.247368 0.842177
O O10 0.387152 0.786948 0.385571
O O11 0.001377 0.190019 0.746286
O O12 0.000000 0.500000 0.702457
O O13 0.500000 0.500000 0.118633
O O14 0.384999 0.766565 0.118847
O O15 0.595839 0.783055 0.113063
O O16 0.748665 0.494850 0.907909
O O17 0.753006 0.730884 0.008474
#
# Coordination Sequence:
#
# PCOD8156327 Si02
#       8
#     4   4   4   4   4   4   4   4
#     4  10  23  44  67  93 132 176 218 269 328 388
#     4  12  26  44  68  98 132 174 220 269 328 393
#     4  10  23  44  67  93 132 176 218 269 328 388
#     4  12  26  44  68  98 132 174 220 269 328 393
#     4  12  24  44  70  97 130 169 220 278 334 390
#     4  12  24  42  68  97 130 171 222 274 332 396
#     4  11  24  42  67  98 133 174 220 272 330 390
#     4  11  24  42  67  98 133 174 220 272 330 390
#
# _framework density 20.636569000000001
#
# number of rings (size 3 to 8) (size 9 to 14) (size 15 to 20)
#    0.000    0.750    2.500    5.250    3.500    1.500 
#    0.000    0.000    0.000    0.000    0.000    0.000 
#    0.000    0.000    0.000    0.000    0.000    0.000 
#
# Total GULP energy -396890.037092 kJ/mol
# GULP energy per Si atom -12402.813659 kJ/mol
# Density = 2.058960 g / cm^3
# Si number density = 20.636569 Si / 1000 Ang^3
#
#
#
# Elastic Constant Matrix: (Units=GPa)
#
#
# Indices 1 2 3 4 5 6 
#
# 1 121.5843 7.8565 8.2742 0.0000 0.0000 0.0000
# 2 7.8565 70.0706 10.3302 0.0000 0.0000 0.0000
# 3 8.2742 10.3302 82.8554 0.0000 0.0000 0.0000
# 4 0.0000 0.0000 0.0000 37.3018 0.0000 0.0000
# 5 0.0000 0.0000 0.0000 0.0000 61.1775 0.0000
# 6 0.0000 0.0000 0.0000 0.0000 0.0000 52.0145
#
#
#
# Elastic Compliance Matrix: (Units=1/GPa)
#
#
# Indices 1 2 3 4 5 6 
#
# 1 0.008328 -0.000826 -0.000729 0.000000 0.000000 0.000000
# 2 -0.000826 0.014621 -0.001740 0.000000 0.000000 0.000000
# 3 -0.000729 -0.001740 0.012359 0.000000 0.000000 0.000000
# 4 0.000000 0.000000 0.000000 0.026808 0.000000 0.000000
# 5 0.000000 0.000000 0.000000 0.000000 0.016346 0.000000
# 6 0.000000 0.000000 0.000000 0.000000 0.000000 0.019225
#
#
# Mechanical properties :
#
#
# Convention : Reuss Voigt Hill
#
# Bulk Modulus (GPa) = 34.82293 36.38135 35.60214
# Shear Modulus (GPa) = 43.91760 46.63540 45.27650
#
# Velocity S-wave (km/s) = 4.61819 4.75894 4.68909
# Velocity P-wave (km/s) = 6.73408 6.91842 6.82687
#
# Compressibility (1/GPa) = 0.02871671
#
# Stress axis : x y z
#
# Youngs Moduli (GPa) = 120.08083 68.39691 80.91296
#
# Poissons Ratio (x) = 0.05652 0.05895
# Poissons Ratio (y) = 0.09922 0.14082
# Poissons Ratio (z) = 0.08749 0.11903
#
# Static dielectric constant tensor:
#      x y z
#    x 3.688250 0.000000 0.000000 
#    y 0.000000 3.627480 0.000000 
#    z 0.000000 0.000000 4.091220 
# 
# 
# High freq. dielectric constant tensor:
#      x y z
#    x 1.822880 0.000000 0.000000 
#    y 0.000000 1.810540 0.000000 
#    z 0.000000 0.000000 1.820150 
# 
# From -- ./inp_files/6913.got.cif
#   From: 2010.03.12/outbox.cif.g09.slc.cpg/sg18_4_cif.got.tgz:6913.got - 2010.04.10 18:53:55.
