data_PCOD8156093
_publ_section_title
;
Structure prediction by ZEFSAII (Michael W. Deem and Ramdas Pophale) SiO2 
 PCOD8156093
Probable space group: P 21 21 2
;
_chemical_formula_sum "Si O2"
_cell_formula_units_Z 30
_cell_length_a 12.530953
_cell_length_b 7.853548
_cell_length_c 14.532455
_cell_angle_alpha 90.000000
_cell_angle_beta 90.000000
_cell_angle_gamma 90.000000
_cell_volume 1430.174368
_symmetry_space_group_name_H-M "P 21 21 2"
_symmetry_group_IT_number 18
_symmetry_cell_setting 'orthorhombic'
loop_
_space_group_symop_operation_xyz
x,y,z
-x,-y,z
1/2+x,1/2-y,-z
1/2-x,1/2+y,-z
loop_
_atom_site_type_symbol
_atom_site_label
_atom_site_fract_x
_atom_site_fract_y
_atom_site_fract_z
Si Si1 0.500000 0.000000 0.163908
Si Si2 0.884962 0.973842 0.228732
Si Si3 0.264747 0.428021 0.118869
Si Si4 0.116704 0.425573 0.273200
Si Si5 0.227057 0.545114 0.918890
Si Si6 0.122097 0.981904 0.429349
Si Si7 0.934705 0.160064 0.742416
Si Si8 0.262743 0.307764 0.410041
O O1 0.396929 0.001153 0.096876
O O2 0.502115 0.172689 0.225682
O O3 0.876065 0.777408 0.258720
O O4 0.797660 0.051981 0.158215
O O5 0.875550 0.084348 0.323240
O O6 0.000000 0.000000 0.181824
O O7 0.173459 0.511386 0.184381
O O8 0.236554 0.234994 0.099278
O O9 0.379046 0.429773 0.169309
O O10 0.266808 0.522373 0.022301
O O11 0.186142 0.456540 0.366614
O O12 0.000000 0.500000 0.286509
O O13 0.188054 0.153613 0.438623
O O14 0.178403 0.849652 0.496014
O O15 0.000000 0.000000 0.462139
O O16 0.850304 0.234669 0.669189
O O17 0.000000 0.000000 0.698685
#
# Coordination Sequence:
#
# PCOD8156093 Si02
#       8
#     2   4   4   4   4   4   4   4
#     4  10  22  40  64  88 128 176 212 264 332 392
#     4   9  20  39  58  81 117 155 200 251 309 380
#     4   9  21  36  57  86 126 158 210 262 307 379
#     4   9  19  37  59  82 118 157 196 249 305 367
#     4  10  21  39  57  90 120 164 214 256 319 384
#     4  10  21  41  63  89 126 162 209 266 324 385
#     4  10  22  44  64  93 132 169 217 272 327 391
#     4  10  22  42  62  93 128 161 210 267 320 399
#
# _framework density 20.976462999999999
#
# number of rings (size 3 to 8) (size 9 to 14) (size 15 to 20)
#    0.000    2.400    0.000    2.800    2.800    4.800 
#   16.800    0.000    1.467    0.000    0.000    0.000 
#    0.000    0.000    0.000    0.000    0.000    0.000 
#
# Total GULP energy -371647.221862 kJ/mol
# GULP energy per Si atom -12388.240729 kJ/mol
# Density = 2.092872 g / cm^3
# Si number density = 20.976463 Si / 1000 Ang^3
#
#
#
# Elastic Constant Matrix: (Units=GPa)
#
#
# Indices 1 2 3 4 5 6 
#
# 1 120.9997 13.8917 37.2215 0.0000 0.0000 0.0000
# 2 13.8917 32.8102 -5.6622 0.0000 0.0000 0.0000
# 3 37.2215 -5.6622 78.4822 0.0000 0.0000 0.0000
# 4 0.0000 0.0000 0.0000 -61.1240 0.0000 0.0000
# 5 0.0000 0.0000 0.0000 0.0000 33.1340 0.0000
# 6 0.0000 0.0000 0.0000 0.0000 0.0000 34.5520
#
#
#
# Elastic Compliance Matrix: (Units=1/GPa)
#
#
# Indices 1 2 3 4 5 6 
#
# 1 0.010541 -0.005393 -0.005388 0.000000 0.000000 0.000000
# 2 -0.005393 0.033622 0.004983 0.000000 0.000000 0.000000
# 3 -0.005388 0.004983 0.015657 0.000000 0.000000 0.000000
# 4 0.000000 0.000000 0.000000 -0.016360 0.000000 0.000000
# 5 0.000000 0.000000 0.000000 0.000000 0.030180 0.000000
# 6 0.000000 0.000000 0.000000 0.000000 0.000000 0.028942
#
#
# Mechanical properties :
#
#
# Convention : Reuss Voigt Hill
#
# Bulk Modulus (GPa) = 20.73670 35.91046 28.32358
# Shear Modulus (GPa) = 38.38695 13.76847 26.07771
#
# Velocity S-wave (km/s) = 4.28249 2.56477 3.52971
# Velocity P-wave (km/s) = 5.86175 5.09188 5.49033
#
# Compressibility (1/GPa) = 0.04822369
#
# Stress axis : x y z
#
# Youngs Moduli (GPa) = 94.86564 29.74268 63.86983
#
# Poissons Ratio (x) = 0.16040 0.34416
# Poissons Ratio (y) = 0.51161 -0.31829
# Poissons Ratio (z) = 0.51118 -0.14822
#
# Static dielectric constant tensor:
#      x y z
#    x 4.375820 0.000000 0.000000 
#    y 0.000000 3.415310 0.000000 
#    z 0.000000 0.000000 5.254090 
# 
# 
# High freq. dielectric constant tensor:
#      x y z
#    x 1.832040 0.000000 0.000000 
#    y 0.000000 1.794540 0.000000 
#    z 0.000000 0.000000 1.828000 
# 
# From -- ./inp_files/6891.got.cif
#   From: 2010.03.12/outbox.cif.g09.slc.cpg/sg18_4_cif.got.tgz:6891.got - 2010.04.10 18:53:55.
