data_PCOD8156167
_publ_section_title
;
Structure prediction by ZEFSAII (Michael W. Deem and Ramdas Pophale) SiO2 
 PCOD8156167
Probable space group: P 21 21 2
;
_chemical_formula_sum "Si O2"
_cell_formula_units_Z 28
_cell_length_a 26.829336
_cell_length_b 9.003482
_cell_length_c 5.254548
_cell_angle_alpha 90.000000
_cell_angle_beta 90.000000
_cell_angle_gamma 90.000000
_cell_volume 1269.275183
_symmetry_space_group_name_H-M "P 21 21 2"
_symmetry_group_IT_number 18
_symmetry_cell_setting 'orthorhombic'
loop_
_space_group_symop_operation_xyz
x,y,z
-x,-y,z
1/2+x,1/2-y,-z
1/2-x,1/2+y,-z
loop_
_atom_site_type_symbol
_atom_site_label
_atom_site_fract_x
_atom_site_fract_y
_atom_site_fract_z
Si Si1 0.500000 0.500000 0.897291
Si Si2 0.532125 0.249927 0.224707
Si Si3 0.627975 0.295186 0.508767
Si Si4 0.000000 0.500000 0.105319
Si Si5 0.285901 0.408904 0.004687
Si Si6 0.685622 0.252269 0.007684
Si Si7 0.552547 0.750407 0.587036
Si Si8 0.156223 0.866096 0.493915
O O1 0.536737 0.602537 0.736503
O O2 0.538913 0.399284 0.058492
O O3 0.570058 0.251547 0.463667
O O4 0.475034 0.252578 0.317218
O O5 0.537797 0.100849 0.060209
O O6 0.645914 0.231221 0.778946
O O7 0.632761 0.471204 0.505880
O O8 0.658794 0.223773 0.275964
O O9 0.962898 0.400661 0.271792
O O10 0.289532 0.586039 0.002024
O O11 0.306644 0.341520 0.742032
O O12 0.227945 0.370433 0.028872
O O13 0.315034 0.336708 0.242666
O O14 0.611503 0.751868 0.534680
#
# Coordination Sequence:
#
# PCOD8156167 Si02
#       8
#     2   4   4   2   4   4   4   4
#     4  10  22  34  68  92 126 162 222 266 322 370
#     4  11  23  41  62  94 130 171 216 266 321 386
#     4  10  22  38  69  94 125 167 216 267 318 378
#     4  10  26  42  60  84 142 174 206 266 326 386
#     4  10  22  42  64  94 126 163 212 269 325 382
#     4  10  22  42  64  94 126 163 212 269 325 382
#     4  11  23  41  62  94 130 171 216 266 321 386
#     4  10  22  38  69  94 125 167 216 267 318 378
#
# _framework density 22.059833000000001
#
# number of rings (size 3 to 8) (size 9 to 14) (size 15 to 20)
#    0.000    1.714    0.000    3.429   14.000    0.000 
#    2.571    0.000    0.000    0.000    0.000    0.000 
#    0.000    0.000    0.000    0.000    0.000    0.000 
#
# Total GULP energy -347306.227613 kJ/mol
# GULP energy per Si atom -12403.793843 kJ/mol
# Density = 2.200962 g / cm^3
# Si number density = 22.059833 Si / 1000 Ang^3
#
#
#
# Elastic Constant Matrix: (Units=GPa)
#
#
# Indices 1 2 3 4 5 6 
#
# 1 60.5381 7.3608 8.7213 0.0000 0.0000 0.0000
# 2 7.3608 74.0364 24.3906 0.0000 0.0000 0.0000
# 3 8.7213 24.3906 116.9180 0.0000 0.0000 0.0000
# 4 0.0000 0.0000 0.0000 -1.6657 0.0000 0.0000
# 5 0.0000 0.0000 0.0000 0.0000 40.8457 0.0000
# 6 0.0000 0.0000 0.0000 0.0000 0.0000 25.2191
#
#
#
# Elastic Compliance Matrix: (Units=1/GPa)
#
#
# Indices 1 2 3 4 5 6 
#
# 1 0.016823 -0.001352 -0.000973 0.000000 0.000000 0.000000
# 2 -0.001352 0.014612 -0.002947 0.000000 0.000000 0.000000
# 3 -0.000973 -0.002947 0.009240 0.000000 0.000000 0.000000
# 4 0.000000 0.000000 0.000000 -0.600349 0.000000 0.000000
# 5 0.000000 0.000000 0.000000 0.000000 0.024482 0.000000
# 6 0.000000 0.000000 0.000000 0.000000 0.000000 0.039652
#
#
# Mechanical properties :
#
#
# Convention : Reuss Voigt Hill
#
# Bulk Modulus (GPa) = 33.18830 36.93754 35.06292
# Shear Modulus (GPa) = -10.52742 26.94780 8.21019
#
# Velocity S-wave (km/s) = -2.18691 3.49890 1.93129
# Velocity P-wave (km/s) = 2.94967 5.75358 4.57188
#
# Compressibility (1/GPa) = 0.03013110
#
# Stress axis : x y z
#
# Youngs Moduli (GPa) = 59.44214 68.43540 108.21979
#
# Poissons Ratio (x) = 0.09253 0.10528
# Poissons Ratio (y) = 0.08037 0.31897
# Poissons Ratio (z) = 0.05783 0.20171
#
# Static dielectric constant tensor:
#      x y z
#    x 3.803050 0.000000 0.000000 
#    y 0.000000 3.911000 0.000000 
#    z 0.000000 0.000000 4.271630 
# 
# 
# High freq. dielectric constant tensor:
#      x y z
#    x 1.859070 0.000000 0.000000 
#    y 0.000000 1.852150 0.000000 
#    z 0.000000 0.000000 1.887060 
# 
# From -- ./inp_files/740.got.cif
#   From: 2010.03.12/outbox.cif.g09.slc.cpg/sg18_1_cif.got.tgz:740.got - 2010.04.10 18:53:55.
