data_PCOD8156238
_publ_section_title
;
Structure prediction by ZEFSAII (Michael W. Deem and Ramdas Pophale) SiO2 
 PCOD8156238
Probable space group: P 21 21 2
;
_chemical_formula_sum "Si O2"
_cell_formula_units_Z 30
_cell_length_a 14.634009
_cell_length_b 9.143739
_cell_length_c 10.320209
_cell_angle_alpha 90.000000
_cell_angle_beta 90.000000
_cell_angle_gamma 90.000000
_cell_volume 1380.942613
_symmetry_space_group_name_H-M "P 21 21 2"
_symmetry_group_IT_number 18
_symmetry_cell_setting 'orthorhombic'
loop_
_space_group_symop_operation_xyz
x,y,z
-x,-y,z
1/2+x,1/2-y,-z
1/2-x,1/2+y,-z
loop_
_atom_site_type_symbol
_atom_site_label
_atom_site_fract_x
_atom_site_fract_y
_atom_site_fract_z
Si Si1 0.755825 0.230583 0.843145
Si Si2 0.686551 0.507838 0.489291
Si Si3 0.593433 0.754064 0.365431
Si Si4 0.903535 0.824419 0.725505
Si Si5 0.593862 0.279423 0.668497
Si Si6 0.000000 0.000000 0.166819
Si Si7 0.391777 0.934537 0.446437
Si Si8 0.163210 0.046545 0.980636
O O1 0.834890 0.286772 0.747987
O O2 0.662496 0.196295 0.765085
O O3 0.783407 0.083272 0.913548
O O4 0.739022 0.357838 0.946777
O O5 0.642227 0.670256 0.484995
O O6 0.660241 0.437919 0.351010
O O7 0.648271 0.416677 0.608222
O O8 0.794633 0.516931 0.497667
O O9 0.510792 0.655452 0.309876
O O10 0.554371 0.912407 0.415577
O O11 0.875999 0.659065 0.684473
O O12 0.889333 0.849899 0.877517
O O13 0.509198 0.352129 0.745829
O O14 0.559383 0.168811 0.556286
O O15 0.089995 0.980003 0.080245
#
# Coordination Sequence:
#
# PCOD8156238 Si02
#       8
#     4   4   4   4   4   2   4   4
#     4  11  23  41  69  93 131 174 227 271 322 400
#     4  11  21  39  70  94 130 177 218 262 330 410
#     4  12  22  39  65 104 132 172 218 275 336 391
#     4  11  24  39  66  98 133 172 223 276 327 395
#     4  10  22  42  65  97 130 173 216 267 334 399
#     4  10  24  42  68  92 130 174 226 266 314 404
#     4  11  22  40  63 101 133 170 208 282 334 392
#     4  11  24  44  69  95 127 180 229 271 325 389
#
# _framework density 21.724291999999998
#
# number of rings (size 3 to 8) (size 9 to 14) (size 15 to 20)
#    0.000    1.067    4.000    2.400    5.600    0.000 
#    0.000    0.000    2.933    0.000    0.000    0.000 
#    0.000    0.000    0.000    0.000    0.000    0.000 
#
# Total GULP energy -372072.615897 kJ/mol
# GULP energy per Si atom -12402.420530 kJ/mol
# Density = 2.167485 g / cm^3
# Si number density = 21.724292 Si / 1000 Ang^3
#
#
#
# Elastic Constant Matrix: (Units=GPa)
#
#
# Indices 1 2 3 4 5 6 
#
# 1 91.6427 40.0345 46.2340 0.0000 0.0000 0.0000
# 2 40.0345 138.3081 65.0031 0.0000 0.0000 0.0000
# 3 46.2340 65.0031 118.7798 0.0000 0.0000 0.0000
# 4 0.0000 0.0000 0.0000 33.0355 0.0000 0.0000
# 5 0.0000 0.0000 0.0000 0.0000 31.6161 0.0000
# 6 0.0000 0.0000 0.0000 0.0000 0.0000 39.8821
#
#
#
# Elastic Compliance Matrix: (Units=1/GPa)
#
#
# Indices 1 2 3 4 5 6 
#
# 1 0.013979 -0.002005 -0.004344 0.000000 0.000000 0.000000
# 2 -0.002005 0.010021 -0.004704 0.000000 0.000000 0.000000
# 3 -0.004344 -0.004704 0.012684 0.000000 0.000000 0.000000
# 4 0.000000 0.000000 0.000000 0.030270 0.000000 0.000000
# 5 0.000000 0.000000 0.000000 0.000000 0.031629 0.000000
# 6 0.000000 0.000000 0.000000 0.000000 0.000000 0.025074
#
#
# Mechanical properties :
#
#
# Convention : Reuss Voigt Hill
#
# Bulk Modulus (GPa) = 68.59145 72.36377 70.47761
# Shear Modulus (GPa) = 33.19518 34.07064 33.63291
#
# Velocity S-wave (km/s) = 3.91323 3.96450 3.93895
# Velocity P-wave (km/s) = 7.21526 7.37148 7.29379
#
# Compressibility (1/GPa) = 0.01457908
#
# Stress axis : x y z
#
# Youngs Moduli (GPa) = 71.53378 99.78741 78.83847
#
# Poissons Ratio (x) = 0.20005 0.34250
# Poissons Ratio (y) = 0.14340 0.37085
# Poissons Ratio (z) = 0.31076 0.46939
#
# Static dielectric constant tensor:
#      x y z
#    x 3.937090 0.000000 0.000000 
#    y 0.000000 4.059310 0.000000 
#    z 0.000000 0.000000 4.122500 
# 
# 
# High freq. dielectric constant tensor:
#      x y z
#    x 1.863990 0.000000 0.000000 
#    y 0.000000 1.859320 0.000000 
#    z 0.000000 0.000000 1.850640 
# 
# From -- ./inp_files/6099.got.cif
#   From: 2010.03.12/outbox.cif.g09.slc.cpg/sg18_4_cif.got.tgz:6099.got - 2010.04.10 18:53:55.
