data_PCOD8156776
_publ_section_title
;
Structure prediction by ZEFSAII (Michael W. Deem and Ramdas Pophale) SiO2 
 PCOD8156776
Probable space group: P 21 21 21
;
_chemical_formula_sum "Si O2"
_cell_formula_units_Z 32
_cell_length_a 8.912186
_cell_length_b 9.099936
_cell_length_c 20.035687
_cell_angle_alpha 90.000000
_cell_angle_beta 90.000000
_cell_angle_gamma 90.000000
_cell_volume 1624.900672
_symmetry_space_group_name_H-M "P 21 21 21"
_symmetry_group_IT_number 19
_symmetry_cell_setting 'orthorhombic'
loop_
_space_group_symop_operation_xyz
x,y,z
1/2-x,-y,1/2+z
1/2+x,1/2-y,-z
-x,1/2+y,1/2-z
loop_
_atom_site_type_symbol
_atom_site_label
_atom_site_fract_x
_atom_site_fract_y
_atom_site_fract_z
Si Si1 0.637476 0.828719 0.579173
Si Si2 0.642108 0.169950 0.325691
Si Si3 0.357892 0.330050 0.174309
Si Si4 0.698970 0.672093 0.194580
Si Si5 0.198970 0.172093 0.805420
Si Si6 0.637476 0.171281 0.579173
Si Si7 0.336748 0.669410 0.546956
Si Si8 0.836747 0.169410 0.453044
O O1 0.679245 0.745615 0.646806
O O2 0.478643 0.773532 0.552858
O O3 0.761917 0.795299 0.523680
O O4 0.624973 1.000000 0.594604
O O5 0.467176 0.212159 0.331441
O O6 0.722737 0.265796 0.268886
O O7 0.716951 0.208231 0.395870
O O8 0.660210 0.000000 0.306000
O O9 0.277263 0.234204 0.231114
O O10 0.532824 0.287841 0.168559
O O11 0.283049 0.291769 0.104130
O O12 0.729857 0.500000 0.195643
O O13 0.820755 0.745615 0.146806
O O14 0.761917 0.204702 0.523680
O O15 0.478643 0.226468 0.552858
O O16 0.387004 0.500000 0.552078
#
# Coordination Sequence:
#
# PCOD8156776 Si02
#       8
#     4   4   4   4   4   4   4   4
#     4  11  23  38  58  84 113 146 185 229 277 331
#     4   9  19  37  59  83 112 146 186 230 275 326
#     4   9  19  37  59  83 112 146 186 230 275 326
#     4  10  20  36  59  85 114 148 185 227 276 329
#     4  10  20  36  59  85 114 148 185 227 276 329
#     4  11  23  38  58  84 113 146 185 229 277 331
#     4  10  22  39  58  81 111 146 184 229 278 328
#     4  10  22  39  58  81 111 146 184 229 278 328
#
# _framework density 19.693511000000001
#
# number of rings (size 3 to 8) (size 9 to 14) (size 15 to 20)
#    0.000    2.000    0.000    3.000    0.000    7.000 
#    0.000    0.000    0.000    0.000    0.000    0.000 
#    0.000    0.000    0.000    0.000    0.000    0.000 
#
# Total GULP energy -396999.246377 kJ/mol
# GULP energy per Si atom -12406.226449 kJ/mol
# Density = 1.964869 g / cm^3
# Si number density = 19.693511 Si / 1000 Ang^3
#
#
#
# Elastic Constant Matrix: (Units=GPa)
#
#
# Indices 1 2 3 4 5 6 
#
# 1 40.3174 19.9185 -6.4912 0.0000 0.0000 0.0000
# 2 19.9185 77.7188 29.1044 0.0000 0.0000 0.0000
# 3 -6.4912 29.1044 59.6779 0.0000 0.0000 0.0000
# 4 0.0000 0.0000 0.0000 30.1666 0.0000 0.0000
# 5 0.0000 0.0000 0.0000 0.0000 33.7225 0.0000
# 6 0.0000 0.0000 0.0000 0.0000 0.0000 35.3079
#
#
#
# Elastic Compliance Matrix: (Units=1/GPa)
#
#
# Indices 1 2 3 4 5 6 
#
# 1 0.032028 -0.011639 0.009160 0.000000 0.000000 0.000000
# 2 -0.011639 0.019971 -0.011006 0.000000 0.000000 0.000000
# 3 0.009160 -0.011006 0.023120 0.000000 0.000000 0.000000
# 4 0.000000 0.000000 0.000000 0.033149 0.000000 0.000000
# 5 0.000000 0.000000 0.000000 0.000000 0.029654 0.000000
# 6 0.000000 0.000000 0.000000 0.000000 0.000000 0.028322
#
#
# Mechanical properties :
#
#
# Convention : Reuss Voigt Hill
#
# Bulk Modulus (GPa) = 20.76829 29.19749 24.98289
# Shear Modulus (GPa) = 23.89327 28.85156 26.37242
#
# Velocity S-wave (km/s) = 3.48696 3.83172 3.66340
# Velocity P-wave (km/s) = 5.17499 5.86807 5.53239
#
# Compressibility (1/GPa) = 0.04815032
#
# Stress axis : x y z
#
# Youngs Moduli (GPa) = 31.22276 50.07210 43.25200
#
# Poissons Ratio (x) = 0.58277 -0.39618
# Poissons Ratio (y) = 0.36339 0.47602
# Poissons Ratio (z) = -0.28599 0.55108
#
# Static dielectric constant tensor:
#      x y z
#    x 3.491820 0.000000 0.000000 
#    y 0.000000 3.563760 0.000000 
#    z 0.000000 0.000000 3.610190 
# 
# 
# High freq. dielectric constant tensor:
#      x y z
#    x 1.763900 0.000000 0.000000 
#    y 0.000000 1.771430 0.000000 
#    z 0.000000 0.000000 1.777660 
# 
# From -- ./inp_files/3106.got.cif
#   From: 2010.03.12/outbox.cif.g09.slc.cpg/sg19_2_cif.got.tgz:3106.got - 2010.04.10 18:59:41.
