data_PCOD8156997
_publ_section_title
;
Structure prediction by ZEFSAII (Michael W. Deem and Ramdas Pophale) SiO2 
 PCOD8156997
Probable space group: P 21 21 21
;
_chemical_formula_sum "Si O2"
_cell_formula_units_Z 28
_cell_length_a 13.374271
_cell_length_b 14.160470
_cell_length_c 6.993515
_cell_angle_alpha 90.000000
_cell_angle_beta 90.000000
_cell_angle_gamma 90.000000
_cell_volume 1324.473575
_symmetry_space_group_name_H-M "P 21 21 21"
_symmetry_group_IT_number 19
_symmetry_cell_setting 'orthorhombic'
loop_
_space_group_symop_operation_xyz
x,y,z
1/2-x,-y,1/2+z
1/2+x,1/2-y,-z
-x,1/2+y,1/2-z
loop_
_atom_site_type_symbol
_atom_site_label
_atom_site_fract_x
_atom_site_fract_y
_atom_site_fract_z
Si Si1 0.340882 0.067424 0.714319
Si Si2 0.451773 0.224931 0.909975
Si Si3 0.821447 0.620263 0.073126
Si Si4 0.342871 0.685608 0.729343
Si Si5 0.548568 0.878297 0.909720
Si Si6 0.050984 0.474191 0.415501
Si Si7 0.868159 0.127053 0.815720
O O1 0.382039 0.132668 0.888190
O O2 0.251483 0.121619 0.608378
O O3 0.432272 0.045715 0.568033
O O4 0.296331 0.970529 0.796968
O O5 0.569067 0.197604 0.927674
O O6 0.436934 0.285356 0.717191
O O7 0.424971 0.282001 0.099839
O O8 0.802810 0.714395 0.194968
O O9 0.936488 0.615749 0.005966
O O10 0.387379 0.623295 0.904507
O O11 0.249051 0.633402 0.630556
O O12 0.623739 0.874047 0.087042
O O13 0.573154 0.968771 0.780025
O O14 0.085857 0.531063 0.601061
#
# Coordination Sequence:
#
# PCOD8156997 Si02
#       7
#     4   4   4   4   4   4   4
#     4  10  21  39  60  88 127 160 199 257 308 351
#     4   9  21  42  58  90 132 157 193 264 299 346
#     4  10  22  37  63  88 123 159 204 254 301 370
#     4  10  22  41  61  90 124 160 204 252 311 355
#     4   9  20  40  60  93 125 156 202 251 298 362
#     4   9  22  42  59  88 131 156 194 267 301 348
#     4  11  22  37  71  89 116 168 208 235 306 378
#
# _framework density 21.140473
#
# number of rings (size 3 to 8) (size 9 to 14) (size 15 to 20)
#    0.000    2.286    0.000    1.714    6.000    1.143 
#    0.000   10.000    0.000    0.000    0.000    0.000 
#    0.000    0.000    0.000    0.000    0.000    0.000 
#
# Total GULP energy -347253.837093 kJ/mol
# GULP energy per Si atom -12401.922753 kJ/mol
# Density = 2.109236 g / cm^3
# Si number density = 21.140473 Si / 1000 Ang^3
#
#
#
# Elastic Constant Matrix: (Units=GPa)
#
#
# Indices 1 2 3 4 5 6 
#
# 1 81.3870 7.3051 16.4654 0.0000 0.0000 0.0000
# 2 7.3051 90.3282 9.1244 0.0000 0.0000 0.0000
# 3 16.4654 9.1244 64.6322 0.0000 0.0000 0.0000
# 4 0.0000 0.0000 0.0000 17.6246 0.0000 0.0000
# 5 0.0000 0.0000 0.0000 0.0000 18.8308 0.0000
# 6 0.0000 0.0000 0.0000 0.0000 0.0000 19.7720
#
#
#
# Elastic Compliance Matrix: (Units=1/GPa)
#
#
# Indices 1 2 3 4 5 6 
#
# 1 0.013002 -0.000727 -0.003210 0.000000 0.000000 0.000000
# 2 -0.000727 0.011272 -0.001406 0.000000 0.000000 0.000000
# 3 -0.003210 -0.001406 0.016488 0.000000 0.000000 0.000000
# 4 0.000000 0.000000 0.000000 0.056739 0.000000 0.000000
# 5 0.000000 0.000000 0.000000 0.000000 0.053104 0.000000
# 6 0.000000 0.000000 0.000000 0.000000 0.000000 0.050577
#
#
# Mechanical properties :
#
#
# Convention : Reuss Voigt Hill
#
# Bulk Modulus (GPa) = 33.24927 33.57081 33.41004
# Shear Modulus (GPa) = 22.53346 24.80899 23.67122
#
# Velocity S-wave (km/s) = 3.26834 3.42940 3.34984
# Velocity P-wave (km/s) = 5.47765 5.62098 5.54978
#
# Compressibility (1/GPa) = 0.03007585
#
# Stress axis : x y z
#
# Youngs Moduli (GPa) = 76.91376 88.71873 60.64908
#
# Poissons Ratio (x) = 0.06452 0.19466
# Poissons Ratio (y) = 0.05594 0.08527
# Poissons Ratio (z) = 0.24686 0.12474
#
# Static dielectric constant tensor:
#      x y z
#    x 3.865310 0.000000 0.000000 
#    y 0.000000 4.028840 0.000000 
#    z 0.000000 0.000000 3.253980 
# 
# 
# High freq. dielectric constant tensor:
#      x y z
#    x 1.836810 0.000000 0.000000 
#    y 0.000000 1.846510 0.000000 
#    z 0.000000 0.000000 1.784530 
# 
# From -- ./inp_files/1488.got.cif
#   From: 2010.03.12/outbox.cif.g09.slc.cpg/sg19_1_cif.got.tgz:1488.got - 2010.04.10 18:59:41.
