data_PCOD8156377
_publ_section_title
;
Structure prediction by ZEFSAII (Michael W. Deem and Ramdas Pophale) SiO2 
 PCOD8156377
Probable space group: P 21 21 2
;
_chemical_formula_sum "Si O2"
_cell_formula_units_Z 26
_cell_length_a 20.045765
_cell_length_b 8.616368
_cell_length_c 6.536951
_cell_angle_alpha 90.000000
_cell_angle_beta 90.000000
_cell_angle_gamma 90.000000
_cell_volume 1129.073212
_symmetry_space_group_name_H-M "P 21 21 2"
_symmetry_group_IT_number 18
_symmetry_cell_setting 'orthorhombic'
loop_
_space_group_symop_operation_xyz
x,y,z
-x,-y,z
1/2+x,1/2-y,-z
1/2-x,1/2+y,-z
loop_
_atom_site_type_symbol
_atom_site_label
_atom_site_fract_x
_atom_site_fract_y
_atom_site_fract_z
Si Si1 0.002579 0.753831 0.503528
Si Si2 0.000000 0.500000 0.199247
Si Si3 0.712973 0.403601 0.366166
Si Si4 0.901185 0.003984 0.395710
Si Si5 0.200946 0.438854 0.667267
Si Si6 0.322425 0.441384 0.969441
Si Si7 0.593253 0.850909 0.128716
O O1 0.969803 0.624383 0.358808
O O2 0.031701 0.698570 0.722701
O O3 0.945223 0.882018 0.523521
O O4 0.063303 0.830333 0.377846
O O5 0.059625 0.574622 0.070399
O O6 0.663317 0.529375 0.465533
O O7 0.782502 0.442390 0.480724
O O8 0.685358 0.232211 0.421476
O O9 0.712068 0.439404 0.126068
O O10 0.878465 0.963850 0.162382
O O11 0.261515 0.396457 0.821694
O O12 0.135997 0.509920 0.773377
O O13 0.356991 0.290472 0.071739
#
# Coordination Sequence:
#
# PCOD8156377 Si02
#       7
#     4   2   4   4   4   4   4
#     4  11  25  47  69 100 142 184 233 293 351 427
#     4  12  28  44  72 106 144 186 238 296 352 432
#     4  11  24  45  71  98 138 183 233 295 358 423
#     4  10  24  45  70  99 136 183 235 285 352 428
#     4  11  27  43  72 105 139 185 238 302 366 432
#     4  11  23  47  71 101 137 187 241 297 358 429
#     4  12  26  47  72 106 148 187 243 298 370 433
#
# _framework density 23.027736999999998
#
# number of rings (size 3 to 8) (size 9 to 14) (size 15 to 20)
#    0.000    0.923    3.077    2.308    8.615    2.462 
#    0.000    0.000    0.000    0.000    0.000    0.000 
#    0.000    0.000    0.000    0.000    0.000    0.000 
#
# Total GULP energy -322141.610397 kJ/mol
# GULP energy per Si atom -12390.061938 kJ/mol
# Density = 2.297533 g / cm^3
# Si number density = 23.027737 Si / 1000 Ang^3
#
#
#
# Elastic Constant Matrix: (Units=GPa)
#
#
# Indices 1 2 3 4 5 6 
#
# 1 48.0379 6.2721 19.6128 0.0000 0.0000 0.0000
# 2 6.2721 90.8082 21.7005 0.0000 0.0000 0.0000
# 3 19.6128 21.7005 106.1333 0.0000 0.0000 0.0000
# 4 0.0000 0.0000 0.0000 43.8188 0.0000 0.0000
# 5 0.0000 0.0000 0.0000 0.0000 37.3069 0.0000
# 6 0.0000 0.0000 0.0000 0.0000 0.0000 37.0570
#
#
#
# Elastic Compliance Matrix: (Units=1/GPa)
#
#
# Indices 1 2 3 4 5 6 
#
# 1 0.022546 -0.000590 -0.004046 0.000000 0.000000 0.000000
# 2 -0.000590 0.011593 -0.002261 0.000000 0.000000 0.000000
# 3 -0.004046 -0.002261 0.010632 0.000000 0.000000 0.000000
# 4 0.000000 0.000000 0.000000 0.022821 0.000000 0.000000
# 5 0.000000 0.000000 0.000000 0.000000 0.026805 0.000000
# 6 0.000000 0.000000 0.000000 0.000000 0.000000 0.026985
#
#
# Mechanical properties :
#
#
# Convention : Reuss Voigt Hill
#
# Bulk Modulus (GPa) = 32.28257 37.79447 35.03852
# Shear Modulus (GPa) = 34.36360 36.79614 35.57987
#
# Velocity S-wave (km/s) = 3.86718 4.00172 3.93502
# Velocity P-wave (km/s) = 5.83006 6.14816 5.99122
#
# Compressibility (1/GPa) = 0.03097647
#
# Stress axis : x y z
#
# Youngs Moduli (GPa) = 44.35431 86.25605 94.05503
#
# Poissons Ratio (x) = 0.05093 0.38051
# Poissons Ratio (y) = 0.02619 0.21269
# Poissons Ratio (z) = 0.17944 0.19505
#
# Static dielectric constant tensor:
#      x y z
#    x 4.146740 0.000000 0.000000 
#    y 0.000000 4.082840 0.000000 
#    z 0.000000 0.000000 4.241330 
# 
# 
# High freq. dielectric constant tensor:
#      x y z
#    x 1.912520 0.000000 0.000000 
#    y 0.000000 1.911160 0.000000 
#    z 0.000000 0.000000 1.914140 
# 
# From -- ./inp_files/2108.got.cif
#   From: 2010.03.12/outbox.cif.g09.slc.cpg/sg18_2_cif.got.tgz:2108.got - 2010.04.10 18:53:55.
