data_PCOD8156894
_publ_section_title
;
Structure prediction by ZEFSAII (Michael W. Deem and Ramdas Pophale) SiO2 
 PCOD8156894
Probable space group: P 21 21 21
;
_chemical_formula_sum "Si O2"
_cell_formula_units_Z 28
_cell_length_a 10.393715
_cell_length_b 14.628554
_cell_length_c 9.054367
_cell_angle_alpha 90.000000
_cell_angle_beta 90.000000
_cell_angle_gamma 90.000000
_cell_volume 1376.671422
_symmetry_space_group_name_H-M "P 21 21 21"
_symmetry_group_IT_number 19
_symmetry_cell_setting 'orthorhombic'
loop_
_space_group_symop_operation_xyz
x,y,z
1/2-x,-y,1/2+z
1/2+x,1/2-y,-z
-x,1/2+y,1/2-z
loop_
_atom_site_type_symbol
_atom_site_label
_atom_site_fract_x
_atom_site_fract_y
_atom_site_fract_z
Si Si1 0.197262 0.097202 0.070483
Si Si2 0.323807 0.602473 0.955558
Si Si3 0.186162 0.051185 0.395950
Si Si4 0.288785 0.283940 0.194668
Si Si5 0.077707 0.648271 0.124886
Si Si6 0.077872 0.818734 0.936536
Si Si7 0.586134 0.905108 0.550191
O O1 0.196665 0.039171 0.221069
O O2 0.219435 0.204243 0.102162
O O3 0.059579 0.085579 0.990770
O O4 0.305938 0.050376 0.967366
O O5 0.307154 0.670260 0.815034
O O6 0.354284 0.501273 0.899319
O O7 0.196796 0.594616 0.054251
O O8 0.439467 0.633241 0.063363
O O9 0.304890 0.110951 0.456626
O O10 0.051457 0.099371 0.435474
O O11 0.407821 0.238376 0.283709
O O12 0.332975 0.360582 0.080970
O O13 0.085110 0.654818 0.301518
O O14 0.082767 0.752937 0.076847
#
# Coordination Sequence:
#
# PCOD8156894 Si02
#       7
#     4   4   4   4   4   4   4
#     4  10  22  42  62  91 129 162 220 257 314 385
#     4  11  21  41  66  88 128 168 207 258 322 383
#     4  10  21  40  63  89 122 169 207 258 313 374
#     4  10  24  41  62  97 129 163 212 270 313 380
#     4  10  22  38  61  92 122 164 214 252 320 377
#     4  10  20  41  65  86 124 172 204 256 318 383
#     4  11  22  41  61  95 126 162 208 269 312 376
#
# _framework density 20.338913000000002
#
# number of rings (size 3 to 8) (size 9 to 14) (size 15 to 20)
#    0.000    1.714    1.429    4.286    0.000    4.571 
#   12.857    0.000    0.000    0.000    0.000    0.000 
#    0.000    0.000    0.000    0.000    0.000    0.000 
#
# Total GULP energy -347182.352749 kJ/mol
# GULP energy per Si atom -12399.369741 kJ/mol
# Density = 2.029262 g / cm^3
# Si number density = 20.338913 Si / 1000 Ang^3
#
#
#
# Elastic Constant Matrix: (Units=GPa)
#
#
# Indices 1 2 3 4 5 6 
#
# 1 139.2495 38.1608 34.8326 0.0000 0.0000 0.0000
# 2 38.1608 100.4250 37.6491 0.0000 0.0000 0.0000
# 3 34.8326 37.6491 58.1532 0.0000 0.0000 0.0000
# 4 0.0000 0.0000 0.0000 37.5596 0.0000 0.0000
# 5 0.0000 0.0000 0.0000 0.0000 28.2438 0.0000
# 6 0.0000 0.0000 0.0000 0.0000 0.0000 27.4249
#
#
#
# Elastic Compliance Matrix: (Units=1/GPa)
#
#
# Indices 1 2 3 4 5 6 
#
# 1 0.008682 -0.001782 -0.004047 0.000000 0.000000 0.000000
# 2 -0.001782 0.013515 -0.007682 0.000000 0.000000 0.000000
# 3 -0.004047 -0.007682 0.024593 0.000000 0.000000 0.000000
# 4 0.000000 0.000000 0.000000 0.026624 0.000000 0.000000
# 5 0.000000 0.000000 0.000000 0.000000 0.035406 0.000000
# 6 0.000000 0.000000 0.000000 0.000000 0.000000 0.036463
#
#
# Mechanical properties :
#
#
# Convention : Reuss Voigt Hill
#
# Bulk Modulus (GPa) = 50.58585 57.67919 54.13252
# Shear Modulus (GPa) = 27.94934 31.12470 29.53702
#
# Velocity S-wave (km/s) = 3.71102 3.91615 3.81496
# Velocity P-wave (km/s) = 6.57933 6.99063 6.78810
#
# Compressibility (1/GPa) = 0.01976837
#
# Stress axis : x y z
#
# Youngs Moduli (GPa) = 115.18154 73.99235 40.66129
#
# Poissons Ratio (x) = 0.13186 0.16454
# Poissons Ratio (y) = 0.20525 0.31237
# Poissons Ratio (z) = 0.46610 0.56843
#
# Static dielectric constant tensor:
#      x y z
#    x 3.880540 0.000000 0.000000 
#    y 0.000000 3.673930 0.000000 
#    z 0.000000 0.000000 3.540580 
# 
# 
# High freq. dielectric constant tensor:
#      x y z
#    x 1.798770 0.000000 0.000000 
#    y 0.000000 1.799190 0.000000 
#    z 0.000000 0.000000 1.784360 
# 
# From -- ./inp_files/3011.got.cif
#   From: 2010.03.12/outbox.cif.g09.slc.cpg/sg19_2_cif.got.tgz:3011.got - 2010.04.10 18:59:41.
