data_PCOD8156425
_publ_section_title
;
Structure prediction by ZEFSAII (Michael W. Deem and Ramdas Pophale) SiO2 
 PCOD8156425
Probable space group: P 21 21 2
;
_chemical_formula_sum "Si O2"
_cell_formula_units_Z 30
_cell_length_a 7.767423
_cell_length_b 15.281428
_cell_length_c 11.324170
_cell_angle_alpha 90.000000
_cell_angle_beta 90.000000
_cell_angle_gamma 90.000000
_cell_volume 1344.148577
_symmetry_space_group_name_H-M "P 21 21 2"
_symmetry_group_IT_number 18
_symmetry_cell_setting 'orthorhombic'
loop_
_space_group_symop_operation_xyz
x,y,z
-x,-y,z
1/2+x,1/2-y,-z
1/2-x,1/2+y,-z
loop_
_atom_site_type_symbol
_atom_site_label
_atom_site_fract_x
_atom_site_fract_y
_atom_site_fract_z
Si Si1 0.689864 0.529658 0.925654
Si Si2 0.835359 0.390422 0.746197
Si Si3 0.359592 0.739279 0.628731
Si Si4 0.353997 0.359763 0.530488
Si Si5 0.000000 0.500000 0.100820
Si Si6 0.653725 0.855601 0.730140
Si Si7 0.701557 0.179022 0.219203
Si Si8 0.815228 0.464490 0.484171
O O1 0.500000 0.500000 0.971037
O O2 0.753418 0.468957 0.818361
O O3 0.674680 0.628159 0.873437
O O4 0.831356 0.528354 0.028108
O O5 0.712563 0.305290 0.748117
O O6 0.853390 0.415738 0.607909
O O7 0.011848 0.358996 0.806068
O O8 0.442641 0.659437 0.549910
O O9 0.206523 0.788825 0.564475
O O10 0.506996 0.805434 0.659909
O O11 0.245792 0.345745 0.648239
O O12 0.327034 0.459319 0.491999
O O13 0.936591 0.417975 0.176016
O O14 0.777778 0.784522 0.796422
O O15 0.754929 0.905385 0.625211
O O16 0.000000 0.500000 0.440237
#
# Coordination Sequence:
#
# PCOD8156425 Si02
#       8
#     4   4   4   4   2   4   4   4
#     4  12  25  48  76 106 137 185 247 307 359 426
#     4  12  22  41  70 109 141 184 232 297 365 432
#     4  11  23  37  63 100 144 183 233 289 349 441
#     4  11  20  36  60  99 138 184 225 282 357 436
#     4  12  26  54  74 100 140 198 242 308 368 408
#     4  11  24  45  71 100 142 192 234 296 362 439
#     4  11  21  43  68 102 137 175 240 291 360 421
#     4  12  20  37  69  97 145 188 219 286 363 433
#
# _framework density 22.318963
#
# number of rings (size 3 to 8) (size 9 to 14) (size 15 to 20)
#    0.000    0.533    6.000    4.000    0.000    0.000 
#    7.200    0.000    5.867    0.000    0.000    0.000 
#    0.000    0.000    0.000    0.000    0.000    0.000 
#
# Total GULP energy -371896.679562 kJ/mol
# GULP energy per Si atom -12396.555985 kJ/mol
# Density = 2.226816 g / cm^3
# Si number density = 22.318963 Si / 1000 Ang^3
#
#
#
# Elastic Constant Matrix: (Units=GPa)
#
#
# Indices 1 2 3 4 5 6 
#
# 1 87.7894 34.5070 17.0991 0.0000 0.0000 0.0000
# 2 34.5070 138.0120 45.0188 0.0000 0.0000 0.0000
# 3 17.0991 45.0188 83.8682 0.0000 0.0000 0.0000
# 4 0.0000 0.0000 0.0000 10.3567 0.0000 0.0000
# 5 0.0000 0.0000 0.0000 0.0000 20.9859 0.0000
# 6 0.0000 0.0000 0.0000 0.0000 0.0000 16.9821
#
#
#
# Elastic Compliance Matrix: (Units=1/GPa)
#
#
# Indices 1 2 3 4 5 6 
#
# 1 0.012712 -0.002828 -0.001074 0.000000 0.000000 0.000000
# 2 -0.002828 0.009413 -0.004476 0.000000 0.000000 0.000000
# 3 -0.001074 -0.004476 0.014545 0.000000 0.000000 0.000000
# 4 0.000000 0.000000 0.000000 0.096556 0.000000 0.000000
# 5 0.000000 0.000000 0.000000 0.000000 0.047651 0.000000
# 6 0.000000 0.000000 0.000000 0.000000 0.000000 0.058886
#
#
# Mechanical properties :
#
#
# Convention : Reuss Voigt Hill
#
# Bulk Modulus (GPa) = 50.21576 55.87994 53.04785
# Shear Modulus (GPa) = 19.00016 23.86791 21.43404
#
# Velocity S-wave (km/s) = 2.92087 3.27372 3.10231
# Velocity P-wave (km/s) = 5.82437 6.27542 6.05410
#
# Compressibility (1/GPa) = 0.01991407
#
# Stress axis : x y z
#
# Youngs Moduli (GPa) = 78.66818 106.23695 68.75201
#
# Poissons Ratio (x) = 0.30045 0.07381
# Poissons Ratio (y) = 0.22248 0.30774
# Poissons Ratio (z) = 0.08446 0.47553
#
# Static dielectric constant tensor:
#      x y z
#    x 4.210330 0.000000 0.000000 
#    y 0.000000 4.811070 0.000000 
#    z 0.000000 0.000000 3.784100 
# 
# 
# High freq. dielectric constant tensor:
#      x y z
#    x 1.884020 0.000000 0.000000 
#    y 0.000000 1.898920 0.000000 
#    z 0.000000 0.000000 1.847060 
# 
# From -- ./inp_files/5647.got.cif
#   From: 2010.03.12/outbox.cif.g09.slc.cpg/sg18_3_cif.got.tgz:5647.got - 2010.04.10 18:53:55.
