data_PCOD8156707
_publ_section_title
;
Structure prediction by ZEFSAII (Michael W. Deem and Ramdas Pophale) SiO2 
 PCOD8156707
Probable space group: P 21 21 21
;
_chemical_formula_sum "Si O2"
_cell_formula_units_Z 20
_cell_length_a 15.401894
_cell_length_b 7.413483
_cell_length_c 8.727718
_cell_angle_alpha 90.000000
_cell_angle_beta 90.000000
_cell_angle_gamma 90.000000
_cell_volume 996.545498
_symmetry_space_group_name_H-M "P 21 21 21"
_symmetry_group_IT_number 19
_symmetry_cell_setting 'orthorhombic'
loop_
_space_group_symop_operation_xyz
x,y,z
1/2-x,-y,1/2+z
1/2+x,1/2-y,-z
-x,1/2+y,1/2-z
loop_
_atom_site_type_symbol
_atom_site_label
_atom_site_fract_x
_atom_site_fract_y
_atom_site_fract_z
Si Si1 0.481235 0.679201 0.877416
Si Si2 0.365503 0.968922 0.745394
Si Si3 0.414263 0.420483 0.100917
Si Si4 0.806897 0.424123 0.922999
Si Si5 0.936433 0.703254 0.807786
O O1 0.421365 0.785420 0.756972
O O2 0.573773 0.637191 0.801117
O O3 0.434890 0.490398 0.927967
O O4 0.491951 0.801780 0.031988
O O5 0.294256 0.939433 0.614685
O O6 0.318249 0.011652 0.904062
O O7 0.334484 0.283539 0.099839
O O8 0.500903 0.323847 0.164078
O O9 0.392344 0.596959 0.206100
O O10 0.862882 0.549927 0.808837
#
# Coordination Sequence:
#
# PCOD8156707 Si02
#       5
#     4   4   4   4   4
#     4   9  22  42  63  92 135 176 214 255 349 391
#     4  11  24  44  66  98 132 177 217 278 327 394
#     4  10  19  40  66  96 128 172 216 266 328 397
#     4  11  23  41  65  96 132 165 228 273 320 387
#     4   9  20  37  68  96 125 172 213 264 334 391
#
# _framework density 20.069329
#
# number of rings (size 3 to 8) (size 9 to 14) (size 15 to 20)
#    1.200    0.800    2.000    1.200    5.600    0.000 
#    7.200    0.000    0.000    0.000    0.000    0.000 
#    0.000    0.000    0.000    0.000    0.000    0.000 
#
# Total GULP energy -247878.762244 kJ/mol
# GULP energy per Si atom -12393.938112 kJ/mol
# Density = 2.002365 g / cm^3
# Si number density = 20.069329 Si / 1000 Ang^3
#
#
#
# Elastic Constant Matrix: (Units=GPa)
#
#
# Indices 1 2 3 4 5 6 
#
# 1 123.4644 40.5380 53.2869 0.0000 0.0000 0.0000
# 2 40.5380 100.5232 27.8391 0.0000 0.0000 0.0000
# 3 53.2869 27.8391 53.5995 0.0000 0.0000 0.0000
# 4 0.0000 0.0000 0.0000 32.5828 0.0000 0.0000
# 5 0.0000 0.0000 0.0000 0.0000 36.8792 0.0000
# 6 0.0000 0.0000 0.0000 0.0000 0.0000 33.7894
#
#
#
# Elastic Compliance Matrix: (Units=1/GPa)
#
#
# Indices 1 2 3 4 5 6 
#
# 1 0.014584 -0.002179 -0.013367 0.000000 0.000000 0.000000
# 2 -0.002179 0.011945 -0.004037 0.000000 0.000000 0.000000
# 3 -0.013367 -0.004037 0.034043 0.000000 0.000000 0.000000
# 4 0.000000 0.000000 0.000000 0.030691 0.000000 0.000000
# 5 0.000000 0.000000 0.000000 0.000000 0.027116 0.000000
# 6 0.000000 0.000000 0.000000 0.000000 0.000000 0.029595
#
#
# Mechanical properties :
#
#
# Convention : Reuss Voigt Hill
#
# Bulk Modulus (GPa) = 46.71967 57.87946 52.29956
# Shear Modulus (GPa) = 25.73640 31.04515 28.39078
#
# Velocity S-wave (km/s) = 3.58491 3.93733 3.76524
# Velocity P-wave (km/s) = 6.36122 7.04077 6.70960
#
# Compressibility (1/GPa) = 0.02140426
#
# Stress axis : x y z
#
# Youngs Moduli (GPa) = 68.56643 83.71718 29.37445
#
# Poissons Ratio (x) = 0.18246 0.39266
# Poissons Ratio (y) = 0.14944 0.11860
# Poissons Ratio (z) = 0.91655 0.33800
#
# Static dielectric constant tensor:
#      x y z
#    x 3.314990 0.000000 0.000000 
#    y 0.000000 3.739290 0.000000 
#    z 0.000000 0.000000 3.463920 
# 
# 
# High freq. dielectric constant tensor:
#      x y z
#    x 1.755330 0.000000 0.000000 
#    y 0.000000 1.790390 0.000000 
#    z 0.000000 0.000000 1.774080 
# 
# From -- ./inp_files/2722.got.cif
#   From: 2010.03.12/outbox.cif.g09.slc.cpg/sg19_2_cif.got.tgz:2722.got - 2010.04.10 18:59:41.
