data_PCOD8156960
_publ_section_title
;
Structure prediction by ZEFSAII (Michael W. Deem and Ramdas Pophale) SiO2 
 PCOD8156960
Probable space group: P 21 21 21
;
_chemical_formula_sum "Si O2"
_cell_formula_units_Z 32
_cell_length_a 14.164900
_cell_length_b 7.708095
_cell_length_c 12.740365
_cell_angle_alpha 90.000000
_cell_angle_beta 90.000000
_cell_angle_gamma 90.000000
_cell_volume 1391.049043
_symmetry_space_group_name_H-M "P 21 21 21"
_symmetry_group_IT_number 19
_symmetry_cell_setting 'orthorhombic'
loop_
_space_group_symop_operation_xyz
x,y,z
1/2-x,-y,1/2+z
1/2+x,1/2-y,-z
-x,1/2+y,1/2-z
loop_
_atom_site_type_symbol
_atom_site_label
_atom_site_fract_x
_atom_site_fract_y
_atom_site_fract_z
Si Si1 0.473438 0.465428 0.409815
Si Si2 0.620132 0.790213 0.669634
Si Si3 0.122194 0.174828 0.440014
Si Si4 0.286139 0.929256 0.375967
Si Si5 0.669132 0.175300 0.954052
Si Si6 0.555694 0.136137 0.759089
Si Si7 0.868367 0.028780 0.955405
Si Si8 0.027093 0.911498 0.805951
O O1 0.559850 0.460234 0.492412
O O2 0.380818 0.530040 0.471848
O O3 0.457858 0.275149 0.359401
O O4 0.496304 0.601666 0.316105
O O5 0.728530 0.728149 0.680628
O O6 0.553375 0.628210 0.702169
O O7 0.599386 0.945607 0.749417
O O8 0.595293 0.854232 0.552385
O O9 0.059644 0.250817 0.345674
O O10 0.155170 0.332987 0.512048
O O11 0.216220 0.087361 0.397048
O O12 0.324278 0.857688 0.485964
O O13 0.372903 0.988523 0.304517
O O14 0.612502 0.230387 0.851193
O O15 0.770756 0.108661 0.914038
O O16 0.949117 0.027055 0.866765
#
# Coordination Sequence:
#
# PCOD8156960 Si02
#       8
#     4   4   4   4   4   4   4   4
#     4  11  24  44  66  96 131 171 217 271 324 386
#     4  10  21  37  61  91 126 165 217 272 322 385
#     4  10  23  43  64  91 127 166 215 269 324 387
#     4  11  23  40  62  95 130 169 215 265 324 394
#     4  11  23  39  64  92 126 167 215 268 323 386
#     4  11  22  41  67  92 125 170 217 270 329 384
#     4   9  22  41  60  89 124 164 213 268 322 386
#     4  11  24  41  66  92 131 174 215 265 330 392
#
# _framework density 23.004221000000001
#
# number of rings (size 3 to 8) (size 9 to 14) (size 15 to 20)
#    0.000    1.500    0.000    4.500    0.000   10.000 
#    0.000    6.250    0.000    0.000    0.000    0.000 
#    0.000    0.000    0.000    0.000    0.000    0.000 
#
# Total GULP energy -396837.523059 kJ/mol
# GULP energy per Si atom -12401.172596 kJ/mol
# Density = 2.295186 g / cm^3
# Si number density = 23.004221 Si / 1000 Ang^3
#
#
#
# Elastic Constant Matrix: (Units=GPa)
#
#
# Indices 1 2 3 4 5 6 
#
# 1 110.7074 9.4258 32.7512 0.0000 0.0000 0.0000
# 2 9.4258 59.3020 3.9394 0.0000 0.0000 0.0000
# 3 32.7512 3.9394 83.6863 0.0000 0.0000 0.0000
# 4 0.0000 0.0000 0.0000 28.9731 0.0000 0.0000
# 5 0.0000 0.0000 0.0000 0.0000 25.9860 0.0000
# 6 0.0000 0.0000 0.0000 0.0000 0.0000 31.1744
#
#
#
# Elastic Compliance Matrix: (Units=1/GPa)
#
#
# Indices 1 2 3 4 5 6 
#
# 1 0.010326 -0.001377 -0.003977 0.000000 0.000000 0.000000
# 2 -0.001377 0.017099 -0.000266 0.000000 0.000000 0.000000
# 3 -0.003977 -0.000266 0.013518 0.000000 0.000000 0.000000
# 4 0.000000 0.000000 0.000000 0.034515 0.000000 0.000000
# 5 0.000000 0.000000 0.000000 0.000000 0.038482 0.000000
# 6 0.000000 0.000000 0.000000 0.000000 0.000000 0.032078
#
#
# Mechanical properties :
#
#
# Convention : Reuss Voigt Hill
#
# Bulk Modulus (GPa) = 33.66468 38.43649 36.05059
# Shear Modulus (GPa) = 29.91156 31.06533 30.48845
#
# Velocity S-wave (km/s) = 3.60983 3.67879 3.64447
# Velocity P-wave (km/s) = 5.66042 5.89825 5.78056
#
# Compressibility (1/GPa) = 0.02970472
#
# Stress axis : x y z
#
# Youngs Moduli (GPa) = 96.83854 58.48153 73.97468
#
# Poissons Ratio (x) = 0.08054 0.29416
# Poissons Ratio (y) = 0.13337 0.01967
# Poissons Ratio (z) = 0.38508 0.01555
#
# Static dielectric constant tensor:
#      x y z
#    x 4.165210 0.000000 0.000000 
#    y 0.000000 4.164520 0.000000 
#    z 0.000000 0.000000 4.104270 
# 
# 
# High freq. dielectric constant tensor:
#      x y z
#    x 1.911650 0.000000 0.000000 
#    y 0.000000 1.914480 0.000000 
#    z 0.000000 0.000000 1.906070 
# 
# From -- ./inp_files/5235.got.cif
#   From: 2010.03.12/outbox.cif.g09.slc.cpg/sg19_3_cif.got.tgz:5235.got - 2010.04.10 18:59:41.
