data_PCOD8156489
_publ_section_title
;
Structure prediction by ZEFSAII (Michael W. Deem and Ramdas Pophale) SiO2 
 PCOD8156489
Probable space group: P 21 21 2
;
_chemical_formula_sum "Si O2"
_cell_formula_units_Z 18
_cell_length_a 11.481897
_cell_length_b 5.737443
_cell_length_c 11.084241
_cell_angle_alpha 90.000000
_cell_angle_beta 90.000000
_cell_angle_gamma 90.000000
_cell_volume 730.193547
_symmetry_space_group_name_H-M "P 21 21 2"
_symmetry_group_IT_number 18
_symmetry_cell_setting 'orthorhombic'
loop_
_space_group_symop_operation_xyz
x,y,z
-x,-y,z
1/2+x,1/2-y,-z
1/2-x,1/2+y,-z
loop_
_atom_site_type_symbol
_atom_site_label
_atom_site_fract_x
_atom_site_fract_y
_atom_site_fract_z
Si Si1 0.927564 0.783442 0.190425
Si Si2 0.393884 0.326171 0.419250
Si Si3 0.675617 0.904384 0.648783
Si Si4 0.000000 0.500000 0.980125
Si Si5 0.690665 0.001799 0.216647
O O1 0.915993 0.554233 0.274400
O O2 0.794055 0.843403 0.166335
O O3 0.000000 0.000000 0.251670
O O4 0.999401 0.725583 0.068230
O O5 0.500000 0.500000 0.387821
O O6 0.409106 0.225276 0.553495
O O7 0.267755 0.446026 0.426364
O O8 0.388919 0.124931 0.317949
O O9 0.753559 0.738970 0.734070
O O10 0.113304 0.462882 0.900437
#
# Coordination Sequence:
#
# PCOD8156489 Si02
#       5
#     4   4   4   2   4
#     4  11  28  48  77 112 152 207 258 328 386 464
#     4  11  24  47  79 112 159 204 255 323 394 469
#     4  11  24  50  76 117 155 201 259 321 390 478
#     4  12  28  48  78 106 154 210 260 320 388 466
#     4  11  26  49  76 114 155 205 263 318 398 466
#
# _framework density 24.650998000000001
#
# number of rings (size 3 to 8) (size 9 to 14) (size 15 to 20)
#    0.000    0.889    2.222    2.667    6.222    5.333 
#    4.000    0.000    0.000    0.000    0.000    0.000 
#    0.000    0.000    0.000    0.000    0.000    0.000 
#
# Total GULP energy -223098.639051 kJ/mol
# GULP energy per Si atom -12394.368836 kJ/mol
# Density = 2.459489 g / cm^3
# Si number density = 24.650998 Si / 1000 Ang^3
#
#
#
# Elastic Constant Matrix: (Units=GPa)
#
#
# Indices 1 2 3 4 5 6 
#
# 1 124.0685 49.9886 65.9504 0.0000 0.0000 0.0000
# 2 49.9886 152.2835 82.1288 0.0000 0.0000 0.0000
# 3 65.9504 82.1288 149.8726 0.0000 0.0000 0.0000
# 4 0.0000 0.0000 0.0000 32.5875 0.0000 0.0000
# 5 0.0000 0.0000 0.0000 0.0000 49.2273 0.0000
# 6 0.0000 0.0000 0.0000 0.0000 0.0000 52.5843
#
#
#
# Elastic Compliance Matrix: (Units=1/GPa)
#
#
# Indices 1 2 3 4 5 6 
#
# 1 0.010723 -0.001384 -0.003960 0.000000 0.000000 0.000000
# 2 -0.001384 0.009500 -0.004597 0.000000 0.000000 0.000000
# 3 -0.003960 -0.004597 0.010934 0.000000 0.000000 0.000000
# 4 0.000000 0.000000 0.000000 0.030687 0.000000 0.000000
# 5 0.000000 0.000000 0.000000 0.000000 0.020314 0.000000
# 6 0.000000 0.000000 0.000000 0.000000 0.000000 0.019017
#
#
# Mechanical properties :
#
#
# Convention : Reuss Voigt Hill
#
# Bulk Modulus (GPa) = 88.69338 91.37336 90.03337
# Shear Modulus (GPa) = 40.05925 42.09026 41.07476
#
# Velocity S-wave (km/s) = 4.03557 4.13661 4.08640
# Velocity P-wave (km/s) = 7.60080 7.74356 7.67251
#
# Compressibility (1/GPa) = 0.01127480
#
# Stress axis : x y z
#
# Youngs Moduli (GPa) = 93.25984 105.25991 91.45802
#
# Poissons Ratio (x) = 0.14570 0.36217
# Poissons Ratio (y) = 0.12909 0.42043
# Poissons Ratio (z) = 0.36930 0.48388
#
# Static dielectric constant tensor:
#      x y z
#    x 4.574050 0.000000 0.000000 
#    y 0.000000 4.939940 0.000000 
#    z 0.000000 0.000000 4.280250 
# 
# 
# High freq. dielectric constant tensor:
#      x y z
#    x 2.009730 0.000000 0.000000 
#    y 0.000000 1.987810 0.000000 
#    z 0.000000 0.000000 1.977200 
# 
# From -- ./inp_files/5803.got.cif
#   From: 2010.03.12/outbox.cif.g09.slc.cpg/sg18_3_cif.got.tgz:5803.got - 2010.04.10 18:53:55.
