data_PCOD8156896
_publ_section_title
;
Structure prediction by ZEFSAII (Michael W. Deem and Ramdas Pophale) SiO2 
 PCOD8156896
Probable space group: P 21 21 21
;
_chemical_formula_sum "Si O2"
_cell_formula_units_Z 32
_cell_length_a 15.364964
_cell_length_b 10.942556
_cell_length_c 8.820541
_cell_angle_alpha 90.000000
_cell_angle_beta 90.000000
_cell_angle_gamma 90.000000
_cell_volume 1483.015014
_symmetry_space_group_name_H-M "P 21 21 21"
_symmetry_group_IT_number 19
_symmetry_cell_setting 'orthorhombic'
loop_
_space_group_symop_operation_xyz
x,y,z
1/2-x,-y,1/2+z
1/2+x,1/2-y,-z
-x,1/2+y,1/2-z
loop_
_atom_site_type_symbol
_atom_site_label
_atom_site_fract_x
_atom_site_fract_y
_atom_site_fract_z
Si Si1 0.976608 0.077857 0.952831
Si Si2 0.790875 0.986366 0.861515
Si Si3 0.386730 0.050533 0.659655
Si Si4 0.770711 0.399333 0.769794
Si Si5 0.120453 0.806194 0.448510
Si Si6 0.746946 0.728654 0.972482
Si Si7 0.134409 0.132268 0.780200
Si Si8 0.718971 0.156292 0.078209
O O1 0.958110 0.213080 0.018234
O O2 0.026836 0.994143 0.074924
O O3 0.033414 0.093451 0.797403
O O4 0.889356 0.005632 0.914750
O O5 0.790704 0.964376 0.682158
O O6 0.747338 0.872558 0.946655
O O7 0.733619 0.107038 0.906787
O O8 0.410535 0.086225 0.834691
O O9 0.343973 0.169901 0.582684
O O10 0.318929 0.938067 0.649984
O O11 0.747436 0.292175 0.652607
O O12 0.807344 0.514922 0.672404
O O13 0.842281 0.360145 0.893577
O O14 0.196677 0.731071 0.363376
O O15 0.833054 0.672574 0.887035
O O16 0.142247 0.245577 0.900567
#
# Coordination Sequence:
#
# PCOD8156896 Si02
#       8
#     4   4   4   4   4   4   4   4
#     4  11  25  40  63 100 145 170 221 299 356 398
#     4  10  23  41  64  93 134 179 221 288 339 407
#     4  11  20  43  65  94 136 174 221 291 325 409
#     4  11  21  38  74  98 118 184 235 270 333 413
#     4  11  23  41  66 100 136 176 229 289 347 403
#     4  10  21  39  70  94 126 175 240 266 322 423
#     4  10  20  41  65  96 131 173 224 292 330 408
#     4  10  21  43  65  91 130 177 235 269 332 421
#
# _framework density 21.577663999999999
#
# number of rings (size 3 to 8) (size 9 to 14) (size 15 to 20)
#    0.000    1.500    5.000    2.250    3.500    3.000 
#    4.500    0.000    0.000    0.000    0.000    0.000 
#    0.000    0.000    0.000    0.000    0.000    0.000 
#
# Total GULP energy -396522.400842 kJ/mol
# GULP energy per Si atom -12391.325026 kJ/mol
# Density = 2.152855 g / cm^3
# Si number density = 21.577664 Si / 1000 Ang^3
#
#
#
# Elastic Constant Matrix: (Units=GPa)
#
#
# Indices 1 2 3 4 5 6 
#
# 1 63.3775 23.3533 30.7893 0.0000 0.0000 0.0000
# 2 23.3533 70.8088 35.3080 0.0000 0.0000 0.0000
# 3 30.7893 35.3080 93.3740 0.0000 0.0000 0.0000
# 4 0.0000 0.0000 0.0000 42.5241 0.0000 0.0000
# 5 0.0000 0.0000 0.0000 0.0000 27.0273 0.0000
# 6 0.0000 0.0000 0.0000 0.0000 0.0000 39.1620
#
#
#
# Elastic Compliance Matrix: (Units=1/GPa)
#
#
# Indices 1 2 3 4 5 6 
#
# 1 0.019670 -0.004009 -0.004970 0.000000 0.000000 0.000000
# 2 -0.004009 0.018221 -0.005568 0.000000 0.000000 0.000000
# 3 -0.004970 -0.005568 0.014454 0.000000 0.000000 0.000000
# 4 0.000000 0.000000 0.000000 0.023516 0.000000 0.000000
# 5 0.000000 0.000000 0.000000 0.000000 0.037000 0.000000
# 6 0.000000 0.000000 0.000000 0.000000 0.000000 0.025535
#
#
# Mechanical properties :
#
#
# Convention : Reuss Voigt Hill
#
# Bulk Modulus (GPa) = 43.00930 45.16238 44.08584
# Shear Modulus (GPa) = 28.53213 30.95002 29.74107
#
# Velocity S-wave (km/s) = 3.64029 3.79140 3.71661
# Velocity P-wave (km/s) = 6.13551 6.33576 6.23644
#
# Compressibility (1/GPa) = 0.02325079
#
# Stress axis : x y z
#
# Youngs Moduli (GPa) = 50.83814 54.88095 69.18514
#
# Poissons Ratio (x) = 0.22002 0.34386
# Poissons Ratio (y) = 0.20382 0.38523
# Poissons Ratio (z) = 0.25267 0.30558
#
# Static dielectric constant tensor:
#      x y z
#    x 3.639880 0.000000 0.000000 
#    y 0.000000 4.132050 0.000000 
#    z 0.000000 0.000000 3.843200 
# 
# 
# High freq. dielectric constant tensor:
#      x y z
#    x 1.815100 0.000000 0.000000 
#    y 0.000000 1.860570 0.000000 
#    z 0.000000 0.000000 1.845790 
# 
# From -- ./inp_files/3948.got.cif
#   From: 2010.03.12/outbox.cif.g09.slc.cpg/sg19_2_cif.got.tgz:3948.got - 2010.04.10 18:59:41.
