data_PCOD8156958
_publ_section_title
;
Structure prediction by ZEFSAII (Michael W. Deem and Ramdas Pophale) SiO2 
 PCOD8156958
Probable space group: P 21 21 21
;
_chemical_formula_sum "Si O2"
_cell_formula_units_Z 32
_cell_length_a 8.815764
_cell_length_b 7.379232
_cell_length_c 23.791302
_cell_angle_alpha 90.000000
_cell_angle_beta 90.000000
_cell_angle_gamma 90.000000
_cell_volume 1547.709078
_symmetry_space_group_name_H-M "P 21 21 21"
_symmetry_group_IT_number 19
_symmetry_cell_setting 'orthorhombic'
loop_
_space_group_symop_operation_xyz
x,y,z
1/2-x,-y,1/2+z
1/2+x,1/2-y,-z
-x,1/2+y,1/2-z
loop_
_atom_site_type_symbol
_atom_site_label
_atom_site_fract_x
_atom_site_fract_y
_atom_site_fract_z
Si Si1 0.293772 0.657592 0.915600
Si Si2 0.263154 0.251209 0.037218
Si Si3 0.962777 0.658757 0.688107
Si Si4 0.617279 0.540558 0.890377
Si Si5 0.391569 0.693060 0.428533
Si Si6 0.526387 0.700305 0.134193
Si Si7 0.201284 0.332501 0.541180
Si Si8 0.645946 0.485971 0.299138
O O1 0.437865 0.571266 0.884193
O O2 0.160704 0.512200 0.924698
O O3 0.210472 0.803693 0.874737
O O4 0.334005 0.732967 0.977544
O O5 0.434478 0.192821 0.050376
O O6 0.234836 0.464185 0.045061
O O7 0.149900 0.149879 0.079569
O O8 0.214719 0.199725 0.973318
O O9 0.871287 0.716481 0.632528
O O10 0.036076 0.462844 0.673473
O O11 0.848032 0.618610 0.739622
O O12 0.092839 0.803285 0.705729
O O13 0.680218 0.703809 0.927839
O O14 0.689360 0.532968 0.827919
O O15 0.459467 0.675516 0.072025
O O16 0.478028 0.891121 0.161160
#
# Coordination Sequence:
#
# PCOD8156958 Si02
#       8
#     4   4   4   4   4   4   4   4
#     4  11  23  39  59  94 135 168 201 259 326 389
#     4  11  21  39  61  94 131 164 210 262 324 384
#     4  12  22  42  68  96 118 168 224 266 329 367
#     4  11  23  41  61  93 132 168 216 264 320 383
#     4  11  22  39  65  97 131 171 208 265 327 394
#     4  11  21  39  64  89 125 161 214 259 315 378
#     4  10  21  37  60  92 123 170 208 253 312 387
#     4  11  23  42  70  91 119 168 221 280 307 390
#
# _framework density 20.675719999999998
#
# number of rings (size 3 to 8) (size 9 to 14) (size 15 to 20)
#    0.000    1.000    5.000    3.000    1.750    1.000 
#    2.250    1.250    0.000    0.000    0.000    0.000 
#    0.000    0.000    0.000    0.000    0.000    0.000 
#
# Total GULP energy -396659.252622 kJ/mol
# GULP energy per Si atom -12395.601644 kJ/mol
# Density = 2.062866 g / cm^3
# Si number density = 20.675720 Si / 1000 Ang^3
#
#
#
# Elastic Constant Matrix: (Units=GPa)
#
#
# Indices 1 2 3 4 5 6 
#
# 1 91.8710 30.3282 37.8834 0.0000 0.0000 0.0000
# 2 30.3282 82.5049 11.2222 0.0000 0.0000 0.0000
# 3 37.8834 11.2222 119.8478 0.0000 0.0000 0.0000
# 4 0.0000 0.0000 0.0000 31.0327 0.0000 0.0000
# 5 0.0000 0.0000 0.0000 0.0000 18.2313 0.0000
# 6 0.0000 0.0000 0.0000 0.0000 0.0000 23.2371
#
#
#
# Elastic Compliance Matrix: (Units=1/GPa)
#
#
# Indices 1 2 3 4 5 6 
#
# 1 0.014066 -0.004625 -0.004013 0.000000 0.000000 0.000000
# 2 -0.004625 0.013797 0.000170 0.000000 0.000000 0.000000
# 3 -0.004013 0.000170 0.009597 0.000000 0.000000 0.000000
# 4 0.000000 0.000000 0.000000 0.032224 0.000000 0.000000
# 5 0.000000 0.000000 0.000000 0.000000 0.054851 0.000000
# 6 0.000000 0.000000 0.000000 0.000000 0.000000 0.043035
#
#
# Mechanical properties :
#
#
# Convention : Reuss Voigt Hill
#
# Bulk Modulus (GPa) = 48.72321 50.34347 49.53334
# Shear Modulus (GPa) = 26.13044 28.81955 27.47500
#
# Velocity S-wave (km/s) = 3.55889 3.73753 3.64930
# Velocity P-wave (km/s) = 6.36429 6.55953 6.46264
#
# Compressibility (1/GPa) = 0.02052410
#
# Stress axis : x y z
#
# Youngs Moduli (GPa) = 71.09106 72.47724 104.20364
#
# Poissons Ratio (x) = 0.33520 0.41820
# Poissons Ratio (y) = 0.32878 -0.01771
# Poissons Ratio (z) = 0.28531 -0.01232
#
# Static dielectric constant tensor:
#      x y z
#    x 3.514740 0.000000 0.000000 
#    y 0.000000 3.943750 0.000000 
#    z 0.000000 0.000000 3.999850 
# 
# 
# High freq. dielectric constant tensor:
#      x y z
#    x 1.778620 0.000000 0.000000 
#    y 0.000000 1.821080 0.000000 
#    z 0.000000 0.000000 1.811270 
# 
# From -- ./inp_files/7358.got.cif
#   From: 2010.03.12/outbox.cif.g09.slc.cpg/sg19_4_cif.got.tgz:7358.got - 2010.04.10 18:59:41.
