data_PCOD8156275
_publ_section_title
;
Structure prediction by ZEFSAII (Michael W. Deem and Ramdas Pophale) SiO2 
 PCOD8156275
Probable space group: P 21 21 2
;
_chemical_formula_sum "Si O2"
_cell_formula_units_Z 24
_cell_length_a 11.881400
_cell_length_b 16.454922
_cell_length_c 5.018726
_cell_angle_alpha 90.000000
_cell_angle_beta 90.000000
_cell_angle_gamma 90.000000
_cell_volume 981.198625
_symmetry_space_group_name_H-M "P 21 21 2"
_symmetry_group_IT_number 18
_symmetry_cell_setting 'orthorhombic'
loop_
_space_group_symop_operation_xyz
x,y,z
-x,-y,z
1/2+x,1/2-y,-z
1/2-x,1/2+y,-z
loop_
_atom_site_type_symbol
_atom_site_label
_atom_site_fract_x
_atom_site_fract_y
_atom_site_fract_z
Si Si1 0.701398 0.282313 0.556609
Si Si2 0.885623 0.544449 0.736960
Si Si3 0.737113 0.534693 0.211324
Si Si4 0.105207 0.812184 0.755973
Si Si5 0.088220 0.279164 0.952525
Si Si6 0.929751 0.928605 0.495181
O O1 0.832223 0.259267 0.587976
O O2 0.668761 0.271663 0.247707
O O3 0.669580 0.375819 0.649842
O O4 0.636130 0.219408 0.749530
O O5 0.803859 0.547931 0.485338
O O6 0.925131 0.631507 0.839286
O O7 0.000000 0.500000 0.657459
O O8 0.817516 0.500489 0.978386
O O9 0.690660 0.622877 0.110759
O O10 0.631350 0.474063 0.255907
O O11 0.032880 0.765071 0.976991
O O12 0.021642 0.861131 0.565020
O O13 0.000000 0.000000 0.333769
#
# Coordination Sequence:
#
# PCOD8156275 Si02
#       6
#     4   4   4   4   4   4
#     4  11  23  44  70  98 135 178 225 284 346 402
#     4  12  25  45  67 101 139 185 226 282 342 422
#     4  11  24  46  69  98 140 177 231 283 350 405
#     4  10  22  44  71  96 137 174 228 287 336 411
#     4  11  24  43  67 100 131 177 230 278 344 407
#     4   9  23  44  70 105 135 183 230 287 346 413
#
# _framework density 24.459880999999999
#
# number of rings (size 3 to 8) (size 9 to 14) (size 15 to 20)
#    0.000    1.333    3.333    0.500    2.333    9.333 
#    3.000    7.500    0.000    0.000    0.000    0.000 
#    0.000    0.000    0.000    0.000    0.000    0.000 
#
# Total GULP energy -297336.578818 kJ/mol
# GULP energy per Si atom -12389.024117 kJ/mol
# Density = 2.440421 g / cm^3
# Si number density = 24.459881 Si / 1000 Ang^3
#
#
#
# Elastic Constant Matrix: (Units=GPa)
#
#
# Indices 1 2 3 4 5 6 
#
# 1 134.3333 52.8901 25.2873 0.0000 0.0000 0.0000
# 2 52.8901 119.3128 3.6837 0.0000 0.0000 0.0000
# 3 25.2873 3.6837 79.3153 0.0000 0.0000 0.0000
# 4 0.0000 0.0000 0.0000 22.9175 0.0000 0.0000
# 5 0.0000 0.0000 0.0000 0.0000 24.3758 0.0000
# 6 0.0000 0.0000 0.0000 0.0000 0.0000 63.4758
#
#
#
# Elastic Compliance Matrix: (Units=1/GPa)
#
#
# Indices 1 2 3 4 5 6 
#
# 1 0.009632 -0.004181 -0.002877 0.000000 0.000000 0.000000
# 2 -0.004181 0.010208 0.000859 0.000000 0.000000 0.000000
# 3 -0.002877 0.000859 0.013485 0.000000 0.000000 0.000000
# 4 0.000000 0.000000 0.000000 0.043635 0.000000 0.000000
# 5 0.000000 0.000000 0.000000 0.000000 0.041024 0.000000
# 6 0.000000 0.000000 0.000000 0.000000 0.000000 0.015754
#
#
# Mechanical properties :
#
#
# Convention : Reuss Voigt Hill
#
# Bulk Modulus (GPa) = 47.78339 55.18707 51.48523
# Shear Modulus (GPa) = 32.65597 38.89384 35.77490
#
# Velocity S-wave (km/s) = 3.65784 3.99194 3.82854
# Velocity P-wave (km/s) = 6.11699 6.62259 6.37481
#
# Compressibility (1/GPa) = 0.02092777
#
# Stress axis : x y z
#
# Youngs Moduli (GPa) = 103.82315 97.96106 74.15567
#
# Poissons Ratio (x) = 0.40956 0.21332
# Poissons Ratio (y) = 0.43407 -0.06369
# Poissons Ratio (z) = 0.29866 -0.08413
#
# Static dielectric constant tensor:
#      x y z
#    x 4.908100 0.000000 0.000000 
#    y 0.000000 4.854070 0.000000 
#    z 0.000000 0.000000 3.895550 
# 
# 
# High freq. dielectric constant tensor:
#      x y z
#    x 1.988970 0.000000 0.000000 
#    y 0.000000 1.982420 0.000000 
#    z 0.000000 0.000000 1.932900 
# 
# From -- ./inp_files/1109.got.cif
#   From: 2010.03.12/outbox.cif.g09.slc.cpg/sg18_1_cif.got.tgz:1109.got - 2010.04.10 18:53:55.
