data_PCOD8156628
_publ_section_title
;
Structure prediction by ZEFSAII (Michael W. Deem and Ramdas Pophale) SiO2 
 PCOD8156628
Probable space group: P 21 21 21
;
_chemical_formula_sum "Si O2"
_cell_formula_units_Z 32
_cell_length_a 19.137617
_cell_length_b 15.230127
_cell_length_c 5.316945
_cell_angle_alpha 90.000000
_cell_angle_beta 90.000000
_cell_angle_gamma 90.000000
_cell_volume 1549.721119
_symmetry_space_group_name_H-M "P 21 21 21"
_symmetry_group_IT_number 19
_symmetry_cell_setting 'orthorhombic'
loop_
_space_group_symop_operation_xyz
x,y,z
1/2-x,-y,1/2+z
1/2+x,1/2-y,-z
-x,1/2+y,1/2-z
loop_
_atom_site_type_symbol
_atom_site_label
_atom_site_fract_x
_atom_site_fract_y
_atom_site_fract_z
Si Si1 0.710412 0.315691 0.749771
Si Si2 0.948006 0.122435 0.749570
Si Si3 0.788707 0.307268 0.249928
Si Si4 0.841423 0.499852 0.253591
Si Si5 0.987157 0.815982 0.750799
Si Si6 0.912835 0.177344 0.249533
Si Si7 0.938787 0.768754 0.250836
Si Si8 0.070400 0.985732 0.746404
O O1 0.747197 0.277557 0.499913
O O2 0.714882 0.421539 0.748931
O O3 0.629452 0.290674 0.750312
O O4 0.747454 0.277671 0.999303
O O5 0.899916 0.118138 0.498505
O O6 0.986259 0.216417 0.748272
O O7 0.899564 0.118660 0.999815
O O8 0.999982 0.041305 0.751802
O O9 0.797532 0.411309 0.249754
O O10 0.864464 0.262925 0.250631
O O11 0.885644 0.509133 0.508100
O O12 0.889367 0.508500 0.007817
O O13 0.940413 0.830286 0.499990
O O14 0.052460 0.882301 0.749971
O O15 0.940680 0.830501 0.002156
O O16 0.993818 0.205930 0.248351
#
# Coordination Sequence:
#
# PCOD8156628 Si02
#       8
#     4   4   4   4   4   4   4   4
#     4  12  24  39  58  87 123 166 202 239 299 367
#     4  10  19  34  54  85 116 148 194 248 293 340
#     4  12  24  39  58  87 123 166 202 239 299 367
#     4  12  22  37  54  84 130 169 196 228 282 375
#     4  10  19  34  54  85 116 148 194 248 293 340
#     4  10  20  37  58  80 112 151 198 249 287 335
#     4  10  20  37  58  80 112 151 198 249 287 335
#     4  12  22  35  62  92 122 163 198 246 304 349
#
# _framework density 20.648878
#
# number of rings (size 3 to 8) (size 9 to 14) (size 15 to 20)
#    0.000    1.000    0.000   11.250    0.000    0.000 
#    0.000    0.000    0.000    0.000    0.000   17.500 
#    0.000    0.000    0.000    0.000    0.000    0.000 
#
# Total GULP energy -396746.325680 kJ/mol
# GULP energy per Si atom -12398.322677 kJ/mol
# Density = 2.060188 g / cm^3
# Si number density = 20.648878 Si / 1000 Ang^3
#
#
#
# Elastic Constant Matrix: (Units=GPa)
#
#
# Indices 1 2 3 4 5 6 
#
# 1 31.9821 -0.5700 21.6709 0.0000 0.0000 0.0000
# 2 -0.5700 22.2033 12.8721 0.0000 0.0000 0.0000
# 3 21.6709 12.8721 201.1379 0.0000 0.0000 0.0000
# 4 0.0000 0.0000 0.0000 17.3940 0.0000 0.0000
# 5 0.0000 0.0000 0.0000 0.0000 29.6481 0.0000
# 6 0.0000 0.0000 0.0000 0.0000 0.0000 37.1782
#
#
#
# Elastic Compliance Matrix: (Units=1/GPa)
#
#
# Indices 1 2 3 4 5 6 
#
# 1 0.033935 0.003106 -0.003855 0.000000 0.000000 0.000000
# 2 0.003106 0.047058 -0.003346 0.000000 0.000000 0.000000
# 3 -0.003855 -0.003346 0.005601 0.000000 0.000000 0.000000
# 4 0.000000 0.000000 0.000000 0.057491 0.000000 0.000000
# 5 0.000000 0.000000 0.000000 0.000000 0.033729 0.000000
# 6 0.000000 0.000000 0.000000 0.000000 0.000000 0.026897
#
#
# Mechanical properties :
#
#
# Convention : Reuss Voigt Hill
#
# Bulk Modulus (GPa) = 12.75442 35.91878 24.33660
# Shear Modulus (GPa) = 20.91729 31.60075 26.25902
#
# Velocity S-wave (km/s) = 3.18622 3.91626 3.56995
# Velocity P-wave (km/s) = 4.44142 6.15485 5.36696
#
# Compressibility (1/GPa) = 0.07840417
#
# Stress axis : x y z
#
# Youngs Moduli (GPa) = 29.46808 21.25033 178.53316
#
# Poissons Ratio (x) = -0.06601 0.68824
# Poissons Ratio (y) = -0.09153 0.59741
# Poissons Ratio (z) = 0.11360 0.07111
#
# Static dielectric constant tensor:
#      x y z
#    x 3.431310 0.000000 0.000000 
#    y 0.000000 3.403630 0.000000 
#    z 0.000000 0.000000 6.394760 
# 
# 
# High freq. dielectric constant tensor:
#      x y z
#    x 1.776850 0.000000 0.000000 
#    y 0.000000 1.766500 0.000000 
#    z 0.000000 0.000000 1.857660 
# 
# From -- ./inp_files/1807.got.cif
#   From: 2010.03.12/outbox.cif.g09.slc.cpg/sg19_1_cif.got.tgz:1807.got - 2010.04.10 18:59:41.
