data_PCOD8156934
_publ_section_title
;
Structure prediction by ZEFSAII (Michael W. Deem and Ramdas Pophale) SiO2 
 PCOD8156934
Probable space group: P 21 21 21
;
_chemical_formula_sum "Si O2"
_cell_formula_units_Z 20
_cell_length_a 8.343753
_cell_length_b 11.296752
_cell_length_c 7.694452
_cell_angle_alpha 90.000000
_cell_angle_beta 90.000000
_cell_angle_gamma 90.000000
_cell_volume 725.258335
_symmetry_space_group_name_H-M "P 21 21 21"
_symmetry_group_IT_number 19
_symmetry_cell_setting 'orthorhombic'
loop_
_space_group_symop_operation_xyz
x,y,z
1/2-x,-y,1/2+z
1/2+x,1/2-y,-z
-x,1/2+y,1/2-z
loop_
_atom_site_type_symbol
_atom_site_label
_atom_site_fract_x
_atom_site_fract_y
_atom_site_fract_z
Si Si1 0.289815 0.372896 0.938475
Si Si2 0.037425 0.959477 0.636461
Si Si3 0.268742 0.122279 0.827724
Si Si4 0.150964 0.718234 0.788546
Si Si5 0.988805 0.213876 0.353995
O O1 0.212000 0.239389 0.933737
O O2 0.436449 0.379615 0.798474
O O3 0.155044 0.471093 0.896450
O O4 0.348266 0.383767 0.138535
O O5 0.132484 0.965791 0.453493
O O6 0.055968 0.833342 0.728638
O O7 0.108019 0.060981 0.760606
O O8 0.387787 0.164058 0.672081
O O9 0.326504 0.755920 0.848586
O O10 0.054553 0.662024 0.954620
#
# Coordination Sequence:
#
# PCOD8156934 Si02
#       5
#     4   4   4   4   4
#     4   9  20  39  60  89 126 162 203 263 314 359
#     4  11  19  38  65  89 127 161 209 261 306 377
#     4   9  21  35  62  95 118 162 211 247 311 373
#     4  11  19  35  60  88 124 161 205 250 307 369
#     4  10  21  35  59  91 119 162 206 245 312 366
#
# _framework density 27.576381000000001
#
# number of rings (size 3 to 8) (size 9 to 14) (size 15 to 20)
#    1.200    0.800    2.000    2.400    0.000    0.000 
#    0.000    0.000    4.400    4.800    0.000    0.000 
#    0.000    0.000    0.000    0.000    0.000    0.000 
#
# Total GULP energy -247948.089078 kJ/mol
# GULP energy per Si atom -12397.404454 kJ/mol
# Density = 2.751362 g / cm^3
# Si number density = 27.576381 Si / 1000 Ang^3
#
#
#
# Elastic Constant Matrix: (Units=GPa)
#
#
# Indices 1 2 3 4 5 6 
#
# 1 149.9997 -6.4424 55.0414 0.0000 0.0000 0.0000
# 2 -6.4424 31.2918 -0.5831 0.0000 0.0000 0.0000
# 3 55.0414 -0.5831 199.2276 0.0000 0.0000 0.0000
# 4 0.0000 0.0000 0.0000 35.9308 0.0000 0.0000
# 5 0.0000 0.0000 0.0000 0.0000 51.0024 0.0000
# 6 0.0000 0.0000 0.0000 0.0000 0.0000 29.5619
#
#
#
# Elastic Compliance Matrix: (Units=1/GPa)
#
#
# Indices 1 2 3 4 5 6 
#
# 1 0.007489 0.001503 -0.002065 0.000000 0.000000 0.000000
# 2 0.001503 0.032261 -0.000321 0.000000 0.000000 0.000000
# 3 -0.002065 -0.000321 0.005589 0.000000 0.000000 0.000000
# 4 0.000000 0.000000 0.000000 0.027831 0.000000 0.000000
# 5 0.000000 0.000000 0.000000 0.000000 0.019607 0.000000
# 6 0.000000 0.000000 0.000000 0.000000 0.000000 0.033827
#
#
# Mechanical properties :
#
#
# Convention : Reuss Voigt Hill
#
# Bulk Modulus (GPa) = 22.94939 52.95011 37.94975
# Shear Modulus (GPa) = 34.99124 45.46591 40.22858
#
# Velocity S-wave (km/s) = 3.56600 4.06486 3.82357
# Velocity P-wave (km/s) = 5.02945 6.42446 5.76927
#
# Compressibility (1/GPa) = 0.04357414
#
# Stress axis : x y z
#
# Youngs Moduli (GPa) = 133.53228 30.99740 178.92827
#
# Poissons Ratio (x) = -0.04660 0.36941
# Poissons Ratio (y) = -0.20074 0.05742
# Poissons Ratio (z) = 0.27569 0.00995
#
# Static dielectric constant tensor:
#      x y z
#    x 4.705010 0.000000 0.000000 
#    y 0.000000 4.636980 0.000000 
#    z 0.000000 0.000000 5.224390 
# 
# 
# High freq. dielectric constant tensor:
#      x y z
#    x 2.119430 0.000000 0.000000 
#    y 0.000000 2.100640 0.000000 
#    z 0.000000 0.000000 2.122440 
# 
# From -- ./inp_files/2699.got.cif
#   From: 2010.03.12/outbox.cif.g09.slc.cpg/sg19_2_cif.got.tgz:2699.got - 2010.04.10 18:59:41.
