data_PCOD8156053
_publ_section_title
;
Structure prediction by ZEFSAII (Michael W. Deem and Ramdas Pophale) SiO2 
 PCOD8156053
Probable space group: P 21 21 2
;
_chemical_formula_sum "Si O2"
_cell_formula_units_Z 30
_cell_length_a 8.682309
_cell_length_b 19.075176
_cell_length_c 8.324271
_cell_angle_alpha 90.000000
_cell_angle_beta 90.000000
_cell_angle_gamma 90.000000
_cell_volume 1378.637230
_symmetry_space_group_name_H-M "P 21 21 2"
_symmetry_group_IT_number 18
_symmetry_cell_setting 'orthorhombic'
loop_
_space_group_symop_operation_xyz
x,y,z
-x,-y,z
1/2+x,1/2-y,-z
1/2-x,1/2+y,-z
loop_
_atom_site_type_symbol
_atom_site_label
_atom_site_fract_x
_atom_site_fract_y
_atom_site_fract_z
Si Si1 0.082837 0.376787 0.783945
Si Si2 0.263665 0.646613 0.812594
Si Si3 0.500805 0.734626 0.654698
Si Si4 0.588171 0.604882 0.177411
Si Si5 0.500000 0.000000 0.998700
Si Si6 0.243425 0.341108 0.471644
Si Si7 0.797551 0.226870 0.041246
Si Si8 0.806903 0.958293 0.926317
O O1 0.185555 0.386177 0.623580
O O2 0.148411 0.311388 0.884625
O O3 0.905849 0.361797 0.736710
O O4 0.096135 0.446851 0.889169
O O5 0.384790 0.668518 0.675384
O O6 0.263365 0.705895 0.949553
O O7 0.322452 0.574771 0.894601
O O8 0.625371 0.715333 0.518768
O O9 0.403187 0.802254 0.604311
O O10 0.585608 0.751890 0.821110
O O11 0.680387 0.605492 0.344595
O O12 0.403532 0.589912 0.200574
O O13 0.639219 0.538874 0.069455
O O14 0.613505 0.676338 0.082195
O O15 0.377128 0.041367 0.886418
#
# Coordination Sequence:
#
# PCOD8156053 Si02
#       8
#     4   4   4   4   2   4   4   4
#     4  10  23  40  64  94 131 177 210 270 331 399
#     4  11  21  38  67 101 122 165 224 272 323 388
#     4  11  23  41  62  95 130 174 211 267 323 397
#     4  11  22  41  63  93 131 168 218 271 331 388
#     4  10  20  44  66  96 126 168 230 264 330 392
#     4  11  25  40  62  95 142 172 214 267 342 400
#     4  11  21  38  68  93 124 166 223 272 321 377
#     4  10  23  39  66  96 126 166 220 282 316 388
#
# _framework density 21.760618999999998
#
# number of rings (size 3 to 8) (size 9 to 14) (size 15 to 20)
#    0.000    1.333    4.000    1.600    0.000    1.067 
#    0.000    8.667    0.000    0.000    0.000    0.000 
#    0.000    0.000    0.000    0.000    0.000    0.000 
#
# Total GULP energy -371883.590411 kJ/mol
# GULP energy per Si atom -12396.119680 kJ/mol
# Density = 2.171109 g / cm^3
# Si number density = 21.760619 Si / 1000 Ang^3
#
#
#
# Elastic Constant Matrix: (Units=GPa)
#
#
# Indices 1 2 3 4 5 6 
#
# 1 128.0778 35.4032 51.4100 0.0000 0.0000 0.0000
# 2 35.4032 81.0060 37.1852 0.0000 0.0000 0.0000
# 3 51.4100 37.1852 83.3709 0.0000 0.0000 0.0000
# 4 0.0000 0.0000 0.0000 19.5554 0.0000 0.0000
# 5 0.0000 0.0000 0.0000 0.0000 35.3386 0.0000
# 6 0.0000 0.0000 0.0000 0.0000 0.0000 42.2373
#
#
#
# Elastic Compliance Matrix: (Units=1/GPa)
#
#
# Indices 1 2 3 4 5 6 
#
# 1 0.010643 -0.002061 -0.005644 0.000000 0.000000 0.000000
# 2 -0.002061 0.015922 -0.005831 0.000000 0.000000 0.000000
# 3 -0.005644 -0.005831 0.018075 0.000000 0.000000 0.000000
# 4 0.000000 0.000000 0.000000 0.051137 0.000000 0.000000
# 5 0.000000 0.000000 0.000000 0.000000 0.028298 0.000000
# 6 0.000000 0.000000 0.000000 0.000000 0.000000 0.023676
#
#
# Mechanical properties :
#
#
# Convention : Reuss Voigt Hill
#
# Bulk Modulus (GPa) = 56.91600 60.05018 58.48309
# Shear Modulus (GPa) = 27.67369 30.65669 29.16519
#
# Velocity S-wave (km/s) = 3.57000 3.75749 3.66495
# Velocity P-wave (km/s) = 6.57309 6.81767 6.69650
#
# Compressibility (1/GPa) = 0.01756975
#
# Stress axis : x y z
#
# Youngs Moduli (GPa) = 93.96115 62.80630 55.32390
#
# Poissons Ratio (x) = 0.12942 0.31223
# Poissons Ratio (y) = 0.19362 0.32259
# Poissons Ratio (z) = 0.53028 0.36621
#
# Static dielectric constant tensor:
#      x y z
#    x 4.540020 0.000000 0.000000 
#    y 0.000000 3.812210 0.000000 
#    z 0.000000 0.000000 3.711360 
# 
# 
# High freq. dielectric constant tensor:
#      x y z
#    x 1.885270 0.000000 0.000000 
#    y 0.000000 1.845580 0.000000 
#    z 0.000000 0.000000 1.821080 
# 
# From -- ./inp_files/3496.got.cif
#   From: 2010.03.12/outbox.cif.g09.slc.cpg/sg18_2_cif.got.tgz:3496.got - 2010.04.10 18:53:55.
