data_PCOD8156057
_publ_section_title
;
Structure prediction by ZEFSAII (Michael W. Deem and Ramdas Pophale) SiO2 
 PCOD8156057
Probable space group: P 21 21 2
;
_chemical_formula_sum "Si O2"
_cell_formula_units_Z 30
_cell_length_a 12.382166
_cell_length_b 18.717400
_cell_length_c 5.249603
_cell_angle_alpha 90.000000
_cell_angle_beta 90.000000
_cell_angle_gamma 90.000000
_cell_volume 1216.658248
_symmetry_space_group_name_H-M "P 21 21 2"
_symmetry_group_IT_number 18
_symmetry_cell_setting 'orthorhombic'
loop_
_space_group_symop_operation_xyz
x,y,z
-x,-y,z
1/2+x,1/2-y,-z
1/2-x,1/2+y,-z
loop_
_atom_site_type_symbol
_atom_site_label
_atom_site_fract_x
_atom_site_fract_y
_atom_site_fract_z
Si Si1 0.947254 0.240667 0.895557
Si Si2 0.285042 0.050862 0.657123
Si Si3 0.000000 0.000000 0.292383
Si Si4 0.597251 0.805459 0.605699
Si Si5 0.281484 0.819252 0.970939
Si Si6 0.565223 0.374611 0.376756
Si Si7 0.173397 0.261399 0.528475
Si Si8 0.233368 0.975601 0.139476
O O1 0.975522 0.289567 0.644643
O O2 0.817919 0.233804 0.918109
O O3 0.999115 0.161026 0.859033
O O4 0.978304 0.282306 0.154917
O O5 0.375761 0.110608 0.617526
O O6 0.169119 0.084105 0.722869
O O7 0.281288 0.998796 0.412788
O O8 0.308769 0.008110 0.916696
O O9 0.010670 0.928657 0.466352
O O10 0.107864 0.001463 0.120443
O O11 0.701025 0.755282 0.579936
O O12 0.338855 0.822550 0.691000
O O13 0.364025 0.785460 0.182502
O O14 0.238839 0.891552 0.096908
O O15 0.608827 0.309958 0.556928
#
# Coordination Sequence:
#
# PCOD8156057 Si02
#       8
#     4   4   2   4   4   4   4   4
#     4  10  21  32  59  80 114 153 199 243 287 347
#     4  10  22  38  57  83 124 159 195 236 297 368
#     4  10  26  36  58  90 136 160 186 240 312 392
#     4   9  19  37  54  80 109 156 201 243 282 340
#     4  10  21  36  58  80 115 157 210 238 280 344
#     4  10  23  38  58  88 127 162 192 238 309 363
#     4   9  20  38  55  78 113 162 203 244 273 346
#     4  11  23  36  58  87 121 162 195 235 302 365
#
# _framework density 24.657705
#
# number of rings (size 3 to 8) (size 9 to 14) (size 15 to 20)
#    0.000    2.133    0.000    1.600   11.200    9.067 
#    0.000    0.000    0.000    0.000    0.000   14.000 
#    0.000    0.000    0.000    0.000    0.000    0.000 
#
# Total GULP energy -371774.235626 kJ/mol
# GULP energy per Si atom -12392.474521 kJ/mol
# Density = 2.460158 g / cm^3
# Si number density = 24.657705 Si / 1000 Ang^3
#
#
#
# Elastic Constant Matrix: (Units=GPa)
#
#
# Indices 1 2 3 4 5 6 
#
# 1 17.5413 5.4070 41.7136 0.0000 0.0000 0.0000
# 2 5.4070 106.1658 78.1533 0.0000 0.0000 0.0000
# 3 41.7136 78.1533 208.4976 0.0000 0.0000 0.0000
# 4 0.0000 0.0000 0.0000 44.2347 0.0000 0.0000
# 5 0.0000 0.0000 0.0000 0.0000 22.9794 0.0000
# 6 0.0000 0.0000 0.0000 0.0000 0.0000 39.7681
#
#
#
# Elastic Compliance Matrix: (Units=1/GPa)
#
#
# Indices 1 2 3 4 5 6 
#
# 1 0.127639 0.016984 -0.031903 0.000000 0.000000 0.000000
# 2 0.016984 0.015269 -0.009121 0.000000 0.000000 0.000000
# 3 -0.031903 -0.009121 0.014598 0.000000 0.000000 0.000000
# 4 0.000000 0.000000 0.000000 0.022607 0.000000 0.000000
# 5 0.000000 0.000000 0.000000 0.000000 0.043517 0.000000
# 6 0.000000 0.000000 0.000000 0.000000 0.000000 0.025146
#
#
# Mechanical properties :
#
#
# Convention : Reuss Voigt Hill
#
# Bulk Modulus (GPa) = 9.13858 64.75026 36.94442
# Shear Modulus (GPa) = 15.00013 35.19182 25.09598
#
# Velocity S-wave (km/s) = 2.46912 3.78195 3.19372
# Velocity P-wave (km/s) = 3.44136 6.73702 5.34932
#
# Compressibility (1/GPa) = 0.10942617
#
# Stress axis : x y z
#
# Youngs Moduli (GPa) = 7.83460 65.49260 68.50246
#
# Poissons Ratio (x) = -1.11236 2.18542
# Poissons Ratio (y) = -0.13307 0.62484
# Poissons Ratio (z) = 0.24995 0.59739
#
# Static dielectric constant tensor:
#      x y z
#    x 4.301550 0.000000 0.000000 
#    y 0.000000 4.283430 0.000000 
#    z 0.000000 0.000000 4.827100 
# 
# 
# High freq. dielectric constant tensor:
#      x y z
#    x 1.981690 0.000000 0.000000 
#    y 0.000000 1.960520 0.000000 
#    z 0.000000 0.000000 1.995570 
# 
# From -- ./inp_files/1608.got.cif
#   From: 2010.03.12/outbox.cif.g09.slc.cpg/sg18_1_cif.got.tgz:1608.got - 2010.04.10 18:53:55.
