data_PCOD8156362
_publ_section_title
;
Structure prediction by ZEFSAII (Michael W. Deem and Ramdas Pophale) SiO2 
 PCOD8156362
Probable space group: P 21 21 2
;
_chemical_formula_sum "Si O2"
_cell_formula_units_Z 24
_cell_length_a 8.933851
_cell_length_b 9.510100
_cell_length_c 13.062997
_cell_angle_alpha 90.000000
_cell_angle_beta 90.000000
_cell_angle_gamma 90.000000
_cell_volume 1109.855953
_symmetry_space_group_name_H-M "P 21 21 2"
_symmetry_group_IT_number 18
_symmetry_cell_setting 'orthorhombic'
loop_
_space_group_symop_operation_xyz
x,y,z
-x,-y,z
1/2+x,1/2-y,-z
1/2-x,1/2+y,-z
loop_
_atom_site_type_symbol
_atom_site_label
_atom_site_fract_x
_atom_site_fract_y
_atom_site_fract_z
Si Si1 0.141855 0.096364 0.071695
Si Si2 0.355342 0.252932 0.424430
Si Si3 0.333179 0.536664 0.697987
Si Si4 0.169000 0.985751 0.737547
Si Si5 0.149002 0.419381 0.066250
Si Si6 0.801812 0.730889 0.633403
O O1 0.124695 0.256901 0.029070
O O2 0.163646 0.113014 0.192904
O O3 0.000000 0.000000 0.044231
O O4 0.281437 0.014894 0.023290
O O5 0.315488 0.393224 0.363750
O O6 0.320357 0.275960 0.543132
O O7 0.530358 0.218383 0.410236
O O8 0.246954 0.130258 0.386831
O O9 0.500000 0.500000 0.659784
O O10 0.232648 0.397491 0.709118
O O11 0.252955 0.916079 0.831743
O O12 0.231755 0.136414 0.704995
O O13 0.000000 0.000000 0.775560
O O14 0.000000 0.500000 0.097389
#
# Coordination Sequence:
#
# PCOD8156362 Si02
#       6
#     4   4   4   4   4   4
#     4  11  26  47  69 101 140 175 225 281 342 411
#     4  11  22  44  62 100 132 177 228 277 345 397
#     4  11  24  42  66  95 136 175 224 279 334 401
#     4  10  24  43  65  95 135 173 222 276 338 402
#     4  12  26  44  74 101 134 177 226 280 344 410
#     4  11  24  38  70  94 135 179 223 283 335 411
#
# _framework density 21.624428000000002
#
# number of rings (size 3 to 8) (size 9 to 14) (size 15 to 20)
#    0.000    1.000    1.667    4.000    7.000    4.000 
#    0.000    0.000    0.000    0.000    0.000    0.000 
#    0.000    0.000    0.000    0.000    0.000    0.000 
#
# Total GULP energy -297660.934227 kJ/mol
# GULP energy per Si atom -12402.538926 kJ/mol
# Density = 2.157521 g / cm^3
# Si number density = 21.624428 Si / 1000 Ang^3
#
#
#
# Elastic Constant Matrix: (Units=GPa)
#
#
# Indices 1 2 3 4 5 6 
#
# 1 85.2486 47.1808 20.0218 0.0000 0.0000 0.0000
# 2 47.1808 159.8088 12.5868 0.0000 0.0000 0.0000
# 3 20.0218 12.5868 45.8767 0.0000 0.0000 0.0000
# 4 0.0000 0.0000 0.0000 5.4767 0.0000 0.0000
# 5 0.0000 0.0000 0.0000 0.0000 21.5353 0.0000
# 6 0.0000 0.0000 0.0000 0.0000 0.0000 36.7906
#
#
#
# Elastic Compliance Matrix: (Units=1/GPa)
#
#
# Indices 1 2 3 4 5 6 
#
# 1 0.015291 -0.004077 -0.005555 0.000000 0.000000 0.000000
# 2 -0.004077 0.007483 -0.000274 0.000000 0.000000 0.000000
# 3 -0.005555 -0.000274 0.024297 0.000000 0.000000 0.000000
# 4 0.000000 0.000000 0.000000 0.182591 0.000000 0.000000
# 5 0.000000 0.000000 0.000000 0.000000 0.046435 0.000000
# 6 0.000000 0.000000 0.000000 0.000000 0.000000 0.027181
#
#
# Mechanical properties :
#
#
# Convention : Reuss Voigt Hill
#
# Bulk Modulus (GPa) = 36.68404 50.05697 43.37050
# Shear Modulus (GPa) = 15.05226 26.83685 20.94455
#
# Velocity S-wave (km/s) = 2.64119 3.52667 3.11555
# Velocity P-wave (km/s) = 5.12856 6.30728 5.74821
#
# Compressibility (1/GPa) = 0.02725981
#
# Stress axis : x y z
#
# Youngs Moduli (GPa) = 65.39583 133.64156 41.15732
#
# Poissons Ratio (x) = 0.54486 0.22863
# Poissons Ratio (y) = 0.26662 0.01126
# Poissons Ratio (z) = 0.36328 0.03657
#
# Static dielectric constant tensor:
#      x y z
#    x 4.019610 0.000000 0.000000 
#    y 0.000000 4.457280 0.000000 
#    z 0.000000 0.000000 3.660160 
# 
# 
# High freq. dielectric constant tensor:
#      x y z
#    x 1.855640 0.000000 0.000000 
#    y 0.000000 1.868470 0.000000 
#    z 0.000000 0.000000 1.845690 
# 
# From -- ./inp_files/6658.got.cif
#   From: 2010.03.12/outbox.cif.g09.slc.cpg/sg18_4_cif.got.tgz:6658.got - 2010.04.10 18:53:55.
