data_PCOD8156677
_publ_section_title
;
Structure prediction by ZEFSAII (Michael W. Deem and Ramdas Pophale) SiO2 
 PCOD8156677
Probable space group: P 21 21 21
;
_chemical_formula_sum "Si O2"
_cell_formula_units_Z 28
_cell_length_a 12.080204
_cell_length_b 11.898503
_cell_length_c 8.558667
_cell_angle_alpha 90.000000
_cell_angle_beta 90.000000
_cell_angle_gamma 90.000000
_cell_volume 1230.191500
_symmetry_space_group_name_H-M "P 21 21 21"
_symmetry_group_IT_number 19
_symmetry_cell_setting 'orthorhombic'
loop_
_space_group_symop_operation_xyz
x,y,z
1/2-x,-y,1/2+z
1/2+x,1/2-y,-z
-x,1/2+y,1/2-z
loop_
_atom_site_type_symbol
_atom_site_label
_atom_site_fract_x
_atom_site_fract_y
_atom_site_fract_z
Si Si1 0.029770 0.635210 0.302635
Si Si2 0.127860 0.815085 0.501913
Si Si3 0.760911 0.439842 0.274373
Si Si4 0.385344 0.302734 0.492663
Si Si5 0.029949 0.022650 0.675373
Si Si6 0.281480 0.815539 0.783835
Si Si7 0.041880 0.937112 0.014409
O O1 0.913931 0.681394 0.229174
O O2 0.028490 0.502999 0.350940
O O3 0.054167 0.707224 0.458051
O O4 0.123960 0.649045 0.169099
O O5 0.182682 0.851525 0.338900
O O6 0.222376 0.775870 0.622857
O O7 0.047311 0.911884 0.568529
O O8 0.640254 0.399156 0.332520
O O9 0.737869 0.557934 0.185598
O O10 0.831942 0.462071 0.430587
O O11 0.429247 0.402293 0.383948
O O12 0.265674 0.262104 0.425990
O O13 0.471768 0.197455 0.502328
O O14 0.005058 0.990233 0.852341
#
# Coordination Sequence:
#
# PCOD8156677 Si02
#       7
#     4   4   4   4   4   4   4
#     4  11  25  40  69  96 139 167 220 274 333 380
#     4  11  21  39  68  98 132 173 222 271 332 385
#     4  10  19  37  65  99 126 163 226 282 320 375
#     4  12  24  40  67  96 134 169 218 271 329 392
#     4  11  22  36  67  96 131 167 218 275 330 376
#     4  10  23  40  63 102 129 170 223 278 315 395
#     4  11  22  40  61  99 131 161 221 271 321 385
#
# _framework density 22.760681999999999
#
# number of rings (size 3 to 8) (size 9 to 14) (size 15 to 20)
#    0.000    1.143    4.286    5.143    2.000    0.000 
#    0.000    0.000    6.286    1.714    0.000    0.000 
#    0.000    0.000    0.000    0.000    0.000    0.000 
#
# Total GULP energy -346908.856993 kJ/mol
# GULP energy per Si atom -12389.602035 kJ/mol
# Density = 2.270888 g / cm^3
# Si number density = 22.760682 Si / 1000 Ang^3
#
#
#
# Elastic Constant Matrix: (Units=GPa)
#
#
# Indices 1 2 3 4 5 6 
#
# 1 21.1478 -19.7056 -2.9563 0.0000 0.0000 0.0000
# 2 -19.7056 33.6578 13.1547 0.0000 0.0000 0.0000
# 3 -2.9563 13.1547 102.3720 0.0000 0.0000 0.0000
# 4 0.0000 0.0000 0.0000 32.9937 0.0000 0.0000
# 5 0.0000 0.0000 0.0000 0.0000 35.1707 0.0000
# 6 0.0000 0.0000 0.0000 0.0000 0.0000 29.5924
#
#
#
# Elastic Compliance Matrix: (Units=1/GPa)
#
#
# Indices 1 2 3 4 5 6 
#
# 1 0.106618 0.064455 -0.005204 0.000000 0.000000 0.000000
# 2 0.064455 0.070248 -0.007165 0.000000 0.000000 0.000000
# 3 -0.005204 -0.007165 0.010539 0.000000 0.000000 0.000000
# 4 0.000000 0.000000 0.000000 0.030309 0.000000 0.000000
# 5 0.000000 0.000000 0.000000 0.000000 0.028433 0.000000
# 6 0.000000 0.000000 0.000000 0.000000 0.000000 0.033793
#
#
# Mechanical properties :
#
#
# Convention : Reuss Voigt Hill
#
# Bulk Modulus (GPa) = 3.42961 15.35149 9.39055
# Shear Modulus (GPa) = 18.31777 30.66367 24.49072
#
# Velocity S-wave (km/s) = 2.83998 3.67443 3.28382
# Velocity P-wave (km/s) = 3.50200 4.97608 4.30264
#
# Compressibility (1/GPa) = 0.29157813
#
# Stress axis : x y z
#
# Youngs Moduli (GPa) = 9.37924 14.23530 94.88766
#
# Poissons Ratio (x) = -0.91754 0.49375
# Poissons Ratio (y) = -0.60454 0.67991
# Poissons Ratio (z) = 0.04881 0.10200
#
# Static dielectric constant tensor:
#      x y z
#    x 3.831790 0.000000 0.000000 
#    y 0.000000 4.053150 0.000000 
#    z 0.000000 0.000000 4.286210 
# 
# 
# High freq. dielectric constant tensor:
#      x y z
#    x 1.856540 0.000000 0.000000 
#    y 0.000000 1.880930 0.000000 
#    z 0.000000 0.000000 1.926160 
# 
# From -- ./inp_files/3442.got.cif
#   From: 2010.03.12/outbox.cif.g09.slc.cpg/sg19_2_cif.got.tgz:3442.got - 2010.04.10 18:59:41.
