data_PCOD8156986
_publ_section_title
;
Structure prediction by ZEFSAII (Michael W. Deem and Ramdas Pophale) SiO2 
 PCOD8156986
Probable space group: P 21 21 21
;
_chemical_formula_sum "Si O2"
_cell_formula_units_Z 20
_cell_length_a 16.596468
_cell_length_b 8.620402
_cell_length_c 5.164922
_cell_angle_alpha 90.000000
_cell_angle_beta 90.000000
_cell_angle_gamma 90.000000
_cell_volume 738.936228
_symmetry_space_group_name_H-M "P 21 21 21"
_symmetry_group_IT_number 19
_symmetry_cell_setting 'orthorhombic'
loop_
_space_group_symop_operation_xyz
x,y,z
1/2-x,-y,1/2+z
1/2+x,1/2-y,-z
-x,1/2+y,1/2-z
loop_
_atom_site_type_symbol
_atom_site_label
_atom_site_fract_x
_atom_site_fract_y
_atom_site_fract_z
Si Si1 0.771533 0.926052 0.114532
Si Si2 0.949371 0.919050 0.964538
Si Si3 0.143225 0.993941 0.183124
Si Si4 0.983600 0.741811 0.439299
Si Si5 0.814189 0.363791 0.812224
O O1 0.718961 0.808210 0.287776
O O2 0.773682 0.059945 0.335657
O O3 0.860432 0.868979 0.050506
O O4 0.963890 0.852850 0.679726
O O5 0.009652 0.849981 0.190168
O O6 0.954447 0.107470 0.968965
O O7 0.126979 0.888025 0.439172
O O8 0.239975 0.016794 0.183654
O O9 0.123558 0.900948 0.920218
O O10 0.096261 0.155855 0.171958
#
# Coordination Sequence:
#
# PCOD8156986 Si02
#       5
#     4   4   4   4   4
#     4  12  26  44  71 104 148 190 232 302 370 435
#     4  12  28  49  76 107 147 199 243 301 369 433
#     4  10  21  38  70  97 131 180 230 291 343 415
#     4  12  26  49  76 105 150 193 249 302 360 442
#     4  10  21  38  65 103 132 176 232 282 352 421
#
# _framework density 27.065933999999999
#
# number of rings (size 3 to 8) (size 9 to 14) (size 15 to 20)
#    0.000    0.800    2.000    4.800    5.600    4.800 
#    0.000    0.000    0.000    0.000    0.000    0.000 
#    0.000    0.000    0.000    0.000    0.000    0.000 
#
# Total GULP energy -247921.488192 kJ/mol
# GULP energy per Si atom -12396.074410 kJ/mol
# Density = 2.700433 g / cm^3
# Si number density = 27.065934 Si / 1000 Ang^3
#
#
#
# Elastic Constant Matrix: (Units=GPa)
#
#
# Indices 1 2 3 4 5 6 
#
# 1 41.2650 -9.9576 39.4329 0.0000 0.0000 0.0000
# 2 -9.9576 72.8761 27.3148 0.0000 0.0000 0.0000
# 3 39.4329 27.3148 220.8006 0.0000 0.0000 0.0000
# 4 0.0000 0.0000 0.0000 63.2864 0.0000 0.0000
# 5 0.0000 0.0000 0.0000 0.0000 42.5578 0.0000
# 6 0.0000 0.0000 0.0000 0.0000 0.0000 21.8755
#
#
#
# Elastic Compliance Matrix: (Units=1/GPa)
#
#
# Indices 1 2 3 4 5 6 
#
# 1 0.032200 0.006874 -0.006601 0.000000 0.000000 0.000000
# 2 0.006874 0.015857 -0.003189 0.000000 0.000000 0.000000
# 3 -0.006601 -0.003189 0.006102 0.000000 0.000000 0.000000
# 4 0.000000 0.000000 0.000000 0.015801 0.000000 0.000000
# 5 0.000000 0.000000 0.000000 0.000000 0.023497 0.000000
# 6 0.000000 0.000000 0.000000 0.000000 0.000000 0.045713
#
#
# Mechanical properties :
#
#
# Convention : Reuss Voigt Hill
#
# Bulk Modulus (GPa) = 20.69252 49.83577 35.26414
# Shear Modulus (GPa) = 31.03420 44.08739 37.56080
#
# Velocity S-wave (km/s) = 3.38984 4.04033 3.72930
# Velocity P-wave (km/s) = 4.79408 6.34179 5.62146
#
# Compressibility (1/GPa) = 0.04832665
#
# Stress axis : x y z
#
# Youngs Moduli (GPa) = 31.05554 63.06556 163.87023
#
# Poissons Ratio (x) = -0.43351 1.08172
# Poissons Ratio (y) = -0.21347 0.52262
# Poissons Ratio (z) = 0.20500 0.20113
#
# Static dielectric constant tensor:
#      x y z
#    x 4.855200 0.000000 0.000000 
#    y 0.000000 4.650310 0.000000 
#    z 0.000000 0.000000 5.519930 
# 
# 
# High freq. dielectric constant tensor:
#      x y z
#    x 2.112600 0.000000 0.000000 
#    y 0.000000 2.081680 0.000000 
#    z 0.000000 0.000000 2.119880 
# 
# From -- ./inp_files/351.got.cif
#   From: 2010.03.12/outbox.cif.g09.slc.cpg/sg19_1_cif.got.tgz:351.got - 2010.04.10 18:59:41.
