data_PCOD8156009
_publ_section_title
;
Structure prediction by ZEFSAII (Michael W. Deem and Ramdas Pophale) SiO2 
 PCOD8156009
Probable space group: P 21 21 2
;
_chemical_formula_sum "Si O2"
_cell_formula_units_Z 32
_cell_length_a 11.616990
_cell_length_b 14.308520
_cell_length_c 9.372361
_cell_angle_alpha 90.000000
_cell_angle_beta 90.000000
_cell_angle_gamma 90.000000
_cell_volume 1557.891969
_symmetry_space_group_name_H-M "P 21 21 2"
_symmetry_group_IT_number 18
_symmetry_cell_setting 'orthorhombic'
loop_
_space_group_symop_operation_xyz
x,y,z
-x,-y,z
1/2+x,1/2-y,-z
1/2-x,1/2+y,-z
loop_
_atom_site_type_symbol
_atom_site_label
_atom_site_fract_x
_atom_site_fract_y
_atom_site_fract_z
Si Si1 0.248853 0.077255 0.860777
Si Si2 0.114773 0.773838 0.483771
Si Si3 0.313612 0.770261 0.688274
Si Si4 0.853869 0.909159 0.165230
Si Si5 0.463360 0.105433 0.669822
Si Si6 0.887785 0.112018 0.197305
Si Si7 0.474898 0.603455 0.302880
Si Si8 0.175183 0.871808 0.900029
O O1 0.376576 0.105576 0.805806
O O2 0.158184 0.116748 0.742679
O O3 0.245526 0.965406 0.862912
O O4 0.221286 0.112223 0.022230
O O5 0.241625 0.793068 0.546011
O O6 0.092786 0.662148 0.464350
O O7 0.114065 0.819634 0.329113
O O8 0.012847 0.819280 0.579444
O O9 0.335972 0.660170 0.701010
O O10 0.424978 0.833792 0.707409
O O11 0.232539 0.785504 0.823121
O O12 0.987638 0.902529 0.126705
O O13 0.829539 0.011697 0.231557
O O14 0.500000 0.000000 0.625014
O O15 0.816907 0.155924 0.066026
O O16 0.500000 0.500000 0.368357
O O17 0.545701 0.614571 0.156758
#
# Coordination Sequence:
#
# PCOD8156009 Si02
#       8
#     4   4   4   4   4   4   4   4
#     4  10  20  39  67  94 125 176 212 276 337 383
#     4  11  26  40  64  94 132 176 218 270 329 395
#     4  11  24  42  61  95 131 177 223 262 325 411
#     4  10  21  37  68  97 130 156 221 285 330 378
#     4  12  26  43  62  91 137 181 217 266 341 409
#     4  10  20  39  66 102 124 158 215 285 328 372
#     4   9  19  37  65  98 126 161 219 273 322 388
#     4   9  18  39  65  94 127 161 218 272 323 394
#
# _framework density 20.540575
#
# number of rings (size 3 to 8) (size 9 to 14) (size 15 to 20)
#    0.000    1.750    3.750    0.000    5.250    1.000 
#    0.000    0.000    0.000    0.750    0.000    0.000 
#    0.000    0.000    0.000    0.000    0.000    0.000 
#
# Total GULP energy -396479.354931 kJ/mol
# GULP energy per Si atom -12389.979842 kJ/mol
# Density = 2.049382 g / cm^3
# Si number density = 20.540575 Si / 1000 Ang^3
#
#
#
# Elastic Constant Matrix: (Units=GPa)
#
#
# Indices 1 2 3 4 5 6 
#
# 1 105.2321 33.1793 40.9330 0.0000 0.0000 0.0000
# 2 33.1793 102.5725 49.3038 0.0000 0.0000 0.0000
# 3 40.9330 49.3038 108.1025 0.0000 0.0000 0.0000
# 4 0.0000 0.0000 0.0000 23.3941 0.0000 0.0000
# 5 0.0000 0.0000 0.0000 0.0000 24.1149 0.0000
# 6 0.0000 0.0000 0.0000 0.0000 0.0000 27.8470
#
#
#
# Elastic Compliance Matrix: (Units=1/GPa)
#
#
# Indices 1 2 3 4 5 6 
#
# 1 0.011481 -0.002080 -0.003398 0.000000 0.000000 0.000000
# 2 -0.002080 0.012863 -0.005079 0.000000 0.000000 0.000000
# 3 -0.003398 -0.005079 0.012854 0.000000 0.000000 0.000000
# 4 0.000000 0.000000 0.000000 0.042746 0.000000 0.000000
# 5 0.000000 0.000000 0.000000 0.000000 0.041468 0.000000
# 6 0.000000 0.000000 0.000000 0.000000 0.000000 0.035911
#
#
# Mechanical properties :
#
#
# Convention : Reuss Voigt Hill
#
# Bulk Modulus (GPa) = 62.17960 62.52658 62.35309
# Shear Modulus (GPa) = 27.20369 27.90393 27.55381
#
# Velocity S-wave (km/s) = 3.64316 3.68975 3.66653
# Velocity P-wave (km/s) = 6.93067 6.97560 6.95317
#
# Compressibility (1/GPa) = 0.01608245
#
# Stress axis : x y z
#
# Youngs Moduli (GPa) = 87.10372 77.73946 77.79792
#
# Poissons Ratio (x) = 0.16171 0.26439
# Poissons Ratio (y) = 0.18119 0.39515
# Poissons Ratio (z) = 0.29601 0.39485
#
# Static dielectric constant tensor:
#      x y z
#    x 3.786760 0.000000 0.000000 
#    y 0.000000 3.949840 0.000000 
#    z 0.000000 0.000000 3.481900 
# 
# 
# High freq. dielectric constant tensor:
#      x y z
#    x 1.794840 0.000000 0.000000 
#    y 0.000000 1.806060 0.000000 
#    z 0.000000 0.000000 1.792770 
# 
# From -- ./inp_files/3969.got.cif
#   From: 2010.03.12/outbox.cif.g09.slc.cpg/sg18_2_cif.got.tgz:3969.got - 2010.04.10 18:53:55.
