data_PCOD8156761
_publ_section_title
;
Structure prediction by ZEFSAII (Michael W. Deem and Ramdas Pophale) SiO2 
 PCOD8156761
Probable space group: P 21 21 21
;
_chemical_formula_sum "Si O2"
_cell_formula_units_Z 32
_cell_length_a 19.224381
_cell_length_b 9.102978
_cell_length_c 9.485744
_cell_angle_alpha 90.000000
_cell_angle_beta 90.000000
_cell_angle_gamma 90.000000
_cell_volume 1659.996827
_symmetry_space_group_name_H-M "P 21 21 21"
_symmetry_group_IT_number 19
_symmetry_cell_setting 'orthorhombic'
loop_
_space_group_symop_operation_xyz
x,y,z
1/2-x,-y,1/2+z
1/2+x,1/2-y,-z
-x,1/2+y,1/2-z
loop_
_atom_site_type_symbol
_atom_site_label
_atom_site_fract_x
_atom_site_fract_y
_atom_site_fract_z
Si Si1 0.481406 0.895078 0.344790
Si Si2 0.817230 0.300111 0.188927
Si Si3 0.159229 0.087459 0.491254
Si Si4 0.942025 0.280539 0.621283
Si Si5 0.965751 0.767353 0.141503
Si Si6 0.308071 0.144757 0.488702
Si Si7 0.166309 0.136430 0.815681
Si Si8 0.945120 0.099012 0.138690
O O1 0.527221 0.849196 0.212424
O O2 0.410184 0.794557 0.352804
O O3 0.531181 0.882813 0.478102
O O4 0.457358 0.060840 0.310271
O O5 0.838971 0.429303 0.082435
O O6 0.828858 0.354783 0.347478
O O7 0.734347 0.256224 0.175445
O O8 0.867395 0.163136 0.156860
O O9 0.095078 0.179507 0.435106
O O10 0.228072 0.184878 0.456715
O O11 0.158262 0.064638 0.659863
O O12 0.859272 0.250856 0.602145
O O13 0.970944 0.282498 0.464370
O O14 0.994634 0.681677 0.275799
O O15 0.940140 0.929469 0.186589
O O16 0.320312 0.979645 0.438195
#
# Coordination Sequence:
#
# PCOD8156761 Si02
#       8
#     4   4   4   4   4   4   4   4
#     4  10  22  36  57  84 112 146 189 235 286 338
#     4  10  20  37  61  85 114 149 195 238 284 342
#     4  10  20  35  63  84 111 152 193 234 289 340
#     4  10  20  38  57  81 113 144 185 236 282 339
#     4  11  22  38  58  83 116 149 191 235 290 336
#     4   9  19  36  58  85 114 148 192 234 279 343
#     4   9  19  36  60  85 112 149 194 233 285 343
#     4  11  24  38  58  85 116 151 191 241 287 341
#
# _framework density 19.277145000000001
#
# number of rings (size 3 to 8) (size 9 to 14) (size 15 to 20)
#    0.000    2.000    2.500    0.750    7.000    1.000 
#    0.000    1.250    2.750    0.000    0.000    0.000 
#    0.000    0.000    0.000    0.000    0.000    0.000 
#
# Total GULP energy -396468.268703 kJ/mol
# GULP energy per Si atom -12389.633397 kJ/mol
# Density = 1.923327 g / cm^3
# Si number density = 19.277145 Si / 1000 Ang^3
#
#
#
# Elastic Constant Matrix: (Units=GPa)
#
#
# Indices 1 2 3 4 5 6 
#
# 1 61.0183 -12.6594 -9.8690 0.0000 0.0000 0.0000
# 2 -12.6594 44.4401 5.9415 0.0000 0.0000 0.0000
# 3 -9.8690 5.9415 41.3882 0.0000 0.0000 0.0000
# 4 0.0000 0.0000 0.0000 21.7293 0.0000 0.0000
# 5 0.0000 0.0000 0.0000 0.0000 31.4692 0.0000
# 6 0.0000 0.0000 0.0000 0.0000 0.0000 26.4791
#
#
#
# Elastic Compliance Matrix: (Units=1/GPa)
#
#
# Indices 1 2 3 4 5 6 
#
# 1 0.017932 0.004625 0.003612 0.000000 0.000000 0.000000
# 2 0.004625 0.024136 -0.002362 0.000000 0.000000 0.000000
# 3 0.003612 -0.002362 0.025362 0.000000 0.000000 0.000000
# 4 0.000000 0.000000 0.000000 0.046021 0.000000 0.000000
# 5 0.000000 0.000000 0.000000 0.000000 0.031777 0.000000
# 6 0.000000 0.000000 0.000000 0.000000 0.000000 0.037766
#
#
# Mechanical properties :
#
#
# Convention : Reuss Voigt Hill
#
# Bulk Modulus (GPa) = 12.62933 12.63030 12.62982
# Shear Modulus (GPa) = 25.29905 26.83109 26.06507
#
# Velocity S-wave (km/s) = 3.62662 3.73481 3.68111
# Velocity P-wave (km/s) = 4.90939 5.01643 4.96320
#
# Compressibility (1/GPa) = 0.07918074
#
# Stress axis : x y z
#
# Youngs Moduli (GPa) = 55.76512 41.43257 39.42937
#
# Poissons Ratio (x) = -0.19164 -0.14242
# Poissons Ratio (y) = -0.25794 0.09313
# Poissons Ratio (z) = -0.20142 0.09786
#
# Static dielectric constant tensor:
#      x y z
#    x 4.180860 0.000000 0.000000 
#    y 0.000000 3.172760 0.000000 
#    z 0.000000 0.000000 3.556990 
# 
# 
# High freq. dielectric constant tensor:
#      x y z
#    x 1.778610 0.000000 0.000000 
#    y 0.000000 1.701470 0.000000 
#    z 0.000000 0.000000 1.760060 
# 
# From -- ./inp_files/4311.got.cif
#   From: 2010.03.12/outbox.cif.g09.slc.cpg/sg19_3_cif.got.tgz:4311.got - 2010.04.10 18:59:41.
