data_PCOD8156510
_publ_section_title
;
Structure prediction by ZEFSAII (Michael W. Deem and Ramdas Pophale) SiO2 
 PCOD8156510
Probable space group: P 21 21 2
;
_chemical_formula_sum "Si O2"
_cell_formula_units_Z 16
_cell_length_a 9.620212
_cell_length_b 15.010280
_cell_length_c 4.974189
_cell_angle_alpha 90.000000
_cell_angle_beta 90.000000
_cell_angle_gamma 90.000000
_cell_volume 718.283217
_symmetry_space_group_name_H-M "P 21 21 2"
_symmetry_group_IT_number 18
_symmetry_cell_setting 'orthorhombic'
loop_
_space_group_symop_operation_xyz
x,y,z
-x,-y,z
1/2+x,1/2-y,-z
1/2-x,1/2+y,-z
loop_
_atom_site_type_symbol
_atom_site_label
_atom_site_fract_x
_atom_site_fract_y
_atom_site_fract_z
Si Si1 0.345443 0.970875 0.504004
Si Si2 0.194548 0.353282 0.993569
Si Si3 0.504116 0.309634 0.054908
Si Si4 0.909499 0.915097 0.448840
O O1 0.295904 0.892595 0.305618
O O2 0.500000 0.000000 0.433616
O O3 0.251994 0.058833 0.467316
O O4 0.331066 0.935157 0.805981
O O5 0.066978 0.285405 0.025995
O O6 0.337512 0.301497 0.055418
O O7 0.558052 0.333954 0.351453
O O8 0.554216 0.386476 0.852771
O O9 0.000000 0.000000 0.536457
#
# Coordination Sequence:
#
# PCOD8156510 Si02
#       4
#     4   4   4   4
#     4  12  27  44  70  98 135 172 226 274 323 387
#     4  12  26  46  66 101 135 173 219 271 331 396
#     4  12  26  43  70  97 135 174 219 271 335 392
#     4  12  23  46  70  94 129 178 222 269 323 393
#
# _framework density 22.275334999999998
#
# number of rings (size 3 to 8) (size 9 to 14) (size 15 to 20)
#    0.000    0.000    5.000    4.500    7.000    0.000 
#    0.000    0.000    0.000    0.000    0.000    0.000 
#    0.000    0.000    0.000    0.000    0.000    0.000 
#
# Total GULP energy -198596.999034 kJ/mol
# GULP energy per Si atom -12412.312440 kJ/mol
# Density = 2.222464 g / cm^3
# Si number density = 22.275335 Si / 1000 Ang^3
#
#
#
# Elastic Constant Matrix: (Units=GPa)
#
#
# Indices 1 2 3 4 5 6 
#
# 1 137.2020 14.3214 9.2493 0.0000 0.0000 0.0000
# 2 14.3214 51.5708 9.0373 0.0000 0.0000 0.0000
# 3 9.2493 9.0373 86.5604 0.0000 0.0000 0.0000
# 4 0.0000 0.0000 0.0000 26.4386 0.0000 0.0000
# 5 0.0000 0.0000 0.0000 0.0000 27.7534 0.0000
# 6 0.0000 0.0000 0.0000 0.0000 0.0000 44.3541
#
#
#
# Elastic Compliance Matrix: (Units=1/GPa)
#
#
# Indices 1 2 3 4 5 6 
#
# 1 0.007536 -0.001988 -0.000598 0.000000 0.000000 0.000000
# 2 -0.001988 0.020277 -0.001905 0.000000 0.000000 0.000000
# 3 -0.000598 -0.001905 0.011815 0.000000 0.000000 0.000000
# 4 0.000000 0.000000 0.000000 0.037824 0.000000 0.000000
# 5 0.000000 0.000000 0.000000 0.000000 0.036032 0.000000
# 6 0.000000 0.000000 0.000000 0.000000 0.000000 0.022546
#
#
# Mechanical properties :
#
#
# Convention : Reuss Voigt Hill
#
# Bulk Modulus (GPa) = 32.62899 37.83881 35.23390
# Shear Modulus (GPa) = 32.21111 35.89090 34.05100
#
# Velocity S-wave (km/s) = 3.80681 4.01838 3.91403
# Velocity P-wave (km/s) = 5.83115 6.20915 6.02312
#
# Compressibility (1/GPa) = 0.03064759
#
# Stress axis : x y z
#
# Youngs Moduli (GPa) = 132.69041 49.31772 84.63569
#
# Poissons Ratio (x) = 0.09805 0.05059
# Poissons Ratio (y) = 0.26380 0.16119
# Poissons Ratio (z) = 0.07931 0.09393
#
# Static dielectric constant tensor:
#      x y z
#    x 4.155660 0.000000 0.000000 
#    y 0.000000 3.765880 0.000000 
#    z 0.000000 0.000000 4.010980 
# 
# 
# High freq. dielectric constant tensor:
#      x y z
#    x 1.891660 0.000000 0.000000 
#    y 0.000000 1.865740 0.000000 
#    z 0.000000 0.000000 1.891080 
# 
# From -- ./inp_files/463.got.cif
#   From: 2010.03.12/outbox.cif.g09.slc.cpg/sg18_1_cif.got.tgz:463.got - 2010.04.10 18:53:55.
