data_PCOD8156529
_publ_section_title
;
Structure prediction by ZEFSAII (Michael W. Deem and Ramdas Pophale) SiO2 
 PCOD8156529
Probable space group: P 21 21 2
;
_chemical_formula_sum "Si O2"
_cell_formula_units_Z 22
_cell_length_a 13.062687
_cell_length_b 6.197972
_cell_length_c 11.498873
_cell_angle_alpha 90.000000
_cell_angle_beta 90.000000
_cell_angle_gamma 90.000000
_cell_volume 930.973691
_symmetry_space_group_name_H-M "P 21 21 2"
_symmetry_group_IT_number 18
_symmetry_cell_setting 'orthorhombic'
loop_
_space_group_symop_operation_xyz
x,y,z
-x,-y,z
1/2+x,1/2-y,-z
1/2-x,1/2+y,-z
loop_
_atom_site_type_symbol
_atom_site_label
_atom_site_fract_x
_atom_site_fract_y
_atom_site_fract_z
Si Si1 0.852189 0.855935 0.635389
Si Si2 0.634855 0.300022 0.937395
Si Si3 0.365145 0.300021 0.562605
Si Si4 0.000000 0.000000 0.250000
Si Si5 0.000000 0.500000 0.920838
Si Si6 0.647811 0.644065 0.135389
Si Si7 0.500000 0.000000 0.420837
O O1 0.749424 0.726476 0.608350
O O2 0.946222 0.688018 0.656065
O O3 0.877350 0.998943 0.523728
O O4 0.839373 0.999999 0.750001
O O5 0.568490 0.340457 0.824456
O O6 0.749424 0.273526 0.891650
O O7 0.622650 0.501060 0.023726
O O8 0.592851 0.086760 0.999920
O O9 0.431510 0.340458 0.675543
O O10 0.407149 0.086759 0.500080
O O11 0.053778 0.688018 0.843936
#
# Coordination Sequence:
#
# PCOD8156529 Si02
#       7
#     4   4   4   2   2   4   2
#     4  12  29  51  83 120 163 212 272 337 406 482
#     4  12  28  49  78 122 155 214 270 329 409 477
#     4  12  28  49  78 122 155 214 270 329 409 477
#     4  12  28  50  78 114 158 208 276 324 396 490
#     4  12  26  54  80 112 166 207 271 332 404 484
#     4  12  29  51  83 120 163 212 272 337 406 482
#     4  12  26  54  80 112 166 207 271 332 404 484
#
# _framework density 23.631173
#
# number of rings (size 3 to 8) (size 9 to 14) (size 15 to 20)
#    0.000    0.000    7.273    0.000   10.182    5.818 
#    0.000    0.000    0.000    0.000    0.000    0.000 
#    0.000    0.000    0.000    0.000    0.000    0.000 
#
# Total GULP energy -272914.924950 kJ/mol
# GULP energy per Si atom -12405.223861 kJ/mol
# Density = 2.357739 g / cm^3
# Si number density = 23.631173 Si / 1000 Ang^3
#
#
#
# Elastic Constant Matrix: (Units=GPa)
#
#
# Indices 1 2 3 4 5 6 
#
# 1 155.1842 59.6407 50.1664 0.0000 0.0000 0.0000
# 2 59.6407 121.9116 43.8180 0.0000 0.0000 0.0000
# 3 50.1664 43.8180 102.3300 0.0000 0.0000 0.0000
# 4 0.0000 0.0000 0.0000 28.2446 0.0000 0.0000
# 5 0.0000 0.0000 0.0000 0.0000 48.2258 0.0000
# 6 0.0000 0.0000 0.0000 0.0000 0.0000 63.9239
#
#
#
# Elastic Compliance Matrix: (Units=1/GPa)
#
#
# Indices 1 2 3 4 5 6 
#
# 1 0.008586 -0.003176 -0.002849 0.000000 0.000000 0.000000
# 2 -0.003176 0.010870 -0.003097 0.000000 0.000000 0.000000
# 3 -0.002849 -0.003097 0.012495 0.000000 0.000000 0.000000
# 4 0.000000 0.000000 0.000000 0.035405 0.000000 0.000000
# 5 0.000000 0.000000 0.000000 0.000000 0.020736 0.000000
# 6 0.000000 0.000000 0.000000 0.000000 0.000000 0.015644
#
#
# Mechanical properties :
#
#
# Convention : Reuss Voigt Hill
#
# Bulk Modulus (GPa) = 72.96278 76.29732 74.63005
# Shear Modulus (GPa) = 39.51051 43.13226 41.32139
#
# Velocity S-wave (km/s) = 4.09340 4.27690 4.18616
# Velocity P-wave (km/s) = 7.29959 7.53299 7.41721
#
# Compressibility (1/GPa) = 0.01370562
#
# Stress axis : x y z
#
# Youngs Moduli (GPa) = 116.47372 91.99830 80.03021
#
# Poissons Ratio (x) = 0.29221 0.22800
# Poissons Ratio (y) = 0.36994 0.24788
# Poissons Ratio (z) = 0.33183 0.28495
#
# Static dielectric constant tensor:
#      x y z
#    x 4.578020 0.000000 0.000000 
#    y 0.000000 4.272040 0.000000 
#    z 0.000000 0.000000 4.292860 
# 
# 
# High freq. dielectric constant tensor:
#      x y z
#    x 1.962120 0.000000 0.000000 
#    y 0.000000 1.943960 0.000000 
#    z 0.000000 0.000000 1.943250 
# 
# From -- ./inp_files/6047.got.cif
#   From: 2010.03.12/outbox.cif.g09.slc.cpg/sg18_4_cif.got.tgz:6047.got - 2010.04.10 18:53:55.
