data_PCOD8156036
_publ_section_title
;
Structure prediction by ZEFSAII (Michael W. Deem and Ramdas Pophale) SiO2 
 PCOD8156036
Probable space group: P 21 21 2
;
_chemical_formula_sum "Si O2"
_cell_formula_units_Z 32
_cell_length_a 8.612065
_cell_length_b 21.806122
_cell_length_c 8.566251
_cell_angle_alpha 90.000000
_cell_angle_beta 90.000000
_cell_angle_gamma 90.000000
_cell_volume 1608.705446
_symmetry_space_group_name_H-M "P 21 21 2"
_symmetry_group_IT_number 18
_symmetry_cell_setting 'orthorhombic'
loop_
_space_group_symop_operation_xyz
x,y,z
-x,-y,z
1/2+x,1/2-y,-z
1/2-x,1/2+y,-z
loop_
_atom_site_type_symbol
_atom_site_label
_atom_site_fract_x
_atom_site_fract_y
_atom_site_fract_z
Si Si1 0.747417 0.672351 0.486086
Si Si2 0.900801 0.946206 0.024935
Si Si3 0.804054 0.231068 0.041143
Si Si4 0.759975 0.836026 0.191215
Si Si5 0.632613 0.623975 0.182894
Si Si6 0.593857 0.134961 0.213344
Si Si7 0.494737 0.744198 0.661409
Si Si8 0.357852 0.963496 0.959056
O O1 0.635251 0.635063 0.368281
O O2 0.807105 0.629349 0.626914
O O3 0.636232 0.726936 0.547470
O O4 0.903624 0.695874 0.398937
O O5 0.992385 0.918810 0.874872
O O6 0.860677 0.895525 0.151277
O O7 0.000000 0.000000 0.108773
O O8 0.748327 0.977280 0.964829
O O9 0.663232 0.193128 0.119470
O O10 0.934421 0.252615 0.165174
O O11 0.740710 0.292373 0.960925
O O12 0.880339 0.188400 0.908111
O O13 0.586699 0.851894 0.247332
O O14 0.857721 0.806625 0.332352
O O15 0.795692 0.589669 0.152181
O O16 0.610255 0.069676 0.125893
O O17 0.500000 0.000000 0.885151
#
# Coordination Sequence:
#
# PCOD8156036 Si02
#       8
#     4   4   4   4   4   4   4   4
#     4  11  24  40  58  92 140 169 197 247 334 395
#     4  10  22  37  64  89 119 159 221 272 305 357
#     4  10  21  36  62  95 121 156 213 257 317 372
#     4  12  20  36  65  96 119 162 215 262 316 369
#     4  10  21  39  63  87 128 160 203 271 313 373
#     4  10  23  38  62  93 127 169 200 256 324 392
#     4  11  23  38  59  91 135 170 197 251 315 408
#     4  10  20  41  66  91 115 159 224 274 304 360
#
# _framework density 19.891772
#
# number of rings (size 3 to 8) (size 9 to 14) (size 15 to 20)
#    0.000    1.500    3.750    1.500    3.500    1.000 
#    0.000    1.875    8.250    0.000    0.000    0.000 
#    0.000    0.000    0.000    0.000    0.000    0.000 
#
# Total GULP energy -396523.569876 kJ/mol
# GULP energy per Si atom -12391.361559 kJ/mol
# Density = 1.984650 g / cm^3
# Si number density = 19.891772 Si / 1000 Ang^3
#
#
#
# Elastic Constant Matrix: (Units=GPa)
#
#
# Indices 1 2 3 4 5 6 
#
# 1 97.2729 19.1616 12.6626 0.0000 0.0000 0.0000
# 2 19.1616 79.9887 20.4687 0.0000 0.0000 0.0000
# 3 12.6626 20.4687 70.8923 0.0000 0.0000 0.0000
# 4 0.0000 0.0000 0.0000 15.4307 0.0000 0.0000
# 5 0.0000 0.0000 0.0000 0.0000 25.2942 0.0000
# 6 0.0000 0.0000 0.0000 0.0000 0.0000 37.7004
#
#
#
# Elastic Compliance Matrix: (Units=1/GPa)
#
#
# Indices 1 2 3 4 5 6 
#
# 1 0.010897 -0.002281 -0.001288 0.000000 0.000000 0.000000
# 2 -0.002281 0.013977 -0.003628 0.000000 0.000000 0.000000
# 3 -0.001288 -0.003628 0.015383 0.000000 0.000000 0.000000
# 4 0.000000 0.000000 0.000000 0.064806 0.000000 0.000000
# 5 0.000000 0.000000 0.000000 0.000000 0.039535 0.000000
# 6 0.000000 0.000000 0.000000 0.000000 0.000000 0.026525
#
#
# Mechanical properties :
#
#
# Convention : Reuss Voigt Hill
#
# Bulk Modulus (GPa) = 38.66429 39.19330 38.92879
# Shear Modulus (GPa) = 25.75492 28.74246 27.24869
#
# Velocity S-wave (km/s) = 3.60217 3.80536 3.70516
# Velocity P-wave (km/s) = 6.06468 6.24930 6.15768
#
# Compressibility (1/GPa) = 0.02586366
#
# Stress axis : x y z
#
# Youngs Moduli (GPa) = 91.76561 71.54833 65.00488
#
# Poissons Ratio (x) = 0.16320 0.08372
# Poissons Ratio (y) = 0.20931 0.23584
# Poissons Ratio (z) = 0.11818 0.25958
#
# Static dielectric constant tensor:
#      x y z
#    x 4.073980 0.000000 0.000000 
#    y 0.000000 3.666780 0.000000 
#    z 0.000000 0.000000 3.473950 
# 
# 
# High freq. dielectric constant tensor:
#      x y z
#    x 1.796990 0.000000 0.000000 
#    y 0.000000 1.768990 0.000000 
#    z 0.000000 0.000000 1.747060 
# 
# From -- ./inp_files/3507.got.cif
#   From: 2010.03.12/outbox.cif.g09.slc.cpg/sg18_2_cif.got.tgz:3507.got - 2010.04.10 18:53:55.
