data_PCOD8156844
_publ_section_title
;
Structure prediction by ZEFSAII (Michael W. Deem and Ramdas Pophale) SiO2 
 PCOD8156844
Probable space group: P 21 21 21
;
_chemical_formula_sum "Si O2"
_cell_formula_units_Z 32
_cell_length_a 5.071406
_cell_length_b 10.501282
_cell_length_c 26.341583
_cell_angle_alpha 90.000000
_cell_angle_beta 90.000000
_cell_angle_gamma 90.000000
_cell_volume 1402.854313
_symmetry_space_group_name_H-M "P 21 21 21"
_symmetry_group_IT_number 19
_symmetry_cell_setting 'orthorhombic'
loop_
_space_group_symop_operation_xyz
x,y,z
1/2-x,-y,1/2+z
1/2+x,1/2-y,-z
-x,1/2+y,1/2-z
loop_
_atom_site_type_symbol
_atom_site_label
_atom_site_fract_x
_atom_site_fract_y
_atom_site_fract_z
Si Si1 0.648370 0.098722 0.206194
Si Si2 0.358512 0.859985 0.951786
Si Si3 0.672149 0.033376 0.893095
Si Si4 0.657421 0.172989 0.697295
Si Si5 0.640653 0.096824 0.518746
Si Si6 0.782698 0.164484 0.995180
Si Si7 0.142388 0.328393 0.680352
Si Si8 0.353230 0.747421 0.689907
O O1 0.646954 0.091054 0.267533
O O2 0.360606 0.137624 0.184075
O O3 0.849356 0.205608 0.188702
O O4 0.760381 0.969302 0.181522
O O5 0.144379 0.902873 0.992254
O O6 0.646714 0.866482 0.976821
O O7 0.388483 0.964305 0.906336
O O8 0.334207 0.707257 0.937292
O O9 0.643391 0.149081 0.855352
O O10 0.821404 0.092038 0.941747
O O11 0.840762 0.921467 0.867439
O O12 0.363755 0.216143 0.681392
O O13 0.704952 0.176930 0.757593
O O14 0.858997 0.267843 0.670318
O O15 0.688064 0.949714 0.537631
O O16 0.993711 0.275236 0.002313
#
# Coordination Sequence:
#
# PCOD8156844 Si02
#       8
#     4   4   4   4   4   4   4   4
#     4  10  20  39  58  88 130 165 199 247 313 361
#     4   9  19  34  64  86 117 150 198 261 293 356
#     4  11  23  43  63  95 121 160 223 255 305 386
#     4  10  20  39  58  87 123 161 205 246 308 363
#     4   9  18  38  59  89 115 156 198 242 318 360
#     4  11  24  41  64  90 126 166 203 261 326 380
#     4  10  22  35  62  90 119 164 205 253 299 363
#     4  10  22  35  62  89 121 164 201 255 302 365
#
# _framework density 22.810638000000001
#
# number of rings (size 3 to 8) (size 9 to 14) (size 15 to 20)
#    0.000    2.000    1.250    2.250    0.000    7.000 
#    0.000    3.750    0.000    4.500    0.000    0.000 
#    0.000    0.000    0.000    0.000    0.000    0.000 
#
# Total GULP energy -396419.222713 kJ/mol
# GULP energy per Si atom -12388.100710 kJ/mol
# Density = 2.275872 g / cm^3
# Si number density = 22.810638 Si / 1000 Ang^3
#
#
#
# Elastic Constant Matrix: (Units=GPa)
#
#
# Indices 1 2 3 4 5 6 
#
# 1 72.2191 -1.0928 9.6574 0.0000 0.0000 0.0000
# 2 -1.0928 122.8022 25.1474 0.0000 0.0000 0.0000
# 3 9.6574 25.1474 48.7461 0.0000 0.0000 0.0000
# 4 0.0000 0.0000 0.0000 45.0686 0.0000 0.0000
# 5 0.0000 0.0000 0.0000 0.0000 9.1643 0.0000
# 6 0.0000 0.0000 0.0000 0.0000 0.0000 9.6468
#
#
#
# Elastic Compliance Matrix: (Units=1/GPa)
#
#
# Indices 1 2 3 4 5 6 
#
# 1 0.014292 0.000791 -0.003239 0.000000 0.000000 0.000000
# 2 0.000791 0.009149 -0.004876 0.000000 0.000000 0.000000
# 3 -0.003239 -0.004876 0.023672 0.000000 0.000000 0.000000
# 4 0.000000 0.000000 0.000000 0.022188 0.000000 0.000000
# 5 0.000000 0.000000 0.000000 0.000000 0.109119 0.000000
# 6 0.000000 0.000000 0.000000 0.000000 0.000000 0.103661
#
#
# Mechanical properties :
#
#
# Convention : Reuss Voigt Hill
#
# Bulk Modulus (GPa) = 30.80496 34.57683 32.69089
# Shear Modulus (GPa) = 16.25740 26.77962 21.51851
#
# Velocity S-wave (km/s) = 2.67256 3.43008 3.07474
# Velocity P-wave (km/s) = 4.80181 5.55683 5.19306
#
# Compressibility (1/GPa) = 0.03246231
#
# Stress axis : x y z
#
# Youngs Moduli (GPa) = 69.96979 109.30412 42.24430
#
# Poissons Ratio (x) = -0.08641 0.13684
# Poissons Ratio (y) = -0.05531 0.20600
# Poissons Ratio (z) = 0.22665 0.53300
#
# Static dielectric constant tensor:
#      x y z
#    x 4.188530 0.000000 0.000000 
#    y 0.000000 4.673670 0.000000 
#    z 0.000000 0.000000 3.953110 
# 
# 
# High freq. dielectric constant tensor:
#      x y z
#    x 1.908940 0.000000 0.000000 
#    y 0.000000 1.920600 0.000000 
#    z 0.000000 0.000000 1.860830 
# 
# From -- ./inp_files/7545.got.cif
#   From: 2010.03.12/outbox.cif.g09.slc.cpg/sg19_4_cif.got.tgz:7545.got - 2010.04.10 18:59:41.
