data_PCOD8156941
_publ_section_title
;
Structure prediction by ZEFSAII (Michael W. Deem and Ramdas Pophale) SiO2 
 PCOD8156941
Probable space group: P 21 21 21
;
_chemical_formula_sum "Si O2"
_cell_formula_units_Z 28
_cell_length_a 19.982446
_cell_length_b 12.655753
_cell_length_c 5.055595
_cell_angle_alpha 90.000000
_cell_angle_beta 90.000000
_cell_angle_gamma 90.000000
_cell_volume 1278.524085
_symmetry_space_group_name_H-M "P 21 21 21"
_symmetry_group_IT_number 19
_symmetry_cell_setting 'orthorhombic'
loop_
_space_group_symop_operation_xyz
x,y,z
1/2-x,-y,1/2+z
1/2+x,1/2-y,-z
-x,1/2+y,1/2-z
loop_
_atom_site_type_symbol
_atom_site_label
_atom_site_fract_x
_atom_site_fract_y
_atom_site_fract_z
Si Si1 0.332487 0.467467 0.786598
Si Si2 0.179571 0.666110 0.800027
Si Si3 0.047690 0.013394 0.649232
Si Si4 0.395874 0.778270 0.187800
Si Si5 0.025485 0.578408 0.350389
Si Si6 0.182715 0.294574 0.190239
Si Si7 0.454643 0.228406 0.168403
O O1 0.300567 0.384256 0.582348
O O2 0.411201 0.479657 0.723080
O O3 0.301933 0.582038 0.742145
O O4 0.325567 0.427370 0.085197
O O5 0.240151 0.747720 0.717356
O O6 0.108004 0.724899 0.833823
O O7 0.106192 0.094522 0.746103
O O8 0.032260 0.062685 0.362209
O O9 0.066761 0.891873 0.608137
O O10 0.989242 0.022920 0.866881
O O11 0.349294 0.721635 0.403055
O O12 0.473248 0.737036 0.186949
O O13 0.367069 0.755496 0.900161
O O14 0.038931 0.704058 0.396456
#
# Coordination Sequence:
#
# PCOD8156941 Si02
#       7
#     4   4   4   4   4   4   4
#     4  11  20  37  61  89 122 156 193 242 306 367
#     4  11  24  39  61  92 122 158 202 242 302 365
#     4  11  22  39  59  88 121 158 202 252 298 352
#     4  11  23  39  61  89 118 158 205 242 298 361
#     4  10  21  36  60  93 119 152 203 248 303 363
#     4  12  23  40  60  89 126 159 194 252 301 354
#     4  10  23  42  64  88 122 159 201 254 298 352
#
# _framework density 21.900254
#
# number of rings (size 3 to 8) (size 9 to 14) (size 15 to 20)
#    0.000    1.143    0.000    8.571    0.000    5.714 
#    0.000    1.429    0.000    0.000    0.000    0.000 
#    0.000    0.000    0.000    0.000    0.000    0.000 
#
# Total GULP energy -346991.168737 kJ/mol
# GULP energy per Si atom -12392.541741 kJ/mol
# Density = 2.185041 g / cm^3
# Si number density = 21.900254 Si / 1000 Ang^3
#
#
#
# Elastic Constant Matrix: (Units=GPa)
#
#
# Indices 1 2 3 4 5 6 
#
# 1 105.8852 14.4349 11.8615 0.0000 0.0000 0.0000
# 2 14.4349 122.1064 19.8536 0.0000 0.0000 0.0000
# 3 11.8615 19.8536 85.8427 0.0000 0.0000 0.0000
# 4 0.0000 0.0000 0.0000 24.4907 0.0000 0.0000
# 5 0.0000 0.0000 0.0000 0.0000 24.3064 0.0000
# 6 0.0000 0.0000 0.0000 0.0000 0.0000 19.4863
#
#
#
# Elastic Compliance Matrix: (Units=1/GPa)
#
#
# Indices 1 2 3 4 5 6 
#
# 1 0.009701 -0.000965 -0.001117 0.000000 0.000000 0.000000
# 2 -0.000965 0.008606 -0.001857 0.000000 0.000000 0.000000
# 3 -0.001117 -0.001857 0.012233 0.000000 0.000000 0.000000
# 4 0.000000 0.000000 0.000000 0.040832 0.000000 0.000000
# 5 0.000000 0.000000 0.000000 0.000000 0.041141 0.000000
# 6 0.000000 0.000000 0.000000 0.000000 0.000000 0.051318
#
#
# Mechanical properties :
#
#
# Convention : Reuss Voigt Hill
#
# Bulk Modulus (GPa) = 44.12875 45.12604 44.62740
# Shear Modulus (GPa) = 27.89195 31.50229 29.69712
#
# Velocity S-wave (km/s) = 3.57261 3.79680 3.68641
# Velocity P-wave (km/s) = 6.10014 6.31434 6.20816
#
# Compressibility (1/GPa) = 0.02266096
#
# Stress axis : x y z
#
# Youngs Moduli (GPa) = 103.08299 116.20341 81.74570
#
# Poissons Ratio (x) = 0.11215 0.09133
# Poissons Ratio (y) = 0.09949 0.15180
# Poissons Ratio (z) = 0.11517 0.21578
#
# Static dielectric constant tensor:
#      x y z
#    x 4.147330 0.000000 0.000000 
#    y 0.000000 3.937450 0.000000 
#    z 0.000000 0.000000 3.889660 
# 
# 
# High freq. dielectric constant tensor:
#      x y z
#    x 1.861490 0.000000 0.000000 
#    y 0.000000 1.837090 0.000000 
#    z 0.000000 0.000000 1.870160 
# 
# From -- ./inp_files/1928.got.cif
#   From: 2010.03.12/outbox.cif.g09.slc.cpg/sg19_1_cif.got.tgz:1928.got - 2010.04.10 18:59:41.
