data_PCOD8156059
_publ_section_title
;
Structure prediction by ZEFSAII (Michael W. Deem and Ramdas Pophale) SiO2 
 PCOD8156059
Probable space group: P 21 21 2
;
_chemical_formula_sum "Si O2"
_cell_formula_units_Z 18
_cell_length_a 16.923211
_cell_length_b 5.126386
_cell_length_c 10.296254
_cell_angle_alpha 90.000000
_cell_angle_beta 90.000000
_cell_angle_gamma 90.000000
_cell_volume 893.250609
_symmetry_space_group_name_H-M "P 21 21 2"
_symmetry_group_IT_number 18
_symmetry_cell_setting 'orthorhombic'
loop_
_space_group_symop_operation_xyz
x,y,z
-x,-y,z
1/2+x,1/2-y,-z
1/2-x,1/2+y,-z
loop_
_atom_site_type_symbol
_atom_site_label
_atom_site_fract_x
_atom_site_fract_y
_atom_site_fract_z
Si Si1 0.650083 0.017319 0.957193
Si Si2 0.955926 0.255448 0.624742
Si Si3 0.000000 0.500000 0.876320
Si Si4 0.723894 0.876133 0.431779
Si Si5 0.790682 0.011552 0.160268
O O1 0.650862 0.751027 0.873732
O O2 0.661137 0.246291 0.854045
O O3 0.569653 0.085355 0.029695
O O4 0.717094 0.018146 0.064920
O O5 0.968466 0.267214 0.782001
O O6 0.864064 0.264551 0.589377
O O7 0.000000 0.500000 0.557672
O O8 0.000000 0.000000 0.570303
O O9 0.774650 0.616249 0.465607
O O10 0.758868 0.021555 0.306113
#
# Coordination Sequence:
#
# PCOD8156059 Si02
#       5
#     4   4   2   4   4
#     4  10  21  34  65  86 129 148 198 261 318 369
#     4  10  22  38  64  95 123 155 219 271 310 367
#     4  10  22  36  66  94 120 164 206 262 322 372
#     4  12  24  41  68  92 126 175 221 261 310 378
#     4  10  21  39  56  95 121 161 195 256 314 369
#
# _framework density 20.151118
#
# number of rings (size 3 to 8) (size 9 to 14) (size 15 to 20)
#    0.667    0.889    2.222    2.667    3.111    1.778 
#    0.000    0.000   24.444    0.000    0.000    0.000 
#    0.000    0.000    0.000    0.000    0.000    0.000 
#
# Total GULP energy -223076.036020 kJ/mol
# GULP energy per Si atom -12393.113112 kJ/mol
# Density = 2.010525 g / cm^3
# Si number density = 20.151118 Si / 1000 Ang^3
#
#
#
# Elastic Constant Matrix: (Units=GPa)
#
#
# Indices 1 2 3 4 5 6 
#
# 1 100.1478 46.9120 29.2135 0.0000 0.0000 0.0000
# 2 46.9120 138.1084 41.8236 0.0000 0.0000 0.0000
# 3 29.2135 41.8236 59.3158 0.0000 0.0000 0.0000
# 4 0.0000 0.0000 0.0000 14.7865 0.0000 0.0000
# 5 0.0000 0.0000 0.0000 0.0000 19.2316 0.0000
# 6 0.0000 0.0000 0.0000 0.0000 0.0000 24.4004
#
#
#
# Elastic Compliance Matrix: (Units=1/GPa)
#
#
# Indices 1 2 3 4 5 6 
#
# 1 0.012597 -0.003052 -0.004052 0.000000 0.000000 0.000000
# 2 -0.003052 0.009946 -0.005510 0.000000 0.000000 0.000000
# 3 -0.004052 -0.005510 0.022740 0.000000 0.000000 0.000000
# 4 0.000000 0.000000 0.000000 0.067629 0.000000 0.000000
# 5 0.000000 0.000000 0.000000 0.000000 0.051998 0.000000
# 6 0.000000 0.000000 0.000000 0.000000 0.000000 0.040983
#
#
# Mechanical properties :
#
#
# Convention : Reuss Voigt Hill
#
# Bulk Modulus (GPa) = 49.86357 59.27449 54.56903
# Shear Modulus (GPa) = 21.02566 23.65855 22.34211
#
# Velocity S-wave (km/s) = 3.23367 3.43017 3.33337
# Velocity P-wave (km/s) = 6.22420 6.72063 6.47718
#
# Compressibility (1/GPa) = 0.02005472
#
# Stress axis : x y z
#
# Youngs Moduli (GPa) = 79.38521 100.54483 43.97592
#
# Poissons Ratio (x) = 0.30683 0.17820
# Poissons Ratio (y) = 0.24226 0.24230
# Poissons Ratio (z) = 0.32169 0.55399
#
# Static dielectric constant tensor:
#      x y z
#    x 3.608260 0.000000 0.000000 
#    y 0.000000 3.757260 0.000000 
#    z 0.000000 0.000000 3.477800 
# 
# 
# High freq. dielectric constant tensor:
#      x y z
#    x 1.777290 0.000000 0.000000 
#    y 0.000000 1.798080 0.000000 
#    z 0.000000 0.000000 1.768800 
# 
# From -- ./inp_files/2455.got.cif
#   From: 2010.03.12/outbox.cif.g09.slc.cpg/sg18_2_cif.got.tgz:2455.got - 2010.04.10 18:53:55.
