data_PCOD8156092
_publ_section_title
;
Structure prediction by ZEFSAII (Michael W. Deem and Ramdas Pophale) SiO2 
 PCOD8156092
Probable space group: P 21 21 2
;
_chemical_formula_sum "Si O2"
_cell_formula_units_Z 16
_cell_length_a 4.939234
_cell_length_b 16.589497
_cell_length_c 8.839853
_cell_angle_alpha 90.000000
_cell_angle_beta 90.000000
_cell_angle_gamma 90.000000
_cell_volume 724.332318
_symmetry_space_group_name_H-M "P 21 21 2"
_symmetry_group_IT_number 18
_symmetry_cell_setting 'orthorhombic'
loop_
_space_group_symop_operation_xyz
x,y,z
-x,-y,z
1/2+x,1/2-y,-z
1/2-x,1/2+y,-z
loop_
_atom_site_type_symbol
_atom_site_label
_atom_site_fract_x
_atom_site_fract_y
_atom_site_fract_z
Si Si1 0.520653 0.824908 0.145256
Si Si2 0.474888 0.355293 0.039962
Si Si3 0.939962 0.697207 0.521864
Si Si4 0.264055 0.448090 0.317826
O O1 0.548380 0.729501 0.125002
O O2 0.553970 0.842263 0.323552
O O3 0.735991 0.870478 0.038335
O O4 0.231444 0.858681 0.098829
O O5 0.408001 0.423227 0.161391
O O6 0.692931 0.758562 0.559461
O O7 0.824596 0.628761 0.413504
O O8 0.500000 0.500000 0.403463
O O9 0.000000 0.500000 0.282566
#
# Coordination Sequence:
#
# PCOD8156092 Si02
#       4
#     4   4   4   4
#     4  10  21  38  68  99 129 166 230 289 327 389
#     4  10  21  40  64  98 132 170 223 280 339 405
#     4  12  24  42  71 106 137 180 235 294 341 410
#     4  12  26  44  67 102 144 187 226 285 363 424
#
# _framework density 22.089309
#
# number of rings (size 3 to 8) (size 9 to 14) (size 15 to 20)
#    0.000    1.000    2.500    4.500    7.000    0.000 
#    0.000    5.000    0.000    0.000    0.000    0.000 
#    0.000    0.000    0.000    0.000    0.000    0.000 
#
# Total GULP energy -198419.326290 kJ/mol
# GULP energy per Si atom -12401.207893 kJ/mol
# Density = 2.203903 g / cm^3
# Si number density = 22.089309 Si / 1000 Ang^3
#
#
#
# Elastic Constant Matrix: (Units=GPa)
#
#
# Indices 1 2 3 4 5 6 
#
# 1 115.8860 35.0091 18.0466 0.0000 0.0000 0.0000
# 2 35.0091 74.0174 32.3376 0.0000 0.0000 0.0000
# 3 18.0466 32.3376 116.2091 0.0000 0.0000 0.0000
# 4 0.0000 0.0000 0.0000 8.2712 0.0000 0.0000
# 5 0.0000 0.0000 0.0000 0.0000 37.0154 0.0000
# 6 0.0000 0.0000 0.0000 0.0000 0.0000 38.1801
#
#
#
# Elastic Compliance Matrix: (Units=1/GPa)
#
#
# Indices 1 2 3 4 5 6 
#
# 1 0.010075 -0.004647 -0.000272 0.000000 0.000000 0.000000
# 2 -0.004647 0.017523 -0.004155 0.000000 0.000000 0.000000
# 3 -0.000272 -0.004155 0.009803 0.000000 0.000000 0.000000
# 4 0.000000 0.000000 0.000000 0.120901 0.000000 0.000000
# 5 0.000000 0.000000 0.000000 0.000000 0.027016 0.000000
# 6 0.000000 0.000000 0.000000 0.000000 0.000000 0.026192
#
#
# Mechanical properties :
#
#
# Convention : Reuss Voigt Hill
#
# Bulk Modulus (GPa) = 51.93163 52.98881 52.46022
# Shear Modulus (GPa) = 21.17968 31.40793 26.29380
#
# Velocity S-wave (km/s) = 3.09984 3.77485 3.45387
# Velocity P-wave (km/s) = 6.03100 6.56047 6.30130
#
# Compressibility (1/GPa) = 0.01925609
#
# Stress axis : x y z
#
# Youngs Moduli (GPa) = 99.25299 57.06677 102.00483
#
# Poissons Ratio (x) = 0.26518 0.02770
# Poissons Ratio (y) = 0.46121 0.42379
# Poissons Ratio (z) = 0.02695 0.23709
#
# Static dielectric constant tensor:
#      x y z
#    x 4.359730 0.000000 0.000000 
#    y 0.000000 4.016290 0.000000 
#    z 0.000000 0.000000 3.811510 
# 
# 
# High freq. dielectric constant tensor:
#      x y z
#    x 1.893980 0.000000 0.000000 
#    y 0.000000 1.848390 0.000000 
#    z 0.000000 0.000000 1.864620 
# 
# From -- ./inp_files/2417.got.cif
#   From: 2010.03.12/outbox.cif.g09.slc.cpg/sg18_2_cif.got.tgz:2417.got - 2010.04.10 18:53:55.
