data_PCOD8156400
_publ_section_title
;
Structure prediction by ZEFSAII (Michael W. Deem and Ramdas Pophale) SiO2 
 PCOD8156400
Probable space group: P 21 21 2
;
_chemical_formula_sum "Si O2"
_cell_formula_units_Z 22
_cell_length_a 15.628383
_cell_length_b 5.152376
_cell_length_c 11.734765
_cell_angle_alpha 90.000000
_cell_angle_beta 90.000000
_cell_angle_gamma 90.000000
_cell_volume 944.922067
_symmetry_space_group_name_H-M "P 21 21 2"
_symmetry_group_IT_number 18
_symmetry_cell_setting 'orthorhombic'
loop_
_space_group_symop_operation_xyz
x,y,z
-x,-y,z
1/2+x,1/2-y,-z
1/2-x,1/2+y,-z
loop_
_atom_site_type_symbol
_atom_site_label
_atom_site_fract_x
_atom_site_fract_y
_atom_site_fract_z
Si Si1 0.098835 0.569777 0.680456
Si Si2 0.699622 0.721383 0.521412
Si Si3 0.172361 0.071127 0.793751
Si Si4 0.000000 0.500000 0.170042
Si Si5 0.846835 0.224964 0.232894
Si Si6 0.405427 0.617420 0.963391
O O1 0.120555 0.669721 0.553516
O O2 0.150272 0.307501 0.707719
O O3 0.000000 0.500000 0.693120
O O4 0.126302 0.799836 0.766135
O O5 0.740429 0.475050 0.455924
O O6 0.671821 0.601462 0.643067
O O7 0.275825 0.050104 0.791917
O O8 0.142574 0.152936 0.918936
O O9 0.053677 0.692014 0.249545
O O10 0.076718 0.397453 0.090135
O O11 0.844008 0.028422 0.126692
O O12 0.500000 0.500000 0.979664
#
# Coordination Sequence:
#
# PCOD8156400 Si02
#       6
#     4   4   4   2   4   4
#     4  12  26  47  73 112 146 202 249 312 378 443
#     4  12  25  49  71 105 149 194 254 308 366 443
#     4  12  27  45  79 107 151 192 253 304 376 456
#     4  10  26  46  70 106 146 190 250 300 384 436
#     4  11  26  45  72 106 145 196 248 305 373 445
#     4  10  25  46  69 108 144 193 237 314 371 452
#
# _framework density 23.282340999999999
#
# number of rings (size 3 to 8) (size 9 to 14) (size 15 to 20)
#    0.000    0.727    3.636    1.636   15.273    0.000 
#    0.000    1.818    0.000    0.000    0.000    0.000 
#    0.000    0.000    0.000    0.000    0.000    0.000 
#
# Total GULP energy -272603.737085 kJ/mol
# GULP energy per Si atom -12391.078958 kJ/mol
# Density = 2.322935 g / cm^3
# Si number density = 23.282341 Si / 1000 Ang^3
#
#
#
# Elastic Constant Matrix: (Units=GPa)
#
#
# Indices 1 2 3 4 5 6 
#
# 1 125.3177 38.0181 48.8461 0.0000 0.0000 0.0000
# 2 38.0181 102.0523 4.0413 0.0000 0.0000 0.0000
# 3 48.8461 4.0413 106.4215 0.0000 0.0000 0.0000
# 4 0.0000 0.0000 0.0000 22.2943 0.0000 0.0000
# 5 0.0000 0.0000 0.0000 0.0000 34.0902 0.0000
# 6 0.0000 0.0000 0.0000 0.0000 0.0000 35.7269
#
#
#
# Elastic Compliance Matrix: (Units=1/GPa)
#
#
# Indices 1 2 3 4 5 6 
#
# 1 0.011103 -0.003940 -0.004947 0.000000 0.000000 0.000000
# 2 -0.003940 0.011212 0.001383 0.000000 0.000000 0.000000
# 3 -0.004947 0.001383 0.011615 0.000000 0.000000 0.000000
# 4 0.000000 0.000000 0.000000 0.044855 0.000000 0.000000
# 5 0.000000 0.000000 0.000000 0.000000 0.029334 0.000000
# 6 0.000000 0.000000 0.000000 0.000000 0.000000 0.027990
#
#
# Mechanical properties :
#
#
# Convention : Reuss Voigt Hill
#
# Bulk Modulus (GPa) = 52.85021 57.28917 55.06969
# Shear Modulus (GPa) = 31.76135 34.61468 33.18802
#
# Velocity S-wave (km/s) = 3.69749 3.86000 3.77962
# Velocity P-wave (km/s) = 6.40137 6.67277 6.53848
#
# Compressibility (1/GPa) = 0.01892140
#
# Stress axis : x y z
#
# Youngs Moduli (GPa) = 90.06388 89.18944 86.09917
#
# Poissons Ratio (x) = 0.35145 0.42590
# Poissons Ratio (y) = 0.35489 -0.11906
# Poissons Ratio (z) = 0.44551 -0.12333
#
# Static dielectric constant tensor:
#      x y z
#    x 4.373660 0.000000 0.000000 
#    y 0.000000 4.207510 0.000000 
#    z 0.000000 0.000000 4.177910 
# 
# 
# High freq. dielectric constant tensor:
#      x y z
#    x 1.929170 0.000000 0.000000 
#    y 0.000000 1.915670 0.000000 
#    z 0.000000 0.000000 1.928790 
# 
# From -- ./inp_files/6031.got.cif
#   From: 2010.03.12/outbox.cif.g09.slc.cpg/sg18_4_cif.got.tgz:6031.got - 2010.04.10 18:53:55.
