data_PCOD8156452
_publ_section_title
;
Structure prediction by ZEFSAII (Michael W. Deem and Ramdas Pophale) SiO2 
 PCOD8156452
Probable space group: P 21 21 2
;
_chemical_formula_sum "Si O2"
_cell_formula_units_Z 32
_cell_length_a 9.372185
_cell_length_b 14.277496
_cell_length_c 11.563960
_cell_angle_alpha 90.000000
_cell_angle_beta 90.000000
_cell_angle_gamma 90.000000
_cell_volume 1547.388912
_symmetry_space_group_name_H-M "P 21 21 2"
_symmetry_group_IT_number 18
_symmetry_cell_setting 'orthorhombic'
loop_
_space_group_symop_operation_xyz
x,y,z
-x,-y,z
1/2+x,1/2-y,-z
1/2-x,1/2+y,-z
loop_
_atom_site_type_symbol
_atom_site_label
_atom_site_fract_x
_atom_site_fract_y
_atom_site_fract_z
Si Si1 0.046311 0.218915 0.887803
Si Si2 0.259122 0.157880 0.500028
Si Si3 0.712533 0.258555 0.878822
Si Si4 0.618211 0.119064 0.267042
Si Si5 0.873358 0.567709 0.243119
Si Si6 0.914763 0.667151 0.475069
Si Si7 0.789932 0.426554 0.730859
Si Si8 0.123314 0.062110 0.717602
O O1 0.142787 0.291373 0.813240
O O2 0.053776 0.121369 0.820579
O O3 0.879790 0.243405 0.904860
O O4 0.124249 0.212854 0.009357
O O5 0.172172 0.241079 0.438832
O O6 0.419313 0.193710 0.519970
O O7 0.256027 0.074572 0.406429
O O8 0.192460 0.127811 0.621146
O O9 0.637508 0.166191 0.824684
O O10 0.694327 0.350320 0.797520
O O11 0.648490 0.136499 0.401851
O O12 0.454193 0.095556 0.249479
O O13 0.725558 0.034800 0.227132
O O14 0.891278 0.586154 0.380321
O O15 0.733251 0.507624 0.222091
O O16 0.000000 0.500000 0.197529
O O17 0.000000 0.000000 0.658028
#
# Coordination Sequence:
#
# PCOD8156452 Si02
#       8
#     4   4   4   4   4   4   4   4
#     4  11  25  45  66  95 129 179 226 285 338 396
#     4  11  22  39  67  99 137 176 212 272 340 406
#     4  11  25  45  68  93 133 173 229 283 336 397
#     4   9  19  38  64  91 127 167 213 259 331 396
#     4  12  25  43  68 102 133 178 229 280 339 422
#     4  11  22  38  67  99 136 172 218 271 337 409
#     4   9  19  39  63  94 126 166 211 267 323 392
#     4  12  25  43  67  98 138 179 225 279 350 409
#
# _framework density 20.679998999999999
#
# number of rings (size 3 to 8) (size 9 to 14) (size 15 to 20)
#    0.000    1.250    5.000    0.750    5.250    1.000 
#    2.250    0.000    0.000    0.000    0.000    0.000 
#    0.000    0.000    0.000    0.000    0.000    0.000 
#
# Total GULP energy -396653.774946 kJ/mol
# GULP energy per Si atom -12395.430467 kJ/mol
# Density = 2.063293 g / cm^3
# Si number density = 20.679999 Si / 1000 Ang^3
#
#
#
# Elastic Constant Matrix: (Units=GPa)
#
#
# Indices 1 2 3 4 5 6 
#
# 1 83.8755 35.3128 25.3858 0.0000 0.0000 0.0000
# 2 35.3128 109.0404 26.7617 0.0000 0.0000 0.0000
# 3 25.3858 26.7617 96.0029 0.0000 0.0000 0.0000
# 4 0.0000 0.0000 0.0000 11.6754 0.0000 0.0000
# 5 0.0000 0.0000 0.0000 0.0000 26.7161 0.0000
# 6 0.0000 0.0000 0.0000 0.0000 0.0000 40.1181
#
#
#
# Elastic Compliance Matrix: (Units=1/GPa)
#
#
# Indices 1 2 3 4 5 6 
#
# 1 0.014427 -0.004010 -0.002697 0.000000 0.000000 0.000000
# 2 -0.004010 0.010959 -0.001995 0.000000 0.000000 0.000000
# 3 -0.002697 -0.001995 0.011686 0.000000 0.000000 0.000000
# 4 0.000000 0.000000 0.000000 0.085650 0.000000 0.000000
# 5 0.000000 0.000000 0.000000 0.000000 0.037431 0.000000
# 6 0.000000 0.000000 0.000000 0.000000 0.000000 0.024926
#
#
# Mechanical properties :
#
#
# Convention : Reuss Voigt Hill
#
# Bulk Modulus (GPa) = 50.84382 51.53773 51.19078
# Shear Modulus (GPa) = 23.91904 29.13249 26.52577
#
# Velocity S-wave (km/s) = 3.40461 3.75737 3.58533
# Velocity P-wave (km/s) = 6.33202 6.61812 6.47665
#
# Compressibility (1/GPa) = 0.01966807
#
# Stress axis : x y z
#
# Youngs Moduli (GPa) = 69.31397 91.24783 85.57608
#
# Poissons Ratio (x) = 0.36593 0.23080
# Poissons Ratio (y) = 0.27797 0.17068
# Poissons Ratio (z) = 0.18694 0.18200
#
# Static dielectric constant tensor:
#      x y z
#    x 3.716950 0.000000 0.000000 
#    y 0.000000 4.168980 0.000000 
#    z 0.000000 0.000000 3.579970 
# 
# 
# High freq. dielectric constant tensor:
#      x y z
#    x 1.796090 0.000000 0.000000 
#    y 0.000000 1.823290 0.000000 
#    z 0.000000 0.000000 1.798400 
# 
# From -- ./inp_files/5676.got.cif
#   From: 2010.03.12/outbox.cif.g09.slc.cpg/sg18_3_cif.got.tgz:5676.got - 2010.04.10 18:53:55.
