data_PCOD8156180
_publ_section_title
;
Structure prediction by ZEFSAII (Michael W. Deem and Ramdas Pophale) SiO2 
 PCOD8156180
Probable space group: P 21 21 2
;
_chemical_formula_sum "Si O2"
_cell_formula_units_Z 28
_cell_length_a 12.976462
_cell_length_b 19.510646
_cell_length_c 5.282396
_cell_angle_alpha 90.000000
_cell_angle_beta 90.000000
_cell_angle_gamma 90.000000
_cell_volume 1337.392563
_symmetry_space_group_name_H-M "P 21 21 2"
_symmetry_group_IT_number 18
_symmetry_cell_setting 'orthorhombic'
loop_
_space_group_symop_operation_xyz
x,y,z
-x,-y,z
1/2+x,1/2-y,-z
1/2-x,1/2+y,-z
loop_
_atom_site_type_symbol
_atom_site_label
_atom_site_fract_x
_atom_site_fract_y
_atom_site_fract_z
Si Si1 0.392238 0.138325 0.128708
Si Si2 0.520944 0.921635 0.651271
Si Si3 0.520944 0.578365 0.848730
Si Si4 0.844366 0.823363 0.125079
Si Si5 0.392238 0.361674 0.371293
Si Si6 0.033799 0.250000 0.750000
Si Si7 0.844366 0.676637 0.374921
O O1 0.423704 0.110846 0.406029
O O2 0.272490 0.155278 0.134487
O O3 0.456114 0.208074 0.062855
O O4 0.407048 0.084281 0.900573
O O5 0.414042 0.884911 0.734143
O O6 0.500000 0.000000 0.587174
O O7 0.500000 0.500000 0.912826
O O8 0.414042 0.615089 0.765857
O O9 0.592952 0.584281 0.599430
O O10 0.576295 0.610846 0.093974
O O11 0.865029 0.750000 0.250000
O O12 0.890552 0.809963 0.847373
O O13 0.456114 0.291926 0.437146
O O14 0.272490 0.344722 0.365513
O O15 0.109448 0.309964 0.652626
#
# Coordination Sequence:
#
# PCOD8156180 Si02
#       7
#     4   4   4   4   4   4   4
#     4  11  24  40  68  93 128 170 217 266 327 384
#     4  11  26  45  64  95 135 174 217 265 323 394
#     4  11  26  45  64  95 135 174 217 265 323 394
#     4  11  23  39  67  95 131 166 219 272 327 375
#     4  11  24  40  68  93 128 170 217 266 327 384
#     4  10  22  38  62  98 130 160 214 274 326 380
#     4  11  23  39  67  95 131 166 219 272 327 375
#
# _framework density 20.936261999999999
#
# number of rings (size 3 to 8) (size 9 to 14) (size 15 to 20)
#    0.000    1.143    4.286    0.857    4.000    2.286 
#    0.000    0.000    0.000    0.000    0.000    0.000 
#    0.000    0.000    0.000    0.000    0.000    0.000 
#
# Total GULP energy -346865.715762 kJ/mol
# GULP energy per Si atom -12388.061277 kJ/mol
# Density = 2.088861 g / cm^3
# Si number density = 20.936262 Si / 1000 Ang^3
#
#
#
# Elastic Constant Matrix: (Units=GPa)
#
#
# Indices 1 2 3 4 5 6 
#
# 1 183.6302 78.0463 52.1754 0.0000 0.0000 0.0000
# 2 78.0463 124.8713 22.0590 0.0000 0.0000 0.0000
# 3 52.1754 22.0590 100.1226 0.0000 0.0000 0.0000
# 4 0.0000 0.0000 0.0000 27.6535 0.0000 0.0000
# 5 0.0000 0.0000 0.0000 0.0000 23.6661 0.0000
# 6 0.0000 0.0000 0.0000 0.0000 0.0000 23.2413
#
#
#
# Elastic Compliance Matrix: (Units=1/GPa)
#
#
# Indices 1 2 3 4 5 6 
#
# 1 0.008366 -0.004639 -0.003337 0.000000 0.000000 0.000000
# 2 -0.004639 0.010905 0.000015 0.000000 0.000000 0.000000
# 3 -0.003337 0.000015 0.011724 0.000000 0.000000 0.000000
# 4 0.000000 0.000000 0.000000 0.036162 0.000000 0.000000
# 5 0.000000 0.000000 0.000000 0.000000 0.042255 0.000000
# 6 0.000000 0.000000 0.000000 0.000000 0.000000 0.043027
#
#
# Mechanical properties :
#
#
# Convention : Reuss Voigt Hill
#
# Bulk Modulus (GPa) = 66.35160 79.24283 72.79721
# Shear Modulus (GPa) = 28.83762 32.00175 30.41969
#
# Velocity S-wave (km/s) = 3.71536 3.91389 3.81592
# Velocity P-wave (km/s) = 7.08281 7.63914 7.36623
#
# Compressibility (1/GPa) = 0.01507123
#
# Stress axis : x y z
#
# Youngs Moduli (GPa) = 119.53567 91.70004 85.29775
#
# Poissons Ratio (x) = 0.42541 0.28467
# Poissons Ratio (y) = 0.55454 -0.00127
# Poissons Ratio (z) = 0.39894 -0.00137
#
# Static dielectric constant tensor:
#      x y z
#    x 3.743870 0.000000 0.000000 
#    y 0.000000 3.848970 0.000000 
#    z 0.000000 0.000000 3.858120 
# 
# 
# High freq. dielectric constant tensor:
#      x y z
#    x 1.830550 0.000000 0.000000 
#    y 0.000000 1.818150 0.000000 
#    z 0.000000 0.000000 1.814740 
# 
# From -- ./inp_files/1212.got.cif
#   From: 2010.03.12/outbox.cif.g09.slc.cpg/sg18_1_cif.got.tgz:1212.got - 2010.04.10 18:53:55.
