data_PCOD8156971
_publ_section_title
;
Structure prediction by ZEFSAII (Michael W. Deem and Ramdas Pophale) SiO2 
 PCOD8156971
Probable space group: P 21 21 21
;
_chemical_formula_sum "Si O2"
_cell_formula_units_Z 32
_cell_length_a 9.884056
_cell_length_b 20.073056
_cell_length_c 8.551633
_cell_angle_alpha 90.000000
_cell_angle_beta 90.000000
_cell_angle_gamma 90.000000
_cell_volume 1696.671434
_symmetry_space_group_name_H-M "P 21 21 21"
_symmetry_group_IT_number 19
_symmetry_cell_setting 'orthorhombic'
loop_
_space_group_symop_operation_xyz
x,y,z
1/2-x,-y,1/2+z
1/2+x,1/2-y,-z
-x,1/2+y,1/2-z
loop_
_atom_site_type_symbol
_atom_site_label
_atom_site_fract_x
_atom_site_fract_y
_atom_site_fract_z
Si Si1 0.655037 0.802617 0.681775
Si Si2 0.857595 0.057916 0.797049
Si Si3 0.353187 0.950118 0.684161
Si Si4 0.839215 0.562466 0.686304
Si Si5 0.136561 0.190244 0.320229
Si Si6 0.139368 0.202553 0.685124
Si Si7 0.651977 0.791350 0.317022
Si Si8 0.344443 0.453148 0.840464
O O1 0.498913 0.791662 0.726279
O O2 0.749785 0.759764 0.793721
O O3 0.673239 0.781586 0.501817
O O4 0.698839 0.879083 0.711161
O O5 0.811338 0.133544 0.764083
O O6 0.012310 0.047567 0.743030
O O7 0.763123 0.007455 0.707748
O O8 0.849959 0.041177 0.976313
O O9 0.336182 0.938837 0.500263
O O10 0.310098 0.882893 0.773323
O O11 0.507318 0.968973 0.728785
O O12 0.261696 0.009785 0.741506
O O13 0.795941 0.635872 0.741561
O O14 0.106497 0.192688 0.503600
O O15 0.252153 0.242455 0.277543
O O16 0.003604 0.223950 0.775621
#
# Coordination Sequence:
#
# PCOD8156971 Si02
#       8
#     4   4   4   4   4   4   4   4
#     4  10  21  39  58  80 112 150 186 227 280 337
#     4   9  20  36  56  80 108 141 180 222 270 325
#     4  10  21  38  57  81 112 147 185 228 277 334
#     4  10  21  38  57  81 112 147 185 228 277 334
#     4  11  22  37  58  85 112 144 187 235 281 332
#     4  11  22  37  58  85 112 144 187 235 281 332
#     4  10  21  39  58  80 112 150 186 227 280 337
#     4   9  20  36  56  80 108 141 180 222 270 325
#
# _framework density 18.860458000000001
#
# number of rings (size 3 to 8) (size 9 to 14) (size 15 to 20)
#    0.000    2.000    0.000    5.250    0.000    8.000 
#    0.000    5.000    0.000    0.000    0.000    0.000 
#    0.000    0.000    0.000    0.000    0.000    0.000 
#
# Total GULP energy -396870.001859 kJ/mol
# GULP energy per Si atom -12402.187558 kJ/mol
# Density = 1.881753 g / cm^3
# Si number density = 18.860458 Si / 1000 Ang^3
#
#
#
# Elastic Constant Matrix: (Units=GPa)
#
#
# Indices 1 2 3 4 5 6 
#
# 1 60.6868 38.7308 3.6311 0.0000 0.0000 0.0000
# 2 38.7308 64.8962 1.3534 0.0000 0.0000 0.0000
# 3 3.6311 1.3534 41.1501 0.0000 0.0000 0.0000
# 4 0.0000 0.0000 0.0000 39.4925 0.0000 0.0000
# 5 0.0000 0.0000 0.0000 0.0000 30.2830 0.0000
# 6 0.0000 0.0000 0.0000 0.0000 0.0000 40.5385
#
#
#
# Elastic Compliance Matrix: (Units=1/GPa)
#
#
# Indices 1 2 3 4 5 6 
#
# 1 0.026754 -0.015929 -0.001837 0.000000 0.000000 0.000000
# 2 -0.015929 0.024903 0.000586 0.000000 0.000000 0.000000
# 3 -0.001837 0.000586 0.024444 0.000000 0.000000 0.000000
# 4 0.000000 0.000000 0.000000 0.025321 0.000000 0.000000
# 5 0.000000 0.000000 0.000000 0.000000 0.033022 0.000000
# 6 0.000000 0.000000 0.000000 0.000000 0.000000 0.024668
#
#
# Mechanical properties :
#
#
# Convention : Reuss Voigt Hill
#
# Bulk Modulus (GPa) = 23.95602 28.24041 26.09821
# Shear Modulus (GPa) = 24.10979 30.26397 27.18688
#
# Velocity S-wave (km/s) = 3.57925 4.01012 3.80080
# Velocity P-wave (km/s) = 5.45991 6.03716 5.75578
#
# Compressibility (1/GPa) = 0.04174317
#
# Stress axis : x y z
#
# Youngs Moduli (GPa) = 37.37797 40.15517 40.90972
#
# Poissons Ratio (x) = 0.63962 0.07514
# Poissons Ratio (y) = 0.59538 -0.02399
# Poissons Ratio (z) = 0.06866 -0.02355
#
# Static dielectric constant tensor:
#      x y z
#    x 2.543330 0.000000 0.000000 
#    y 0.000000 4.298370 0.000000 
#    z 0.000000 0.000000 3.482460 
# 
# 
# High freq. dielectric constant tensor:
#      x y z
#    x 1.732510 0.000000 0.000000 
#    y 0.000000 1.738470 0.000000 
#    z 0.000000 0.000000 1.742410 
# 
# From -- ./inp_files/3157.got.cif
#   From: 2010.03.12/outbox.cif.g09.slc.cpg/sg19_2_cif.got.tgz:3157.got - 2010.04.10 18:59:41.
