data_PCOD8156938
_publ_section_title
;
Structure prediction by ZEFSAII (Michael W. Deem and Ramdas Pophale) SiO2 
 PCOD8156938
Probable space group: P 21 21 21
;
_chemical_formula_sum "Si O2"
_cell_formula_units_Z 32
_cell_length_a 8.658207
_cell_length_b 8.190194
_cell_length_c 22.558511
_cell_angle_alpha 90.000000
_cell_angle_beta 90.000000
_cell_angle_gamma 90.000000
_cell_volume 1599.678043
_symmetry_space_group_name_H-M "P 21 21 21"
_symmetry_group_IT_number 19
_symmetry_cell_setting 'orthorhombic'
loop_
_space_group_symop_operation_xyz
x,y,z
1/2-x,-y,1/2+z
1/2+x,1/2-y,-z
-x,1/2+y,1/2-z
loop_
_atom_site_type_symbol
_atom_site_label
_atom_site_fract_x
_atom_site_fract_y
_atom_site_fract_z
Si Si1 0.092503 0.915826 0.635535
Si Si2 0.706961 0.098022 0.341838
Si Si3 0.821992 0.780615 0.296668
Si Si4 0.194847 0.594964 0.821401
Si Si5 0.197350 0.814438 0.930329
Si Si6 0.594184 0.411356 0.143876
Si Si7 0.865607 0.687559 0.948708
Si Si8 0.821083 0.229962 0.221739
O O1 0.249477 0.878234 0.671816
O O2 0.995137 0.751410 0.622923
O O3 0.144905 0.000290 0.574222
O O4 0.986148 0.048513 0.670127
O O5 0.728645 0.192986 0.403846
O O6 0.758364 0.214010 0.288239
O O7 0.812659 0.935205 0.341506
O O8 0.527488 0.045998 0.331440
O O9 0.711144 0.810019 0.240314
O O10 0.997049 0.761772 0.276401
O O11 0.258380 0.706233 0.874919
O O12 0.297126 0.431239 0.818061
O O13 0.039649 0.742451 0.953692
O O14 0.179668 0.004646 0.911837
O O15 0.312941 0.801389 0.984267
O O16 0.724859 0.377844 0.193028
#
# Coordination Sequence:
#
# PCOD8156938 Si02
#       8
#     4   4   4   4   4   4   4   4
#     4   9  20  39  59  82 114 152 188 228 290 361
#     4   9  21  38  56  83 115 151 191 228 286 361
#     4  10  21  36  58  90 119 145 186 244 294 336
#     4   9  21  38  56  83 115 151 191 228 286 361
#     4  10  22  39  59  81 108 149 196 237 280 338
#     4   9  20  39  59  82 114 152 188 228 290 361
#     4  10  22  39  59  81 108 149 196 237 280 338
#     4  10  21  36  58  90 119 145 186 244 294 336
#
# _framework density 20.004024000000001
#
# number of rings (size 3 to 8) (size 9 to 14) (size 15 to 20)
#    0.000    2.500    0.000    0.000    0.000   25.000 
#    0.000   12.500    0.000    0.000    0.000    0.000 
#    0.000    0.000    0.000    0.000    0.000    0.000 
#
# Total GULP energy -396712.252226 kJ/mol
# GULP energy per Si atom -12397.257882 kJ/mol
# Density = 1.995849 g / cm^3
# Si number density = 20.004024 Si / 1000 Ang^3
#
#
#
# Elastic Constant Matrix: (Units=GPa)
#
#
# Indices 1 2 3 4 5 6 
#
# 1 49.7135 9.9580 0.7382 0.0000 0.0000 0.0000
# 2 9.9580 66.2947 18.0420 0.0000 0.0000 0.0000
# 3 0.7382 18.0420 46.0400 0.0000 0.0000 0.0000
# 4 0.0000 0.0000 0.0000 27.3828 0.0000 0.0000
# 5 0.0000 0.0000 0.0000 0.0000 30.8369 0.0000
# 6 0.0000 0.0000 0.0000 0.0000 0.0000 19.0921
#
#
#
# Elastic Compliance Matrix: (Units=1/GPa)
#
#
# Indices 1 2 3 4 5 6 
#
# 1 0.020780 -0.003392 0.000996 0.000000 0.000000 0.000000
# 2 -0.003392 0.017439 -0.006779 0.000000 0.000000 0.000000
# 3 0.000996 -0.006779 0.024361 0.000000 0.000000 0.000000
# 4 0.000000 0.000000 0.000000 0.036519 0.000000 0.000000
# 5 0.000000 0.000000 0.000000 0.000000 0.032429 0.000000
# 6 0.000000 0.000000 0.000000 0.000000 0.000000 0.052378
#
#
# Mechanical properties :
#
#
# Convention : Reuss Voigt Hill
#
# Bulk Modulus (GPa) = 22.60990 24.39161 23.50075
# Shear Modulus (GPa) = 23.04156 24.34972 23.69564
#
# Velocity S-wave (km/s) = 3.39757 3.49268 3.44545
# Velocity P-wave (km/s) = 5.16899 5.33713 5.25373
#
# Compressibility (1/GPa) = 0.04422842
#
# Stress axis : x y z
#
# Youngs Moduli (GPa) = 48.12324 57.34359 41.04931
#
# Poissons Ratio (x) = 0.19453 -0.04089
# Poissons Ratio (y) = 0.16325 0.27829
# Poissons Ratio (z) = -0.04794 0.38876
#
# Static dielectric constant tensor:
#      x y z
#    x 3.520050 0.000000 0.000000 
#    y 0.000000 3.952830 0.000000 
#    z 0.000000 0.000000 3.488660 
# 
# 
# High freq. dielectric constant tensor:
#      x y z
#    x 1.772160 0.000000 0.000000 
#    y 0.000000 1.793930 0.000000 
#    z 0.000000 0.000000 1.759300 
# 
# From -- ./inp_files/3196.got.cif
#   From: 2010.03.12/outbox.cif.g09.slc.cpg/sg19_2_cif.got.tgz:3196.got - 2010.04.10 18:59:41.
