data_PCOD8156381
_publ_section_title
;
Structure prediction by ZEFSAII (Michael W. Deem and Ramdas Pophale) SiO2 
 PCOD8156381
Probable space group: P 21 21 2
;
_chemical_formula_sum "Si O2"
_cell_formula_units_Z 20
_cell_length_a 9.100447
_cell_length_b 14.660040
_cell_length_c 6.673533
_cell_angle_alpha 90.000000
_cell_angle_beta 90.000000
_cell_angle_gamma 90.000000
_cell_volume 890.335504
_symmetry_space_group_name_H-M "P 21 21 2"
_symmetry_group_IT_number 18
_symmetry_cell_setting 'orthorhombic'
loop_
_space_group_symop_operation_xyz
x,y,z
-x,-y,z
1/2+x,1/2-y,-z
1/2-x,1/2+y,-z
loop_
_atom_site_type_symbol
_atom_site_label
_atom_site_fract_x
_atom_site_fract_y
_atom_site_fract_z
Si Si1 0.119729 0.345627 0.088963
Si Si2 0.039739 0.722312 0.462405
Si Si3 0.319239 0.701263 0.241727
Si Si4 0.327913 0.511902 0.049625
Si Si5 0.100338 0.577142 0.774175
O O1 0.081030 0.320930 0.316163
O O2 0.255450 0.415850 0.112943
O O3 0.157885 0.252776 0.969537
O O4 0.981251 0.391058 0.978436
O O5 0.958536 0.794000 0.607362
O O6 0.178393 0.756537 0.332073
O O7 0.121233 0.651969 0.607752
O O8 0.292927 0.593632 0.206704
O O9 0.500000 0.500000 0.021579
O O10 0.260618 0.540090 0.834263
O O11 0.000000 0.500000 0.672573
#
# Coordination Sequence:
#
# PCOD8156381 Si02
#       5
#     4   4   4   4   4
#     4  10  24  46  70  97 145 191 232 284 364 428
#     4  11  25  43  72  98 140 185 245 284 355 421
#     4  11  27  43  71 106 141 192 234 296 355 425
#     4  11  25  43  72 105 143 185 234 300 358 414
#     4   9  21  42  66  98 129 184 230 279 349 423
#
# _framework density 22.463441
#
# number of rings (size 3 to 8) (size 9 to 14) (size 15 to 20)
#    0.000    1.600    2.000    0.000   11.200    0.000 
#    0.000    1.000    0.000    0.000    0.000    0.000 
#    0.000    0.000    0.000    0.000    0.000    0.000 
#
# Total GULP energy -247882.289322 kJ/mol
# GULP energy per Si atom -12394.114466 kJ/mol
# Density = 2.241231 g / cm^3
# Si number density = 22.463441 Si / 1000 Ang^3
#
#
#
# Elastic Constant Matrix: (Units=GPa)
#
#
# Indices 1 2 3 4 5 6 
#
# 1 130.1942 15.9162 32.0522 0.0000 0.0000 0.0000
# 2 15.9162 64.0468 15.7310 0.0000 0.0000 0.0000
# 3 32.0522 15.7310 85.1485 0.0000 0.0000 0.0000
# 4 0.0000 0.0000 0.0000 16.6361 0.0000 0.0000
# 5 0.0000 0.0000 0.0000 0.0000 26.2212 0.0000
# 6 0.0000 0.0000 0.0000 0.0000 0.0000 31.0777
#
#
#
# Elastic Compliance Matrix: (Units=1/GPa)
#
#
# Indices 1 2 3 4 5 6 
#
# 1 0.008584 -0.001403 -0.002972 0.000000 0.000000 0.000000
# 2 -0.001403 0.016585 -0.002536 0.000000 0.000000 0.000000
# 3 -0.002972 -0.002536 0.013331 0.000000 0.000000 0.000000
# 4 0.000000 0.000000 0.000000 0.060110 0.000000 0.000000
# 5 0.000000 0.000000 0.000000 0.000000 0.038137 0.000000
# 6 0.000000 0.000000 0.000000 0.000000 0.000000 0.032177
#
#
# Mechanical properties :
#
#
# Convention : Reuss Voigt Hill
#
# Bulk Modulus (GPa) = 40.52125 45.19868 42.85997
# Shear Modulus (GPa) = 26.18162 29.16633 27.67397
#
# Velocity S-wave (km/s) = 3.41768 3.60723 3.51373
# Velocity P-wave (km/s) = 5.80103 6.12488 5.96515
#
# Compressibility (1/GPa) = 0.02467841
#
# Stress axis : x y z
#
# Youngs Moduli (GPa) = 116.49503 60.29495 75.01066
#
# Poissons Ratio (x) = 0.08461 0.22293
# Poissons Ratio (y) = 0.16347 0.19022
# Poissons Ratio (z) = 0.34623 0.15290
#
# Static dielectric constant tensor:
#      x y z
#    x 4.094520 0.000000 0.000000 
#    y 0.000000 4.091160 0.000000 
#    z 0.000000 0.000000 3.918240 
# 
# 
# High freq. dielectric constant tensor:
#      x y z
#    x 1.896170 0.000000 0.000000 
#    y 0.000000 1.873530 0.000000 
#    z 0.000000 0.000000 1.883300 
# 
# From -- ./inp_files/513.got.cif
#   From: 2010.03.12/outbox.cif.g09.slc.cpg/sg18_1_cif.got.tgz:513.got - 2010.04.10 18:53:55.
