data_PCOD8156185
_publ_section_title
;
Structure prediction by ZEFSAII (Michael W. Deem and Ramdas Pophale) SiO2 
 PCOD8156185
Probable space group: P 21 21 2
;
_chemical_formula_sum "Si O2"
_cell_formula_units_Z 28
_cell_length_a 12.814995
_cell_length_b 17.571264
_cell_length_c 5.486233
_cell_angle_alpha 90.000000
_cell_angle_beta 90.000000
_cell_angle_gamma 90.000000
_cell_volume 1235.366138
_symmetry_space_group_name_H-M "P 21 21 2"
_symmetry_group_IT_number 18
_symmetry_cell_setting 'orthorhombic'
loop_
_space_group_symop_operation_xyz
x,y,z
-x,-y,z
1/2+x,1/2-y,-z
1/2-x,1/2+y,-z
loop_
_atom_site_type_symbol
_atom_site_label
_atom_site_fract_x
_atom_site_fract_y
_atom_site_fract_z
Si Si1 0.539267 0.737184 0.592438
Si Si2 0.859260 0.094037 0.599844
Si Si3 0.468432 0.790149 0.099079
Si Si4 0.829925 0.587578 0.085044
Si Si5 0.500000 0.000000 0.615951
Si Si6 0.697965 0.472892 0.777546
Si Si7 0.369799 0.126427 0.362706
Si Si8 0.500000 0.500000 0.071902
O O1 0.601866 0.657760 0.589546
O O2 0.477361 0.741311 0.848846
O O3 0.620766 0.808155 0.571281
O O4 0.463121 0.740197 0.350723
O O5 0.759267 0.125379 0.745866
O O6 0.823015 0.018253 0.467334
O O7 0.953515 0.070047 0.776185
O O8 0.366273 0.843988 0.091934
O O9 0.571454 0.843690 0.119728
O O10 0.931467 0.559263 0.229558
O O11 0.781045 0.517052 0.943166
O O12 0.422428 0.047851 0.447634
O O13 0.749307 0.391880 0.703705
O O14 0.588573 0.459173 0.910435
#
# Coordination Sequence:
#
# PCOD8156185 Si02
#       8
#     4   4   4   4   2   4   4   2
#     4  10  25  43  67  96 148 180 226 286 349 429
#     4  11  25  47  67  99 138 192 240 300 341 429
#     4  10  22  43  66 102 144 182 217 286 365 429
#     4  11  22  37  71 104 136 178 229 289 363 422
#     4  12  18  40  68 110 142 170 222 290 368 430
#     4  11  23  41  73  97 134 182 243 294 347 418
#     4  10  22  38  67 104 139 176 215 293 351 431
#     4  10  26  46  70  92 128 188 250 296 338 408
#
# _framework density 22.665347000000001
#
# number of rings (size 3 to 8) (size 9 to 14) (size 15 to 20)
#    0.857    0.571    2.857    2.143    6.000    0.000 
#    2.571    1.429    0.000    0.000    0.000    0.000 
#    0.000    0.000    0.000    0.000    0.000    0.000 
#
# Total GULP energy -347057.393733 kJ/mol
# GULP energy per Si atom -12394.906919 kJ/mol
# Density = 2.261376 g / cm^3
# Si number density = 22.665347 Si / 1000 Ang^3
#
#
#
# Elastic Constant Matrix: (Units=GPa)
#
#
# Indices 1 2 3 4 5 6 
#
# 1 98.3687 10.2801 20.0242 0.0000 0.0000 0.0000
# 2 10.2801 33.2497 -3.3651 0.0000 0.0000 0.0000
# 3 20.0242 -3.3651 105.1125 0.0000 0.0000 0.0000
# 4 0.0000 0.0000 0.0000 18.2638 0.0000 0.0000
# 5 0.0000 0.0000 0.0000 0.0000 9.4358 0.0000
# 6 0.0000 0.0000 0.0000 0.0000 0.0000 18.7451
#
#
#
# Elastic Compliance Matrix: (Units=1/GPa)
#
#
# Indices 1 2 3 4 5 6 
#
# 1 0.010994 -0.003623 -0.002210 0.000000 0.000000 0.000000
# 2 -0.003623 0.031367 0.001694 0.000000 0.000000 0.000000
# 3 -0.002210 0.001694 0.009989 0.000000 0.000000 0.000000
# 4 0.000000 0.000000 0.000000 0.054753 0.000000 0.000000
# 5 0.000000 0.000000 0.000000 0.000000 0.105980 0.000000
# 6 0.000000 0.000000 0.000000 0.000000 0.000000 0.053347
#
#
# Mechanical properties :
#
#
# Convention : Reuss Voigt Hill
#
# Bulk Modulus (GPa) = 22.68992 32.28992 27.48992
# Shear Modulus (GPa) = 17.27716 23.27506 20.27611
#
# Velocity S-wave (km/s) = 2.76392 3.20801 2.99421
# Velocity P-wave (km/s) = 4.49647 5.29141 4.91006
#
# Compressibility (1/GPa) = 0.04407243
#
# Stress axis : x y z
#
# Youngs Moduli (GPa) = 90.95525 31.88052 100.11059
#
# Poissons Ratio (x) = 0.11550 0.22129
# Poissons Ratio (y) = 0.32953 -0.16962
# Poissons Ratio (z) = 0.20105 -0.05402
#
# Static dielectric constant tensor:
#      x y z
#    x 4.446490 0.000000 0.000000 
#    y 0.000000 3.768570 0.000000 
#    z 0.000000 0.000000 4.069130 
# 
# 
# High freq. dielectric constant tensor:
#      x y z
#    x 1.883940 0.000000 0.000000 
#    y 0.000000 1.876400 0.000000 
#    z 0.000000 0.000000 1.896860 
# 
# From -- ./inp_files/1255.got.cif
#   From: 2010.03.12/outbox.cif.g09.slc.cpg/sg18_1_cif.got.tgz:1255.got - 2010.04.10 18:53:55.
