data_PCOD8156705
_publ_section_title
;
Structure prediction by ZEFSAII (Michael W. Deem and Ramdas Pophale) SiO2 
 PCOD8156705
Probable space group: P 21 21 21
;
_chemical_formula_sum "Si O2"
_cell_formula_units_Z 32
_cell_length_a 9.132008
_cell_length_b 9.077881
_cell_length_c 20.833106
_cell_angle_alpha 90.000000
_cell_angle_beta 90.000000
_cell_angle_gamma 90.000000
_cell_volume 1727.049527
_symmetry_space_group_name_H-M "P 21 21 21"
_symmetry_group_IT_number 19
_symmetry_cell_setting 'orthorhombic'
loop_
_space_group_symop_operation_xyz
x,y,z
1/2-x,-y,1/2+z
1/2+x,1/2-y,-z
-x,1/2+y,1/2-z
loop_
_atom_site_type_symbol
_atom_site_label
_atom_site_fract_x
_atom_site_fract_y
_atom_site_fract_z
Si Si1 0.067712 0.031811 0.502127
Si Si2 0.074116 0.283344 0.401540
Si Si3 0.828586 0.518687 0.406232
Si Si4 0.475586 0.675152 0.610188
Si Si5 0.124371 0.566878 0.874668
Si Si6 0.374026 0.403361 0.681675
Si Si7 0.843780 0.668308 0.811898
Si Si8 0.770212 0.197613 0.192218
O O1 0.016921 0.899763 0.456650
O O2 0.079508 0.186137 0.465473
O O3 0.944631 0.044921 0.555970
O O4 0.225781 0.998943 0.531947
O O5 0.975433 0.425180 0.416245
O O6 0.015041 0.186882 0.342347
O O7 0.233297 0.334368 0.380790
O O8 0.871195 0.687970 0.401590
O O9 0.742628 0.471612 0.341457
O O10 0.379602 0.568243 0.655492
O O11 0.628197 0.716558 0.643028
O O12 0.157613 0.406586 0.845173
O O13 0.014750 0.655322 0.827534
O O14 0.227054 0.317511 0.656231
O O15 0.371355 0.402207 0.759667
O O16 0.819309 0.680884 0.734735
#
# Coordination Sequence:
#
# PCOD8156705 Si02
#       8
#     4   4   4   4   4   4   4   4
#     4  10  24  40  57  92 125 159 213 253 312 370
#     4  10  19  40  66  87 118 165 212 248 299 378
#     4  10  20  39  64  86 120 168 199 260 308 369
#     4  11  22  37  64  91 121 161 209 265 308 367
#     4  11  21  41  65  92 125 167 203 265 310 370
#     4   8  21  39  60  93 119 154 210 253 307 374
#     4   8  21  41  59  89 125 156 206 247 318 381
#     4  10  22  39  63  94 123 158 206 259 316 373
#
# _framework density 18.528711000000001
#
# number of rings (size 3 to 8) (size 9 to 14) (size 15 to 20)
#    0.750    1.500    1.250    0.750    5.250    1.000 
#    9.000    1.250    0.000    0.000    0.000    0.000 
#    0.000    0.000    0.000    0.000    0.000    0.000 
#
# Total GULP energy -396700.402217 kJ/mol
# GULP energy per Si atom -12396.887569 kJ/mol
# Density = 1.848654 g / cm^3
# Si number density = 18.528711 Si / 1000 Ang^3
#
#
#
# Elastic Constant Matrix: (Units=GPa)
#
#
# Indices 1 2 3 4 5 6 
#
# 1 101.5683 33.0818 10.4997 0.0000 0.0000 0.0000
# 2 33.0818 93.7404 6.1873 0.0000 0.0000 0.0000
# 3 10.4997 6.1873 50.3098 0.0000 0.0000 0.0000
# 4 0.0000 0.0000 0.0000 27.3316 0.0000 0.0000
# 5 0.0000 0.0000 0.0000 0.0000 34.0648 0.0000
# 6 0.0000 0.0000 0.0000 0.0000 0.0000 26.2688
#
#
#
# Elastic Compliance Matrix: (Units=1/GPa)
#
#
# Indices 1 2 3 4 5 6 
#
# 1 0.011298 -0.003863 -0.001883 0.000000 0.000000 0.000000
# 2 -0.003863 0.012076 -0.000679 0.000000 0.000000 0.000000
# 3 -0.001883 -0.000679 0.020353 0.000000 0.000000 0.000000
# 4 0.000000 0.000000 0.000000 0.036588 0.000000 0.000000
# 5 0.000000 0.000000 0.000000 0.000000 0.029356 0.000000
# 6 0.000000 0.000000 0.000000 0.000000 0.000000 0.038068
#
#
# Mechanical properties :
#
#
# Convention : Reuss Voigt Hill
#
# Bulk Modulus (GPa) = 32.38563 38.35069 35.36816
# Shear Modulus (GPa) = 29.26005 30.58970 29.92488
#
# Velocity S-wave (km/s) = 3.97819 4.06758 4.02313
# Velocity P-wave (km/s) = 6.21433 6.54241 6.38048
#
# Compressibility (1/GPa) = 0.03087789
#
# Stress axis : x y z
#
# Youngs Moduli (GPa) = 88.50759 82.80981 49.13209
#
# Poissons Ratio (x) = 0.31990 0.09251
# Poissons Ratio (y) = 0.34191 0.03336
# Poissons Ratio (z) = 0.16665 0.05622
#
# Static dielectric constant tensor:
#      x y z
#    x 3.355370 0.000000 0.000000 
#    y 0.000000 3.371570 0.000000 
#    z 0.000000 0.000000 3.426220 
# 
# 
# High freq. dielectric constant tensor:
#      x y z
#    x 1.717870 0.000000 0.000000 
#    y 0.000000 1.717210 0.000000 
#    z 0.000000 0.000000 1.719480 
# 
# From -- ./inp_files/7092.got.cif
#   From: 2010.03.12/outbox.cif.g09.slc.cpg/sg19_4_cif.got.tgz:7092.got - 2010.04.10 18:59:41.
