data_PCOD8156998
_publ_section_title
;
Structure prediction by ZEFSAII (Michael W. Deem and Ramdas Pophale) SiO2 
 PCOD8156998
Probable space group: P 21 21 21
;
_chemical_formula_sum "Si O2"
_cell_formula_units_Z 28
_cell_length_a 8.776849
_cell_length_b 8.447457
_cell_length_c 18.030790
_cell_angle_alpha 90.000000
_cell_angle_beta 90.000000
_cell_angle_gamma 90.000000
_cell_volume 1336.839815
_symmetry_space_group_name_H-M "P 21 21 21"
_symmetry_group_IT_number 19
_symmetry_cell_setting 'orthorhombic'
loop_
_space_group_symop_operation_xyz
x,y,z
1/2-x,-y,1/2+z
1/2+x,1/2-y,-z
-x,1/2+y,1/2-z
loop_
_atom_site_type_symbol
_atom_site_label
_atom_site_fract_x
_atom_site_fract_y
_atom_site_fract_z
Si Si1 0.471990 0.910367 0.072620
Si Si2 0.478916 0.800384 0.843715
Si Si3 0.161021 0.939086 0.243703
Si Si4 0.798836 0.814690 0.019327
Si Si5 0.565060 0.234329 0.276858
Si Si6 0.831738 0.329855 0.850077
Si Si7 0.721168 0.014920 0.381582
O O1 0.623831 0.863081 0.029614
O O2 0.486343 0.840203 0.154533
O O3 0.442884 0.098515 0.085662
O O4 0.326362 0.850566 0.024657
O O5 0.521319 0.676392 0.778519
O O6 0.385612 0.695089 0.902750
O O7 0.625412 0.880089 0.881344
O O8 0.378776 0.944188 0.811113
O O9 0.301548 0.826210 0.268025
O O10 0.202957 0.041122 0.170284
O O11 0.863616 0.945363 0.960097
O O12 0.423524 0.203991 0.224793
O O13 0.621531 0.065510 0.309960
O O14 0.749507 0.171951 0.878846
#
# Coordination Sequence:
#
# PCOD8156998 Si02
#       7
#     4   4   4   4   4   4   4
#     4  10  22  39  66  89 123 170 211 248 314 380
#     4  11  22  41  65  91 130 165 210 257 327 365
#     4  10  22  37  63  96 121 166 205 266 313 376
#     4  11  22  42  62  88 123 180 207 251 318 381
#     4   9  20  39  64  91 123 164 206 255 316 369
#     4  11  21  39  62  97 127 154 218 266 308 374
#     4  10  21  39  60  92 129 165 211 261 310 381
#
# _framework density 20.944917
#
# number of rings (size 3 to 8) (size 9 to 14) (size 15 to 20)
#    0.000    1.714    1.429    4.286    0.000    3.429 
#    2.571    1.429    0.000    0.000    0.000    0.000 
#    0.000    0.000    0.000    0.000    0.000    0.000 
#
# Total GULP energy -346967.730545 kJ/mol
# GULP energy per Si atom -12391.704662 kJ/mol
# Density = 2.089725 g / cm^3
# Si number density = 20.944917 Si / 1000 Ang^3
#
#
#
# Elastic Constant Matrix: (Units=GPa)
#
#
# Indices 1 2 3 4 5 6 
#
# 1 55.6902 23.2339 25.8055 0.0000 0.0000 0.0000
# 2 23.2339 101.0730 17.8160 0.0000 0.0000 0.0000
# 3 25.8055 17.8160 81.0778 0.0000 0.0000 0.0000
# 4 0.0000 0.0000 0.0000 17.2246 0.0000 0.0000
# 5 0.0000 0.0000 0.0000 0.0000 28.3800 0.0000
# 6 0.0000 0.0000 0.0000 0.0000 0.0000 24.6676
#
#
#
# Elastic Compliance Matrix: (Units=1/GPa)
#
#
# Indices 1 2 3 4 5 6 
#
# 1 0.022572 -0.004080 -0.006288 0.000000 0.000000 0.000000
# 2 -0.004080 0.011030 -0.001125 0.000000 0.000000 0.000000
# 3 -0.006288 -0.001125 0.014582 0.000000 0.000000 0.000000
# 4 0.000000 0.000000 0.000000 0.058057 0.000000 0.000000
# 5 0.000000 0.000000 0.000000 0.000000 0.035236 0.000000
# 6 0.000000 0.000000 0.000000 0.000000 0.000000 0.040539
#
#
# Mechanical properties :
#
#
# Convention : Reuss Voigt Hill
#
# Bulk Modulus (GPa) = 39.68499 41.28354 40.48427
# Shear Modulus (GPa) = 23.42991 25.45347 24.44169
#
# Velocity S-wave (km/s) = 3.34824 3.48984 3.41977
# Velocity P-wave (km/s) = 5.82547 5.99933 5.91304
#
# Compressibility (1/GPa) = 0.02519844
#
# Stress axis : x y z
#
# Youngs Moduli (GPa) = 44.30187 90.66077 68.57625
#
# Poissons Ratio (x) = 0.36994 0.43119
# Poissons Ratio (y) = 0.18077 0.07715
# Poissons Ratio (z) = 0.27856 0.10200
#
# Static dielectric constant tensor:
#      x y z
#    x 3.743750 0.000000 0.000000 
#    y 0.000000 4.040290 0.000000 
#    z 0.000000 0.000000 3.784030 
# 
# 
# High freq. dielectric constant tensor:
#      x y z
#    x 1.807350 0.000000 0.000000 
#    y 0.000000 1.819030 0.000000 
#    z 0.000000 0.000000 1.814800 
# 
# From -- ./inp_files/6595.got.cif
#   From: 2010.03.12/outbox.cif.g09.slc.cpg/sg19_4_cif.got.tgz:6595.got - 2010.04.10 18:59:41.
