data_PCOD8156134
_publ_section_title
;
Structure prediction by ZEFSAII (Michael W. Deem and Ramdas Pophale) SiO2 
 PCOD8156134
Probable space group: P 21 21 2
;
_chemical_formula_sum "Si O2"
_cell_formula_units_Z 32
_cell_length_a 15.130707
_cell_length_b 8.807408
_cell_length_c 11.919805
_cell_angle_alpha 90.000000
_cell_angle_beta 90.000000
_cell_angle_gamma 90.000000
_cell_volume 1588.460748
_symmetry_space_group_name_H-M "P 21 21 2"
_symmetry_group_IT_number 18
_symmetry_cell_setting 'orthorhombic'
loop_
_space_group_symop_operation_xyz
x,y,z
-x,-y,z
1/2+x,1/2-y,-z
1/2-x,1/2+y,-z
loop_
_atom_site_type_symbol
_atom_site_label
_atom_site_fract_x
_atom_site_fract_y
_atom_site_fract_z
Si Si1 0.494793 0.319439 0.866687
Si Si2 0.160661 0.840572 0.545054
Si Si3 0.664560 0.305036 0.475910
Si Si4 0.845040 0.673164 0.994057
Si Si5 0.495252 0.320072 0.608969
Si Si6 0.411238 0.186732 0.249826
Si Si7 0.154943 0.686023 0.990401
Si Si8 0.884553 0.649304 0.742146
O O1 0.500000 0.500000 0.878721
O O2 0.499338 0.265848 0.737409
O O3 0.575474 0.242085 0.932782
O O4 0.398703 0.265940 0.909569
O O5 0.253426 0.757956 0.543620
O O6 0.124832 0.819076 0.670963
O O7 0.094853 0.766415 0.452415
O O8 0.172338 0.016018 0.523007
O O9 0.577022 0.248143 0.540593
O O10 0.669310 0.243939 0.349176
O O11 0.842034 0.493173 0.014014
O O12 0.859463 0.711812 0.864047
O O13 0.752853 0.749293 0.027686
O O14 0.500000 0.500000 0.601500
O O15 0.399816 0.229904 0.120402
O O16 0.512882 0.170875 0.278641
O O17 0.359797 0.028134 0.271416
#
# Coordination Sequence:
#
# PCOD8156134 Si02
#       8
#     4   4   4   4   4   4   4   4
#     4  11  23  42  65  90 124 169 208 251 314 377
#     4  11  23  41  63  92 124 161 207 254 305 366
#     4  11  23  41  63  92 124 161 207 254 305 366
#     4  11  24  43  64  93 127 164 208 259 313 371
#     4   9  22  42  61  84 124 165 198 247 310 365
#     4  10  21  41  65  88 121 161 202 255 314 365
#     4  11  24  43  64  93 127 164 208 259 313 371
#     4  10  21  41  65  88 121 161 202 255 314 365
#
# _framework density 20.145288000000001
#
# number of rings (size 3 to 8) (size 9 to 14) (size 15 to 20)
#    0.000    1.500    2.500    1.875    3.500    2.000 
#    0.000    3.750    0.000    0.000    0.000    0.000 
#    0.000    0.000    0.000    0.000    0.000    0.000 
#
# Total GULP energy -396878.740807 kJ/mol
# GULP energy per Si atom -12402.460650 kJ/mol
# Density = 2.009944 g / cm^3
# Si number density = 20.145288 Si / 1000 Ang^3
#
#
#
# Elastic Constant Matrix: (Units=GPa)
#
#
# Indices 1 2 3 4 5 6 
#
# 1 79.5193 24.2852 8.5808 0.0000 0.0000 0.0000
# 2 24.2852 74.7003 28.8370 0.0000 0.0000 0.0000
# 3 8.5808 28.8370 96.5554 0.0000 0.0000 0.0000
# 4 0.0000 0.0000 0.0000 30.8779 0.0000 0.0000
# 5 0.0000 0.0000 0.0000 0.0000 11.8060 0.0000
# 6 0.0000 0.0000 0.0000 0.0000 0.0000 34.9841
#
#
#
# Elastic Compliance Matrix: (Units=1/GPa)
#
#
# Indices 1 2 3 4 5 6 
#
# 1 0.013963 -0.004590 0.000130 0.000000 0.000000 0.000000
# 2 -0.004590 0.016640 -0.004562 0.000000 0.000000 0.000000
# 3 0.000130 -0.004562 0.011708 0.000000 0.000000 0.000000
# 4 0.000000 0.000000 0.000000 0.032386 0.000000 0.000000
# 5 0.000000 0.000000 0.000000 0.000000 0.084703 0.000000
# 6 0.000000 0.000000 0.000000 0.000000 0.000000 0.028584
#
#
# Mechanical properties :
#
#
# Convention : Reuss Voigt Hill
#
# Bulk Modulus (GPa) = 41.20704 41.57565 41.39135
# Shear Modulus (GPa) = 23.35183 28.13840 25.74511
#
# Velocity S-wave (km/s) = 3.40835 3.74140 3.57875
# Velocity P-wave (km/s) = 5.99904 6.27270 6.13740
#
# Compressibility (1/GPa) = 0.02426770
#
# Stress axis : x y z
#
# Youngs Moduli (GPa) = 71.61673 60.09644 85.41451
#
# Poissons Ratio (x) = 0.27582 -0.01109
# Poissons Ratio (y) = 0.32869 0.38964
# Poissons Ratio (z) = -0.00930 0.27415
#
# Static dielectric constant tensor:
#      x y z
#    x 3.738150 0.000000 0.000000 
#    y 0.000000 3.597390 0.000000 
#    z 0.000000 0.000000 3.781960 
# 
# 
# High freq. dielectric constant tensor:
#      x y z
#    x 1.795530 0.000000 0.000000 
#    y 0.000000 1.778800 0.000000 
#    z 0.000000 0.000000 1.796750 
# 
# From -- ./inp_files/6159.got.cif
#   From: 2010.03.12/outbox.cif.g09.slc.cpg/sg18_4_cif.got.tgz:6159.got - 2010.04.10 18:53:55.
