data_PCOD8156519
_publ_section_title
;
Structure prediction by ZEFSAII (Michael W. Deem and Ramdas Pophale) SiO2 
 PCOD8156519
Probable space group: P 21 21 2
;
_chemical_formula_sum "Si O2"
_cell_formula_units_Z 18
_cell_length_a 13.342290
_cell_length_b 4.985276
_cell_length_c 11.492411
_cell_angle_alpha 90.000000
_cell_angle_beta 90.000000
_cell_angle_gamma 90.000000
_cell_volume 764.417696
_symmetry_space_group_name_H-M "P 21 21 2"
_symmetry_group_IT_number 18
_symmetry_cell_setting 'orthorhombic'
loop_
_space_group_symop_operation_xyz
x,y,z
-x,-y,z
1/2+x,1/2-y,-z
1/2-x,1/2+y,-z
loop_
_atom_site_type_symbol
_atom_site_label
_atom_site_fract_x
_atom_site_fract_y
_atom_site_fract_z
Si Si1 0.233647 0.761374 0.772671
Si Si2 0.565748 0.736587 0.040191
Si Si3 0.500000 0.500000 0.608876
Si Si4 0.866541 0.236025 0.214448
Si Si5 0.190707 0.976144 0.532869
O O1 0.164009 0.717014 0.883310
O O2 0.284503 0.479011 0.739628
O O3 0.169555 0.868726 0.663088
O O4 0.322436 0.968314 0.800302
O O5 0.500000 0.500000 0.097051
O O6 0.500000 0.000000 0.036112
O O7 0.597348 0.642321 0.912112
O O8 0.459260 0.262932 0.693773
O O9 0.590225 0.402789 0.525292
O O10 0.230123 0.719487 0.459373
#
# Coordination Sequence:
#
# PCOD8156519 Si02
#       5
#     4   4   2   4   4
#     4  12  25  48  69 103 144 189 232 304 365 433
#     4  12  26  44  72 107 140 181 235 296 365 437
#     4  12  26  46  76 104 140 200 240 310 352 448
#     4  12  25  46  74 100 141 186 245 291 365 439
#     4  12  26  47  70 105 143 186 245 299 363 434
#
# _framework density 23.547336000000001
#
# number of rings (size 3 to 8) (size 9 to 14) (size 15 to 20)
#    0.000    0.000    5.556    4.000    1.556    2.667 
#    0.000    0.000    0.000    0.000    0.000    0.000 
#    0.000    0.000    0.000    0.000    0.000    0.000 
#
# Total GULP energy -223270.050703 kJ/mol
# GULP energy per Si atom -12403.891706 kJ/mol
# Density = 2.349374 g / cm^3
# Si number density = 23.547336 Si / 1000 Ang^3
#
#
#
# Elastic Constant Matrix: (Units=GPa)
#
#
# Indices 1 2 3 4 5 6 
#
# 1 117.4908 30.4536 64.8532 0.0000 0.0000 0.0000
# 2 30.4536 103.4919 25.0446 0.0000 0.0000 0.0000
# 3 64.8532 25.0446 135.5311 0.0000 0.0000 0.0000
# 4 0.0000 0.0000 0.0000 39.3664 0.0000 0.0000
# 5 0.0000 0.0000 0.0000 0.0000 70.6472 0.0000
# 6 0.0000 0.0000 0.0000 0.0000 0.0000 37.9903
#
#
#
# Elastic Compliance Matrix: (Units=1/GPa)
#
#
# Indices 1 2 3 4 5 6 
#
# 1 0.012047 -0.002251 -0.005349 0.000000 0.000000 0.000000
# 2 -0.002251 0.010535 -0.000870 0.000000 0.000000 0.000000
# 3 -0.005349 -0.000870 0.010099 0.000000 0.000000 0.000000
# 4 0.000000 0.000000 0.000000 0.025402 0.000000 0.000000
# 5 0.000000 0.000000 0.000000 0.000000 0.014155 0.000000
# 6 0.000000 0.000000 0.000000 0.000000 0.000000 0.026323
#
#
# Mechanical properties :
#
#
# Convention : Reuss Voigt Hill
#
# Bulk Modulus (GPa) = 63.52230 66.35741 64.93985
# Shear Modulus (GPa) = 41.40894 45.34494 43.37694
#
# Velocity S-wave (km/s) = 4.19804 4.39303 4.29664
# Velocity P-wave (km/s) = 7.10866 7.34665 7.22864
#
# Compressibility (1/GPa) = 0.01574250
#
# Stress axis : x y z
#
# Youngs Moduli (GPa) = 83.00743 94.91842 99.02381
#
# Poissons Ratio (x) = 0.21362 0.52966
# Poissons Ratio (y) = 0.18682 0.08614
# Poissons Ratio (z) = 0.44399 0.08257
#
# Static dielectric constant tensor:
#      x y z
#    x 4.160350 0.000000 0.000000 
#    y 0.000000 4.007020 0.000000 
#    z 0.000000 0.000000 4.351330 
# 
# 
# High freq. dielectric constant tensor:
#      x y z
#    x 1.926820 0.000000 0.000000 
#    y 0.000000 1.932900 0.000000 
#    z 0.000000 0.000000 1.952190 
# 
# From -- ./inp_files/5001.got.cif
#   From: 2010.03.12/outbox.cif.g09.slc.cpg/sg18_3_cif.got.tgz:5001.got - 2010.04.10 18:53:55.
