data_PCOD8156027
_publ_section_title
;
Structure prediction by ZEFSAII (Michael W. Deem and Ramdas Pophale) SiO2 
 PCOD8156027
Probable space group: P 21 21 2
;
_chemical_formula_sum "Si O2"
_cell_formula_units_Z 22
_cell_length_a 5.157441
_cell_length_b 26.258207
_cell_length_c 6.768026
_cell_angle_alpha 90.000000
_cell_angle_beta 90.000000
_cell_angle_gamma 90.000000
_cell_volume 916.560959
_symmetry_space_group_name_H-M "P 21 21 2"
_symmetry_group_IT_number 18
_symmetry_cell_setting 'orthorhombic'
loop_
_space_group_symop_operation_xyz
x,y,z
-x,-y,z
1/2+x,1/2-y,-z
1/2-x,1/2+y,-z
loop_
_atom_site_type_symbol
_atom_site_label
_atom_site_fract_x
_atom_site_fract_y
_atom_site_fract_z
Si Si1 0.756061 0.933913 0.392087
Si Si2 0.234939 0.376429 0.554169
Si Si3 0.332769 0.184403 0.964120
Si Si4 0.465182 0.083392 0.789994
Si Si5 0.000000 0.500000 0.898829
Si Si6 0.166645 0.788592 0.197686
O O1 0.527946 0.893914 0.330419
O O2 0.705843 0.947868 0.625222
O O3 0.734249 0.983352 0.248780
O O4 0.033520 0.909582 0.354542
O O5 0.205826 0.388147 0.320465
O O6 0.285120 0.316209 0.590494
O O7 0.284123 0.128182 0.877206
O O8 0.303599 0.227397 0.789842
O O9 0.623011 0.188252 0.047471
O O10 0.120189 0.195839 0.129612
O O11 0.578220 0.046747 0.958761
#
# Coordination Sequence:
#
# PCOD8156027 Si02
#       6
#     4   4   4   4   2   4
#     4  10  25  44  63 100 128 176 219 279 326 402
#     4  10  22  44  63  95 138 160 225 269 331 389
#     4  10  22  39  67  98 136 170 227 259 335 393
#     4  10  25  43  68 103 131 176 227 278 327 406
#     4  12  22  50  70  94 134 184 220 286 338 390
#     4  10  20  40  66 100 131 182 210 270 325 407
#
# _framework density 24.002768
#
# number of rings (size 3 to 8) (size 9 to 14) (size 15 to 20)
#    1.091    0.727    0.000    3.818    2.545    0.727 
#    9.818    0.000    0.000    0.000    0.000    0.000 
#    0.000    0.000    0.000    0.000    0.000    0.000 
#
# Total GULP energy -272550.621263 kJ/mol
# GULP energy per Si atom -12388.664603 kJ/mol
# Density = 2.394814 g / cm^3
# Si number density = 24.002768 Si / 1000 Ang^3
#
#
#
# Elastic Constant Matrix: (Units=GPa)
#
#
# Indices 1 2 3 4 5 6 
#
# 1 100.8324 4.6010 -2.0894 0.0000 0.0000 0.0000
# 2 4.6010 114.3216 52.0297 0.0000 0.0000 0.0000
# 3 -2.0894 52.0297 94.2684 0.0000 0.0000 0.0000
# 4 0.0000 0.0000 0.0000 32.1202 0.0000 0.0000
# 5 0.0000 0.0000 0.0000 0.0000 12.1580 0.0000
# 6 0.0000 0.0000 0.0000 0.0000 0.0000 23.8841
#
#
#
# Elastic Compliance Matrix: (Units=1/GPa)
#
#
# Indices 1 2 3 4 5 6 
#
# 1 0.009960 -0.000670 0.000590 0.000000 0.000000 0.000000
# 2 -0.000670 0.011727 -0.006487 0.000000 0.000000 0.000000
# 3 0.000590 -0.006487 0.014202 0.000000 0.000000 0.000000
# 4 0.000000 0.000000 0.000000 0.031133 0.000000 0.000000
# 5 0.000000 0.000000 0.000000 0.000000 0.082251 0.000000
# 6 0.000000 0.000000 0.000000 0.000000 0.000000 0.041869
#
#
# Mechanical properties :
#
#
# Convention : Reuss Voigt Hill
#
# Bulk Modulus (GPa) = 43.94509 46.50057 45.22283
# Shear Modulus (GPa) = 23.60061 30.62451 27.11256
#
# Velocity S-wave (km/s) = 3.13908 3.57581 3.36454
# Velocity P-wave (km/s) = 5.61128 6.03851 5.82881
#
# Compressibility (1/GPa) = 0.02275567
#
# Stress axis : x y z
#
# Youngs Moduli (GPa) = 100.39931 85.27620 70.41488
#
# Poissons Ratio (x) = 0.05709 -0.04156
# Poissons Ratio (y) = 0.06722 0.45679
# Poissons Ratio (z) = -0.05926 0.55320
#
# Static dielectric constant tensor:
#      x y z
#    x 4.032660 0.000000 0.000000 
#    y 0.000000 4.408660 0.000000 
#    z 0.000000 0.000000 4.117790 
# 
# 
# High freq. dielectric constant tensor:
#      x y z
#    x 1.941090 0.000000 0.000000 
#    y 0.000000 1.951330 0.000000 
#    z 0.000000 0.000000 1.932270 
# 
# From -- ./inp_files/328.got.cif
#   From: 2010.03.12/outbox.cif.g09.slc.cpg/sg18_1_cif.got.tgz:328.got - 2010.04.10 18:53:55.
