data_PCOD8156967
_publ_section_title
;
Structure prediction by ZEFSAII (Michael W. Deem and Ramdas Pophale) SiO2 
 PCOD8156967
Probable space group: P 21 21 21
;
_chemical_formula_sum "Si O2"
_cell_formula_units_Z 32
_cell_length_a 12.246138
_cell_length_b 5.288656
_cell_length_c 21.090282
_cell_angle_alpha 90.000000
_cell_angle_beta 90.000000
_cell_angle_gamma 90.000000
_cell_volume 1365.925004
_symmetry_space_group_name_H-M "P 21 21 21"
_symmetry_group_IT_number 19
_symmetry_cell_setting 'orthorhombic'
loop_
_space_group_symop_operation_xyz
x,y,z
1/2-x,-y,1/2+z
1/2+x,1/2-y,-z
-x,1/2+y,1/2-z
loop_
_atom_site_type_symbol
_atom_site_label
_atom_site_fract_x
_atom_site_fract_y
_atom_site_fract_z
Si Si1 0.046786 0.458659 0.171115
Si Si2 0.173468 0.078948 0.519615
Si Si3 0.628499 0.299361 0.186939
Si Si4 0.587460 0.069485 0.309692
Si Si5 0.754479 0.322620 0.613509
Si Si6 0.087516 0.460404 0.315283
Si Si7 0.255893 0.411800 0.088061
Si Si8 0.975540 0.079596 0.599168
O O1 0.103945 0.451642 0.239861
O O2 0.136602 0.444087 0.116794
O O3 0.982743 0.719716 0.161849
O O4 0.966149 0.221197 0.162541
O O5 0.180099 0.078649 0.443642
O O6 0.218855 0.346152 0.544539
O O7 0.044483 0.038182 0.534910
O O8 0.242294 0.843906 0.547047
O O9 0.660175 0.120496 0.246365
O O10 0.528244 0.464697 0.214272
O O11 0.734982 0.462844 0.168392
O O12 0.582461 0.172679 0.123124
O O13 0.563883 0.324850 0.349223
O O14 0.655397 0.881848 0.355328
O O15 0.704056 0.072796 0.648084
O O16 0.877404 0.277886 0.587422
#
# Coordination Sequence:
#
# PCOD8156967 Si02
#       8
#     4   4   4   4   4   4   4   4
#     4  10  23  43  69  98 137 176 229 289 352 417
#     4  11  26  47  66  99 143 182 239 284 330 425
#     4  11  21  39  66 106 141 177 227 291 371 430
#     4  10  21  37  66 104 143 174 222 294 365 432
#     4  11  28  43  69 102 135 196 236 290 350 422
#     4  10  24  44  65 101 137 175 232 293 348 416
#     4  11  24  43  71  97 134 189 230 285 356 412
#     4  10  23  42  66 101 140 181 233 286 356 418
#
# _framework density 23.427347000000001
#
# number of rings (size 3 to 8) (size 9 to 14) (size 15 to 20)
#    0.000    1.500    2.500    0.750    5.250    6.000 
#    0.000    0.000    0.000    0.000    0.000    0.000 
#    0.000    0.000    0.000    0.000    0.000    0.000 
#
# Total GULP energy -396812.221676 kJ/mol
# GULP energy per Si atom -12400.381927 kJ/mol
# Density = 2.337403 g / cm^3
# Si number density = 23.427347 Si / 1000 Ang^3
#
#
#
# Elastic Constant Matrix: (Units=GPa)
#
#
# Indices 1 2 3 4 5 6 
#
# 1 77.3255 9.1409 30.4049 0.0000 0.0000 0.0000
# 2 9.1409 91.8606 12.0351 0.0000 0.0000 0.0000
# 3 30.4049 12.0351 100.2039 0.0000 0.0000 0.0000
# 4 0.0000 0.0000 0.0000 26.3167 0.0000 0.0000
# 5 0.0000 0.0000 0.0000 0.0000 38.1782 0.0000
# 6 0.0000 0.0000 0.0000 0.0000 0.0000 27.5912
#
#
#
# Elastic Compliance Matrix: (Units=1/GPa)
#
#
# Indices 1 2 3 4 5 6 
#
# 1 0.014757 -0.000896 -0.004370 0.000000 0.000000 0.000000
# 2 -0.000896 0.011114 -0.001063 0.000000 0.000000 0.000000
# 3 -0.004370 -0.001063 0.011433 0.000000 0.000000 0.000000
# 4 0.000000 0.000000 0.000000 0.037999 0.000000 0.000000
# 5 0.000000 0.000000 0.000000 0.000000 0.026193 0.000000
# 6 0.000000 0.000000 0.000000 0.000000 0.000000 0.036243
#
#
# Mechanical properties :
#
#
# Convention : Reuss Voigt Hill
#
# Bulk Modulus (GPa) = 40.57372 41.39463 40.98418
# Shear Modulus (GPa) = 31.52332 32.93784 32.23058
#
# Velocity S-wave (km/s) = 3.67219 3.75368 3.71316
# Velocity P-wave (km/s) = 5.94445 6.04107 5.99296
#
# Compressibility (1/GPa) = 0.02464649
#
# Stress axis : x y z
#
# Youngs Moduli (GPa) = 67.76651 89.97263 87.46370
#
# Poissons Ratio (x) = 0.08060 0.38221
# Poissons Ratio (y) = 0.06071 0.09298
# Poissons Ratio (z) = 0.29614 0.09565
#
# Static dielectric constant tensor:
#      x y z
#    x 4.217330 0.000000 0.000000 
#    y 0.000000 4.242500 0.000000 
#    z 0.000000 0.000000 4.096380 
# 
# 
# High freq. dielectric constant tensor:
#      x y z
#    x 1.925880 0.000000 0.000000 
#    y 0.000000 1.932940 0.000000 
#    z 0.000000 0.000000 1.916330 
# 
# From -- ./inp_files/1966.got.cif
#   From: 2010.03.12/outbox.cif.g09.slc.cpg/sg19_1_cif.got.tgz:1966.got - 2010.04.10 18:59:41.
