data_PCOD8156800
_publ_section_title
;
Structure prediction by ZEFSAII (Michael W. Deem and Ramdas Pophale) SiO2 
 PCOD8156800
Probable space group: P 21 21 21
;
_chemical_formula_sum "Si O2"
_cell_formula_units_Z 28
_cell_length_a 26.894330
_cell_length_b 4.946440
_cell_length_c 10.016580
_cell_angle_alpha 90.000000
_cell_angle_beta 90.000000
_cell_angle_gamma 90.000000
_cell_volume 1332.517554
_symmetry_space_group_name_H-M "P 21 21 21"
_symmetry_group_IT_number 19
_symmetry_cell_setting 'orthorhombic'
loop_
_space_group_symop_operation_xyz
x,y,z
1/2-x,-y,1/2+z
1/2+x,1/2-y,-z
-x,1/2+y,1/2-z
loop_
_atom_site_type_symbol
_atom_site_label
_atom_site_fract_x
_atom_site_fract_y
_atom_site_fract_z
Si Si1 0.869275 0.486360 0.691921
Si Si2 0.344919 0.986159 0.604895
Si Si3 0.973159 0.698078 0.794546
Si Si4 0.434770 0.177185 0.766952
Si Si5 0.304944 0.517371 0.270639
Si Si6 0.972204 0.817646 0.091509
Si Si7 0.281430 0.484099 0.570428
O O1 0.875459 0.501243 0.532669
O O2 0.921470 0.562054 0.755405
O O3 0.851837 0.185964 0.731705
O O4 0.826664 0.684155 0.746655
O O5 0.324921 0.682328 0.624575
O O6 0.379953 0.085313 0.724417
O O7 0.296919 0.178717 0.602962
O O8 0.011797 0.445567 0.804074
O O9 0.970791 0.858670 0.933996
O O10 0.471247 0.146010 0.640475
O O11 0.435695 0.477339 0.829082
O O12 0.453280 0.983977 0.884243
O O13 0.274362 0.508294 0.410359
O O14 0.269645 0.450190 0.145922
#
# Coordination Sequence:
#
# PCOD8156800 Si02
#       7
#     4   4   4   4   4   4   4
#     4  10  22  39  62  87 121 157 198 247 300 354
#     4  10  20  37  62  87 111 155 205 236 290 372
#     4  12  24  40  62  90 121 160 209 243 297 364
#     4  10  20  38  58  83 121 156 194 245 297 344
#     4  10  21  41  60  87 121 158 199 255 303 365
#     4  10  22  37  57  85 123 158 193 248 297 348
#     4  10  21  38  61  87 116 152 204 244 306 359
#
# _framework density 21.012858999999999
#
# number of rings (size 3 to 8) (size 9 to 14) (size 15 to 20)
#    0.000    1.714    0.000    4.286    0.000    4.571 
#    7.714    0.000    0.000    0.000    0.000    0.000 
#    0.000    0.000    0.000    0.000    0.000    0.000 
#
# Total GULP energy -347246.860102 kJ/mol
# GULP energy per Si atom -12401.673575 kJ/mol
# Density = 2.096503 g / cm^3
# Si number density = 21.012859 Si / 1000 Ang^3
#
#
#
# Elastic Constant Matrix: (Units=GPa)
#
#
# Indices 1 2 3 4 5 6 
#
# 1 71.7115 10.2566 45.4817 0.0000 0.0000 0.0000
# 2 10.2566 86.4362 24.0242 0.0000 0.0000 0.0000
# 3 45.4817 24.0242 88.3827 0.0000 0.0000 0.0000
# 4 0.0000 0.0000 0.0000 24.2299 0.0000 0.0000
# 5 0.0000 0.0000 0.0000 0.0000 20.6507 0.0000
# 6 0.0000 0.0000 0.0000 0.0000 0.0000 14.8360
#
#
#
# Elastic Compliance Matrix: (Units=1/GPa)
#
#
# Indices 1 2 3 4 5 6 
#
# 1 0.020725 0.000546 -0.010814 0.000000 0.000000 0.000000
# 2 0.000546 0.012529 -0.003687 0.000000 0.000000 0.000000
# 3 -0.010814 -0.003687 0.017881 0.000000 0.000000 0.000000
# 4 0.000000 0.000000 0.000000 0.041271 0.000000 0.000000
# 5 0.000000 0.000000 0.000000 0.000000 0.048425 0.000000
# 6 0.000000 0.000000 0.000000 0.000000 0.000000 0.067404
#
#
# Mechanical properties :
#
#
# Convention : Reuss Voigt Hill
#
# Bulk Modulus (GPa) = 43.05298 45.11726 44.08512
# Shear Modulus (GPa) = 20.50147 23.06119 21.78133
#
# Velocity S-wave (km/s) = 3.12695 3.31642 3.22308
# Velocity P-wave (km/s) = 5.79400 6.01521 5.90564
#
# Compressibility (1/GPa) = 0.02322719
#
# Stress axis : x y z
#
# Youngs Moduli (GPa) = 48.25113 79.81415 55.92467
#
# Poissons Ratio (x) = -0.04360 0.60474
# Poissons Ratio (y) = -0.02636 0.20618
# Poissons Ratio (z) = 0.52176 0.29426
#
# Static dielectric constant tensor:
#      x y z
#    x 3.453410 0.000000 0.000000 
#    y 0.000000 3.998920 0.000000 
#    z 0.000000 0.000000 3.626200 
# 
# 
# High freq. dielectric constant tensor:
#      x y z
#    x 1.806320 0.000000 0.000000 
#    y 0.000000 1.845210 0.000000 
#    z 0.000000 0.000000 1.810330 
# 
# From -- ./inp_files/597.got.cif
#   From: 2010.03.12/outbox.cif.g09.slc.cpg/sg19_1_cif.got.tgz:597.got - 2010.04.10 18:59:41.
