data_PCOD8156389
_publ_section_title
;
Structure prediction by ZEFSAII (Michael W. Deem and Ramdas Pophale) SiO2 
 PCOD8156389
Probable space group: P 21 21 2
;
_chemical_formula_sum "Si O2"
_cell_formula_units_Z 20
_cell_length_a 8.706056
_cell_length_b 7.316453
_cell_length_c 12.779644
_cell_angle_alpha 90.000000
_cell_angle_beta 90.000000
_cell_angle_gamma 90.000000
_cell_volume 814.030729
_symmetry_space_group_name_H-M "P 21 21 2"
_symmetry_group_IT_number 18
_symmetry_cell_setting 'orthorhombic'
loop_
_space_group_symop_operation_xyz
x,y,z
-x,-y,z
1/2+x,1/2-y,-z
1/2-x,1/2+y,-z
loop_
_atom_site_type_symbol
_atom_site_label
_atom_site_fract_x
_atom_site_fract_y
_atom_site_fract_z
Si Si1 0.829588 0.260138 0.254025
Si Si2 0.181554 0.532903 0.901037
Si Si3 0.352494 0.933354 0.409575
Si Si4 0.918640 0.817101 0.407527
Si Si5 0.822064 0.051299 0.876927
O O1 0.731897 0.241246 0.360649
O O2 0.793332 0.456733 0.206022
O O3 0.006052 0.232524 0.292833
O O4 0.769008 0.102512 0.176766
O O5 0.205164 0.736190 0.859171
O O6 0.000000 0.500000 0.916458
O O7 0.270091 0.516674 0.010013
O O8 0.421182 0.864002 0.520982
O O9 0.500000 0.000000 0.342401
O O10 0.256821 0.120440 0.402742
O O11 0.000000 0.000000 0.455378
O O12 0.000000 0.000000 0.858309
#
# Coordination Sequence:
#
# PCOD8156389 Si02
#       5
#     4   4   4   4   4
#     4  11  25  47  74 114 159 214 264 326 412 494
#     4  12  24  50  77 118 161 212 272 332 408 487
#     4  11  23  47  75 101 150 196 260 340 401 483
#     4  10  24  49  73 110 149 198 268 335 412 495
#     4  12  25  47  80 114 166 215 267 335 404 498
#
# _framework density 24.569095999999998
#
# number of rings (size 3 to 8) (size 9 to 14) (size 15 to 20)
#    0.000    0.800    4.000    3.000    0.000    3.200 
#   28.800    0.000    0.000    0.000    0.000    0.000 
#    0.000    0.000    0.000    0.000    0.000    0.000 
#
# Total GULP energy -247781.042137 kJ/mol
# GULP energy per Si atom -12389.052107 kJ/mol
# Density = 2.451318 g / cm^3
# Si number density = 24.569096 Si / 1000 Ang^3
#
#
#
# Elastic Constant Matrix: (Units=GPa)
#
#
# Indices 1 2 3 4 5 6 
#
# 1 141.9598 44.6650 41.0160 0.0000 0.0000 0.0000
# 2 44.6650 149.2409 25.0457 0.0000 0.0000 0.0000
# 3 41.0160 25.0457 87.5627 0.0000 0.0000 0.0000
# 4 0.0000 0.0000 0.0000 43.6575 0.0000 0.0000
# 5 0.0000 0.0000 0.0000 0.0000 41.7797 0.0000
# 6 0.0000 0.0000 0.0000 0.0000 0.0000 36.5794
#
#
#
# Elastic Compliance Matrix: (Units=1/GPa)
#
#
# Indices 1 2 3 4 5 6 
#
# 1 0.008687 -0.002014 -0.003493 0.000000 0.000000 0.000000
# 2 -0.002014 0.007505 -0.001203 0.000000 0.000000 0.000000
# 3 -0.003493 -0.001203 0.013401 0.000000 0.000000 0.000000
# 4 0.000000 0.000000 0.000000 0.022906 0.000000 0.000000
# 5 0.000000 0.000000 0.000000 0.000000 0.023935 0.000000
# 6 0.000000 0.000000 0.000000 0.000000 0.000000 0.027338
#
#
# Mechanical properties :
#
#
# Convention : Reuss Voigt Hill
#
# Bulk Modulus (GPa) = 61.83348 66.69074 64.26211
# Shear Modulus (GPa) = 40.78864 42.27244 41.53054
#
# Velocity S-wave (km/s) = 4.07893 4.15246 4.11586
# Velocity P-wave (km/s) = 6.88515 7.08474 6.98566
#
# Compressibility (1/GPa) = 0.01617247
#
# Stress axis : x y z
#
# Youngs Moduli (GPa) = 115.11338 133.24109 74.62176
#
# Poissons Ratio (x) = 0.26830 0.26067
# Poissons Ratio (y) = 0.23180 0.08981
# Poissons Ratio (z) = 0.40212 0.16035
#
# Static dielectric constant tensor:
#      x y z
#    x 5.500100 0.000000 0.000000 
#    y 0.000000 4.692980 0.000000 
#    z 0.000000 0.000000 4.810520 
# 
# 
# High freq. dielectric constant tensor:
#      x y z
#    x 1.997550 0.000000 0.000000 
#    y 0.000000 1.991250 0.000000 
#    z 0.000000 0.000000 1.964510 
# 
# From -- ./inp_files/5380.got.cif
#   From: 2010.03.12/outbox.cif.g09.slc.cpg/sg18_3_cif.got.tgz:5380.got - 2010.04.10 18:53:55.
