data_PCOD8156392
_publ_section_title
;
Structure prediction by ZEFSAII (Michael W. Deem and Ramdas Pophale) SiO2 
 PCOD8156392
Probable space group: P 21 21 2
;
_chemical_formula_sum "Si O2"
_cell_formula_units_Z 20
_cell_length_a 8.739866
_cell_length_b 8.211596
_cell_length_c 12.016854
_cell_angle_alpha 90.000000
_cell_angle_beta 90.000000
_cell_angle_gamma 90.000000
_cell_volume 862.428566
_symmetry_space_group_name_H-M "P 21 21 2"
_symmetry_group_IT_number 18
_symmetry_cell_setting 'orthorhombic'
loop_
_space_group_symop_operation_xyz
x,y,z
-x,-y,z
1/2+x,1/2-y,-z
1/2-x,1/2+y,-z
loop_
_atom_site_type_symbol
_atom_site_label
_atom_site_fract_x
_atom_site_fract_y
_atom_site_fract_z
Si Si1 0.770522 0.119392 0.587775
Si Si2 0.757757 0.694839 0.833339
Si Si3 0.604886 0.262527 0.387407
Si Si4 0.340540 0.590095 0.970920
Si Si5 0.944138 0.680612 0.209900
O O1 0.681281 0.135184 0.471692
O O2 0.664187 0.195090 0.683319
O O3 0.928298 0.217936 0.581589
O O4 0.801301 0.930700 0.609820
O O5 0.886268 0.691903 0.737759
O O6 0.774309 0.531763 0.906876
O O7 0.592050 0.702763 0.772710
O O8 0.773825 0.856001 0.910205
O O9 0.500000 0.500000 0.993120
O O10 0.354953 0.754275 0.898208
O O11 0.000000 0.500000 0.187237
#
# Coordination Sequence:
#
# PCOD8156392 Si02
#       5
#     4   4   4   4   4
#     4  11  26  45  70 103 135 186 232 297 360 436
#     4  11  23  43  69 102 142 190 229 299 345 428
#     4  11  26  45  72  98 145 179 239 292 363 428
#     4  10  25  42  70 105 144 185 248 286 359 423
#     4  11  22  43  71  96 141 184 234 293 358 417
#
# _framework density 23.190325000000001
#
# number of rings (size 3 to 8) (size 9 to 14) (size 15 to 20)
#    0.000    1.200    2.000    2.400    5.600    1.600 
#    0.000    4.000    0.000    0.000    0.000    0.000 
#    0.000    0.000    0.000    0.000    0.000    0.000 
#
# Total GULP energy -248094.576212 kJ/mol
# GULP energy per Si atom -12404.728811 kJ/mol
# Density = 2.313754 g / cm^3
# Si number density = 23.190325 Si / 1000 Ang^3
#
#
#
# Elastic Constant Matrix: (Units=GPa)
#
#
# Indices 1 2 3 4 5 6 
#
# 1 72.4393 38.4395 56.4424 0.0000 0.0000 0.0000
# 2 38.4395 74.7221 47.4548 0.0000 0.0000 0.0000
# 3 56.4424 47.4548 156.3071 0.0000 0.0000 0.0000
# 4 0.0000 0.0000 0.0000 37.5680 0.0000 0.0000
# 5 0.0000 0.0000 0.0000 0.0000 44.2234 0.0000
# 6 0.0000 0.0000 0.0000 0.0000 0.0000 31.7901
#
#
#
# Elastic Compliance Matrix: (Units=1/GPa)
#
#
# Indices 1 2 3 4 5 6 
#
# 1 0.022455 -0.007931 -0.005701 0.000000 0.000000 0.000000
# 2 -0.007931 0.019381 -0.003020 0.000000 0.000000 0.000000
# 3 -0.005701 -0.003020 0.009373 0.000000 0.000000 0.000000
# 4 0.000000 0.000000 0.000000 0.026618 0.000000 0.000000
# 5 0.000000 0.000000 0.000000 0.000000 0.022612 0.000000
# 6 0.000000 0.000000 0.000000 0.000000 0.000000 0.031456
#
#
# Mechanical properties :
#
#
# Convention : Reuss Voigt Hill
#
# Bulk Modulus (GPa) = 55.84958 65.34910 60.59934
# Shear Modulus (GPa) = 29.21097 33.45841 31.33469
#
# Velocity S-wave (km/s) = 3.55296 3.80251 3.67985
# Velocity P-wave (km/s) = 6.40053 6.89343 6.65155
#
# Compressibility (1/GPa) = 0.01790524
#
# Stress axis : x y z
#
# Youngs Moduli (GPa) = 44.53346 51.59689 106.68897
#
# Poissons Ratio (x) = 0.40923 0.60819
# Poissons Ratio (y) = 0.35321 0.32221
# Poissons Ratio (z) = 0.25387 0.15583
#
# Static dielectric constant tensor:
#      x y z
#    x 4.199000 0.000000 0.000000 
#    y 0.000000 4.096130 0.000000 
#    z 0.000000 0.000000 4.124170 
# 
# 
# High freq. dielectric constant tensor:
#      x y z
#    x 1.916990 0.000000 0.000000 
#    y 0.000000 1.916040 0.000000 
#    z 0.000000 0.000000 1.921650 
# 
# From -- ./inp_files/5416.got.cif
#   From: 2010.03.12/outbox.cif.g09.slc.cpg/sg18_3_cif.got.tgz:5416.got - 2010.04.10 18:53:55.
