data_PCOD8156337
_publ_section_title
;
Structure prediction by ZEFSAII (Michael W. Deem and Ramdas Pophale) SiO2 
 PCOD8156337
Probable space group: P 21 21 2
;
_chemical_formula_sum "Si O2"
_cell_formula_units_Z 18
_cell_length_a 4.895846
_cell_length_b 17.840549
_cell_length_c 8.042726
_cell_angle_alpha 90.000000
_cell_angle_beta 90.000000
_cell_angle_gamma 90.000000
_cell_volume 702.488528
_symmetry_space_group_name_H-M "P 21 21 2"
_symmetry_group_IT_number 18
_symmetry_cell_setting 'orthorhombic'
loop_
_space_group_symop_operation_xyz
x,y,z
-x,-y,z
1/2+x,1/2-y,-z
1/2-x,1/2+y,-z
loop_
_atom_site_type_symbol
_atom_site_label
_atom_site_fract_x
_atom_site_fract_y
_atom_site_fract_z
Si Si1 0.163995 0.276469 0.098295
Si Si2 0.835145 0.853159 0.312616
Si Si3 0.862989 0.571480 0.548746
Si Si4 0.135508 0.579348 0.032479
Si Si5 0.000000 0.000000 0.728194
O O1 0.078063 0.362750 0.116644
O O2 0.143580 0.236473 0.281015
O O3 0.970809 0.229133 0.971923
O O4 0.618644 0.869834 0.462653
O O5 0.126921 0.890168 0.345204
O O6 0.727199 0.887588 0.141634
O O7 0.743272 0.538828 0.377193
O O8 0.000000 0.500000 0.643987
O O9 0.384099 0.567612 0.160367
O O10 0.000000 0.500000 0.000712
#
# Coordination Sequence:
#
# PCOD8156337 Si02
#       5
#     4   4   4   4   2
#     4  10  23  45  71 112 150 176 239 318 365 418
#     4  11  24  44  78 108 137 193 247 297 357 435
#     4  12  24  45  71 102 149 192 238 295 354 433
#     4  11  27  43  77 111 144 188 246 303 368 425
#     4  12  28  44  72 110 158 188 236 314 358 432
#
# _framework density 25.623190999999998
#
# number of rings (size 3 to 8) (size 9 to 14) (size 15 to 20)
#    0.000    0.889    2.222    4.000   12.444    0.000 
#    0.000    0.000    9.778    0.000    0.000    0.000 
#    0.000    0.000    0.000    0.000    0.000    0.000 
#
# Total GULP energy -223092.478089 kJ/mol
# GULP energy per Si atom -12394.026560 kJ/mol
# Density = 2.556487 g / cm^3
# Si number density = 25.623191 Si / 1000 Ang^3
#
#
#
# Elastic Constant Matrix: (Units=GPa)
#
#
# Indices 1 2 3 4 5 6 
#
# 1 108.6092 0.5245 1.5888 0.0000 0.0000 0.0000
# 2 0.5245 100.1050 12.2541 0.0000 0.0000 0.0000
# 3 1.5888 12.2541 48.7666 0.0000 0.0000 0.0000
# 4 0.0000 0.0000 0.0000 54.6039 0.0000 0.0000
# 5 0.0000 0.0000 0.0000 0.0000 36.4283 0.0000
# 6 0.0000 0.0000 0.0000 0.0000 0.0000 48.4480
#
#
#
# Elastic Compliance Matrix: (Units=1/GPa)
#
#
# Indices 1 2 3 4 5 6 
#
# 1 0.009212 -0.000012 -0.000297 0.000000 0.000000 0.000000
# 2 -0.000012 0.010307 -0.002589 0.000000 0.000000 0.000000
# 3 -0.000297 -0.002589 0.021166 0.000000 0.000000 0.000000
# 4 0.000000 0.000000 0.000000 0.018314 0.000000 0.000000
# 5 0.000000 0.000000 0.000000 0.000000 0.027451 0.000000
# 6 0.000000 0.000000 0.000000 0.000000 0.000000 0.020641
#
#
# Mechanical properties :
#
#
# Convention : Reuss Voigt Hill
#
# Bulk Modulus (GPa) = 28.66352 31.80173 30.23263
# Shear Modulus (GPa) = 40.15543 44.10360 42.12951
#
# Velocity S-wave (km/s) = 3.96302 4.15328 4.05927
# Velocity P-wave (km/s) = 5.67023 5.95297 5.81332
#
# Compressibility (1/GPa) = 0.03488755
#
# Stress axis : x y z
#
# Youngs Moduli (GPa) = 108.55727 97.02565 47.24512
#
# Poissons Ratio (x) = 0.00115 0.01404
# Poissons Ratio (y) = 0.00129 0.12234
# Poissons Ratio (z) = 0.03226 0.25124
#
# Static dielectric constant tensor:
#      x y z
#    x 4.923180 0.000000 0.000000 
#    y 0.000000 5.178240 0.000000 
#    z 0.000000 0.000000 4.288490 
# 
# 
# High freq. dielectric constant tensor:
#      x y z
#    x 2.046680 0.000000 0.000000 
#    y 0.000000 2.033780 0.000000 
#    z 0.000000 0.000000 1.997320 
# 
# From -- ./inp_files/2451.got.cif
#   From: 2010.03.12/outbox.cif.g09.slc.cpg/sg18_2_cif.got.tgz:2451.got - 2010.04.10 18:53:55.
