data_PCOD8156286
_publ_section_title
;
Structure prediction by ZEFSAII (Michael W. Deem and Ramdas Pophale) SiO2 
 PCOD8156286
Probable space group: P 21 21 2
;
_chemical_formula_sum "Si O2"
_cell_formula_units_Z 22
_cell_length_a 5.485490
_cell_length_b 11.812359
_cell_length_c 15.343600
_cell_angle_alpha 90.000000
_cell_angle_beta 90.000000
_cell_angle_gamma 90.000000
_cell_volume 994.212761
_symmetry_space_group_name_H-M "P 21 21 2"
_symmetry_group_IT_number 18
_symmetry_cell_setting 'orthorhombic'
loop_
_space_group_symop_operation_xyz
x,y,z
-x,-y,z
1/2+x,1/2-y,-z
1/2-x,1/2+y,-z
loop_
_atom_site_type_symbol
_atom_site_label
_atom_site_fract_x
_atom_site_fract_y
_atom_site_fract_z
Si Si1 0.500000 0.000000 0.678964
Si Si2 0.024820 0.869413 0.060313
Si Si3 0.526761 0.756154 0.113295
Si Si4 0.688329 0.675940 0.424913
Si Si5 0.688325 0.306729 0.286339
Si Si6 0.470700 0.367617 0.613817
O O1 0.631843 0.086010 0.615450
O O2 0.338753 0.080698 0.741597
O O3 0.788747 0.816002 0.107370
O O4 0.284523 0.832248 0.100091
O O5 0.017243 0.843680 0.957436
O O6 0.000000 0.000000 0.075942
O O7 0.513709 0.709403 0.211575
O O8 0.427769 0.660661 0.379584
O O9 0.689911 0.650047 0.527237
O O10 0.772783 0.805218 0.405212
O O11 0.845951 0.192511 0.302059
O O12 0.500000 0.500000 0.636049
#
# Coordination Sequence:
#
# PCOD8156286 Si02
#       6
#     2   4   4   4   4   4
#     4  10  24  40  68  92 126 174 226 286 332 392
#     4  10  22  46  70  99 135 182 216 281 346 418
#     4  10  24  43  70 103 138 169 234 275 343 417
#     4  11  23  42  62  93 130 173 229 278 334 399
#     4  11  24  43  63  99 134 174 222 289 331 407
#     4  11  24  40  64  94 130 182 224 274 344 403
#
# _framework density 22.128059
#
# number of rings (size 3 to 8) (size 9 to 14) (size 15 to 20)
#    0.000    1.455    1.818    2.182    7.636    2.909 
#    9.818    0.000    0.000    0.000    0.000    0.000 
#    0.000    0.000    0.000    0.000    0.000    0.000 
#
# Total GULP energy -272673.908608 kJ/mol
# GULP energy per Si atom -12394.268573 kJ/mol
# Density = 2.207769 g / cm^3
# Si number density = 22.128059 Si / 1000 Ang^3
#
#
#
# Elastic Constant Matrix: (Units=GPa)
#
#
# Indices 1 2 3 4 5 6 
#
# 1 83.6158 22.7158 -1.7160 0.0000 0.0000 0.0000
# 2 22.7158 133.8746 8.2684 0.0000 0.0000 0.0000
# 3 -1.7160 8.2684 73.4653 0.0000 0.0000 0.0000
# 4 0.0000 0.0000 0.0000 10.8855 0.0000 0.0000
# 5 0.0000 0.0000 0.0000 0.0000 34.5578 0.0000
# 6 0.0000 0.0000 0.0000 0.0000 0.0000 13.9695
#
#
#
# Elastic Compliance Matrix: (Units=1/GPa)
#
#
# Indices 1 2 3 4 5 6 
#
# 1 0.012558 -0.002164 0.000537 0.000000 0.000000 0.000000
# 2 -0.002164 0.007895 -0.000939 0.000000 0.000000 0.000000
# 3 0.000537 -0.000939 0.013730 0.000000 0.000000 0.000000
# 4 0.000000 0.000000 0.000000 0.091865 0.000000 0.000000
# 5 0.000000 0.000000 0.000000 0.000000 0.028937 0.000000
# 6 0.000000 0.000000 0.000000 0.000000 0.000000 0.071584
#
#
# Mechanical properties :
#
#
# Convention : Reuss Voigt Hill
#
# Bulk Modulus (GPa) = 34.42243 38.83246 36.62745
# Shear Modulus (GPa) = 20.71373 29.32841 25.02107
#
# Velocity S-wave (km/s) = 3.06287 3.64455 3.36630
# Velocity P-wave (km/s) = 5.30075 5.94116 5.63007
#
# Compressibility (1/GPa) = 0.02905082
#
# Stress axis : x y z
#
# Youngs Moduli (GPa) = 79.62804 126.66450 72.83270
#
# Poissons Ratio (x) = 0.27411 -0.03910
# Poissons Ratio (y) = 0.17232 0.06840
# Poissons Ratio (z) = -0.04275 0.11895
#
# Static dielectric constant tensor:
#      x y z
#    x 4.252850 0.000000 0.000000 
#    y 0.000000 3.930660 0.000000 
#    z 0.000000 0.000000 3.854240 
# 
# 
# High freq. dielectric constant tensor:
#      x y z
#    x 1.882810 0.000000 0.000000 
#    y 0.000000 1.871940 0.000000 
#    z 0.000000 0.000000 1.862080 
# 
# From -- ./inp_files/6439.got.cif
#   From: 2010.03.12/outbox.cif.g09.slc.cpg/sg18_4_cif.got.tgz:6439.got - 2010.04.10 18:53:55.
