data_PCOD8156273
_publ_section_title
;
Structure prediction by ZEFSAII (Michael W. Deem and Ramdas Pophale) SiO2 
 PCOD8156273
Probable space group: P 21 21 2
;
_chemical_formula_sum "Si O2"
_cell_formula_units_Z 24
_cell_length_a 8.355039
_cell_length_b 19.349691
_cell_length_c 6.670030
_cell_angle_alpha 90.000000
_cell_angle_beta 90.000000
_cell_angle_gamma 90.000000
_cell_volume 1078.326561
_symmetry_space_group_name_H-M "P 21 21 2"
_symmetry_group_IT_number 18
_symmetry_cell_setting 'orthorhombic'
loop_
_space_group_symop_operation_xyz
x,y,z
-x,-y,z
1/2+x,1/2-y,-z
1/2-x,1/2+y,-z
loop_
_atom_site_type_symbol
_atom_site_label
_atom_site_fract_x
_atom_site_fract_y
_atom_site_fract_z
Si Si1 0.121351 0.302123 0.955036
Si Si2 0.525093 0.390888 0.639235
Si Si3 0.881022 0.359541 0.640043
Si Si4 0.000000 0.500000 0.729023
Si Si5 0.599631 0.752547 0.711530
Si Si6 0.789858 0.055886 0.035823
Si Si7 0.500000 0.500000 0.300712
O O1 0.237263 0.249473 0.838842
O O2 0.970659 0.320140 0.817045
O O3 0.219185 0.369621 0.022093
O O4 0.056157 0.264303 0.151637
O O5 0.702001 0.373198 0.715691
O O6 0.425524 0.320438 0.597427
O O7 0.539829 0.433340 0.433976
O O8 0.437405 0.435658 0.809951
O O9 0.882466 0.315211 0.439868
O O10 0.973127 0.431975 0.593109
O O11 0.155847 0.492397 0.867055
O O12 0.846658 0.017837 0.834753
#
# Coordination Sequence:
#
# PCOD8156273 Si02
#       7
#     4   4   4   2   4   4   2
#     4  10  24  42  65  95 130 170 214 266 322 386
#     4  11  25  42  65  97 130 165 218 270 312 382
#     4  11  23  41  66  95 129 169 212 265 324 379
#     4  10  22  44  68  96 134 168 216 274 316 382
#     4  11  24  43  66  95 129 168 215 266 322 385
#     4  10  24  44  65  95 133 169 215 267 319 382
#     4  12  24  42  68  94 128 176 214 262 332 382
#
# _framework density 22.256706999999999
#
# number of rings (size 3 to 8) (size 9 to 14) (size 15 to 20)
#    0.000    1.333    0.000    4.500    0.000   16.000 
#    0.000    1.667    0.000    0.000    0.000    0.000 
#    0.000    0.000    0.000    0.000    0.000    0.000 
#
# Total GULP energy -297727.357746 kJ/mol
# GULP energy per Si atom -12405.306573 kJ/mol
# Density = 2.220605 g / cm^3
# Si number density = 22.256707 Si / 1000 Ang^3
#
#
#
# Elastic Constant Matrix: (Units=GPa)
#
#
# Indices 1 2 3 4 5 6 
#
# 1 147.3986 43.1463 64.9413 0.0000 0.0000 0.0000
# 2 43.1463 130.3138 71.8924 0.0000 0.0000 0.0000
# 3 64.9413 71.8924 114.2420 0.0000 0.0000 0.0000
# 4 0.0000 0.0000 0.0000 38.4840 0.0000 0.0000
# 5 0.0000 0.0000 0.0000 0.0000 25.1958 0.0000
# 6 0.0000 0.0000 0.0000 0.0000 0.0000 41.8913
#
#
#
# Elastic Compliance Matrix: (Units=1/GPa)
#
#
# Indices 1 2 3 4 5 6 
#
# 1 0.009056 -0.000243 -0.004995 0.000000 0.000000 0.000000
# 2 -0.000243 0.011761 -0.007263 0.000000 0.000000 0.000000
# 3 -0.004995 -0.007263 0.016164 0.000000 0.000000 0.000000
# 4 0.000000 0.000000 0.000000 0.025985 0.000000 0.000000
# 5 0.000000 0.000000 0.000000 0.000000 0.039689 0.000000
# 6 0.000000 0.000000 0.000000 0.000000 0.000000 0.023871
#
#
# Mechanical properties :
#
#
# Convention : Reuss Voigt Hill
#
# Bulk Modulus (GPa) = 83.48284 83.54606 83.51445
# Shear Modulus (GPa) = 32.14972 35.24584 33.69778
#
# Velocity S-wave (km/s) = 3.80478 3.98377 3.89530
# Velocity P-wave (km/s) = 7.54270 7.66678 7.60499
#
# Compressibility (1/GPa) = 0.01197851
#
# Stress axis : x y z
#
# Youngs Moduli (GPa) = 110.42140 85.02496 61.86634
#
# Poissons Ratio (x) = 0.02063 0.30905
# Poissons Ratio (y) = 0.02679 0.44936
# Poissons Ratio (z) = 0.55160 0.61757
#
# Static dielectric constant tensor:
#      x y z
#    x 4.193370 0.000000 0.000000 
#    y 0.000000 4.219990 0.000000 
#    z 0.000000 0.000000 3.686350 
# 
# 
# High freq. dielectric constant tensor:
#      x y z
#    x 1.894220 0.000000 0.000000 
#    y 0.000000 1.895730 0.000000 
#    z 0.000000 0.000000 1.855040 
# 
# From -- ./inp_files/642.got.cif
#   From: 2010.03.12/outbox.cif.g09.slc.cpg/sg18_1_cif.got.tgz:642.got - 2010.04.10 18:53:55.
