data_PCOD8156058
_publ_section_title
;
Structure prediction by ZEFSAII (Michael W. Deem and Ramdas Pophale) SiO2 
 PCOD8156058
Probable space group: P 21 21 2
;
_chemical_formula_sum "Si O2"
_cell_formula_units_Z 30
_cell_length_a 17.764746
_cell_length_b 5.308932
_cell_length_c 15.444081
_cell_angle_alpha 90.000000
_cell_angle_beta 90.000000
_cell_angle_gamma 90.000000
_cell_volume 1456.559519
_symmetry_space_group_name_H-M "P 21 21 2"
_symmetry_group_IT_number 18
_symmetry_cell_setting 'orthorhombic'
loop_
_space_group_symop_operation_xyz
x,y,z
-x,-y,z
1/2+x,1/2-y,-z
1/2-x,1/2+y,-z
loop_
_atom_site_type_symbol
_atom_site_label
_atom_site_fract_x
_atom_site_fract_y
_atom_site_fract_z
Si Si1 0.713678 0.234130 0.460559
Si Si2 0.263762 0.490204 0.890501
Si Si3 0.000000 0.000000 0.996839
Si Si4 0.891118 0.675678 0.304942
Si Si5 0.704710 0.679045 0.707200
Si Si6 0.363743 0.219896 0.018642
Si Si7 0.102799 0.330943 0.117225
Si Si8 0.043141 0.256377 0.482934
O O1 0.753714 0.493517 0.488626
O O2 0.724517 0.192793 0.357574
O O3 0.625538 0.257810 0.476751
O O4 0.268321 0.302437 0.807983
O O5 0.297108 0.396316 0.982580
O O6 0.310899 0.740856 0.868156
O O7 0.174906 0.544211 0.908746
O O8 0.060598 0.844278 0.938586
O O9 0.944632 0.850421 0.058160
O O10 0.847549 0.413631 0.317121
O O11 0.934125 0.657809 0.212397
O O12 0.953136 0.708734 0.379057
O O13 0.836427 0.915946 0.310981
O O14 0.396500 0.096409 0.930848
O O15 0.000000 0.500000 0.521812
O O16 0.000000 0.000000 0.506913
#
# Coordination Sequence:
#
# PCOD8156058 Si02
#       8
#     4   4   2   4   4   4   4   4
#     4  12  22  42  68  93 127 169 218 264 316 388
#     4  10  21  34  63  89 118 158 214 267 316 362
#     4  10  24  34  54  84 122 172 204 252 316 392
#     4  11  22  38  61  93 133 159 206 256 323 388
#     4  11  21  40  64  98 120 161 218 269 309 372
#     4  11  19  38  56  87 120 163 210 257 314 381
#     4  10  21  36  55  85 123 157 203 251 315 381
#     4  12  25  39  61  96 133 168 204 258 326 393
#
# _framework density 20.596481000000001
#
# number of rings (size 3 to 8) (size 9 to 14) (size 15 to 20)
#    0.000    1.067    5.333    2.000    0.933    1.067 
#    0.000    0.000    0.000    1.600    3.467    0.000 
#    0.000    0.000    0.000    0.000    0.000    0.000 
#
# Total GULP energy -371734.951091 kJ/mol
# GULP energy per Si atom -12391.165036 kJ/mol
# Density = 2.054960 g / cm^3
# Si number density = 20.596481 Si / 1000 Ang^3
#
#
#
# Elastic Constant Matrix: (Units=GPa)
#
#
# Indices 1 2 3 4 5 6 
#
# 1 117.2261 59.6344 20.4612 0.0000 0.0000 0.0000
# 2 59.6344 119.2547 9.4260 0.0000 0.0000 0.0000
# 3 20.4612 9.4260 44.6755 0.0000 0.0000 0.0000
# 4 0.0000 0.0000 0.0000 16.5268 0.0000 0.0000
# 5 0.0000 0.0000 0.0000 0.0000 24.5340 0.0000
# 6 0.0000 0.0000 0.0000 0.0000 0.0000 35.7503
#
#
#
# Elastic Compliance Matrix: (Units=1/GPa)
#
#
# Indices 1 2 3 4 5 6 
#
# 1 0.012231 -0.005770 -0.004384 0.000000 0.000000 0.000000
# 2 -0.005770 0.011249 0.000269 0.000000 0.000000 0.000000
# 3 -0.004384 0.000269 0.024335 0.000000 0.000000 0.000000
# 4 0.000000 0.000000 0.000000 0.060508 0.000000 0.000000
# 5 0.000000 0.000000 0.000000 0.000000 0.040760 0.000000
# 6 0.000000 0.000000 0.000000 0.000000 0.000000 0.027972
#
#
# Mechanical properties :
#
#
# Convention : Reuss Voigt Hill
#
# Bulk Modulus (GPa) = 35.65688 51.13329 43.39509
# Shear Modulus (GPa) = 24.25151 28.13786 26.19469
#
# Velocity S-wave (km/s) = 3.43513 3.70016 3.57011
# Velocity P-wave (km/s) = 5.75180 6.56772 6.17326
#
# Compressibility (1/GPa) = 0.02804508
#
# Stress axis : x y z
#
# Youngs Moduli (GPa) = 81.76038 88.89443 41.09326
#
# Poissons Ratio (x) = 0.51289 0.18017
# Poissons Ratio (y) = 0.47173 -0.01105
# Poissons Ratio (z) = 0.35847 -0.02391
#
# Static dielectric constant tensor:
#      x y z
#    x 3.709690 0.000000 0.000000 
#    y 0.000000 3.957820 0.000000 
#    z 0.000000 0.000000 3.798410 
# 
# 
# High freq. dielectric constant tensor:
#      x y z
#    x 1.797530 0.000000 0.000000 
#    y 0.000000 1.824480 0.000000 
#    z 0.000000 0.000000 1.775430 
# 
# From -- ./inp_files/7408.got.cif
#   From: 2010.03.12/outbox.cif.g09.slc.cpg/sg18_4_cif.got.tgz:7408.got - 2010.04.10 18:53:55.
