data_PCOD8156176
_publ_section_title
;
Structure prediction by ZEFSAII (Michael W. Deem and Ramdas Pophale) SiO2 
 PCOD8156176
Probable space group: P 21 21 2
;
_chemical_formula_sum "Si O2"
_cell_formula_units_Z 20
_cell_length_a 11.218660
_cell_length_b 7.829910
_cell_length_c 9.909105
_cell_angle_alpha 90.000000
_cell_angle_beta 90.000000
_cell_angle_gamma 90.000000
_cell_volume 870.426665
_symmetry_space_group_name_H-M "P 21 21 2"
_symmetry_group_IT_number 18
_symmetry_cell_setting 'orthorhombic'
loop_
_space_group_symop_operation_xyz
x,y,z
-x,-y,z
1/2+x,1/2-y,-z
1/2-x,1/2+y,-z
loop_
_atom_site_type_symbol
_atom_site_label
_atom_site_fract_x
_atom_site_fract_y
_atom_site_fract_z
Si Si1 0.059388 0.671300 0.747442
Si Si2 0.174326 0.143293 0.827004
Si Si3 0.240670 0.895277 0.594462
Si Si4 0.378173 0.584405 0.629521
Si Si5 0.734205 0.493952 0.894754
O O1 0.137269 0.759027 0.631209
O O2 0.143032 0.612944 0.873641
O O3 0.000000 0.500000 0.686313
O O4 0.962894 0.810496 0.796249
O O5 0.249143 0.308557 0.863378
O O6 0.238820 0.048865 0.702581
O O7 0.181496 0.018902 0.955648
O O8 0.364519 0.786079 0.590714
O O9 0.223991 0.973963 0.446134
O O10 0.500000 0.500000 0.578968
O O11 0.364474 0.574042 0.790088
#
# Coordination Sequence:
#
# PCOD8156176 Si02
#       5
#     4   4   4   4   4
#     4   9  20  38  64  92 122 164 210 254 309 374
#     4  11  21  40  63  89 125 167 210 254 305 370
#     4  11  23  41  63  88 121 166 210 253 311 381
#     4  11  24  41  62  92 126 162 205 261 315 364
#     4  10  22  38  61  95 128 161 207 256 305 367
#
# _framework density 22.977236999999999
#
# number of rings (size 3 to 8) (size 9 to 14) (size 15 to 20)
#    0.000    1.600    0.000    5.400    0.000    6.400 
#    0.000    5.000    0.000    0.000    0.000    0.000 
#    0.000    0.000    0.000    0.000    0.000    0.000 
#
# Total GULP energy -247951.385064 kJ/mol
# GULP energy per Si atom -12397.569253 kJ/mol
# Density = 2.292494 g / cm^3
# Si number density = 22.977237 Si / 1000 Ang^3
#
#
#
# Elastic Constant Matrix: (Units=GPa)
#
#
# Indices 1 2 3 4 5 6 
#
# 1 69.5234 44.1254 4.0298 0.0000 0.0000 0.0000
# 2 44.1254 129.4271 5.1937 0.0000 0.0000 0.0000
# 3 4.0298 5.1937 58.2470 0.0000 0.0000 0.0000
# 4 0.0000 0.0000 0.0000 43.8403 0.0000 0.0000
# 5 0.0000 0.0000 0.0000 0.0000 18.2789 0.0000
# 6 0.0000 0.0000 0.0000 0.0000 0.0000 46.5613
#
#
#
# Elastic Compliance Matrix: (Units=1/GPa)
#
#
# Indices 1 2 3 4 5 6 
#
# 1 0.018385 -0.006239 -0.000716 0.000000 0.000000 0.000000
# 2 -0.006239 0.009872 -0.000449 0.000000 0.000000 0.000000
# 3 -0.000716 -0.000449 0.017258 0.000000 0.000000 0.000000
# 4 0.000000 0.000000 0.000000 0.022810 0.000000 0.000000
# 5 0.000000 0.000000 0.000000 0.000000 0.054708 0.000000
# 6 0.000000 0.000000 0.000000 0.000000 0.000000 0.021477
#
#
# Mechanical properties :
#
#
# Convention : Reuss Voigt Hill
#
# Bulk Modulus (GPa) = 32.56537 40.43281 36.49909
# Shear Modulus (GPa) = 29.48945 35.32601 32.40773
#
# Velocity S-wave (km/s) = 3.58637 3.92527 3.75964
# Velocity P-wave (km/s) = 5.59938 6.17889 5.89626
#
# Compressibility (1/GPa) = 0.03070746
#
# Stress axis : x y z
#
# Youngs Moduli (GPa) = 54.39188 101.30169 57.94489
#
# Poissons Ratio (x) = 0.63205 0.04147
# Poissons Ratio (y) = 0.33937 0.02599
# Poissons Ratio (z) = 0.03892 0.04544
#
# Static dielectric constant tensor:
#      x y z
#    x 4.023720 0.000000 0.000000 
#    y 0.000000 4.525990 0.000000 
#    z 0.000000 0.000000 3.978090 
# 
# 
# High freq. dielectric constant tensor:
#      x y z
#    x 1.884850 0.000000 0.000000 
#    y 0.000000 1.932850 0.000000 
#    z 0.000000 0.000000 1.899660 
# 
# From -- ./inp_files/4115.got.cif
#   From: 2010.03.12/outbox.cif.g09.slc.cpg/sg18_3_cif.got.tgz:4115.got - 2010.04.10 18:53:55.
