data_PCOD8156062
_publ_section_title
;
Structure prediction by ZEFSAII (Michael W. Deem and Ramdas Pophale) SiO2 
 PCOD8156062
Probable space group: P 21 21 2
;
_chemical_formula_sum "Si O2"
_cell_formula_units_Z 16
_cell_length_a 12.906147
_cell_length_b 12.889535
_cell_length_c 5.093147
_cell_angle_alpha 90.000000
_cell_angle_beta 90.000000
_cell_angle_gamma 90.000000
_cell_volume 847.266565
_symmetry_space_group_name_H-M "P 21 21 2"
_symmetry_group_IT_number 18
_symmetry_cell_setting 'orthorhombic'
loop_
_space_group_symop_operation_xyz
x,y,z
-x,-y,z
1/2+x,1/2-y,-z
1/2-x,1/2+y,-z
loop_
_atom_site_type_symbol
_atom_site_label
_atom_site_fract_x
_atom_site_fract_y
_atom_site_fract_z
Si Si1 0.117041 0.970558 0.768942
Si Si2 0.617041 0.970559 0.231061
Si Si3 0.704646 0.629244 0.734715
Si Si4 0.704646 0.870756 0.734717
O O1 0.157297 0.890514 0.550994
O O2 0.183720 0.075700 0.764976
O O3 0.124991 0.915302 0.050420
O O4 0.000000 0.000000 0.708551
O O5 0.657298 0.890515 0.449007
O O6 0.500000 0.000000 0.291454
O O7 0.683719 0.075701 0.235026
O O8 0.624991 0.915302 0.949584
O O9 0.722374 0.750000 0.778680
#
# Coordination Sequence:
#
# PCOD8156062 Si02
#       4
#     4   4   4   4
#     4  10  21  38  56  80 112 142 179 224 268 318
#     4  10  21  38  56  80 112 142 179 224 268 318
#     4  10  21  36  56  82 110 142 181 222 266 320
#     4  10  21  36  56  82 110 142 181 222 266 320
#
# _framework density 18.884255
#
# number of rings (size 3 to 8) (size 9 to 14) (size 15 to 20)
#    0.000    2.000    0.000    3.000    0.000    4.000 
#    0.000    0.000    0.000    0.000    0.000    0.000 
#    0.000    0.000    0.000    0.000    0.000    0.000 
#
# Total GULP energy -198498.863228 kJ/mol
# GULP energy per Si atom -12406.178952 kJ/mol
# Density = 1.884127 g / cm^3
# Si number density = 18.884255 Si / 1000 Ang^3
#
#
#
# Elastic Constant Matrix: (Units=GPa)
#
#
# Indices 1 2 3 4 5 6 
#
# 1 99.7542 50.4671 15.9288 0.0000 0.0000 0.0000
# 2 50.4671 133.8415 17.2068 0.0000 0.0000 0.0000
# 3 15.9288 17.2068 70.3828 0.0000 0.0000 0.0000
# 4 0.0000 0.0000 0.0000 15.7031 0.0000 0.0000
# 5 0.0000 0.0000 0.0000 0.0000 19.6036 0.0000
# 6 0.0000 0.0000 0.0000 0.0000 0.0000 8.5336
#
#
#
# Elastic Compliance Matrix: (Units=1/GPa)
#
#
# Indices 1 2 3 4 5 6 
#
# 1 0.012592 -0.004524 -0.001744 0.000000 0.000000 0.000000
# 2 -0.004524 0.009339 -0.001259 0.000000 0.000000 0.000000
# 3 -0.001744 -0.001259 0.014911 0.000000 0.000000 0.000000
# 4 0.000000 0.000000 0.000000 0.063682 0.000000 0.000000
# 5 0.000000 0.000000 0.000000 0.000000 0.051011 0.000000
# 6 0.000000 0.000000 0.000000 0.000000 0.000000 0.117184
#
#
# Mechanical properties :
#
#
# Convention : Reuss Voigt Hill
#
# Bulk Modulus (GPa) = 45.89761 52.35377 49.12569
# Shear Modulus (GPa) = 17.18012 23.45979 20.31995
#
# Velocity S-wave (km/s) = 3.01949 3.52844 3.28384
# Velocity P-wave (km/s) = 6.04267 6.66210 6.35993
#
# Compressibility (1/GPa) = 0.02178763
#
# Stress axis : x y z
#
# Youngs Moduli (GPa) = 79.41735 107.07579 67.06662
#
# Poissons Ratio (x) = 0.48438 0.11695
# Poissons Ratio (y) = 0.35926 0.08446
# Poissons Ratio (z) = 0.13849 0.13485
#
# Static dielectric constant tensor:
#      x y z
#    x 3.293250 0.000000 0.000000 
#    y 0.000000 3.329220 0.000000 
#    z 0.000000 0.000000 3.698090 
# 
# 
# High freq. dielectric constant tensor:
#      x y z
#    x 1.726980 0.000000 0.000000 
#    y 0.000000 1.732490 0.000000 
#    z 0.000000 0.000000 1.755900 
# 
# From -- ./inp_files/833.got.cif
#   From: 2010.03.12/outbox.cif.g09.slc.cpg/sg18_1_cif.got.tgz:833.got - 2010.04.10 18:53:55.
