data_PCOD8156061
_publ_section_title
;
Structure prediction by ZEFSAII (Michael W. Deem and Ramdas Pophale) SiO2 
 PCOD8156061
Probable space group: P 21 21 2
;
_chemical_formula_sum "Si O2"
_cell_formula_units_Z 26
_cell_length_a 23.657736
_cell_length_b 8.811844
_cell_length_c 6.489037
_cell_angle_alpha 90.000000
_cell_angle_beta 90.000000
_cell_angle_gamma 90.000000
_cell_volume 1352.758376
_symmetry_space_group_name_H-M "P 21 21 2"
_symmetry_group_IT_number 18
_symmetry_cell_setting 'orthorhombic'
loop_
_space_group_symop_operation_xyz
x,y,z
-x,-y,z
1/2+x,1/2-y,-z
1/2-x,1/2+y,-z
loop_
_atom_site_type_symbol
_atom_site_label
_atom_site_fract_x
_atom_site_fract_y
_atom_site_fract_z
Si Si1 0.454304 0.831968 0.134756
Si Si2 0.652647 0.342470 0.040834
Si Si3 0.267056 0.819443 0.759569
Si Si4 0.500000 0.000000 0.515828
Si Si5 0.938184 0.371445 0.104043
Si Si6 0.251554 0.647982 0.361802
Si Si7 0.172060 0.830401 0.087057
O O1 0.468350 0.875493 0.372047
O O2 0.410349 0.693951 0.119356
O O3 0.510439 0.783285 0.009753
O O4 0.426151 0.976233 0.023521
O O5 0.679038 0.206715 0.905925
O O6 0.653536 0.494326 0.901540
O O7 0.689528 0.362201 0.244146
O O8 0.265089 0.683896 0.596369
O O9 0.277895 0.983472 0.657599
O O10 0.208127 0.803420 0.880784
O O11 0.545284 0.911733 0.659673
O O12 0.883676 0.269175 0.090718
O O13 0.210576 0.781612 0.280155
#
# Coordination Sequence:
#
# PCOD8156061 Si02
#       7
#     4   4   4   2   4   4   4
#     4   9  19  35  56  78 106 142 176 218 264 315
#     4  10  21  36  54  80 110 140 178 219 265 318
#     4  10  21  37  54  80 110 141 181 219 265 320
#     4   8  18  36  56  82 104 132 184 218 262 322
#     4   9  19  35  56  80 106 142 178 218 267 315
#     4  10  21  35  56  79 108 145 177 220 268 314
#     4  10  21  36  54  80 110 140 177 220 266 317
#
# _framework density 19.219989000000002
#
# number of rings (size 3 to 8) (size 9 to 14) (size 15 to 20)
#    0.000    2.769    0.000    1.846    0.000   10.462 
#    0.000    0.000    0.000    7.385    0.000    0.000 
#    0.000    0.000    0.000    0.000    0.000    0.000 
#
# Total GULP energy -322322.550230 kJ/mol
# GULP energy per Si atom -12397.021163 kJ/mol
# Density = 1.917624 g / cm^3
# Si number density = 19.219989 Si / 1000 Ang^3
#
#
#
# Elastic Constant Matrix: (Units=GPa)
#
#
# Indices 1 2 3 4 5 6 
#
# 1 93.2568 25.3339 15.3882 0.0000 0.0000 0.0000
# 2 25.3339 57.6982 23.5651 0.0000 0.0000 0.0000
# 3 15.3882 23.5651 99.5046 0.0000 0.0000 0.0000
# 4 0.0000 0.0000 0.0000 26.6078 0.0000 0.0000
# 5 0.0000 0.0000 0.0000 0.0000 9.3922 0.0000
# 6 0.0000 0.0000 0.0000 0.0000 0.0000 41.3727
#
#
#
# Elastic Compliance Matrix: (Units=1/GPa)
#
#
# Indices 1 2 3 4 5 6 
#
# 1 0.012217 -0.005084 -0.000685 0.000000 0.000000 0.000000
# 2 -0.005084 0.021303 -0.004259 0.000000 0.000000 0.000000
# 3 -0.000685 -0.004259 0.011164 0.000000 0.000000 0.000000
# 4 0.000000 0.000000 0.000000 0.037583 0.000000 0.000000
# 5 0.000000 0.000000 0.000000 0.000000 0.106471 0.000000
# 6 0.000000 0.000000 0.000000 0.000000 0.000000 0.024171
#
#
# Mechanical properties :
#
#
# Convention : Reuss Voigt Hill
#
# Bulk Modulus (GPa) = 40.60428 42.11491 41.35960
# Shear Modulus (GPa) = 20.73169 27.88602 24.30886
#
# Velocity S-wave (km/s) = 3.28785 3.81318 3.56022
# Velocity P-wave (km/s) = 5.96533 6.43014 6.20209
#
# Compressibility (1/GPa) = 0.02462795
#
# Stress axis : x y z
#
# Youngs Moduli (GPa) = 81.85053 46.94075 89.57063
#
# Poissons Ratio (x) = 0.23867 0.06138
# Poissons Ratio (y) = 0.41617 0.38147
# Poissons Ratio (z) = 0.05609 0.19991
#
# Static dielectric constant tensor:
#      x y z
#    x 3.397390 0.000000 0.000000 
#    y 0.000000 3.452790 0.000000 
#    z 0.000000 0.000000 3.480050 
# 
# 
# High freq. dielectric constant tensor:
#      x y z
#    x 1.744770 0.000000 0.000000 
#    y 0.000000 1.737710 0.000000 
#    z 0.000000 0.000000 1.748300 
# 
# From -- ./inp_files/657.got.cif
#   From: 2010.03.12/outbox.cif.g09.slc.cpg/sg18_1_cif.got.tgz:657.got - 2010.04.10 18:53:55.
