data_PCOD8156234
_publ_section_title
;
Structure prediction by ZEFSAII (Michael W. Deem and Ramdas Pophale) SiO2 
 PCOD8156234
Probable space group: P 21 21 2
;
_chemical_formula_sum "Si O2"
_cell_formula_units_Z 26
_cell_length_a 25.000489
_cell_length_b 4.901673
_cell_length_c 8.371621
_cell_angle_alpha 90.000000
_cell_angle_beta 90.000000
_cell_angle_gamma 90.000000
_cell_volume 1025.893782
_symmetry_space_group_name_H-M "P 21 21 2"
_symmetry_group_IT_number 18
_symmetry_cell_setting 'orthorhombic'
loop_
_space_group_symop_operation_xyz
x,y,z
-x,-y,z
1/2+x,1/2-y,-z
1/2-x,1/2+y,-z
loop_
_atom_site_type_symbol
_atom_site_label
_atom_site_fract_x
_atom_site_fract_y
_atom_site_fract_z
Si Si1 0.938459 0.024474 0.031688
Si Si2 0.500000 0.500000 0.447397
Si Si3 0.384853 0.964989 0.105693
Si Si4 0.396112 0.213392 0.437001
Si Si5 0.229075 0.670976 0.921855
Si Si6 0.549754 0.132248 0.693078
Si Si7 0.722855 0.635356 0.431562
O O1 0.902428 0.847240 0.912162
O O2 0.920883 0.340785 0.012366
O O3 0.926599 0.890741 0.208131
O O4 0.000000 0.000000 0.981275
O O5 0.444745 0.401126 0.363308
O O6 0.515767 0.237318 0.545354
O O7 0.387961 0.999723 0.295413
O O8 0.325437 0.009172 0.044578
O O9 0.341240 0.384348 0.459148
O O10 0.406727 0.071364 0.611807
O O11 0.238260 0.743996 0.739153
O O12 0.273466 0.452315 0.977741
O O13 0.500000 0.000000 0.797644
O O14 0.747906 0.333684 0.441478
#
# Coordination Sequence:
#
# PCOD8156234 Si02
#       7
#     4   2   4   4   4   4   4
#     4  12  25  43  66  99 144 179 229 283 347 411
#     4  10  22  42  68  94 136 182 228 284 356 402
#     4  11  27  44  68 103 137 184 231 292 342 427
#     4  10  26  44  70 100 141 184 242 287 358 428
#     4  11  24  48  72 101 141 181 233 292 358 422
#     4  10  22  42  64  95 135 183 228 286 340 411
#     4  11  26  47  73 107 141 182 240 303 353 423
#
# _framework density 25.343755999999999
#
# number of rings (size 3 to 8) (size 9 to 14) (size 15 to 20)
#    0.000    1.231    0.769    3.231    7.538    8.615 
#    0.000    0.000    0.000    0.000    0.000    0.000 
#    0.000    0.000    0.000    0.000    0.000    0.000 
#
# Total GULP energy -322135.701184 kJ/mol
# GULP energy per Si atom -12389.834661 kJ/mol
# Density = 2.528607 g / cm^3
# Si number density = 25.343756 Si / 1000 Ang^3
#
#
#
# Elastic Constant Matrix: (Units=GPa)
#
#
# Indices 1 2 3 4 5 6 
#
# 1 112.1477 5.9315 18.8775 0.0000 0.0000 0.0000
# 2 5.9315 73.1066 -9.9724 0.0000 0.0000 0.0000
# 3 18.8775 -9.9724 51.9218 0.0000 0.0000 0.0000
# 4 0.0000 0.0000 0.0000 19.4815 0.0000 0.0000
# 5 0.0000 0.0000 0.0000 0.0000 32.0960 0.0000
# 6 0.0000 0.0000 0.0000 0.0000 0.0000 42.3284
#
#
#
# Elastic Compliance Matrix: (Units=1/GPa)
#
#
# Indices 1 2 3 4 5 6 
#
# 1 0.009615 -0.001291 -0.003744 0.000000 0.000000 0.000000
# 2 -0.001291 0.014220 0.003200 0.000000 0.000000 0.000000
# 3 -0.003744 0.003200 0.021236 0.000000 0.000000 0.000000
# 4 0.000000 0.000000 0.000000 0.051331 0.000000 0.000000
# 5 0.000000 0.000000 0.000000 0.000000 0.031156 0.000000
# 6 0.000000 0.000000 0.000000 0.000000 0.000000 0.023625
#
#
# Mechanical properties :
#
#
# Convention : Reuss Voigt Hill
#
# Bulk Modulus (GPa) = 24.15312 29.64993 26.90152
# Shear Modulus (GPa) = 29.64685 33.60382 31.62534
#
# Velocity S-wave (km/s) = 3.42393 3.64527 3.53633
# Velocity P-wave (km/s) = 5.01816 5.42603 5.22608
#
# Compressibility (1/GPa) = 0.04140252
#
# Stress axis : x y z
#
# Youngs Moduli (GPa) = 104.00126 70.32365 47.09078
#
# Poissons Ratio (x) = 0.09078 0.17630
# Poissons Ratio (y) = 0.13425 -0.15071
# Poissons Ratio (z) = 0.38936 -0.22507
#
# Static dielectric constant tensor:
#      x y z
#    x 5.351180 0.000000 0.000000 
#    y 0.000000 4.726930 0.000000 
#    z 0.000000 0.000000 4.368810 
# 
# 
# High freq. dielectric constant tensor:
#      x y z
#    x 2.012070 0.000000 0.000000 
#    y 0.000000 2.023150 0.000000 
#    z 0.000000 0.000000 2.003150 
# 
# From -- ./inp_files/4736.got.cif
#   From: 2010.03.12/outbox.cif.g09.slc.cpg/sg18_3_cif.got.tgz:4736.got - 2010.04.10 18:53:55.
