data_PCOD8156623
_publ_section_title
;
Structure prediction by ZEFSAII (Michael W. Deem and Ramdas Pophale) SiO2 
 PCOD8156623
Probable space group: P 21 21 21
;
_chemical_formula_sum "Si O2"
_cell_formula_units_Z 32
_cell_length_a 17.092189
_cell_length_b 9.465531
_cell_length_c 10.982534
_cell_angle_alpha 90.000000
_cell_angle_beta 90.000000
_cell_angle_gamma 90.000000
_cell_volume 1776.827328
_symmetry_space_group_name_H-M "P 21 21 21"
_symmetry_group_IT_number 19
_symmetry_cell_setting 'orthorhombic'
loop_
_space_group_symop_operation_xyz
x,y,z
1/2-x,-y,1/2+z
1/2+x,1/2-y,-z
-x,1/2+y,1/2-z
loop_
_atom_site_type_symbol
_atom_site_label
_atom_site_fract_x
_atom_site_fract_y
_atom_site_fract_z
Si Si1 0.208996 0.572346 0.715743
Si Si2 0.700694 0.585875 0.885883
Si Si3 0.265235 0.287765 0.830179
Si Si4 0.573619 0.307250 0.741449
Si Si5 0.312695 0.772634 0.568004
Si Si6 0.878211 0.042463 0.006590
Si Si7 0.783557 0.771930 0.082601
Si Si8 0.974181 0.436306 0.365315
O O1 0.232448 0.412291 0.745900
O O2 0.273242 0.633218 0.622940
O O3 0.127776 0.581211 0.638298
O O4 0.210181 0.669270 0.836944
O O5 0.712174 0.654156 0.752911
O O6 0.725842 0.421098 0.885382
O O7 0.609411 0.596819 0.926546
O O8 0.753187 0.665079 0.983211
O O9 0.195883 0.238318 0.922000
O O10 0.342915 0.335766 0.905126
O O11 0.597313 0.268159 0.882617
O O12 0.654278 0.310348 0.666382
O O13 0.536725 0.463313 0.746942
O O14 0.509868 0.207362 0.683762
O O15 0.825718 0.903445 0.020813
O O16 0.968189 0.011871 0.038089
#
# Coordination Sequence:
#
# PCOD8156623 Si02
#       8
#     4   4   4   4   4   4   4   4
#     4   9  17  34  54  77 104 141 187 224 268 312
#     4  11  21  33  55  85 113 141 185 225 284 324
#     4  10  19  33  57  84 104 147 184 226 270 323
#     4   9  19  37  53  81 111 143 173 230 274 324
#     4   9  21  32  53  83 112 138 180 230 270 317
#     4   9  17  34  54  80 107 137 185 227 265 321
#     4   9  18  32  55  80 110 139 182 229 263 325
#     4  10  20  33  55  78 111 142 176 227 278 326
#
# _framework density 18.009630000000001
#
# number of rings (size 3 to 8) (size 9 to 14) (size 15 to 20)
#    0.000    2.500    1.250    1.500    5.250    0.000 
#    0.000    0.000    5.500    0.000    0.000    0.000 
#    0.000    0.000    0.000    0.000    0.000    0.000 
#
# Total GULP energy -396471.760399 kJ/mol
# GULP energy per Si atom -12389.742512 kJ/mol
# Density = 1.796864 g / cm^3
# Si number density = 18.009630 Si / 1000 Ang^3
#
#
#
# Elastic Constant Matrix: (Units=GPa)
#
#
# Indices 1 2 3 4 5 6 
#
# 1 64.8290 10.6051 24.0348 0.0000 0.0000 0.0000
# 2 10.6051 79.5011 22.0980 0.0000 0.0000 0.0000
# 3 24.0348 22.0980 69.3685 0.0000 0.0000 0.0000
# 4 0.0000 0.0000 0.0000 30.7807 0.0000 0.0000
# 5 0.0000 0.0000 0.0000 0.0000 20.2552 0.0000
# 6 0.0000 0.0000 0.0000 0.0000 0.0000 22.1343
#
#
#
# Elastic Compliance Matrix: (Units=1/GPa)
#
#
# Indices 1 2 3 4 5 6 
#
# 1 0.017736 -0.000722 -0.005915 0.000000 0.000000 0.000000
# 2 -0.000722 0.013830 -0.004156 0.000000 0.000000 0.000000
# 3 -0.005915 -0.004156 0.017789 0.000000 0.000000 0.000000
# 4 0.000000 0.000000 0.000000 0.032488 0.000000 0.000000
# 5 0.000000 0.000000 0.000000 0.000000 0.049370 0.000000
# 6 0.000000 0.000000 0.000000 0.000000 0.000000 0.045179
#
#
# Mechanical properties :
#
#
# Convention : Reuss Voigt Hill
#
# Bulk Modulus (GPa) = 36.01014 36.35270 36.18142
# Shear Modulus (GPa) = 24.12734 25.09810 24.61272
#
# Velocity S-wave (km/s) = 3.66415 3.73714 3.70082
# Velocity P-wave (km/s) = 6.15952 6.23302 6.19638
#
# Compressibility (1/GPa) = 0.02776995
#
# Stress axis : x y z
#
# Youngs Moduli (GPa) = 56.38150 72.30767 56.21420
#
# Poissons Ratio (x) = 0.05219 0.33253
# Poissons Ratio (y) = 0.04069 0.23360
# Poissons Ratio (z) = 0.33352 0.30048
#
# Static dielectric constant tensor:
#      x y z
#    x 3.213940 0.000000 0.000000 
#    y 0.000000 3.462430 0.000000 
#    z 0.000000 0.000000 3.442320 
# 
# 
# High freq. dielectric constant tensor:
#      x y z
#    x 1.664740 0.000000 0.000000 
#    y 0.000000 1.710110 0.000000 
#    z 0.000000 0.000000 1.690960 
# 
# From -- ./inp_files/3745.got.cif
#   From: 2010.03.12/outbox.cif.g09.slc.cpg/sg19_2_cif.got.tgz:3745.got - 2010.04.10 18:59:41.
