data_PCOD8156291
_publ_section_title
;
Structure prediction by ZEFSAII (Michael W. Deem and Ramdas Pophale) SiO2 
 PCOD8156291
Probable space group: P 21 21 2
;
_chemical_formula_sum "Si O2"
_cell_formula_units_Z 22
_cell_length_a 12.921606
_cell_length_b 11.758336
_cell_length_c 6.303007
_cell_angle_alpha 90.000000
_cell_angle_beta 90.000000
_cell_angle_gamma 90.000000
_cell_volume 957.657359
_symmetry_space_group_name_H-M "P 21 21 2"
_symmetry_group_IT_number 18
_symmetry_cell_setting 'orthorhombic'
loop_
_space_group_symop_operation_xyz
x,y,z
-x,-y,z
1/2+x,1/2-y,-z
1/2-x,1/2+y,-z
loop_
_atom_site_type_symbol
_atom_site_label
_atom_site_fract_x
_atom_site_fract_y
_atom_site_fract_z
Si Si1 0.169974 0.517860 0.838250
Si Si2 0.423870 0.839422 0.461703
Si Si3 0.438127 0.673013 0.101481
Si Si4 0.272045 0.746696 0.762793
Si Si5 0.856855 0.062972 0.934471
Si Si6 0.000000 0.500000 0.196676
O O1 0.111969 0.455485 0.649259
O O2 0.188437 0.646552 0.763553
O O3 0.283543 0.462839 0.864972
O O4 0.102491 0.514550 0.053846
O O5 0.477783 0.757724 0.287973
O O6 0.331853 0.756993 0.541153
O O7 0.491975 0.884500 0.660399
O O8 0.385634 0.555603 0.183932
O O9 0.542730 0.632484 0.980265
O O10 0.356939 0.738853 0.952733
O O11 0.209117 0.863464 0.771713
#
# Coordination Sequence:
#
# PCOD8156291 Si02
#       6
#     4   4   4   4   4   2
#     4  11  26  48  68 103 145 186 237 297 353 428
#     4  12  25  45  72 106 137 184 242 293 354 422
#     4  10  24  47  68 103 145 183 239 298 351 434
#     4  11  25  43  73  99 138 188 234 292 365 413
#     4  10  22  48  70  94 146 190 229 295 365 418
#     4  12  26  46  68 108 144 182 234 292 364 416
#
# _framework density 22.972726999999999
#
# number of rings (size 3 to 8) (size 9 to 14) (size 15 to 20)
#    0.000    1.091    3.636    0.545   10.182    0.000 
#    3.273    1.818    0.000    0.000    0.000    0.000 
#    0.000    0.000    0.000    0.000    0.000    0.000 
#
# Total GULP energy -272627.106539 kJ/mol
# GULP energy per Si atom -12392.141206 kJ/mol
# Density = 2.292044 g / cm^3
# Si number density = 22.972727 Si / 1000 Ang^3
#
#
#
# Elastic Constant Matrix: (Units=GPa)
#
#
# Indices 1 2 3 4 5 6 
#
# 1 116.1720 50.2645 35.7048 0.0000 0.0000 0.0000
# 2 50.2645 124.2647 48.7981 0.0000 0.0000 0.0000
# 3 35.7048 48.7981 88.1953 0.0000 0.0000 0.0000
# 4 0.0000 0.0000 0.0000 35.5100 0.0000 0.0000
# 5 0.0000 0.0000 0.0000 0.0000 25.3102 0.0000
# 6 0.0000 0.0000 0.0000 0.0000 0.0000 39.1622
#
#
#
# Elastic Compliance Matrix: (Units=1/GPa)
#
#
# Indices 1 2 3 4 5 6 
#
# 1 0.010852 -0.003404 -0.002510 0.000000 0.000000 0.000000
# 2 -0.003404 0.011349 -0.004901 0.000000 0.000000 0.000000
# 3 -0.002510 -0.004901 0.015066 0.000000 0.000000 0.000000
# 4 0.000000 0.000000 0.000000 0.028161 0.000000 0.000000
# 5 0.000000 0.000000 0.000000 0.000000 0.039510 0.000000
# 6 0.000000 0.000000 0.000000 0.000000 0.000000 0.025535
#
#
# Mechanical properties :
#
#
# Convention : Reuss Voigt Hill
#
# Bulk Modulus (GPa) = 63.95033 66.46297 65.20665
# Shear Modulus (GPa) = 31.78319 32.92081 32.35200
#
# Velocity S-wave (km/s) = 3.72360 3.78966 3.75678
# Velocity P-wave (km/s) = 6.81065 6.93850 6.87487
#
# Compressibility (1/GPa) = 0.01563714
#
# Stress axis : x y z
#
# Youngs Moduli (GPa) = 92.14753 88.11394 66.37276
#
# Poissons Ratio (x) = 0.29994 0.16659
# Poissons Ratio (y) = 0.31367 0.32531
# Poissons Ratio (z) = 0.23128 0.43187
#
# Static dielectric constant tensor:
#      x y z
#    x 4.398040 0.000000 0.000000 
#    y 0.000000 4.456420 0.000000 
#    z 0.000000 0.000000 3.766710 
# 
# 
# High freq. dielectric constant tensor:
#      x y z
#    x 1.918900 0.000000 0.000000 
#    y 0.000000 1.932060 0.000000 
#    z 0.000000 0.000000 1.868360 
# 
# From -- ./inp_files/1464.got.cif
#   From: 2010.03.12/outbox.cif.g09.slc.cpg/sg18_1_cif.got.tgz:1464.got - 2010.04.10 18:53:55.
