data_PCOD8156455
_publ_section_title
;
Structure prediction by ZEFSAII (Michael W. Deem and Ramdas Pophale) SiO2 
 PCOD8156455
Probable space group: P 21 21 2
;
_chemical_formula_sum "Si O2"
_cell_formula_units_Z 26
_cell_length_a 7.558690
_cell_length_b 11.126674
_cell_length_c 14.338126
_cell_angle_alpha 90.000000
_cell_angle_beta 90.000000
_cell_angle_gamma 90.000000
_cell_volume 1205.880551
_symmetry_space_group_name_H-M "P 21 21 2"
_symmetry_group_IT_number 18
_symmetry_cell_setting 'orthorhombic'
loop_
_space_group_symop_operation_xyz
x,y,z
-x,-y,z
1/2+x,1/2-y,-z
1/2-x,1/2+y,-z
loop_
_atom_site_type_symbol
_atom_site_label
_atom_site_fract_x
_atom_site_fract_y
_atom_site_fract_z
Si Si1 0.788225 0.689413 0.871713
Si Si2 0.934818 0.865609 0.541944
Si Si3 0.000000 0.500000 0.750000
Si Si4 0.711774 0.810586 0.371713
Si Si5 0.209080 0.128685 0.726418
Si Si6 0.434819 0.365609 0.041944
Si Si7 0.790920 0.128685 0.773582
O O1 0.697405 0.772457 0.791924
O O2 0.884332 0.580351 0.819669
O O3 0.914209 0.766807 0.939969
O O4 0.632229 0.639075 0.936210
O O5 0.867770 0.860925 0.436210
O O6 0.774530 0.841735 0.616237
O O7 0.085790 0.766807 0.560031
O O8 0.000000 0.000000 0.563560
O O9 0.115667 0.580352 0.680332
O O10 0.802595 0.727543 0.291925
O O11 0.000000 0.134094 0.750000
O O12 0.294073 0.000000 0.750001
O O13 0.500000 0.500000 0.063560
O O14 0.274531 0.341734 0.116237
#
# Coordination Sequence:
#
# PCOD8156455 Si02
#       7
#     4   4   2   4   4   4   4
#     4  11  24  39  66  97 129 173 218 264 325 391
#     4  11  22  41  68  95 127 173 220 264 318 388
#     4  12  24  40  60  92 142 176 202 266 352 368
#     4  11  24  39  66  97 129 173 218 264 325 391
#     4   9  15  37  63  84 117 168 208 246 317 382
#     4  11  22  41  68  95 127 173 220 264 318 388
#     4   9  15  37  63  84 117 168 208 246 317 382
#
# _framework density 21.561008000000001
#
# number of rings (size 3 to 8) (size 9 to 14) (size 15 to 20)
#    0.000    1.538   10.769    0.000    4.308    0.000 
#    0.000    5.385    0.000    1.846    0.000    0.000 
#    0.000    0.000    0.000    0.000    0.000    0.000 
#
# Total GULP energy -322204.778436 kJ/mol
# GULP energy per Si atom -12392.491478 kJ/mol
# Density = 2.151193 g / cm^3
# Si number density = 21.561008 Si / 1000 Ang^3
#
#
#
# Elastic Constant Matrix: (Units=GPa)
#
#
# Indices 1 2 3 4 5 6 
#
# 1 23.0119 17.8040 27.8166 0.0000 0.0000 0.0000
# 2 17.8040 131.4023 56.5474 0.0000 0.0000 0.0000
# 3 27.8166 56.5474 154.8957 0.0000 0.0000 0.0000
# 4 0.0000 0.0000 0.0000 39.1786 0.0000 0.0000
# 5 0.0000 0.0000 0.0000 0.0000 40.7836 0.0000
# 6 0.0000 0.0000 0.0000 0.0000 0.0000 5.1861
#
#
#
# Elastic Compliance Matrix: (Units=1/GPa)
#
#
# Indices 1 2 3 4 5 6 
#
# 1 0.057181 -0.003949 -0.008827 0.000000 0.000000 0.000000
# 2 -0.003949 0.009301 -0.002686 0.000000 0.000000 0.000000
# 3 -0.008827 -0.002686 0.009022 0.000000 0.000000 0.000000
# 4 0.000000 0.000000 0.000000 0.025524 0.000000 0.000000
# 5 0.000000 0.000000 0.000000 0.000000 0.024520 0.000000
# 6 0.000000 0.000000 0.000000 0.000000 0.000000 0.192822
#
#
# Mechanical properties :
#
#
# Convention : Reuss Voigt Hill
#
# Bulk Modulus (GPa) = 22.43195 57.07175 39.75185
# Shear Modulus (GPa) = 13.73041 30.83913 22.28477
#
# Velocity S-wave (km/s) = 2.52626 3.78606 3.21840
# Velocity P-wave (km/s) = 4.35153 6.75571 5.68223
#
# Compressibility (1/GPa) = 0.04457926
#
# Stress axis : x y z
#
# Youngs Moduli (GPa) = 17.48833 107.51124 110.84157
#
# Poissons Ratio (x) = 0.42456 0.97841
# Poissons Ratio (y) = 0.06906 0.29777
# Poissons Ratio (z) = 0.15437 0.28882
#
# Static dielectric constant tensor:
#      x y z
#    x 3.174420 0.000000 0.000000 
#    y 0.000000 4.124460 0.000000 
#    z 0.000000 0.000000 4.414710 
# 
# 
# High freq. dielectric constant tensor:
#      x y z
#    x 1.782020 0.000000 0.000000 
#    y 0.000000 1.860660 0.000000 
#    z 0.000000 0.000000 1.872770 
# 
# From -- ./inp_files/6711.got.cif
#   From: 2010.03.12/outbox.cif.g09.slc.cpg/sg18_4_cif.got.tgz:6711.got - 2010.04.10 18:53:55.
