data_PCOD8156922
_publ_section_title
;
Structure prediction by ZEFSAII (Michael W. Deem and Ramdas Pophale) SiO2 
 PCOD8156922
Probable space group: P 21 21 21
;
_chemical_formula_sum "Si O2"
_cell_formula_units_Z 28
_cell_length_a 11.294704
_cell_length_b 9.695976
_cell_length_c 11.499936
_cell_angle_alpha 90.000000
_cell_angle_beta 90.000000
_cell_angle_gamma 90.000000
_cell_volume 1259.394549
_symmetry_space_group_name_H-M "P 21 21 21"
_symmetry_group_IT_number 19
_symmetry_cell_setting 'orthorhombic'
loop_
_space_group_symop_operation_xyz
x,y,z
1/2-x,-y,1/2+z
1/2+x,1/2-y,-z
-x,1/2+y,1/2-z
loop_
_atom_site_type_symbol
_atom_site_label
_atom_site_fract_x
_atom_site_fract_y
_atom_site_fract_z
Si Si1 0.487855 0.744863 0.307949
Si Si2 0.418892 0.065650 0.838844
Si Si3 0.454533 0.241040 0.451830
Si Si4 0.889052 0.955568 0.523876
Si Si5 0.947753 0.736364 0.192363
Si Si6 0.758224 0.758120 0.373855
Si Si7 0.664131 0.452834 0.058743
O O1 0.475104 0.748244 0.169095
O O2 0.408414 0.614844 0.350083
O O3 0.623892 0.727928 0.344231
O O4 0.440399 0.885475 0.365269
O O5 0.438663 0.188216 0.747561
O O6 0.281232 0.055175 0.864410
O O7 0.465949 0.924730 0.781936
O O8 0.493529 0.094640 0.955104
O O9 0.375780 0.380156 0.466252
O O10 0.553641 0.235047 0.553665
O O11 0.366498 0.112084 0.462632
O O12 0.773783 0.890699 0.459375
O O13 0.826448 0.788604 0.252475
O O14 0.816991 0.624704 0.436266
#
# Coordination Sequence:
#
# PCOD8156922 Si02
#       7
#     4   4   4   4   4   4   4
#     4  11  22  43  65  95 137 175 220 268 340 406
#     4  10  20  43  67  99 127 170 220 273 328 400
#     4  11  23  40  61 101 131 169 216 280 331 385
#     4   9  21  42  65  91 133 167 224 273 325 397
#     4  10  22  41  67  97 133 171 222 272 333 399
#     4  10  21  43  68  91 127 184 221 269 333 406
#     4  11  23  42  71  98 130 176 223 277 340 395
#
# _framework density 22.232904000000001
#
# number of rings (size 3 to 8) (size 9 to 14) (size 15 to 20)
#    0.000    1.714    1.429    2.571    0.000    0.000 
#   15.429   11.429    0.000    0.000    0.000    0.000 
#    0.000    0.000    0.000    0.000    0.000    0.000 
#
# Total GULP energy -347219.558611 kJ/mol
# GULP energy per Si atom -12400.698522 kJ/mol
# Density = 2.218230 g / cm^3
# Si number density = 22.232904 Si / 1000 Ang^3
#
#
#
# Elastic Constant Matrix: (Units=GPa)
#
#
# Indices 1 2 3 4 5 6 
#
# 1 76.5256 32.5653 39.8774 0.0000 0.0000 0.0000
# 2 32.5653 140.6115 53.7347 0.0000 0.0000 0.0000
# 3 39.8774 53.7347 148.3551 0.0000 0.0000 0.0000
# 4 0.0000 0.0000 0.0000 29.6171 0.0000 0.0000
# 5 0.0000 0.0000 0.0000 0.0000 23.0089 0.0000
# 6 0.0000 0.0000 0.0000 0.0000 0.0000 17.8329
#
#
#
# Elastic Compliance Matrix: (Units=1/GPa)
#
#
# Indices 1 2 3 4 5 6 
#
# 1 0.015849 -0.002371 -0.003401 0.000000 0.000000 0.000000
# 2 -0.002371 0.008609 -0.002481 0.000000 0.000000 0.000000
# 3 -0.003401 -0.002481 0.008553 0.000000 0.000000 0.000000
# 4 0.000000 0.000000 0.000000 0.033764 0.000000 0.000000
# 5 0.000000 0.000000 0.000000 0.000000 0.043461 0.000000
# 6 0.000000 0.000000 0.000000 0.000000 0.000000 0.056076
#
#
# Mechanical properties :
#
#
# Convention : Reuss Voigt Hill
#
# Bulk Modulus (GPa) = 60.58733 68.64964 64.61848
# Shear Modulus (GPa) = 26.55040 30.04610 28.29825
#
# Velocity S-wave (km/s) = 3.45946 3.68016 3.57152
# Velocity P-wave (km/s) = 6.57780 7.00019 6.79228
#
# Compressibility (1/GPa) = 0.01650510
#
# Stress axis : x y z
#
# Youngs Moduli (GPa) = 63.09603 116.15836 116.91139
#
# Poissons Ratio (x) = 0.27538 0.39767
# Poissons Ratio (y) = 0.14958 0.29005
# Poissons Ratio (z) = 0.21462 0.28818
#
# Static dielectric constant tensor:
#      x y z
#    x 3.651950 0.000000 0.000000 
#    y 0.000000 4.179500 0.000000 
#    z 0.000000 0.000000 4.235490 
# 
# 
# High freq. dielectric constant tensor:
#      x y z
#    x 1.850050 0.000000 0.000000 
#    y 0.000000 1.883460 0.000000 
#    z 0.000000 0.000000 1.885440 
# 
# From -- ./inp_files/4589.got.cif
#   From: 2010.03.12/outbox.cif.g09.slc.cpg/sg19_3_cif.got.tgz:4589.got - 2010.04.10 18:59:41.
