data_PCOD8156444
_publ_section_title
;
Structure prediction by ZEFSAII (Michael W. Deem and Ramdas Pophale) SiO2 
 PCOD8156444
Probable space group: P 21 21 2
;
_chemical_formula_sum "Si O2"
_cell_formula_units_Z 32
_cell_length_a 8.140990
_cell_length_b 29.812175
_cell_length_c 6.637235
_cell_angle_alpha 90.000000
_cell_angle_beta 90.000000
_cell_angle_gamma 90.000000
_cell_volume 1610.861040
_symmetry_space_group_name_H-M "P 21 21 2"
_symmetry_group_IT_number 18
_symmetry_cell_setting 'orthorhombic'
loop_
_space_group_symop_operation_xyz
x,y,z
-x,-y,z
1/2+x,1/2-y,-z
1/2-x,1/2+y,-z
loop_
_atom_site_type_symbol
_atom_site_label
_atom_site_fract_x
_atom_site_fract_y
_atom_site_fract_z
Si Si1 0.842518 0.580839 0.152883
Si Si2 0.533155 0.880509 0.502146
Si Si3 0.591286 0.372662 0.584541
Si Si4 0.112261 0.459099 0.745884
Si Si5 0.109066 0.958232 0.528328
Si Si6 0.376387 0.344265 0.939666
Si Si7 0.662491 0.204027 0.394671
Si Si8 0.535483 0.707580 0.326084
O O1 0.747365 0.548392 0.304163
O O2 0.720258 0.617306 0.058205
O O3 0.996793 0.604439 0.266670
O O4 0.911367 0.547649 0.983179
O O5 0.718709 0.885232 0.428534
O O6 0.427761 0.911913 0.357396
O O7 0.473270 0.829658 0.481447
O O8 0.494496 0.413157 0.483676
O O9 0.563573 0.328442 0.455058
O O10 0.529185 0.365349 0.813999
O O11 0.300949 0.469718 0.684224
O O12 0.000000 0.500000 0.670605
O O13 0.000000 0.000000 0.594523
O O14 0.447329 0.308669 0.097257
O O15 0.255696 0.318437 0.790583
O O16 0.570527 0.247639 0.316193
O O17 0.787254 0.216622 0.574245
#
# Coordination Sequence:
#
# PCOD8156444 Si02
#       8
#     4   4   4   4   4   4   4   4
#     4  11  21  44  67  88 131 175 211 267 333 387
#     4  11  23  41  65  91 130 170 213 268 329 395
#     4  11  23  41  65  94 127 171 213 269 332 394
#     4  11  23  41  64  92 126 170 217 269 323 390
#     4  11  23  41  65  92 130 167 215 274 331 389
#     4  11  21  44  66  89 130 174 211 268 331 384
#     4  11  23  40  65  93 127 169 214 268 330 382
#     4  11  23  42  65  93 130 167 216 269 321 397
#
# _framework density 19.865152999999999
#
# number of rings (size 3 to 8) (size 9 to 14) (size 15 to 20)
#    0.000    1.000    5.000    3.000    0.000    7.500 
#    4.500    0.000    0.000    0.000    0.000    0.000 
#    0.000    0.000    0.000    0.000    0.000    0.000 
#
# Total GULP energy -396874.657879 kJ/mol
# GULP energy per Si atom -12402.333059 kJ/mol
# Density = 1.981994 g / cm^3
# Si number density = 19.865153 Si / 1000 Ang^3
#
#
#
# Elastic Constant Matrix: (Units=GPa)
#
#
# Indices 1 2 3 4 5 6 
#
# 1 97.6993 22.9880 27.2221 0.0000 0.0000 0.0000
# 2 22.9880 95.2916 15.8970 0.0000 0.0000 0.0000
# 3 27.2221 15.8970 99.1337 0.0000 0.0000 0.0000
# 4 0.0000 0.0000 0.0000 36.5596 0.0000 0.0000
# 5 0.0000 0.0000 0.0000 0.0000 24.8701 0.0000
# 6 0.0000 0.0000 0.0000 0.0000 0.0000 39.4278
#
#
#
# Elastic Compliance Matrix: (Units=1/GPa)
#
#
# Indices 1 2 3 4 5 6 
#
# 1 0.011563 -0.002322 -0.002803 0.000000 0.000000 0.000000
# 2 -0.002322 0.011249 -0.001166 0.000000 0.000000 0.000000
# 3 -0.002803 -0.001166 0.011044 0.000000 0.000000 0.000000
# 4 0.000000 0.000000 0.000000 0.027353 0.000000 0.000000
# 5 0.000000 0.000000 0.000000 0.000000 0.040209 0.000000
# 6 0.000000 0.000000 0.000000 0.000000 0.000000 0.025363
#
#
# Mechanical properties :
#
#
# Convention : Reuss Voigt Hill
#
# Bulk Modulus (GPa) = 47.00614 47.14874 47.07744
# Shear Modulus (GPa) = 34.14064 35.23931 34.68997
#
# Velocity S-wave (km/s) = 4.15012 4.21637 4.18338
# Velocity P-wave (km/s) = 6.83218 6.89127 6.86179
#
# Compressibility (1/GPa) = 0.02127382
#
# Stress axis : x y z
#
# Youngs Moduli (GPa) = 86.48465 88.89851 90.54636
#
# Poissons Ratio (x) = 0.20640 0.25378
# Poissons Ratio (y) = 0.20080 0.10560
# Poissons Ratio (z) = 0.24240 0.10368
#
# Static dielectric constant tensor:
#      x y z
#    x 3.448110 0.000000 0.000000 
#    y 0.000000 3.664770 0.000000 
#    z 0.000000 0.000000 3.842680 
# 
# 
# High freq. dielectric constant tensor:
#      x y z
#    x 1.773600 0.000000 0.000000 
#    y 0.000000 1.785130 0.000000 
#    z 0.000000 0.000000 1.779510 
# 
# From -- ./inp_files/781.got.cif
#   From: 2010.03.12/outbox.cif.g09.slc.cpg/sg18_1_cif.got.tgz:781.got - 2010.04.10 18:53:55.
