data_PCOD8156141
_publ_section_title
;
Structure prediction by ZEFSAII (Michael W. Deem and Ramdas Pophale) SiO2 
 PCOD8156141
Probable space group: P 21 21 2
;
_chemical_formula_sum "Si O2"
_cell_formula_units_Z 32
_cell_length_a 30.420202
_cell_length_b 5.315157
_cell_length_c 8.609680
_cell_angle_alpha 90.000000
_cell_angle_beta 90.000000
_cell_angle_gamma 90.000000
_cell_volume 1392.083228
_symmetry_space_group_name_H-M "P 21 21 2"
_symmetry_group_IT_number 18
_symmetry_cell_setting 'orthorhombic'
loop_
_space_group_symop_operation_xyz
x,y,z
-x,-y,z
1/2+x,1/2-y,-z
1/2-x,1/2+y,-z
loop_
_atom_site_type_symbol
_atom_site_label
_atom_site_fract_x
_atom_site_fract_y
_atom_site_fract_z
Si Si1 0.353604 0.998368 0.544268
Si Si2 0.399156 0.991926 0.085674
Si Si3 0.904949 0.854269 0.650486
Si Si4 0.165236 0.781611 0.736363
Si Si5 0.923107 0.128716 0.367759
Si Si6 0.473521 0.259119 0.927080
Si Si7 0.223308 0.015551 0.975496
Si Si8 0.855562 0.807042 0.176362
O O1 0.362229 0.759784 0.435772
O O2 0.333616 0.907839 0.709855
O O3 0.323027 0.186515 0.439822
O O4 0.402654 0.111289 0.570463
O O5 0.349404 0.059792 0.143583
O O6 0.425262 0.840703 0.223915
O O7 0.429273 0.225065 0.028599
O O8 0.391254 0.813269 0.938449
O O9 0.882155 0.081911 0.741791
O O10 0.938620 0.958937 0.517399
O O11 0.206008 0.939331 0.803589
O O12 0.963498 0.181354 0.253713
O O13 0.882429 0.000413 0.279768
O O14 0.500000 0.500000 0.995059
O O15 0.500000 0.000000 0.938316
O O16 0.247468 0.283932 0.961018
O O17 0.182578 0.040487 0.091754
#
# Coordination Sequence:
#
# PCOD8156141 Si02
#       8
#     4   4   4   4   4   4   4   4
#     4   9  20  37  71  96 124 163 238 281 325 388
#     4  11  21  40  72 100 127 173 234 284 332 400
#     4   9  20  37  71  96 126 165 236 283 324 386
#     4  10  21  41  69  96 130 176 230 285 330 405
#     4  10  21  41  69  96 126 176 236 277 334 406
#     4  12  27  41  67 101 145 177 220 286 355 414
#     4  12  27  41  67 101 145 179 223 285 362 412
#     4  11  21  40  72 100 125 175 239 283 326 411
#
# _framework density 22.987131999999999
#
# number of rings (size 3 to 8) (size 9 to 14) (size 15 to 20)
#    0.000    1.500    2.500    2.250    7.000    0.000 
#    0.000    0.000   16.500    0.000    0.000    0.000 
#    0.000    0.000    0.000    0.000    0.000    0.000 
#
# Total GULP energy -396441.539307 kJ/mol
# GULP energy per Si atom -12388.798103 kJ/mol
# Density = 2.293481 g / cm^3
# Si number density = 22.987132 Si / 1000 Ang^3
#
#
#
# Elastic Constant Matrix: (Units=GPa)
#
#
# Indices 1 2 3 4 5 6 
#
# 1 55.4004 21.8830 19.8759 0.0000 0.0000 0.0000
# 2 21.8830 91.3134 32.2679 0.0000 0.0000 0.0000
# 3 19.8759 32.2679 119.5629 0.0000 0.0000 0.0000
# 4 0.0000 0.0000 0.0000 43.2207 0.0000 0.0000
# 5 0.0000 0.0000 0.0000 0.0000 23.4931 0.0000
# 6 0.0000 0.0000 0.0000 0.0000 0.0000 37.5410
#
#
#
# Elastic Compliance Matrix: (Units=1/GPa)
#
#
# Indices 1 2 3 4 5 6 
#
# 1 0.020495 -0.004098 -0.002301 0.000000 0.000000 0.000000
# 2 -0.004098 0.012925 -0.002807 0.000000 0.000000 0.000000
# 3 -0.002301 -0.002807 0.009504 0.000000 0.000000 0.000000
# 4 0.000000 0.000000 0.000000 0.023137 0.000000 0.000000
# 5 0.000000 0.000000 0.000000 0.000000 0.042566 0.000000
# 6 0.000000 0.000000 0.000000 0.000000 0.000000 0.026638
#
#
# Mechanical properties :
#
#
# Convention : Reuss Voigt Hill
#
# Bulk Modulus (GPa) = 40.79750 46.03671 43.41710
# Shear Modulus (GPa) = 30.89327 33.66760 32.28044
#
# Velocity S-wave (km/s) = 3.66995 3.83120 3.75144
# Velocity P-wave (km/s) = 5.97868 6.29614 6.13946
#
# Compressibility (1/GPa) = 0.02451131
#
# Stress axis : x y z
#
# Youngs Moduli (GPa) = 48.79293 77.36704 105.22036
#
# Poissons Ratio (x) = 0.31708 0.24210
# Poissons Ratio (y) = 0.19997 0.29536
# Poissons Ratio (z) = 0.11227 0.21717
#
# Static dielectric constant tensor:
#      x y z
#    x 3.558860 0.000000 0.000000 
#    y 0.000000 4.419380 0.000000 
#    z 0.000000 0.000000 4.491530 
# 
# 
# High freq. dielectric constant tensor:
#      x y z
#    x 1.839020 0.000000 0.000000 
#    y 0.000000 1.931480 0.000000 
#    z 0.000000 0.000000 1.927590 
# 
# From -- ./inp_files/4872.got.cif
#   From: 2010.03.12/outbox.cif.g09.slc.cpg/sg18_3_cif.got.tgz:4872.got - 2010.04.10 18:53:55.
