data_PCOD8156488
_publ_section_title
;
Structure prediction by ZEFSAII (Michael W. Deem and Ramdas Pophale) SiO2 
 PCOD8156488
Probable space group: P 21 21 2
;
_chemical_formula_sum "Si O2"
_cell_formula_units_Z 20
_cell_length_a 7.376443
_cell_length_b 18.319040
_cell_length_c 6.589635
_cell_angle_alpha 90.000000
_cell_angle_beta 90.000000
_cell_angle_gamma 90.000000
_cell_volume 890.453123
_symmetry_space_group_name_H-M "P 21 21 2"
_symmetry_group_IT_number 18
_symmetry_cell_setting 'orthorhombic'
loop_
_space_group_symop_operation_xyz
x,y,z
-x,-y,z
1/2+x,1/2-y,-z
1/2-x,1/2+y,-z
loop_
_atom_site_type_symbol
_atom_site_label
_atom_site_fract_x
_atom_site_fract_y
_atom_site_fract_z
Si Si1 0.962222 0.676249 0.536312
Si Si2 0.040902 0.080760 0.025071
Si Si3 0.407393 0.077630 0.805935
Si Si4 0.685840 0.159532 0.060727
Si Si5 0.298445 0.714363 0.778549
O O1 0.050320 0.607980 0.418889
O O2 0.097102 0.711425 0.697299
O O3 0.801007 0.651872 0.692276
O O4 0.912966 0.738420 0.379219
O O5 0.849197 0.114739 0.951330
O O6 0.115592 0.133870 0.201480
O O7 0.000000 0.000000 0.112911
O O8 0.189884 0.074991 0.843460
O O9 0.500000 0.000000 0.826305
O O10 0.494261 0.128463 0.979984
O O11 0.704649 0.244445 0.995990
#
# Coordination Sequence:
#
# PCOD8156488 Si02
#       5
#     4   4   4   4   4
#     4  11  25  44  73 107 146 188 251 305 366 439
#     4  12  25  44  75 103 144 198 239 298 379 440
#     4  11  25  47  69 103 146 195 236 301 366 439
#     4  11  24  47  73  99 148 190 244 302 364 435
#     4  11  25  42  73 107 143 190 246 306 367 439
#
# _framework density 22.460474000000001
#
# number of rings (size 3 to 8) (size 9 to 14) (size 15 to 20)
#    0.000    0.800    4.000    2.400    8.400    2.400 
#    0.000    1.000    0.000    0.000    0.000    0.000 
#    0.000    0.000    0.000    0.000    0.000    0.000 
#
# Total GULP energy -247941.942744 kJ/mol
# GULP energy per Si atom -12397.097137 kJ/mol
# Density = 2.240935 g / cm^3
# Si number density = 22.460474 Si / 1000 Ang^3
#
#
#
# Elastic Constant Matrix: (Units=GPa)
#
#
# Indices 1 2 3 4 5 6 
#
# 1 109.9845 34.9351 27.3789 0.0000 0.0000 0.0000
# 2 34.9351 145.2143 45.3860 0.0000 0.0000 0.0000
# 3 27.3789 45.3860 126.4899 0.0000 0.0000 0.0000
# 4 0.0000 0.0000 0.0000 16.3141 0.0000 0.0000
# 5 0.0000 0.0000 0.0000 0.0000 30.6536 0.0000
# 6 0.0000 0.0000 0.0000 0.0000 0.0000 36.0569
#
#
#
# Elastic Compliance Matrix: (Units=1/GPa)
#
#
# Indices 1 2 3 4 5 6 
#
# 1 0.010084 -0.001964 -0.001478 0.000000 0.000000 0.000000
# 2 -0.001964 0.008139 -0.002495 0.000000 0.000000 0.000000
# 3 -0.001478 -0.002495 0.009121 0.000000 0.000000 0.000000
# 4 0.000000 0.000000 0.000000 0.061297 0.000000 0.000000
# 5 0.000000 0.000000 0.000000 0.000000 0.032623 0.000000
# 6 0.000000 0.000000 0.000000 0.000000 0.000000 0.027734
#
#
# Mechanical properties :
#
#
# Convention : Reuss Voigt Hill
#
# Bulk Modulus (GPa) = 64.64396 66.34319 65.49358
# Shear Modulus (GPa) = 30.11547 34.87083 32.49315
#
# Velocity S-wave (km/s) = 3.66569 3.94451 3.80765
# Velocity P-wave (km/s) = 6.83814 7.09559 6.96805
#
# Compressibility (1/GPa) = 0.01546935
#
# Stress axis : x y z
#
# Youngs Moduli (GPa) = 99.16741 122.86947 109.63750
#
# Poissons Ratio (x) = 0.24132 0.16204
# Poissons Ratio (y) = 0.19477 0.27356
# Poissons Ratio (z) = 0.14657 0.30658
#
# Static dielectric constant tensor:
#      x y z
#    x 4.316590 0.000000 0.000000 
#    y 0.000000 4.188370 0.000000 
#    z 0.000000 0.000000 4.014260 
# 
# 
# High freq. dielectric constant tensor:
#      x y z
#    x 1.903090 0.000000 0.000000 
#    y 0.000000 1.891070 0.000000 
#    z 0.000000 0.000000 1.865260 
# 
# From -- ./inp_files/512.got.cif
#   From: 2010.03.12/outbox.cif.g09.slc.cpg/sg18_1_cif.got.tgz:512.got - 2010.04.10 18:53:55.
