data_PCOD8156280
_publ_section_title
;
Structure prediction by ZEFSAII (Michael W. Deem and Ramdas Pophale) SiO2 
 PCOD8156280
Probable space group: P 21 21 2
;
_chemical_formula_sum "Si O2"
_cell_formula_units_Z 22
_cell_length_a 8.889809
_cell_length_b 14.828568
_cell_length_c 7.612206
_cell_angle_alpha 90.000000
_cell_angle_beta 90.000000
_cell_angle_gamma 90.000000
_cell_volume 1003.464876
_symmetry_space_group_name_H-M "P 21 21 2"
_symmetry_group_IT_number 18
_symmetry_cell_setting 'orthorhombic'
loop_
_space_group_symop_operation_xyz
x,y,z
-x,-y,z
1/2+x,1/2-y,-z
1/2-x,1/2+y,-z
loop_
_atom_site_type_symbol
_atom_site_label
_atom_site_fract_x
_atom_site_fract_y
_atom_site_fract_z
Si Si1 0.091903 0.416103 0.395846
Si Si2 0.435855 0.408829 0.370515
Si Si3 0.052759 0.185345 0.948805
Si Si4 0.163047 0.664568 0.854435
Si Si5 0.946624 0.786059 0.327922
Si Si6 0.000000 0.500000 0.732816
O O1 0.261314 0.417685 0.330638
O O2 0.088231 0.428284 0.608019
O O3 0.000000 0.500000 0.307499
O O4 0.021246 0.320923 0.338912
O O5 0.500000 0.500000 0.455057
O O6 0.511015 0.395983 0.179511
O O7 0.475641 0.329324 0.504117
O O8 0.989190 0.276906 0.860875
O O9 0.981081 0.175555 0.145678
O O10 0.234578 0.185589 0.972473
O O11 0.265257 0.692183 0.682634
O O12 0.116189 0.558800 0.849137
#
# Coordination Sequence:
#
# PCOD8156280 Si02
#       6
#     4   4   4   4   4   2
#     4  10  24  43  74 108 139 193 252 305 372 447
#     4  12  24  44  73 103 146 188 244 302 368 451
#     4  10  24  45  68 107 146 193 243 295 379 445
#     4  10  22  48  68 107 147 193 243 311 371 445
#     4  10  24  45  73  99 148 190 245 299 383 430
#     4  10  22  44  76 112 144 186 262 304 384 446
#
# _framework density 21.924035
#
# number of rings (size 3 to 8) (size 9 to 14) (size 15 to 20)
#    1.636    0.000    1.818    2.182    0.000    5.091 
#    8.182    0.000    0.000    0.000    0.000    0.000 
#    0.000    0.000    0.000    0.000    0.000    0.000 
#
# Total GULP energy -272541.463352 kJ/mol
# GULP energy per Si atom -12388.248334 kJ/mol
# Density = 2.187414 g / cm^3
# Si number density = 21.924035 Si / 1000 Ang^3
#
#
#
# Elastic Constant Matrix: (Units=GPa)
#
#
# Indices 1 2 3 4 5 6 
#
# 1 75.8531 45.1484 20.7308 0.0000 0.0000 0.0000
# 2 45.1484 135.5630 36.6980 0.0000 0.0000 0.0000
# 3 20.7308 36.6980 88.5401 0.0000 0.0000 0.0000
# 4 0.0000 0.0000 0.0000 12.8203 0.0000 0.0000
# 5 0.0000 0.0000 0.0000 0.0000 21.6591 0.0000
# 6 0.0000 0.0000 0.0000 0.0000 0.0000 45.7247
#
#
#
# Elastic Compliance Matrix: (Units=1/GPa)
#
#
# Indices 1 2 3 4 5 6 
#
# 1 0.016696 -0.005071 -0.001807 0.000000 0.000000 0.000000
# 2 -0.005071 0.009849 -0.002895 0.000000 0.000000 0.000000
# 3 -0.001807 -0.002895 0.012917 0.000000 0.000000 0.000000
# 4 0.000000 0.000000 0.000000 0.078001 0.000000 0.000000
# 5 0.000000 0.000000 0.000000 0.000000 0.046170 0.000000
# 6 0.000000 0.000000 0.000000 0.000000 0.000000 0.021870
#
#
# Mechanical properties :
#
#
# Convention : Reuss Voigt Hill
#
# Bulk Modulus (GPa) = 50.21188 56.12340 53.16764
# Shear Modulus (GPa) = 23.61958 29.19941 26.40949
#
# Velocity S-wave (km/s) = 3.28584 3.65340 3.47449
# Velocity P-wave (km/s) = 6.11131 6.59174 6.35607
#
# Compressibility (1/GPa) = 0.01991560
#
# Stress axis : x y z
#
# Youngs Moduli (GPa) = 59.89564 101.53069 77.41523
#
# Poissons Ratio (x) = 0.51488 0.13991
# Poissons Ratio (y) = 0.30374 0.22411
# Poissons Ratio (z) = 0.10825 0.29392
#
# Static dielectric constant tensor:
#      x y z
#    x 3.751620 0.000000 0.000000 
#    y 0.000000 3.896500 0.000000 
#    z 0.000000 0.000000 3.693020 
# 
# 
# High freq. dielectric constant tensor:
#      x y z
#    x 1.849760 0.000000 0.000000 
#    y 0.000000 1.862160 0.000000 
#    z 0.000000 0.000000 1.845780 
# 
# From -- ./inp_files/3112.got.cif
#   From: 2010.03.12/outbox.cif.g09.slc.cpg/sg18_2_cif.got.tgz:3112.got - 2010.04.10 18:53:55.
