data_PCOD8156257
_publ_section_title
;
Structure prediction by ZEFSAII (Michael W. Deem and Ramdas Pophale) SiO2 
 PCOD8156257
Probable space group: P 21 21 2
;
_chemical_formula_sum "Si O2"
_cell_formula_units_Z 26
_cell_length_a 7.606020
_cell_length_b 16.540454
_cell_length_c 8.717905
_cell_angle_alpha 90.000000
_cell_angle_beta 90.000000
_cell_angle_gamma 90.000000
_cell_volume 1096.773683
_symmetry_space_group_name_H-M "P 21 21 2"
_symmetry_group_IT_number 18
_symmetry_cell_setting 'orthorhombic'
loop_
_space_group_symop_operation_xyz
x,y,z
-x,-y,z
1/2+x,1/2-y,-z
1/2-x,1/2+y,-z
loop_
_atom_site_type_symbol
_atom_site_label
_atom_site_fract_x
_atom_site_fract_y
_atom_site_fract_z
Si Si1 0.443921 0.831395 0.439693
Si Si2 0.500000 0.000000 0.322546
Si Si3 0.373844 0.278897 0.235433
Si Si4 0.448331 0.589336 0.402525
Si Si5 0.938089 0.773397 0.061447
Si Si6 0.637772 0.432821 0.755826
Si Si7 0.174138 0.709295 0.299157
O O1 0.420879 0.927991 0.428396
O O2 0.612668 0.805067 0.331465
O O3 0.274710 0.782568 0.383737
O O4 0.486981 0.803936 0.612920
O O5 0.663582 0.967344 0.222885
O O6 0.385935 0.353176 0.356703
O O7 0.211114 0.288322 0.121412
O O8 0.548557 0.278873 0.123349
O O9 0.500000 0.500000 0.347332
O O10 0.404745 0.593477 0.581642
O O11 0.279954 0.624519 0.310575
O O12 0.892161 0.860348 0.128038
O O13 0.122480 0.736276 0.126709
O O14 0.500000 0.500000 0.808902
#
# Coordination Sequence:
#
# PCOD8156257 Si02
#       7
#     4   2   4   4   4   4   4
#     4  11  22  41  66 101 131 177 218 288 330 408
#     4  12  22  40  68 106 134 170 234 276 348 402
#     4  11  23  42  68  89 134 177 223 275 340 409
#     4  10  22  43  66 100 135 173 219 285 344 402
#     4  12  24  44  66  97 129 183 229 275 343 419
#     4  11  24  42  69 100 139 172 220 287 345 405
#     4  11  22  40  68  94 135 176 223 276 350 403
#
# _framework density 23.705893
#
# number of rings (size 3 to 8) (size 9 to 14) (size 15 to 20)
#    0.000    0.923    3.077    5.538    0.000    5.538 
#    0.000    0.000    0.000    0.000    0.000    0.000 
#    0.000    0.000    0.000    0.000    0.000    0.000 
#
# Total GULP energy -322328.068517 kJ/mol
# GULP energy per Si atom -12397.233404 kJ/mol
# Density = 2.365194 g / cm^3
# Si number density = 23.705893 Si / 1000 Ang^3
#
#
#
# Elastic Constant Matrix: (Units=GPa)
#
#
# Indices 1 2 3 4 5 6 
#
# 1 55.5748 22.5653 -9.7259 0.0000 0.0000 0.0000
# 2 22.5653 160.2415 34.4689 0.0000 0.0000 0.0000
# 3 -9.7259 34.4689 82.8253 0.0000 0.0000 0.0000
# 4 0.0000 0.0000 0.0000 27.6392 0.0000 0.0000
# 5 0.0000 0.0000 0.0000 0.0000 29.1492 0.0000
# 6 0.0000 0.0000 0.0000 0.0000 0.0000 44.5602
#
#
#
# Elastic Compliance Matrix: (Units=1/GPa)
#
#
# Indices 1 2 3 4 5 6 
#
# 1 0.020170 -0.003679 0.003900 0.000000 0.000000 0.000000
# 2 -0.003679 0.007525 -0.003564 0.000000 0.000000 0.000000
# 3 0.003900 -0.003564 0.014015 0.000000 0.000000 0.000000
# 4 0.000000 0.000000 0.000000 0.036181 0.000000 0.000000
# 5 0.000000 0.000000 0.000000 0.000000 0.034306 0.000000
# 6 0.000000 0.000000 0.000000 0.000000 0.000000 0.022442
#
#
# Mechanical properties :
#
#
# Convention : Reuss Voigt Hill
#
# Bulk Modulus (GPa) = 28.55236 43.69534 36.12385
# Shear Modulus (GPa) = 32.67985 37.02527 34.85256
#
# Velocity S-wave (km/s) = 3.71692 3.95632 3.83849
# Velocity P-wave (km/s) = 5.52188 6.27234 5.90904
#
# Compressibility (1/GPa) = 0.03502338
#
# Stress axis : x y z
#
# Youngs Moduli (GPa) = 49.57834 132.88548 71.35389
#
# Poissons Ratio (x) = 0.48891 -0.27826
# Poissons Ratio (y) = 0.18241 0.25429
# Poissons Ratio (z) = -0.19334 0.47358
#
# Static dielectric constant tensor:
#      x y z
#    x 4.587770 0.000000 0.000000 
#    y 0.000000 4.214510 0.000000 
#    z 0.000000 0.000000 4.120790 
# 
# 
# High freq. dielectric constant tensor:
#      x y z
#    x 1.967280 0.000000 0.000000 
#    y 0.000000 1.930420 0.000000 
#    z 0.000000 0.000000 1.926400 
# 
# From -- ./inp_files/3366.got.cif
#   From: 2010.03.12/outbox.cif.g09.slc.cpg/sg18_2_cif.got.tgz:3366.got - 2010.04.10 18:53:55.
