data_PCOD8156507
_publ_section_title
;
Structure prediction by ZEFSAII (Michael W. Deem and Ramdas Pophale) SiO2 
 PCOD8156507
Probable space group: P 21 21 2
;
_chemical_formula_sum "Si O2"
_cell_formula_units_Z 28
_cell_length_a 9.980856
_cell_length_b 19.150961
_cell_length_c 6.685033
_cell_angle_alpha 90.000000
_cell_angle_beta 90.000000
_cell_angle_gamma 90.000000
_cell_volume 1277.797156
_symmetry_space_group_name_H-M "P 21 21 2"
_symmetry_group_IT_number 18
_symmetry_cell_setting 'orthorhombic'
loop_
_space_group_symop_operation_xyz
x,y,z
-x,-y,z
1/2+x,1/2-y,-z
1/2-x,1/2+y,-z
loop_
_atom_site_type_symbol
_atom_site_label
_atom_site_fract_x
_atom_site_fract_y
_atom_site_fract_z
Si Si1 0.850071 0.176077 0.236791
Si Si2 0.375212 0.617949 0.894965
Si Si3 0.347601 0.166636 0.816548
Si Si4 0.803772 0.077890 0.603470
Si Si5 0.500000 0.500000 0.124042
Si Si6 0.296995 0.067873 0.448086
Si Si7 0.000000 0.500000 0.819112
Si Si8 0.625872 0.117174 0.956059
O O1 0.850541 0.257990 0.287721
O O2 0.849727 0.134948 0.444233
O O3 0.982678 0.156530 0.112909
O O4 0.720922 0.160288 0.102850
O O5 0.315972 0.610468 0.671961
O O6 0.276230 0.663293 0.031021
O O7 0.392215 0.540068 0.986599
O O8 0.333405 0.107329 0.649898
O O9 0.483177 0.155241 0.941449
O O10 0.686586 0.111817 0.734767
O O11 0.929839 0.058871 0.741817
O O12 0.753847 0.009496 0.491589
O O13 0.429671 0.059855 0.313405
O O14 0.891350 0.538790 0.957809
#
# Coordination Sequence:
#
# PCOD8156507 Si02
#       8
#     4   4   4   4   2   4   2   4
#     4  12  28  47  71 105 147 194 237 292 362 432
#     4  12  25  48  72 104 145 187 239 296 355 429
#     4  12  28  47  71 105 147 194 237 292 362 432
#     4  12  24  45  74 107 141 183 242 298 355 420
#     4  12  22  46  72 108 140 184 242 304 352 418
#     4  12  24  45  74 107 141 183 242 298 355 420
#     4  12  22  46  72 108 140 184 242 304 352 418
#     4  12  25  48  72 104 145 187 239 296 355 429
#
# _framework density 21.912711000000002
#
# number of rings (size 3 to 8) (size 9 to 14) (size 15 to 20)
#    0.000    0.000    5.714    5.143    0.000    2.286 
#    0.000    0.000    0.000    0.000    0.000    0.000 
#    0.000    0.000    0.000    0.000    0.000    0.000 
#
# Total GULP energy -347437.143804 kJ/mol
# GULP energy per Si atom -12408.469422 kJ/mol
# Density = 2.186284 g / cm^3
# Si number density = 21.912711 Si / 1000 Ang^3
#
#
#
# Elastic Constant Matrix: (Units=GPa)
#
#
# Indices 1 2 3 4 5 6 
#
# 1 127.9202 19.1945 37.1200 0.0000 0.0000 0.0000
# 2 19.1945 73.6941 13.2246 0.0000 0.0000 0.0000
# 3 37.1200 13.2246 87.0914 0.0000 0.0000 0.0000
# 4 0.0000 0.0000 0.0000 26.9229 0.0000 0.0000
# 5 0.0000 0.0000 0.0000 0.0000 39.0056 0.0000
# 6 0.0000 0.0000 0.0000 0.0000 0.0000 26.1014
#
#
#
# Elastic Compliance Matrix: (Units=1/GPa)
#
#
# Indices 1 2 3 4 5 6 
#
# 1 0.009130 -0.001727 -0.003629 0.000000 0.000000 0.000000
# 2 -0.001727 0.014276 -0.001432 0.000000 0.000000 0.000000
# 3 -0.003629 -0.001432 0.013246 0.000000 0.000000 0.000000
# 4 0.000000 0.000000 0.000000 0.037143 0.000000 0.000000
# 5 0.000000 0.000000 0.000000 0.000000 0.025637 0.000000
# 6 0.000000 0.000000 0.000000 0.000000 0.000000 0.038312
#
#
# Mechanical properties :
#
#
# Convention : Reuss Voigt Hill
#
# Bulk Modulus (GPa) = 43.33296 47.53154 45.43225
# Shear Modulus (GPa) = 31.44412 33.01708 32.23060
#
# Velocity S-wave (km/s) = 3.79221 3.88591 3.83934
# Velocity P-wave (km/s) = 6.24441 6.47086 6.35865
#
# Compressibility (1/GPa) = 0.02307712
#
# Stress axis : x y z
#
# Youngs Moduli (GPa) = 109.53478 70.04621 75.49245
#
# Poissons Ratio (x) = 0.12095 0.27396
# Poissons Ratio (y) = 0.18913 0.10810
# Poissons Ratio (z) = 0.39750 0.10030
#
# Static dielectric constant tensor:
#      x y z
#    x 4.119970 0.000000 0.000000 
#    y 0.000000 3.798220 0.000000 
#    z 0.000000 0.000000 4.034440 
# 
# 
# High freq. dielectric constant tensor:
#      x y z
#    x 1.878870 0.000000 0.000000 
#    y 0.000000 1.851360 0.000000 
#    z 0.000000 0.000000 1.872180 
# 
# From -- ./inp_files/1259.got.cif
#   From: 2010.03.12/outbox.cif.g09.slc.cpg/sg18_1_cif.got.tgz:1259.got - 2010.04.10 18:53:55.
