data_PCOD8156633
_publ_section_title
;
Structure prediction by ZEFSAII (Michael W. Deem and Ramdas Pophale) SiO2 
 PCOD8156633
Probable space group: P 21 21 21
;
_chemical_formula_sum "Si O2"
_cell_formula_units_Z 32
_cell_length_a 8.950227
_cell_length_b 13.458589
_cell_length_c 10.933911
_cell_angle_alpha 90.000000
_cell_angle_beta 90.000000
_cell_angle_gamma 90.000000
_cell_volume 1317.070782
_symmetry_space_group_name_H-M "P 21 21 21"
_symmetry_group_IT_number 19
_symmetry_cell_setting 'orthorhombic'
loop_
_space_group_symop_operation_xyz
x,y,z
1/2-x,-y,1/2+z
1/2+x,1/2-y,-z
-x,1/2+y,1/2-z
loop_
_atom_site_type_symbol
_atom_site_label
_atom_site_fract_x
_atom_site_fract_y
_atom_site_fract_z
Si Si1 0.274595 0.549813 0.597973
Si Si2 0.532263 0.933029 0.198216
Si Si3 0.854444 0.165403 0.474396
Si Si4 0.581799 0.189330 0.637236
Si Si5 0.552047 0.598836 0.483597
Si Si6 0.287110 0.831560 0.684603
Si Si7 0.982825 0.018390 0.076480
Si Si8 0.196020 0.994523 0.868404
O O1 0.184941 0.569690 0.722613
O O2 0.344503 0.438146 0.601072
O O3 0.409705 0.630300 0.567908
O O4 0.169233 0.559802 0.479260
O O5 0.544305 0.846772 0.097330
O O6 0.517441 0.037424 0.128697
O O7 0.383384 0.921434 0.281783
O O8 0.688708 0.197479 0.517881
O O9 0.931576 0.247372 0.388242
O O10 0.662599 0.226598 0.761298
O O11 0.545755 0.073471 0.670231
O O12 0.657504 0.683837 0.420223
O O13 0.653592 0.533765 0.573092
O O14 0.224949 0.893470 0.797924
O O15 0.429180 0.889903 0.632548
O O16 0.078949 0.963860 0.971923
#
# Coordination Sequence:
#
# PCOD8156633 Si02
#       8
#     4   4   4   4   4   4   4   4
#     4   9  18  34  56  82 115 153 193 241 295 349
#     4   9  18  34  55  81 116 155 189 234 293 347
#     4  10  22  36  55  87 120 147 191 249 296 351
#     4  11  22  36  56  85 120 152 191 250 303 348
#     4   9  18  30  52  83 110 145 195 237 280 345
#     4  10  19  34  57  83 115 155 199 244 295 352
#     4   9  20  36  55  84 118 153 196 243 295 353
#     4   9  17  32  56  81 112 152 190 238 291 345
#
# _framework density 24.296340000000001
#
# number of rings (size 3 to 8) (size 9 to 14) (size 15 to 20)
#    0.000    2.500    0.000    2.250    0.000   10.000 
#    0.000    0.000    0.000   13.500    0.000    7.000 
#    0.000    0.000    0.000    0.000    0.000    0.000 
#
# Total GULP energy -396504.151558 kJ/mol
# GULP energy per Si atom -12390.754736 kJ/mol
# Density = 2.424104 g / cm^3
# Si number density = 24.296340 Si / 1000 Ang^3
#
#
#
# Elastic Constant Matrix: (Units=GPa)
#
#
# Indices 1 2 3 4 5 6 
#
# 1 121.9892 15.0285 26.2966 0.0000 0.0000 0.0000
# 2 15.0285 44.4903 16.2368 0.0000 0.0000 0.0000
# 3 26.2966 16.2368 75.6224 0.0000 0.0000 0.0000
# 4 0.0000 0.0000 0.0000 30.9348 0.0000 0.0000
# 5 0.0000 0.0000 0.0000 0.0000 44.1886 0.0000
# 6 0.0000 0.0000 0.0000 0.0000 0.0000 20.9616
#
#
#
# Elastic Compliance Matrix: (Units=1/GPa)
#
#
# Indices 1 2 3 4 5 6 
#
# 1 0.009034 -0.002067 -0.002697 0.000000 0.000000 0.000000
# 2 -0.002067 0.024861 -0.004619 0.000000 0.000000 0.000000
# 3 -0.002697 -0.004619 0.015153 0.000000 0.000000 0.000000
# 4 0.000000 0.000000 0.000000 0.032326 0.000000 0.000000
# 5 0.000000 0.000000 0.000000 0.000000 0.022630 0.000000
# 6 0.000000 0.000000 0.000000 0.000000 0.000000 0.047706
#
#
# Mechanical properties :
#
#
# Convention : Reuss Voigt Hill
#
# Bulk Modulus (GPa) = 33.02445 39.69175 36.35810
# Shear Modulus (GPa) = 27.68995 31.51966 29.60480
#
# Velocity S-wave (km/s) = 3.37957 3.60571 3.49447
# Velocity P-wave (km/s) = 5.37127 5.80576 5.59274
#
# Compressibility (1/GPa) = 0.03028059
#
# Stress axis : x y z
#
# Youngs Moduli (GPa) = 110.69807 40.22398 65.99195
#
# Poissons Ratio (x) = 0.08314 0.17801
# Poissons Ratio (y) = 0.22882 0.30482
# Poissons Ratio (z) = 0.29861 0.18580
#
# Static dielectric constant tensor:
#      x y z
#    x 4.856790 0.000000 0.000000 
#    y 0.000000 3.972960 0.000000 
#    z 0.000000 0.000000 4.589900 
# 
# 
# High freq. dielectric constant tensor:
#      x y z
#    x 1.985770 0.000000 0.000000 
#    y 0.000000 1.919570 0.000000 
#    z 0.000000 0.000000 1.976140 
# 
# From -- ./inp_files/4749.got.cif
#   From: 2010.03.12/outbox.cif.g09.slc.cpg/sg19_3_cif.got.tgz:4749.got - 2010.04.10 18:59:41.
