data_PCOD8156397
_publ_section_title
;
Structure prediction by ZEFSAII (Michael W. Deem and Ramdas Pophale) SiO2 
 PCOD8156397
Probable space group: P 21 21 2
;
_chemical_formula_sum "Si O2"
_cell_formula_units_Z 26
_cell_length_a 8.500135
_cell_length_b 12.224355
_cell_length_c 11.849201
_cell_angle_alpha 90.000000
_cell_angle_beta 90.000000
_cell_angle_gamma 90.000000
_cell_volume 1231.234690
_symmetry_space_group_name_H-M "P 21 21 2"
_symmetry_group_IT_number 18
_symmetry_cell_setting 'orthorhombic'
loop_
_space_group_symop_operation_xyz
x,y,z
-x,-y,z
1/2+x,1/2-y,-z
1/2-x,1/2+y,-z
loop_
_atom_site_type_symbol
_atom_site_label
_atom_site_fract_x
_atom_site_fract_y
_atom_site_fract_z
Si Si1 0.141701 0.118706 0.964368
Si Si2 0.334681 0.260033 0.100884
Si Si3 0.747798 0.046238 0.354737
Si Si4 0.000000 0.000000 0.172455
Si Si5 0.674466 0.044093 0.808323
Si Si6 0.633329 0.587667 0.400718
Si Si7 0.071881 0.666914 0.679169
O O1 0.202774 0.025991 0.881515
O O2 0.990084 0.168018 0.906108
O O3 0.282381 0.206223 0.982508
O O4 0.094342 0.081610 0.090574
O O5 0.187623 0.333811 0.142256
O O6 0.373644 0.166198 0.191108
O O7 0.873018 0.058819 0.253358
O O8 0.827724 0.087345 0.468381
O O9 0.606921 0.127891 0.326218
O O10 0.687643 0.922129 0.378384
O O11 0.500000 0.000000 0.822252
O O12 0.719562 0.049291 0.676145
O O13 0.500000 0.500000 0.372504
O O14 0.583339 0.712199 0.373506
#
# Coordination Sequence:
#
# PCOD8156397 Si02
#       7
#     4   4   4   2   4   4   4
#     4  12  24  43  68 100 141 176 234 280 348 416
#     4  11  23  43  66  99 137 183 226 283 344 414
#     4  11  25  46  71 101 137 181 231 292 348 414
#     4  12  24  44  68 102 134 178 230 288 352 414
#     4  11  24  44  67 100 137 182 228 283 341 413
#     4  11  25  47  70 100 143 182 233 283 351 418
#     4  10  25  45  68 101 138 182 230 284 350 421
#
# _framework density 21.117014000000001
#
# number of rings (size 3 to 8) (size 9 to 14) (size 15 to 20)
#    0.000    0.923    3.846    2.769    6.462    1.231 
#    2.769    0.000    0.000    0.000    0.000    0.000 
#    0.000    0.000    0.000    0.000    0.000    0.000 
#
# Total GULP energy -322327.425723 kJ/mol
# GULP energy per Si atom -12397.208682 kJ/mol
# Density = 2.106895 g / cm^3
# Si number density = 21.117014 Si / 1000 Ang^3
#
#
#
# Elastic Constant Matrix: (Units=GPa)
#
#
# Indices 1 2 3 4 5 6 
#
# 1 97.0890 52.6014 19.3737 0.0000 0.0000 0.0000
# 2 52.6014 110.8141 36.6583 0.0000 0.0000 0.0000
# 3 19.3737 36.6583 86.3903 0.0000 0.0000 0.0000
# 4 0.0000 0.0000 0.0000 33.4890 0.0000 0.0000
# 5 0.0000 0.0000 0.0000 0.0000 32.0889 0.0000
# 6 0.0000 0.0000 0.0000 0.0000 0.0000 34.3672
#
#
#
# Elastic Compliance Matrix: (Units=1/GPa)
#
#
# Indices 1 2 3 4 5 6 
#
# 1 0.013876 -0.006465 -0.000369 0.000000 0.000000 0.000000
# 2 -0.006465 0.013510 -0.004283 0.000000 0.000000 0.000000
# 3 -0.000369 -0.004283 0.013475 0.000000 0.000000 0.000000
# 4 0.000000 0.000000 0.000000 0.029861 0.000000 0.000000
# 5 0.000000 0.000000 0.000000 0.000000 0.031163 0.000000
# 6 0.000000 0.000000 0.000000 0.000000 0.000000 0.029098
#
#
# Mechanical properties :
#
#
# Convention : Reuss Voigt Hill
#
# Bulk Modulus (GPa) = 53.68076 56.84002 55.26039
# Shear Modulus (GPa) = 31.36289 32.36634 31.86462
#
# Velocity S-wave (km/s) = 3.85800 3.91924 3.88874
# Velocity P-wave (km/s) = 6.73212 6.88881 6.81091
#
# Compressibility (1/GPa) = 0.01862865
#
# Stress axis : x y z
#
# Youngs Moduli (GPa) = 72.06762 74.02143 74.20939
#
# Poissons Ratio (x) = 0.47853 0.02735
# Poissons Ratio (y) = 0.46589 0.31783
# Poissons Ratio (z) = 0.02656 0.31702
#
# Static dielectric constant tensor:
#      x y z
#    x 3.973580 0.000000 0.000000 
#    y 0.000000 3.930100 0.000000 
#    z 0.000000 0.000000 3.851720 
# 
# 
# High freq. dielectric constant tensor:
#      x y z
#    x 1.836940 0.000000 0.000000 
#    y 0.000000 1.835760 0.000000 
#    z 0.000000 0.000000 1.832080 
# 
# From -- ./inp_files/5541.got.cif
#   From: 2010.03.12/outbox.cif.g09.slc.cpg/sg18_3_cif.got.tgz:5541.got - 2010.04.10 18:53:55.
