data_PCOD8156323
_publ_section_title
;
Structure prediction by ZEFSAII (Michael W. Deem and Ramdas Pophale) SiO2 
 PCOD8156323
Probable space group: P 21 21 2
;
_chemical_formula_sum "Si O2"
_cell_formula_units_Z 20
_cell_length_a 8.088474
_cell_length_b 11.313014
_cell_length_c 8.496395
_cell_angle_alpha 90.000000
_cell_angle_beta 90.000000
_cell_angle_gamma 90.000000
_cell_volume 777.462791
_symmetry_space_group_name_H-M "P 21 21 2"
_symmetry_group_IT_number 18
_symmetry_cell_setting 'orthorhombic'
loop_
_space_group_symop_operation_xyz
x,y,z
-x,-y,z
1/2+x,1/2-y,-z
1/2-x,1/2+y,-z
loop_
_atom_site_type_symbol
_atom_site_label
_atom_site_fract_x
_atom_site_fract_y
_atom_site_fract_z
Si Si1 0.092213 0.223998 0.354864
Si Si2 0.000000 0.500000 0.669659
Si Si3 0.697610 0.401290 0.085689
Si Si4 0.500000 0.500000 0.830341
Si Si5 0.907786 0.276002 0.854865
Si Si6 0.697611 0.901290 0.585689
O O1 0.250000 0.261490 0.250000
O O2 0.155957 0.184853 0.528170
O O3 0.990473 0.116862 0.275238
O O4 0.973673 0.333560 0.383007
O O5 0.009527 0.383138 0.775238
O O6 0.836893 0.494865 0.555422
O O7 0.526327 0.333560 0.116993
O O8 0.750000 0.463061 0.250000
O O9 0.663107 0.494865 0.944578
O O10 0.844043 0.315147 0.028170
#
# Coordination Sequence:
#
# PCOD8156323 Si02
#       6
#     4   2   4   2   4   4
#     4  10  23  43  68  99 137 177 221 281 339 394
#     4  10  24  42  62  96 138 172 212 274 342 392
#     4  11  23  41  69 101 131 178 232 276 332 401
#     4  10  24  42  62  96 138 172 212 274 342 392
#     4  10  23  43  68  99 137 177 221 281 339 394
#     4  11  23  41  69 101 131 178 232 276 332 401
#
# _framework density 25.724703000000002
#
# number of rings (size 3 to 8) (size 9 to 14) (size 15 to 20)
#    0.000    1.600    0.000    4.800    0.000   17.600 
#    0.000    0.000    0.000    0.000    0.000    0.000 
#    0.000    0.000    0.000    0.000    0.000    0.000 
#
# Total GULP energy -247943.014790 kJ/mol
# GULP energy per Si atom -12397.150740 kJ/mol
# Density = 2.566615 g / cm^3
# Si number density = 25.724703 Si / 1000 Ang^3
#
#
#
# Elastic Constant Matrix: (Units=GPa)
#
#
# Indices 1 2 3 4 5 6 
#
# 1 101.1355 41.3175 30.5451 0.0000 0.0000 0.0000
# 2 41.3175 57.2830 4.8169 0.0000 0.0000 0.0000
# 3 30.5451 4.8169 124.9504 0.0000 0.0000 0.0000
# 4 0.0000 0.0000 0.0000 24.9445 0.0000 0.0000
# 5 0.0000 0.0000 0.0000 0.0000 52.1776 0.0000
# 6 0.0000 0.0000 0.0000 0.0000 0.0000 43.1064
#
#
#
# Elastic Compliance Matrix: (Units=1/GPa)
#
#
# Indices 1 2 3 4 5 6 
#
# 1 0.015279 -0.010741 -0.003321 0.000000 0.000000 0.000000
# 2 -0.010741 0.025065 0.001660 0.000000 0.000000 0.000000
# 3 -0.003321 0.001660 0.008751 0.000000 0.000000 0.000000
# 4 0.000000 0.000000 0.000000 0.040089 0.000000 0.000000
# 5 0.000000 0.000000 0.000000 0.000000 0.019165 0.000000
# 6 0.000000 0.000000 0.000000 0.000000 0.000000 0.023198
#
#
# Mechanical properties :
#
#
# Convention : Reuss Voigt Hill
#
# Bulk Modulus (GPa) = 41.16969 48.52532 44.84750
# Shear Modulus (GPa) = 30.40441 37.82500 34.11470
#
# Velocity S-wave (km/s) = 3.44163 3.83871 3.64558
# Velocity P-wave (km/s) = 5.64196 6.20901 5.93227
#
# Compressibility (1/GPa) = 0.02428972
#
# Stress axis : x y z
#
# Youngs Moduli (GPa) = 65.44962 39.89598 114.27220
#
# Poissons Ratio (x) = 0.42853 0.37949
# Poissons Ratio (y) = 0.70301 -0.18964
# Poissons Ratio (z) = 0.21736 -0.06621
#
# Static dielectric constant tensor:
#      x y z
#    x 4.704650 0.000000 0.000000 
#    y 0.000000 4.239130 0.000000 
#    z 0.000000 0.000000 5.242840 
# 
# 
# High freq. dielectric constant tensor:
#      x y z
#    x 2.025890 0.000000 0.000000 
#    y 0.000000 1.996490 0.000000 
#    z 0.000000 0.000000 2.055390 
# 
# From -- ./inp_files/2981.got.cif
#   From: 2010.03.12/outbox.cif.g09.slc.cpg/sg18_2_cif.got.tgz:2981.got - 2010.04.10 18:53:55.
