data_PCOD8156627
_publ_section_title
;
Structure prediction by ZEFSAII (Michael W. Deem and Ramdas Pophale) SiO2 
 PCOD8156627
Probable space group: P 21 21 21
;
_chemical_formula_sum "Si O2"
_cell_formula_units_Z 24
_cell_length_a 18.008883
_cell_length_b 12.614770
_cell_length_c 5.026734
_cell_angle_alpha 90.000000
_cell_angle_beta 90.000000
_cell_angle_gamma 90.000000
_cell_volume 1141.962959
_symmetry_space_group_name_H-M "P 21 21 21"
_symmetry_group_IT_number 19
_symmetry_cell_setting 'orthorhombic'
loop_
_space_group_symop_operation_xyz
x,y,z
1/2-x,-y,1/2+z
1/2+x,1/2-y,-z
-x,1/2+y,1/2-z
loop_
_atom_site_type_symbol
_atom_site_label
_atom_site_fract_x
_atom_site_fract_y
_atom_site_fract_z
Si Si1 0.644969 0.915283 0.898349
Si Si2 0.269885 0.609741 0.738060
Si Si3 0.046024 0.132141 0.689468
Si Si4 0.150681 0.302908 0.734162
Si Si5 0.981614 0.929498 0.551718
Si Si6 0.531433 0.777800 0.682058
O O1 0.617382 0.806553 0.759208
O O2 0.705947 0.984945 0.735780
O O3 0.682129 0.887776 0.186761
O O4 0.571240 0.986433 0.904755
O O5 0.289231 0.660814 0.453652
O O6 0.314211 0.680169 0.948706
O O7 0.127582 0.178638 0.767634
O O8 0.026389 0.182024 0.402515
O O9 0.045319 0.002908 0.688756
O O10 0.983780 0.167421 0.899690
O O11 0.072017 0.365712 0.747734
O O12 0.022078 0.849389 0.348128
#
# Coordination Sequence:
#
# PCOD8156627 Si02
#       6
#     4   4   4   4   4   4
#     4  10  20  35  55  84 117 154 190 231 291 339
#     4  11  21  33  53  80 117 153 189 235 277 344
#     4  10  19  34  54  79 116 153 184 232 288 343
#     4  10  20  34  51  81 114 148 190 231 284 339
#     4   9  19  34  55  82 114 148 186 236 287 340
#     4  10  21  34  54  84 118 150 189 237 285 343
#
# _framework density 21.016445000000001
#
# number of rings (size 3 to 8) (size 9 to 14) (size 15 to 20)
#    0.000    2.000    0.000    6.000    0.000    8.000 
#    0.000    0.000    0.000    0.000    0.000   28.000 
#    0.000    5.333    0.000    0.000    0.000    0.000 
#
# Total GULP energy -297319.347288 kJ/mol
# GULP energy per Si atom -12388.306137 kJ/mol
# Density = 2.096861 g / cm^3
# Si number density = 21.016445 Si / 1000 Ang^3
#
#
#
# Elastic Constant Matrix: (Units=GPa)
#
#
# Indices 1 2 3 4 5 6 
#
# 1 62.7187 40.8396 1.5048 0.0000 0.0000 0.0000
# 2 40.8396 99.6409 22.2852 0.0000 0.0000 0.0000
# 3 1.5048 22.2852 53.6348 0.0000 0.0000 0.0000
# 4 0.0000 0.0000 0.0000 29.8630 0.0000 0.0000
# 5 0.0000 0.0000 0.0000 0.0000 31.5408 0.0000
# 6 0.0000 0.0000 0.0000 0.0000 0.0000 40.2833
#
#
#
# Elastic Compliance Matrix: (Units=1/GPa)
#
#
# Indices 1 2 3 4 5 6 
#
# 1 0.022330 -0.009935 0.003502 0.000000 0.000000 0.000000
# 2 -0.009935 0.015485 -0.006155 0.000000 0.000000 0.000000
# 3 0.003502 -0.006155 0.021104 0.000000 0.000000 0.000000
# 4 0.000000 0.000000 0.000000 0.033486 0.000000 0.000000
# 5 0.000000 0.000000 0.000000 0.000000 0.031705 0.000000
# 6 0.000000 0.000000 0.000000 0.000000 0.000000 0.024824
#
#
# Mechanical properties :
#
#
# Convention : Reuss Voigt Hill
#
# Bulk Modulus (GPa) = 29.63796 38.36151 33.99973
# Shear Modulus (GPa) = 26.97477 30.42841 28.70159
#
# Velocity S-wave (km/s) = 3.58649 3.80917 3.69951
# Velocity P-wave (km/s) = 5.59316 6.13507 5.87038
#
# Compressibility (1/GPa) = 0.03374052
#
# Stress axis : x y z
#
# Youngs Moduli (GPa) = 44.78353 64.57918 47.38474
#
# Poissons Ratio (x) = 0.64162 -0.16592
# Poissons Ratio (y) = 0.44494 0.29166
# Poissons Ratio (z) = -0.15682 0.39750
#
# Static dielectric constant tensor:
#      x y z
#    x 3.867790 0.000000 0.000000 
#    y 0.000000 4.394080 0.000000 
#    z 0.000000 0.000000 3.804530 
# 
# 
# High freq. dielectric constant tensor:
#      x y z
#    x 1.796360 0.000000 0.000000 
#    y 0.000000 1.806500 0.000000 
#    z 0.000000 0.000000 1.829400 
# 
# From -- ./inp_files/1911.got.cif
#   From: 2010.03.12/outbox.cif.g09.slc.cpg/sg19_1_cif.got.tgz:1911.got - 2010.04.10 18:59:41.
