data_PCOD8156396
_publ_section_title
;
Structure prediction by ZEFSAII (Michael W. Deem and Ramdas Pophale) SiO2 
 PCOD8156396
Probable space group: P 21 21 2
;
_chemical_formula_sum "Si O2"
_cell_formula_units_Z 32
_cell_length_a 8.822782
_cell_length_b 14.411502
_cell_length_c 12.543340
_cell_angle_alpha 90.000000
_cell_angle_beta 90.000000
_cell_angle_gamma 90.000000
_cell_volume 1594.879917
_symmetry_space_group_name_H-M "P 21 21 2"
_symmetry_group_IT_number 18
_symmetry_cell_setting 'orthorhombic'
loop_
_space_group_symop_operation_xyz
x,y,z
-x,-y,z
1/2+x,1/2-y,-z
1/2-x,1/2+y,-z
loop_
_atom_site_type_symbol
_atom_site_label
_atom_site_fract_x
_atom_site_fract_y
_atom_site_fract_z
Si Si1 0.095141 0.801748 0.707028
Si Si2 0.170690 0.479905 0.640079
Si Si3 0.859606 0.836546 0.315042
Si Si4 0.425815 0.400502 0.513045
Si Si5 0.958545 0.218057 0.117124
Si Si6 0.410716 0.404825 0.074008
Si Si7 0.632788 0.166295 0.188678
Si Si8 0.931102 0.598388 0.028367
O O1 0.255817 0.754379 0.683387
O O2 0.054786 0.861230 0.604220
O O3 0.104482 0.870806 0.805844
O O4 0.962639 0.728199 0.729100
O O5 0.255700 0.575060 0.664445
O O6 0.251602 0.416379 0.549727
O O7 0.178966 0.427171 0.751833
O O8 0.000000 0.500000 0.600873
O O9 0.988179 0.830248 0.406430
O O10 0.944756 0.841221 0.201764
O O11 0.500000 0.500000 0.518645
O O12 0.781509 0.221007 0.148419
O O13 0.015233 0.324725 0.113864
O O14 0.991352 0.171418 0.001730
O O15 0.500000 0.500000 0.070606
O O16 0.246585 0.420308 0.025735
O O17 0.525426 0.135756 0.089671
O O18 0.000000 0.500000 0.059072
#
# Coordination Sequence:
#
# PCOD8156396 Si02
#       8
#     4   4   4   4   4   4   4   4
#     4  12  24  43  66  94 131 173 218 265 331 397
#     4  11  22  42  66 100 125 163 224 279 327 378
#     4  11  24  40  69  92 131 166 217 278 320 387
#     4  10  25  45  65  93 129 171 219 274 331 392
#     4  11  24  44  64 100 133 171 219 267 330 394
#     4  11  26  40  65  96 135 177 210 266 328 401
#     4  11  24  40  67  96 130 170 219 273 320 391
#     4  11  25  42  64  98 135 175 217 267 329 394
#
# _framework density 20.064208000000001
#
# number of rings (size 3 to 8) (size 9 to 14) (size 15 to 20)
#    0.000    1.000    5.000    0.750    7.000    0.000 
#    0.000    1.875    0.000    0.000    0.000    0.000 
#    0.000    0.000    0.000    0.000    0.000    0.000 
#
# Total GULP energy -396848.884521 kJ/mol
# GULP energy per Si atom -12401.527641 kJ/mol
# Density = 2.001854 g / cm^3
# Si number density = 20.064208 Si / 1000 Ang^3
#
#
#
# Elastic Constant Matrix: (Units=GPa)
#
#
# Indices 1 2 3 4 5 6 
#
# 1 103.6600 35.5902 33.2813 0.0000 0.0000 0.0000
# 2 35.5902 84.0753 28.7605 0.0000 0.0000 0.0000
# 3 33.2813 28.7605 123.5869 0.0000 0.0000 0.0000
# 4 0.0000 0.0000 0.0000 37.1189 0.0000 0.0000
# 5 0.0000 0.0000 0.0000 0.0000 27.5844 0.0000
# 6 0.0000 0.0000 0.0000 0.0000 0.0000 34.1464
#
#
#
# Elastic Compliance Matrix: (Units=1/GPa)
#
#
# Indices 1 2 3 4 5 6 
#
# 1 0.011809 -0.004249 -0.002191 0.000000 0.000000 0.000000
# 2 -0.004249 0.014452 -0.002219 0.000000 0.000000 0.000000
# 3 -0.002191 -0.002219 0.009198 0.000000 0.000000 0.000000
# 4 0.000000 0.000000 0.000000 0.026940 0.000000 0.000000
# 5 0.000000 0.000000 0.000000 0.000000 0.036252 0.000000
# 6 0.000000 0.000000 0.000000 0.000000 0.000000 0.029286
#
#
# Mechanical properties :
#
#
# Convention : Reuss Voigt Hill
#
# Bulk Modulus (GPa) = 55.12639 56.28734 55.70687
# Shear Modulus (GPa) = 33.04609 34.01595 33.53102
#
# Velocity S-wave (km/s) = 4.06275 4.12194 4.09245
# Velocity P-wave (km/s) = 7.03865 7.12519 7.08205
#
# Compressibility (1/GPa) = 0.01814013
#
# Stress axis : x y z
#
# Youngs Moduli (GPa) = 84.67775 69.19469 108.72003
#
# Poissons Ratio (x) = 0.29404 0.23824
# Poissons Ratio (y) = 0.35984 0.24123
# Poissons Ratio (z) = 0.18556 0.15353
#
# Static dielectric constant tensor:
#      x y z
#    x 3.955620 0.000000 0.000000 
#    y 0.000000 3.605870 0.000000 
#    z 0.000000 0.000000 3.691760 
# 
# 
# High freq. dielectric constant tensor:
#      x y z
#    x 1.791050 0.000000 0.000000 
#    y 0.000000 1.784420 0.000000 
#    z 0.000000 0.000000 1.782020 
# 
# From -- ./inp_files/5670.got.cif
#   From: 2010.03.12/outbox.cif.g09.slc.cpg/sg18_3_cif.got.tgz:5670.got - 2010.04.10 18:53:55.
