data_PCOD8156878
_publ_section_title
;
Structure prediction by ZEFSAII (Michael W. Deem and Ramdas Pophale) SiO2 
 PCOD8156878
Probable space group: P 21 21 21
;
_chemical_formula_sum "Si O2"
_cell_formula_units_Z 32
_cell_length_a 9.455970
_cell_length_b 7.405652
_cell_length_c 22.313286
_cell_angle_alpha 90.000000
_cell_angle_beta 90.000000
_cell_angle_gamma 90.000000
_cell_volume 1562.546383
_symmetry_space_group_name_H-M "P 21 21 21"
_symmetry_group_IT_number 19
_symmetry_cell_setting 'orthorhombic'
loop_
_space_group_symop_operation_xyz
x,y,z
1/2-x,-y,1/2+z
1/2+x,1/2-y,-z
-x,1/2+y,1/2-z
loop_
_atom_site_type_symbol
_atom_site_label
_atom_site_fract_x
_atom_site_fract_y
_atom_site_fract_z
Si Si1 0.694730 0.472851 0.564424
Si Si2 0.515420 0.053173 0.456909
Si Si3 0.304806 0.807690 0.733078
Si Si4 0.568610 0.768806 0.360562
Si Si5 0.813025 0.941991 0.069927
Si Si6 0.401461 0.452766 0.801622
Si Si7 0.509727 0.469016 0.452980
Si Si8 0.270479 0.870439 0.313104
O O1 0.850051 0.487213 0.535844
O O2 0.665595 0.268245 0.583615
O O3 0.578821 0.537726 0.515570
O O4 0.688828 0.594893 0.623800
O O5 0.579855 0.990593 0.519501
O O6 0.551204 0.261009 0.442126
O O7 0.585963 0.939486 0.403985
O O8 0.202321 0.733487 0.682376
O O9 0.362358 0.635720 0.768449
O O10 0.431983 0.919419 0.703274
O O11 0.219710 0.941568 0.777095
O O12 0.568719 0.582744 0.397515
O O13 0.427122 0.792797 0.321800
O O14 0.658535 0.992876 0.044972
O O15 0.849495 0.046151 0.130028
O O16 0.317538 0.278664 0.775260
#
# Coordination Sequence:
#
# PCOD8156878 Si02
#       8
#     4   4   4   4   4   4   4   4
#     4   9  20  40  64  94 137 168 218 269 331 404
#     4   9  22  40  61 100 135 170 216 275 335 399
#     4  12  28  47  67  99 132 182 237 273 340 403
#     4  11  26  41  68 100 130 176 228 280 335 409
#     4  10  20  40  67  91 137 174 211 275 335 390
#     4  12  25  46  67  94 135 181 226 280 337 401
#     4  10  21  39  63 101 133 173 216 268 343 400
#     4  11  24  45  67  95 135 180 222 286 334 396
#
# _framework density 20.479391
#
# number of rings (size 3 to 8) (size 9 to 14) (size 15 to 20)
#    0.000    1.500    3.750    0.000    5.250    2.000 
#    0.000    0.000    0.000    0.000    0.000    0.000 
#    0.000    0.000    0.000    0.000    0.000    0.000 
#
# Total GULP energy -396856.692336 kJ/mol
# GULP energy per Si atom -12401.771636 kJ/mol
# Density = 2.043278 g / cm^3
# Si number density = 20.479391 Si / 1000 Ang^3
#
#
#
# Elastic Constant Matrix: (Units=GPa)
#
#
# Indices 1 2 3 4 5 6 
#
# 1 73.2187 43.4363 43.5786 0.0000 0.0000 0.0000
# 2 43.4363 100.0829 40.8148 0.0000 0.0000 0.0000
# 3 43.5786 40.8148 77.5355 0.0000 0.0000 0.0000
# 4 0.0000 0.0000 0.0000 23.1328 0.0000 0.0000
# 5 0.0000 0.0000 0.0000 0.0000 37.3512 0.0000
# 6 0.0000 0.0000 0.0000 0.0000 0.0000 26.9073
#
#
#
# Elastic Compliance Matrix: (Units=1/GPa)
#
#
# Indices 1 2 3 4 5 6 
#
# 1 0.023052 -0.006011 -0.009792 0.000000 0.000000 0.000000
# 2 -0.006011 0.014291 -0.004144 0.000000 0.000000 0.000000
# 3 -0.009792 -0.004144 0.020582 0.000000 0.000000 0.000000
# 4 0.000000 0.000000 0.000000 0.043229 0.000000 0.000000
# 5 0.000000 0.000000 0.000000 0.000000 0.026773 0.000000
# 6 0.000000 0.000000 0.000000 0.000000 0.000000 0.037165
#
#
# Mechanical properties :
#
#
# Convention : Reuss Voigt Hill
#
# Bulk Modulus (GPa) = 55.46204 56.27742 55.86973
# Shear Modulus (GPa) = 23.69723 25.67876 24.68799
#
# Velocity S-wave (km/s) = 3.40535 3.54486 3.47580
# Velocity P-wave (km/s) = 6.52706 6.65541 6.59154
#
# Compressibility (1/GPa) = 0.01803035
#
# Stress axis : x y z
#
# Youngs Moduli (GPa) = 43.38047 69.97602 48.58580
#
# Poissons Ratio (x) = 0.42065 0.47574
# Poissons Ratio (y) = 0.26078 0.20134
# Poissons Ratio (z) = 0.42477 0.28998
#
# Static dielectric constant tensor:
#      x y z
#    x 3.658780 0.000000 0.000000 
#    y 0.000000 3.905690 0.000000 
#    z 0.000000 0.000000 3.668900 
# 
# 
# High freq. dielectric constant tensor:
#      x y z
#    x 1.797870 0.000000 0.000000 
#    y 0.000000 1.821500 0.000000 
#    z 0.000000 0.000000 1.791810 
# 
# From -- ./inp_files/7086.got.cif
#   From: 2010.03.12/outbox.cif.g09.slc.cpg/sg19_4_cif.got.tgz:7086.got - 2010.04.10 18:59:41.
