data_PCOD8156477
_publ_section_title
;
Structure prediction by ZEFSAII (Michael W. Deem and Ramdas Pophale) SiO2 
 PCOD8156477
Probable space group: P 21 21 2
;
_chemical_formula_sum "Si O2"
_cell_formula_units_Z 24
_cell_length_a 8.592301
_cell_length_b 8.621595
_cell_length_c 15.278623
_cell_angle_alpha 90.000000
_cell_angle_beta 90.000000
_cell_angle_gamma 90.000000
_cell_volume 1131.830298
_symmetry_space_group_name_H-M "P 21 21 2"
_symmetry_group_IT_number 18
_symmetry_cell_setting 'orthorhombic'
loop_
_space_group_symop_operation_xyz
x,y,z
-x,-y,z
1/2+x,1/2-y,-z
1/2-x,1/2+y,-z
loop_
_atom_site_type_symbol
_atom_site_label
_atom_site_fract_x
_atom_site_fract_y
_atom_site_fract_z
Si Si1 0.105471 0.764823 0.578830
Si Si2 0.893810 0.231809 0.267956
Si Si3 0.768009 0.893365 0.268098
Si Si4 0.903987 0.232865 0.070597
Si Si5 0.235149 0.104438 0.579199
Si Si6 0.263736 0.590860 0.929219
O O1 0.135355 0.672695 0.668824
O O2 0.152924 0.653586 0.499559
O O3 0.923500 0.798942 0.573204
O O4 0.204183 0.922279 0.573893
O O5 0.886111 0.297608 0.169126
O O6 0.824935 0.363800 0.330241
O O7 0.072115 0.194800 0.291080
O O8 0.792720 0.076426 0.281183
O O9 0.711205 0.863106 0.168842
O O10 0.076141 0.176689 0.050075
O O11 0.783724 0.092024 0.060938
O O12 0.865611 0.363509 0.999754
#
# Coordination Sequence:
#
# PCOD8156477 Si02
#       6
#     4   4   4   4   4   4
#     4  11  24  39  56  81 110 139 174 217 264 315
#     4   9  19  37  58  79 106 141 180 221 265 313
#     4   9  19  37  58  79 106 141 180 221 265 313
#     4   9  19  35  54  78 109 143 179 221 266 312
#     4  11  24  39  56  81 110 139 174 217 264 315
#     4   9  19  35  54  78 109 143 179 221 266 312
#
# _framework density 21.20459
#
# number of rings (size 3 to 8) (size 9 to 14) (size 15 to 20)
#    0.000    2.333    0.000    4.000    0.000   10.667 
#    0.000   10.000    0.000    0.000    0.000    0.000 
#    0.000    0.000    0.000    0.000    0.000    0.000 
#
# Total GULP energy -297644.856505 kJ/mol
# GULP energy per Si atom -12401.869021 kJ/mol
# Density = 2.115633 g / cm^3
# Si number density = 21.204590 Si / 1000 Ang^3
#
#
#
# Elastic Constant Matrix: (Units=GPa)
#
#
# Indices 1 2 3 4 5 6 
#
# 1 18.3999 -10.2210 11.8132 0.0000 0.0000 0.0000
# 2 -10.2210 16.6656 8.3575 0.0000 0.0000 0.0000
# 3 11.8132 8.3575 102.3071 0.0000 0.0000 0.0000
# 4 0.0000 0.0000 0.0000 8.1802 0.0000 0.0000
# 5 0.0000 0.0000 0.0000 0.0000 5.5916 0.0000
# 6 0.0000 0.0000 0.0000 0.0000 0.0000 35.0239
#
#
#
# Elastic Compliance Matrix: (Units=1/GPa)
#
#
# Indices 1 2 3 4 5 6 
#
# 1 0.108613 0.076016 -0.018751 0.000000 0.000000 0.000000
# 2 0.076016 0.115768 -0.018235 0.000000 0.000000 0.000000
# 3 -0.018751 -0.018235 0.013429 0.000000 0.000000 0.000000
# 4 0.000000 0.000000 0.000000 0.122247 0.000000 0.000000
# 5 0.000000 0.000000 0.000000 0.000000 0.178840 0.000000
# 6 0.000000 0.000000 0.000000 0.000000 0.000000 0.028552
#
#
# Mechanical properties :
#
#
# Convention : Reuss Voigt Hill
#
# Bulk Modulus (GPa) = 3.16585 17.47466 10.32025
# Shear Modulus (GPa) = 8.40789 18.25399 13.33094
#
# Velocity S-wave (km/s) = 1.99342 2.93721 2.51007
# Velocity P-wave (km/s) = 2.60664 4.44542 3.64392
#
# Compressibility (1/GPa) = 0.31587097
#
# Stress axis : x y z
#
# Youngs Moduli (GPa) = 9.20699 8.63794 74.46454
#
# Poissons Ratio (x) = -0.65662 1.39629
# Poissons Ratio (y) = -0.69988 1.35782
# Poissons Ratio (z) = 0.17264 0.15751
#
# Static dielectric constant tensor:
#      x y z
#    x 3.646720 0.000000 0.000000 
#    y 0.000000 3.690650 0.000000 
#    z 0.000000 0.000000 3.860060 
# 
# 
# High freq. dielectric constant tensor:
#      x y z
#    x 1.825610 0.000000 0.000000 
#    y 0.000000 1.824230 0.000000 
#    z 0.000000 0.000000 1.839970 
# 
# From -- ./inp_files/6637.got.cif
#   From: 2010.03.12/outbox.cif.g09.slc.cpg/sg18_4_cif.got.tgz:6637.got - 2010.04.10 18:53:55.
