data_PCOD8156249
_publ_section_title
;
Structure prediction by ZEFSAII (Michael W. Deem and Ramdas Pophale) SiO2 
 PCOD8156249
Probable space group: P 21 21 2
;
_chemical_formula_sum "Si O2"
_cell_formula_units_Z 24
_cell_length_a 12.211295
_cell_length_b 12.295646
_cell_length_c 7.924830
_cell_angle_alpha 90.000000
_cell_angle_beta 90.000000
_cell_angle_gamma 90.000000
_cell_volume 1189.879627
_symmetry_space_group_name_H-M "P 21 21 2"
_symmetry_group_IT_number 18
_symmetry_cell_setting 'orthorhombic'
loop_
_space_group_symop_operation_xyz
x,y,z
-x,-y,z
1/2+x,1/2-y,-z
1/2-x,1/2+y,-z
loop_
_atom_site_type_symbol
_atom_site_label
_atom_site_fract_x
_atom_site_fract_y
_atom_site_fract_z
Si Si1 0.000000 0.500000 0.103062
Si Si2 0.322575 0.673654 0.212972
Si Si3 0.124196 0.039579 0.114494
Si Si4 0.078138 0.671618 0.343815
Si Si5 0.500000 0.000000 0.406703
Si Si6 0.949355 0.880249 0.444035
Si Si7 0.335812 0.914037 0.146681
O O1 0.001879 0.613509 0.204275
O O2 0.110804 0.489507 0.996686
O O3 0.199132 0.677124 0.273164
O O4 0.393286 0.650788 0.380207
O O5 0.352238 0.786110 0.120859
O O6 0.342638 0.587049 0.066265
O O7 0.131775 0.119023 0.279513
O O8 0.206855 0.940694 0.154816
O O9 0.000000 0.000000 0.099137
O O10 0.070975 0.590238 0.499046
O O11 0.041672 0.791649 0.399113
O O12 0.402388 0.939076 0.314290
O O13 0.000000 0.000000 0.465650
#
# Coordination Sequence:
#
# PCOD8156249 Si02
#       7
#     2   4   4   4   2   4   4
#     4  10  22  42  68  96 134 172 232 276 340 404
#     4  12  23  42  69 100 134 178 232 274 351 406
#     4  11  24  44  64  97 139 178 224 281 341 410
#     4  11  22  42  66  97 133 177 221 286 333 404
#     4  10  22  42  68  96 134 172 232 276 340 404
#     4  11  24  44  64  97 139 178 224 281 341 410
#     4  11  22  42  66  97 133 177 221 286 333 404
#
# _framework density 20.170106000000001
#
# number of rings (size 3 to 8) (size 9 to 14) (size 15 to 20)
#    0.000    1.000    3.333    4.500    0.000    0.000 
#    0.000    0.000    0.000    0.000    0.000    0.000 
#    0.000    0.000    0.000    0.000    0.000    0.000 
#
# Total GULP energy -297356.014143 kJ/mol
# GULP energy per Si atom -12389.833923 kJ/mol
# Density = 2.012420 g / cm^3
# Si number density = 20.170106 Si / 1000 Ang^3
#
#
#
# Elastic Constant Matrix: (Units=GPa)
#
#
# Indices 1 2 3 4 5 6 
#
# 1 92.6251 27.0749 24.6520 0.0000 0.0000 0.0000
# 2 27.0749 110.6616 22.0850 0.0000 0.0000 0.0000
# 3 24.6520 22.0850 106.1439 0.0000 0.0000 0.0000
# 4 0.0000 0.0000 0.0000 0.0194 0.0000 0.0000
# 5 0.0000 0.0000 0.0000 0.0000 -1.0164 0.0000
# 6 0.0000 0.0000 0.0000 0.0000 0.0000 34.4753
#
#
#
# Elastic Compliance Matrix: (Units=1/GPa)
#
#
# Indices 1 2 3 4 5 6 
#
# 1 0.012142 -0.002512 -0.002297 0.000000 0.000000 0.000000
# 2 -0.002512 0.009948 -0.001486 0.000000 0.000000 0.000000
# 3 -0.002297 -0.001486 0.010264 0.000000 0.000000 0.000000
# 4 0.000000 0.000000 0.000000 51.586993 0.000000 0.000000
# 5 0.000000 0.000000 0.000000 0.000000 -0.983842 0.000000
# 6 0.000000 0.000000 0.000000 0.000000 0.000000 0.029006
#
#
# Mechanical properties :
#
#
# Convention : Reuss Voigt Hill
#
# Bulk Modulus (GPa) = 50.60193 50.78383 50.69288
# Shear Modulus (GPa) = 0.09865 22.40356 11.25111
#
# Velocity S-wave (km/s) = 0.22139 3.33638 2.36436
# Velocity P-wave (km/s) = 5.02070 6.33043 5.71322
#
# Compressibility (1/GPa) = 0.01976209
#
# Stress axis : x y z
#
# Youngs Moduli (GPa) = 82.35906 100.52430 97.42813
#
# Poissons Ratio (x) = 0.25254 0.22382
# Poissons Ratio (y) = 0.20690 0.14481
# Poissons Ratio (z) = 0.18920 0.14941
#
# Static dielectric constant tensor:
#      x y z
#    x 3.729210 0.000000 0.000000 
#    y 0.000000 3.938500 0.000000 
#    z 0.000000 0.000000 4.054970 
# 
# 
# High freq. dielectric constant tensor:
#      x y z
#    x 1.788700 0.000000 0.000000 
#    y 0.000000 1.794210 0.000000 
#    z 0.000000 0.000000 1.804190 
# 
# From -- ./inp_files/3796.got.cif
#   From: 2010.03.12/outbox.cif.g09.slc.cpg/sg18_2_cif.got.tgz:3796.got - 2010.04.10 18:53:55.
