data_PCOD8156609
_publ_section_title
;
Structure prediction by ZEFSAII (Michael W. Deem and Ramdas Pophale) SiO2 
 PCOD8156609
Probable space group: P 21 21 21
;
_chemical_formula_sum "Si O2"
_cell_formula_units_Z 24
_cell_length_a 10.203909
_cell_length_b 16.317003
_cell_length_c 5.354352
_cell_angle_alpha 90.000000
_cell_angle_beta 90.000000
_cell_angle_gamma 90.000000
_cell_volume 891.484690
_symmetry_space_group_name_H-M "P 21 21 21"
_symmetry_group_IT_number 19
_symmetry_cell_setting 'orthorhombic'
loop_
_space_group_symop_operation_xyz
x,y,z
1/2-x,-y,1/2+z
1/2+x,1/2-y,-z
-x,1/2+y,1/2-z
loop_
_atom_site_type_symbol
_atom_site_label
_atom_site_fract_x
_atom_site_fract_y
_atom_site_fract_z
Si Si1 0.570252 0.107116 0.500000
Si Si2 0.372820 0.431588 1.000000
Si Si3 0.898750 0.116058 0.500000
Si Si4 0.860494 0.714098 1.000000
Si Si5 0.942960 0.445788 0.000000
Si Si6 0.325458 0.878317 0.500000
O O1 0.662547 0.188035 0.500000
O O2 0.485882 0.104671 0.246112
O O3 0.665698 0.027046 0.500000
O O4 0.485882 0.104671 0.753888
O O5 0.312465 0.388428 0.753958
O O6 0.532178 0.421349 0.000000
O O7 0.312465 0.388428 0.246042
O O8 0.981789 0.199417 0.500000
O O9 0.000198 0.038012 0.500000
O O10 0.801261 0.676528 0.746814
O O11 0.801261 0.676528 0.253186
O O12 0.784465 0.449787 1.000000
#
# Coordination Sequence:
#
# PCOD8156609 Si02
#       6
#     4   4   4   4   4   4
#     4  10  19  30  44  66  98 126 151 185 227 276
#     4   8  16  27  42  63  89 118 151 177 216 268
#     4   8  16  27  42  63  89 118 151 177 216 268
#     4  10  19  30  44  66  98 126 151 185 227 276
#     4  10  19  31  48  69  95 124 153 186 228 278
#     4  10  19  31  48  69  95 124 153 186 228 278
#
# _framework density 26.921382000000001
#
# number of rings (size 3 to 8) (size 9 to 14) (size 15 to 20)
#    0.000    2.667    0.000    2.000    0.000   12.000 
#    0.000    0.000    0.000    0.000    0.000    0.000 
#    0.000  240.000    0.000    0.000    0.000    0.000 
#
# Total GULP energy -297403.098627 kJ/mol
# GULP energy per Si atom -12391.795776 kJ/mol
# Density = 2.686011 g / cm^3
# Si number density = 26.921382 Si / 1000 Ang^3
#
#
#
# Elastic Constant Matrix: (Units=GPa)
#
#
# Indices 1 2 3 4 5 6 
#
# 1 61.7051 4.8048 5.3229 0.0000 0.0000 0.0000
# 2 4.8048 105.4605 35.7018 0.0000 0.0000 0.0000
# 3 5.3229 35.7018 285.8649 0.0000 0.0000 0.0000
# 4 0.0000 0.0000 0.0000 30.6397 0.0000 0.0000
# 5 0.0000 0.0000 0.0000 0.0000 11.6753 0.0000
# 6 0.0000 0.0000 0.0000 0.0000 0.0000 30.7295
#
#
#
# Elastic Compliance Matrix: (Units=1/GPa)
#
#
# Indices 1 2 3 4 5 6 
#
# 1 0.016277 -0.000667 -0.000220 0.000000 0.000000 0.000000
# 2 -0.000667 0.009928 -0.001228 0.000000 0.000000 0.000000
# 3 -0.000220 -0.001228 0.003656 0.000000 0.000000 0.000000
# 4 0.000000 0.000000 0.000000 0.032637 0.000000 0.000000
# 5 0.000000 0.000000 0.000000 0.000000 0.085651 0.000000
# 6 0.000000 0.000000 0.000000 0.000000 0.000000 0.032542
#
#
# Mechanical properties :
#
#
# Convention : Reuss Voigt Hill
#
# Bulk Modulus (GPa) = 39.01398 60.52106 49.76752
# Shear Modulus (GPa) = 25.84458 41.75562 33.80010
#
# Velocity S-wave (km/s) = 3.10175 3.94257 3.54716
# Velocity P-wave (km/s) = 5.22983 6.57683 5.94162
#
# Compressibility (1/GPa) = 0.02563184
#
# Stress axis : x y z
#
# Youngs Moduli (GPa) = 61.43624 100.72349 273.55644
#
# Poissons Ratio (x) = 0.06720 0.06012
# Poissons Ratio (y) = 0.04099 0.33579
# Poissons Ratio (z) = 0.01350 0.12364
#
# Static dielectric constant tensor:
#      x y z
#    x 4.430520 0.000000 0.000000 
#    y 0.000000 4.541220 0.000000 
#    z 0.000000 0.000000 6.789360 
# 
# 
# High freq. dielectric constant tensor:
#      x y z
#    x 2.069340 0.000000 0.000000 
#    y 0.000000 2.061560 0.000000 
#    z 0.000000 0.000000 2.134470 
# 
# From -- ./inp_files/979.got.cif
#   From: 2010.03.12/outbox.cif.g09.slc.cpg/sg19_1_cif.got.tgz:979.got - 2010.04.10 18:59:41.
