data_PCOD8156910
_publ_section_title
;
Structure prediction by ZEFSAII (Michael W. Deem and Ramdas Pophale) SiO2 
 PCOD8156910
Probable space group: P 21 21 21
;
_chemical_formula_sum "Si O2"
_cell_formula_units_Z 32
_cell_length_a 12.279360
_cell_length_b 8.035272
_cell_length_c 14.070518
_cell_angle_alpha 90.000000
_cell_angle_beta 90.000000
_cell_angle_gamma 90.000000
_cell_volume 1388.309836
_symmetry_space_group_name_H-M "P 21 21 21"
_symmetry_group_IT_number 19
_symmetry_cell_setting 'orthorhombic'
loop_
_space_group_symop_operation_xyz
x,y,z
1/2-x,-y,1/2+z
1/2+x,1/2-y,-z
-x,1/2+y,1/2-z
loop_
_atom_site_type_symbol
_atom_site_label
_atom_site_fract_x
_atom_site_fract_y
_atom_site_fract_z
Si Si1 0.418349 0.803132 0.648322
Si Si2 0.888977 0.333039 0.047378
Si Si3 0.949407 0.668088 0.137719
Si Si4 0.819976 0.066184 0.360051
Si Si5 0.334561 0.959569 0.466468
Si Si6 0.856677 0.978338 0.717735
Si Si7 0.518333 0.789004 0.355846
Si Si8 0.245779 0.328638 0.444830
O O1 0.545452 0.792445 0.615984
O O2 0.411791 0.875174 0.754676
O O3 0.366035 0.620486 0.643793
O O4 0.357483 0.930540 0.578362
O O5 0.928680 0.519208 0.065960
O O6 0.759125 0.326590 0.065275
O O7 0.912254 0.300874 0.936936
O O8 0.877831 0.823148 0.097950
O O9 0.079793 0.699907 0.136442
O O10 0.742187 0.089029 0.451473
O O11 0.747614 0.106393 0.267981
O O12 0.439069 0.925467 0.402271
O O13 0.296680 0.145672 0.448032
O O14 0.822628 0.054529 0.617366
O O15 0.897363 0.126242 0.785225
O O16 0.951147 0.845419 0.703734
#
# Coordination Sequence:
#
# PCOD8156910 Si02
#       8
#     4   4   4   4   4   4   4   4
#     4  10  20  42  66  99 140 183 235 287 348 425
#     4   9  21  39  63  92 138 177 224 287 343 410
#     4  10  22  41  66 102 135 181 230 290 344 428
#     4  11  25  44  71 102 139 187 235 290 357 416
#     4  10  22  42  67 100 137 185 226 289 354 415
#     4  12  25  46  70 102 141 189 233 295 352 424
#     4  11  25  43  69 103 139 186 238 286 352 427
#     4  11  24  45  70 100 143 180 233 294 358 419
#
# _framework density 23.049610999999999
#
# number of rings (size 3 to 8) (size 9 to 14) (size 15 to 20)
#    0.000    1.500    1.250    3.750    1.750    6.000 
#    4.500    0.000    0.000    0.000    0.000    0.000 
#    0.000    0.000    0.000    0.000    0.000    0.000 
#
# Total GULP energy -396821.829777 kJ/mol
# GULP energy per Si atom -12400.682181 kJ/mol
# Density = 2.299715 g / cm^3
# Si number density = 23.049611 Si / 1000 Ang^3
#
#
#
# Elastic Constant Matrix: (Units=GPa)
#
#
# Indices 1 2 3 4 5 6 
#
# 1 89.5022 7.9401 6.2083 0.0000 0.0000 0.0000
# 2 7.9401 51.3804 15.2003 0.0000 0.0000 0.0000
# 3 6.2083 15.2003 97.3343 0.0000 0.0000 0.0000
# 4 0.0000 0.0000 0.0000 37.7039 0.0000 0.0000
# 5 0.0000 0.0000 0.0000 0.0000 20.6079 0.0000
# 6 0.0000 0.0000 0.0000 0.0000 0.0000 20.8615
#
#
#
# Elastic Compliance Matrix: (Units=1/GPa)
#
#
# Indices 1 2 3 4 5 6 
#
# 1 0.011349 -0.001614 -0.000472 0.000000 0.000000 0.000000
# 2 -0.001614 0.020635 -0.003120 0.000000 0.000000 0.000000
# 3 -0.000472 -0.003120 0.010791 0.000000 0.000000 0.000000
# 4 0.000000 0.000000 0.000000 0.026522 0.000000 0.000000
# 5 0.000000 0.000000 0.000000 0.000000 0.048525 0.000000
# 6 0.000000 0.000000 0.000000 0.000000 0.000000 0.047935
#
#
# Mechanical properties :
#
#
# Convention : Reuss Voigt Hill
#
# Bulk Modulus (GPa) = 30.89863 32.99049 31.94456
# Shear Modulus (GPa) = 26.74413 29.75918 28.25165
#
# Velocity S-wave (km/s) = 3.40999 3.59708 3.50478
# Velocity P-wave (km/s) = 5.37945 5.62102 5.50156
#
# Compressibility (1/GPa) = 0.03236389
#
# Stress axis : x y z
#
# Youngs Moduli (GPa) = 88.11471 48.46133 92.66870
#
# Poissons Ratio (x) = 0.07823 0.04372
# Poissons Ratio (y) = 0.14224 0.28908
# Poissons Ratio (z) = 0.04157 0.15118
#
# Static dielectric constant tensor:
#      x y z
#    x 4.662650 0.000000 0.000000 
#    y 0.000000 3.850040 0.000000 
#    z 0.000000 0.000000 4.184370 
# 
# 
# High freq. dielectric constant tensor:
#      x y z
#    x 1.923610 0.000000 0.000000 
#    y 0.000000 1.894820 0.000000 
#    z 0.000000 0.000000 1.918690 
# 
# From -- ./inp_files/6125.got.cif
#   From: 2010.03.12/outbox.cif.g09.slc.cpg/sg19_4_cif.got.tgz:6125.got - 2010.04.10 18:59:41.
