data_PCOD8156863
_publ_section_title
;
Structure prediction by ZEFSAII (Michael W. Deem and Ramdas Pophale) SiO2 
 PCOD8156863
Probable space group: P 21 21 21
;
_chemical_formula_sum "Si O2"
_cell_formula_units_Z 20
_cell_length_a 9.202423
_cell_length_b 8.080468
_cell_length_c 12.937955
_cell_angle_alpha 90.000000
_cell_angle_beta 90.000000
_cell_angle_gamma 90.000000
_cell_volume 962.064840
_symmetry_space_group_name_H-M "P 21 21 21"
_symmetry_group_IT_number 19
_symmetry_cell_setting 'orthorhombic'
loop_
_space_group_symop_operation_xyz
x,y,z
1/2-x,-y,1/2+z
1/2+x,1/2-y,-z
-x,1/2+y,1/2-z
loop_
_atom_site_type_symbol
_atom_site_label
_atom_site_fract_x
_atom_site_fract_y
_atom_site_fract_z
Si Si1 0.694621 0.548964 0.136143
Si Si2 0.750000 0.848641 1.000000
Si Si3 0.022296 0.935482 0.451873
Si Si4 0.694620 0.451036 0.363857
Si Si5 0.522297 0.435482 0.951874
O O1 0.640005 0.500000 0.250000
O O2 0.597006 0.430840 0.064581
O O3 0.676875 0.737722 0.092317
O O4 0.866732 0.516100 0.129263
O O5 0.823125 0.737722 0.907682
O O6 0.872848 0.963363 0.050078
O O7 0.627153 0.963364 0.949921
O O8 1.000000 0.750000 0.414021
O O9 0.097006 0.930841 0.564581
O O10 0.866732 0.483899 0.370738
#
# Coordination Sequence:
#
# PCOD8156863 Si02
#       5
#     4   4   4   4   4
#     4  10  21  37  57  83 111 148 190 230 279 334
#     4  10  20  40  60  80 116 154 184 234 284 330
#     4  10  21  38  57  82 114 150 188 230 279 336
#     4  10  21  37  57  83 111 148 190 230 279 334
#     4  10  21  38  57  82 114 150 188 230 279 336
#
# _framework density 20.788619000000001
#
# number of rings (size 3 to 8) (size 9 to 14) (size 15 to 20)
#    0.000    2.400    0.000    7.200    0.000    6.400 
#    0.000    6.000    0.000    0.000    0.000    0.000 
#    0.000    0.000    0.000    0.000    0.000    0.000 
#
# Total GULP energy -247823.411274 kJ/mol
# GULP energy per Si atom -12391.170564 kJ/mol
# Density = 2.074130 g / cm^3
# Si number density = 20.788619 Si / 1000 Ang^3
#
#
#
# Elastic Constant Matrix: (Units=GPa)
#
#
# Indices 1 2 3 4 5 6 
#
# 1 56.4472 2.8602 -30.0843 0.0000 0.0000 0.0000
# 2 2.8602 110.5606 -9.3099 0.0000 0.0000 0.0000
# 3 -30.0843 -9.3099 85.3632 0.0000 0.0000 0.0000
# 4 0.0000 0.0000 0.0000 11.1170 0.0000 0.0000
# 5 0.0000 0.0000 0.0000 0.0000 15.8287 0.0000
# 6 0.0000 0.0000 0.0000 0.0000 0.0000 37.9331
#
#
#
# Elastic Compliance Matrix: (Units=1/GPa)
#
#
# Indices 1 2 3 4 5 6 
#
# 1 0.021814 0.000084 0.007697 0.000000 0.000000 0.000000
# 2 0.000084 0.009129 0.001025 0.000000 0.000000 0.000000
# 3 0.007697 0.001025 0.014539 0.000000 0.000000 0.000000
# 4 0.000000 0.000000 0.000000 0.089952 0.000000 0.000000
# 5 0.000000 0.000000 0.000000 0.000000 0.063176 0.000000
# 6 0.000000 0.000000 0.000000 0.000000 0.000000 0.026362
#
#
# Mechanical properties :
#
#
# Convention : Reuss Voigt Hill
#
# Bulk Modulus (GPa) = 15.84960 19.92257 17.88608
# Shear Modulus (GPa) = 21.89221 32.23610 27.06416
#
# Velocity S-wave (km/s) = 3.24865 3.94212 3.61206
# Velocity P-wave (km/s) = 4.65965 5.50678 5.10083
#
# Compressibility (1/GPa) = 0.06309309
#
# Stress axis : x y z
#
# Youngs Moduli (GPa) = 45.84311 109.54143 68.78040
#
# Poissons Ratio (x) = -0.00918 -0.52939
# Poissons Ratio (y) = -0.00384 -0.07051
# Poissons Ratio (z) = -0.35285 -0.11230
#
# Static dielectric constant tensor:
#      x y z
#    x 3.817020 0.000000 0.000000 
#    y 0.000000 3.732620 0.000000 
#    z 0.000000 0.000000 3.562160 
# 
# 
# High freq. dielectric constant tensor:
#      x y z
#    x 1.825770 0.000000 0.000000 
#    y 0.000000 1.813210 0.000000 
#    z 0.000000 0.000000 1.780420 
# 
# From -- ./inp_files/2712.got.cif
#   From: 2010.03.12/outbox.cif.g09.slc.cpg/sg19_2_cif.got.tgz:2712.got - 2010.04.10 18:59:41.
