data_PCOD8156390
_publ_section_title
;
Structure prediction by ZEFSAII (Michael W. Deem and Ramdas Pophale) SiO2 
 PCOD8156390
Probable space group: P 21 21 2
;
_chemical_formula_sum "Si O2"
_cell_formula_units_Z 32
_cell_length_a 13.833615
_cell_length_b 9.095064
_cell_length_c 11.677565
_cell_angle_alpha 90.000000
_cell_angle_beta 90.000000
_cell_angle_gamma 90.000000
_cell_volume 1469.243363
_symmetry_space_group_name_H-M "P 21 21 2"
_symmetry_group_IT_number 18
_symmetry_cell_setting 'orthorhombic'
loop_
_space_group_symop_operation_xyz
x,y,z
-x,-y,z
1/2+x,1/2-y,-z
1/2-x,1/2+y,-z
loop_
_atom_site_type_symbol
_atom_site_label
_atom_site_fract_x
_atom_site_fract_y
_atom_site_fract_z
Si Si1 0.654257 0.198431 0.738627
Si Si2 0.739250 0.929032 0.379513
Si Si3 0.821501 0.223026 0.410720
Si Si4 0.063453 0.376918 0.695459
Si Si5 0.066321 0.141569 0.883770
Si Si6 0.722676 0.883138 0.813694
Si Si7 0.982884 0.662707 0.443708
Si Si8 0.484366 0.167877 0.910714
O O1 0.724774 0.340659 0.735338
O O2 0.623723 0.201671 0.603420
O O3 0.554425 0.217274 0.807456
O O4 0.708777 0.052910 0.778231
O O5 0.814378 0.047329 0.431975
O O6 0.662927 0.046664 0.334091
O O7 0.702407 0.818233 0.476320
O O8 0.761050 0.286097 0.301254
O O9 0.934898 0.239340 0.385263
O O10 0.065856 0.231971 0.768207
O O11 0.010789 0.325823 0.579471
O O12 0.000000 0.500000 0.760296
O O13 0.182862 0.114732 0.898364
O O14 0.000000 0.000000 0.864274
O O15 0.016924 0.228396 0.986503
O O16 0.629495 0.814899 0.880121
O O17 0.000000 0.500000 0.396066
O O18 0.500000 0.000000 0.946845
#
# Coordination Sequence:
#
# PCOD8156390 Si02
#       8
#     4   4   4   4   4   4   4   4
#     4  11  23  43  73 107 134 189 238 298 355 437
#     4  12  25  39  67 105 147 187 242 294 362 439
#     4  12  22  41  67 102 142 193 234 289 357 438
#     4  11  23  44  65  96 143 196 222 287 368 431
#     4  12  29  47  70 108 143 185 248 309 354 429
#     4  11  23  46  75  99 145 186 237 293 365 429
#     4  11  19  41  69  98 142 181 234 293 353 436
#     4  10  24  51  76 101 136 190 243 296 366 433
#
# _framework density 21.779917000000001
#
# number of rings (size 3 to 8) (size 9 to 14) (size 15 to 20)
#    0.000    0.750    6.250    2.250    1.750    4.500 
#    4.500    0.000    0.000    0.000    0.000    0.000 
#    0.000    0.000    0.000    0.000    0.000    0.000 
#
# Total GULP energy -396440.204757 kJ/mol
# GULP energy per Si atom -12388.756399 kJ/mol
# Density = 2.173034 g / cm^3
# Si number density = 21.779917 Si / 1000 Ang^3
#
#
#
# Elastic Constant Matrix: (Units=GPa)
#
#
# Indices 1 2 3 4 5 6 
#
# 1 104.8696 31.1429 47.3411 0.0000 0.0000 0.0000
# 2 31.1429 110.7969 59.0659 0.0000 0.0000 0.0000
# 3 47.3411 59.0659 78.8602 0.0000 0.0000 0.0000
# 4 0.0000 0.0000 0.0000 37.2673 0.0000 0.0000
# 5 0.0000 0.0000 0.0000 0.0000 0.7803 0.0000
# 6 0.0000 0.0000 0.0000 0.0000 0.0000 27.2424
#
#
#
# Elastic Compliance Matrix: (Units=1/GPa)
#
#
# Indices 1 2 3 4 5 6 
#
# 1 0.013128 0.000851 -0.008519 0.000000 0.000000 0.000000
# 2 0.000851 0.015080 -0.011806 0.000000 0.000000 0.000000
# 3 -0.008519 -0.011806 0.026637 0.000000 0.000000 0.000000
# 4 0.000000 0.000000 0.000000 0.026833 0.000000 0.000000
# 5 0.000000 0.000000 0.000000 0.000000 1.281546 0.000000
# 6 0.000000 0.000000 0.000000 0.000000 0.000000 0.036707
#
#
# Mechanical properties :
#
#
# Convention : Reuss Voigt Hill
#
# Bulk Modulus (GPa) = 62.89790 63.29183 63.09486
# Shear Modulus (GPa) = 3.46217 23.52312 13.49265
#
# Velocity S-wave (km/s) = 1.26217 3.28996 2.49168
# Velocity P-wave (km/s) = 5.57366 6.59959 6.10820
#
# Compressibility (1/GPa) = 0.01589878
#
# Stress axis : x y z
#
# Youngs Moduli (GPa) = 76.17017 66.31327 37.54162
#
# Poissons Ratio (x) = -0.05645 0.31981
# Poissons Ratio (y) = -0.06484 0.44321
# Poissons Ratio (z) = 0.64888 0.78288
#
# Static dielectric constant tensor:
#      x y z
#    x 4.417100 0.000000 0.000000 
#    y 0.000000 8.873660 0.000000 
#    z 0.000000 0.000000 3.781290 
# 
# 
# High freq. dielectric constant tensor:
#      x y z
#    x 1.873680 0.000000 0.000000 
#    y 0.000000 1.858200 0.000000 
#    z 0.000000 0.000000 1.836510 
# 
# From -- ./inp_files/6153.got.cif
#   From: 2010.03.12/outbox.cif.g09.slc.cpg/sg18_4_cif.got.tgz:6153.got - 2010.04.10 18:53:55.
