data_PCOD8156954
_publ_section_title
;
Structure prediction by ZEFSAII (Michael W. Deem and Ramdas Pophale) SiO2 
 PCOD8156954
Probable space group: P 21 21 21
;
_chemical_formula_sum "Si O2"
_cell_formula_units_Z 24
_cell_length_a 8.628559
_cell_length_b 15.969895
_cell_length_c 9.067244
_cell_angle_alpha 90.000000
_cell_angle_beta 90.000000
_cell_angle_gamma 90.000000
_cell_volume 1249.440665
_symmetry_space_group_name_H-M "P 21 21 21"
_symmetry_group_IT_number 19
_symmetry_cell_setting 'orthorhombic'
loop_
_space_group_symop_operation_xyz
x,y,z
1/2-x,-y,1/2+z
1/2+x,1/2-y,-z
-x,1/2+y,1/2-z
loop_
_atom_site_type_symbol
_atom_site_label
_atom_site_fract_x
_atom_site_fract_y
_atom_site_fract_z
Si Si1 0.147144 0.909370 0.748444
Si Si2 0.624372 0.487650 0.966732
Si Si3 0.834953 0.921093 0.117337
Si Si4 0.299432 0.737970 0.690686
Si Si5 0.924713 0.170111 0.059131
Si Si6 0.795214 0.923979 0.772516
O O1 0.219302 0.961487 0.614524
O O2 0.231730 0.820757 0.767004
O O3 0.965602 0.894538 0.723020
O O4 0.182314 0.964237 0.890840
O O5 0.513717 0.548800 0.870968
O O6 0.524326 0.405715 0.009884
O O7 0.822319 0.827945 0.178881
O O8 0.728150 0.981502 0.215674
O O9 0.776281 0.922600 0.948660
O O10 0.464632 0.755758 0.615126
O O11 0.184289 0.704998 0.566869
O O12 0.827218 0.138806 0.199983
#
# Coordination Sequence:
#
# PCOD8156954 Si02
#       6
#     4   4   4   4   4   4
#     4  10  21  37  58  83 110 144 187 232 279 334
#     4   9  21  39  57  81 111 149 190 224 277 344
#     4  10  21  38  59  83 114 150 190 233 280 336
#     4  11  22  37  58  85 115 147 189 240 285 328
#     4  10  22  39  57  82 115 152 189 231 285 336
#     4  10  21  38  59  82 113 152 187 226 282 344
#
# _framework density 19.208594999999999
#
# number of rings (size 3 to 8) (size 9 to 14) (size 15 to 20)
#    0.000    2.000    0.000    4.000    0.000   10.667 
#    0.000    5.000    0.000    0.000    0.000    0.000 
#    0.000    0.000    0.000    0.000    0.000    0.000 
#
# Total GULP energy -297653.138838 kJ/mol
# GULP energy per Si atom -12402.214118 kJ/mol
# Density = 1.916487 g / cm^3
# Si number density = 19.208595 Si / 1000 Ang^3
#
#
#
# Elastic Constant Matrix: (Units=GPa)
#
#
# Indices 1 2 3 4 5 6 
#
# 1 94.8025 49.3679 56.8075 0.0000 0.0000 0.0000
# 2 49.3679 113.5647 77.1202 0.0000 0.0000 0.0000
# 3 56.8075 77.1202 127.5671 0.0000 0.0000 0.0000
# 4 0.0000 0.0000 0.0000 33.1331 0.0000 0.0000
# 5 0.0000 0.0000 0.0000 0.0000 26.9579 0.0000
# 6 0.0000 0.0000 0.0000 0.0000 0.0000 29.2337
#
#
#
# Elastic Compliance Matrix: (Units=1/GPa)
#
#
# Indices 1 2 3 4 5 6 
#
# 1 0.015121 -0.003394 -0.004682 0.000000 0.000000 0.000000
# 2 -0.003394 0.015700 -0.007980 0.000000 0.000000 0.000000
# 3 -0.004682 -0.007980 0.014748 0.000000 0.000000 0.000000
# 4 0.000000 0.000000 0.000000 0.030181 0.000000 0.000000
# 5 0.000000 0.000000 0.000000 0.000000 0.037095 0.000000
# 6 0.000000 0.000000 0.000000 0.000000 0.000000 0.034207
#
#
# Mechanical properties :
#
#
# Convention : Reuss Voigt Hill
#
# Bulk Modulus (GPa) = 74.30688 78.05839 76.18264
# Shear Modulus (GPa) = 27.22565 28.04083 27.63324
#
# Velocity S-wave (km/s) = 3.76888 3.82489 3.79699
# Velocity P-wave (km/s) = 7.59654 7.76091 7.67917
#
# Compressibility (1/GPa) = 0.01345770
#
# Stress axis : x y z
#
# Youngs Moduli (GPa) = 66.13285 63.69386 67.80473
#
# Poissons Ratio (x) = 0.21617 0.31745
# Poissons Ratio (y) = 0.22445 0.54109
# Poissons Ratio (z) = 0.30962 0.50828
#
# Static dielectric constant tensor:
#      x y z
#    x 3.694390 0.000000 0.000000 
#    y 0.000000 3.685900 0.000000 
#    z 0.000000 0.000000 3.398600 
# 
# 
# High freq. dielectric constant tensor:
#      x y z
#    x 1.757270 0.000000 0.000000 
#    y 0.000000 1.755250 0.000000 
#    z 0.000000 0.000000 1.744060 
# 
# From -- ./inp_files/2739.got.cif
#   From: 2010.03.12/outbox.cif.g09.slc.cpg/sg19_2_cif.got.tgz:2739.got - 2010.04.10 18:59:41.
