data_PCOD8156841
_publ_section_title
;
Structure prediction by ZEFSAII (Michael W. Deem and Ramdas Pophale) SiO2 
 PCOD8156841
Probable space group: P 21 21 21
;
_chemical_formula_sum "Si O2"
_cell_formula_units_Z 32
_cell_length_a 8.820491
_cell_length_b 7.449781
_cell_length_c 21.256723
_cell_angle_alpha 90.000000
_cell_angle_beta 90.000000
_cell_angle_gamma 90.000000
_cell_volume 1396.794706
_symmetry_space_group_name_H-M "P 21 21 21"
_symmetry_group_IT_number 19
_symmetry_cell_setting 'orthorhombic'
loop_
_space_group_symop_operation_xyz
x,y,z
1/2-x,-y,1/2+z
1/2+x,1/2-y,-z
-x,1/2+y,1/2-z
loop_
_atom_site_type_symbol
_atom_site_label
_atom_site_fract_x
_atom_site_fract_y
_atom_site_fract_z
Si Si1 0.410275 0.427448 0.461373
Si Si2 0.721227 0.305687 0.464589
Si Si3 0.588995 0.446976 0.872292
Si Si4 0.874215 0.688829 0.695356
Si Si5 0.311475 0.158708 0.231512
Si Si6 0.728211 0.048518 0.667521
Si Si7 0.566701 0.762347 0.518833
Si Si8 0.155349 0.070481 0.942160
O O1 0.542338 0.274411 0.451062
O O2 0.302343 0.385116 0.521619
O O3 0.320076 0.455391 0.397379
O O4 0.518075 0.591593 0.478414
O O5 0.798106 0.419003 0.408769
O O6 0.752581 0.397276 0.534045
O O7 0.672827 0.341986 0.816727
O O8 0.450592 0.564858 0.845373
O O9 0.521932 0.287962 0.915607
O O10 0.843877 0.548574 0.750988
O O11 0.848313 0.574182 0.632299
O O12 0.044770 0.760236 0.695936
O O13 0.762540 0.859424 0.702797
O O14 0.273607 0.280630 0.291396
O O15 0.513026 0.925648 0.473356
O O16 0.747469 0.748644 0.532313
#
# Coordination Sequence:
#
# PCOD8156841 Si02
#       8
#     4   4   4   4   4   4   4   4
#     4  11  21  42  67 104 140 184 231 294 365 431
#     4  10  23  39  68 101 141 176 230 291 360 432
#     4  11  25  46  66 104 138 180 242 296 358 432
#     4  12  24  48  69  99 139 186 242 289 352 426
#     4  12  29  47  74 100 138 197 242 297 356 421
#     4  12  25  48  73 102 145 186 246 303 350 432
#     4  10  20  38  67  97 132 175 218 284 359 413
#     4  10  21  38  66  93 129 172 217 282 346 415
#
# _framework density 22.909593999999998
#
# number of rings (size 3 to 8) (size 9 to 14) (size 15 to 20)
#    0.000    1.000    3.750    2.250    5.250    2.000 
#    4.500    0.000    0.000    0.000    0.000    0.000 
#    0.000    0.000    0.000    0.000    0.000    0.000 
#
# Total GULP energy -396672.043855 kJ/mol
# GULP energy per Si atom -12396.001370 kJ/mol
# Density = 2.285745 g / cm^3
# Si number density = 22.909594 Si / 1000 Ang^3
#
#
#
# Elastic Constant Matrix: (Units=GPa)
#
#
# Indices 1 2 3 4 5 6 
#
# 1 104.8709 -9.7686 23.5459 0.0000 0.0000 0.0000
# 2 -9.7686 60.0816 18.6118 0.0000 0.0000 0.0000
# 3 23.5459 18.6118 74.1092 0.0000 0.0000 0.0000
# 4 0.0000 0.0000 0.0000 30.4997 0.0000 0.0000
# 5 0.0000 0.0000 0.0000 0.0000 35.2818 0.0000
# 6 0.0000 0.0000 0.0000 0.0000 0.0000 25.2114
#
#
#
# Elastic Compliance Matrix: (Units=1/GPa)
#
#
# Indices 1 2 3 4 5 6 
#
# 1 0.010758 0.003045 -0.004183 0.000000 0.000000 0.000000
# 2 0.003045 0.018910 -0.005716 0.000000 0.000000 0.000000
# 3 -0.004183 -0.005716 0.016258 0.000000 0.000000 0.000000
# 4 0.000000 0.000000 0.000000 0.032787 0.000000 0.000000
# 5 0.000000 0.000000 0.000000 0.000000 0.028343 0.000000
# 6 0.000000 0.000000 0.000000 0.000000 0.000000 0.039665
#
#
# Mechanical properties :
#
#
# Convention : Reuss Voigt Hill
#
# Bulk Modulus (GPa) = 31.03886 33.75999 32.39943
# Shear Modulus (GPa) = 29.21082 31.97675 30.59379
#
# Velocity S-wave (km/s) = 3.57465 3.74007 3.65830
# Velocity P-wave (km/s) = 5.53312 5.78091 5.65837
#
# Compressibility (1/GPa) = 0.03221768
#
# Stress axis : x y z
#
# Youngs Moduli (GPa) = 92.95140 52.88230 61.50739
#
# Poissons Ratio (x) = -0.16102 0.25727
# Poissons Ratio (y) = -0.28303 0.35161
# Poissons Ratio (z) = 0.38880 0.30230
#
# Static dielectric constant tensor:
#      x y z
#    x 4.693110 0.000000 0.000000 
#    y 0.000000 4.256220 0.000000 
#    z 0.000000 0.000000 3.969120 
# 
# 
# High freq. dielectric constant tensor:
#      x y z
#    x 1.921740 0.000000 0.000000 
#    y 0.000000 1.908750 0.000000 
#    z 0.000000 0.000000 1.891820 
# 
# From -- ./inp_files/7090.got.cif
#   From: 2010.03.12/outbox.cif.g09.slc.cpg/sg19_4_cif.got.tgz:7090.got - 2010.04.10 18:59:41.
