data_PCOD8156506
_publ_section_title
;
Structure prediction by ZEFSAII (Michael W. Deem and Ramdas Pophale) SiO2 
 PCOD8156506
Probable space group: P 21 21 2
;
_chemical_formula_sum "Si O2"
_cell_formula_units_Z 20
_cell_length_a 10.159767
_cell_length_b 14.955168
_cell_length_c 5.326518
_cell_angle_alpha 90.000000
_cell_angle_beta 90.000000
_cell_angle_gamma 90.000000
_cell_volume 809.316590
_symmetry_space_group_name_H-M "P 21 21 2"
_symmetry_group_IT_number 18
_symmetry_cell_setting 'orthorhombic'
loop_
_space_group_symop_operation_xyz
x,y,z
-x,-y,z
1/2+x,1/2-y,-z
1/2-x,1/2+y,-z
loop_
_atom_site_type_symbol
_atom_site_label
_atom_site_fract_x
_atom_site_fract_y
_atom_site_fract_z
Si Si1 0.893108 0.178785 0.021475
Si Si2 0.500000 0.000000 0.889945
Si Si3 0.067270 0.713555 0.511831
Si Si4 0.763841 0.454143 0.454554
Si Si5 0.500000 0.500000 0.175712
Si Si6 0.140974 0.389119 0.764598
O O1 0.955381 0.231027 0.256713
O O2 0.738202 0.175859 0.085952
O O3 0.914950 0.222975 0.751423
O O4 0.953871 0.079615 0.006530
O O5 0.515539 0.088007 0.061440
O O6 0.365621 0.007537 0.744318
O O7 0.195538 0.648540 0.507714
O O8 0.928965 0.659291 0.528605
O O9 0.616438 0.462117 0.352003
O O10 0.780206 0.520047 0.692746
#
# Coordination Sequence:
#
# PCOD8156506 Si02
#       6
#     4   2   4   4   2   4
#     4  12  31  52  80 120 169 209 275 339 409 485
#     4  12  20  50  88 108 150 216 270 320 390 506
#     4  12  28  53  84 123 156 216 274 346 399 484
#     4  12  26  52  87 116 163 215 273 333 416 491
#     4  12  30  58  78 120 174 224 260 342 430 490
#     4  12  26  52  83 114 162 212 278 330 407 494
#
# _framework density 24.712209000000001
#
# number of rings (size 3 to 8) (size 9 to 14) (size 15 to 20)
#    0.000    0.000    6.000    2.400    2.800    3.200 
#    7.200    0.000    0.000    0.000    0.000    0.000 
#    0.000    0.000    0.000    0.000    0.000    0.000 
#
# Total GULP energy -247943.977344 kJ/mol
# GULP energy per Si atom -12397.198867 kJ/mol
# Density = 2.465596 g / cm^3
# Si number density = 24.712209 Si / 1000 Ang^3
#
#
#
# Elastic Constant Matrix: (Units=GPa)
#
#
# Indices 1 2 3 4 5 6 
#
# 1 135.3697 38.6032 27.9721 0.0000 0.0000 0.0000
# 2 38.6032 143.0210 59.3493 0.0000 0.0000 0.0000
# 3 27.9721 59.3493 121.6560 0.0000 0.0000 0.0000
# 4 0.0000 0.0000 0.0000 37.9686 0.0000 0.0000
# 5 0.0000 0.0000 0.0000 0.0000 40.3350 0.0000
# 6 0.0000 0.0000 0.0000 0.0000 0.0000 37.5070
#
#
#
# Elastic Compliance Matrix: (Units=1/GPa)
#
#
# Indices 1 2 3 4 5 6 
#
# 1 0.008099 -0.001772 -0.000998 0.000000 0.000000 0.000000
# 2 -0.001772 0.009154 -0.004059 0.000000 0.000000 0.000000
# 3 -0.000998 -0.004059 0.010429 0.000000 0.000000 0.000000
# 4 0.000000 0.000000 0.000000 0.026338 0.000000 0.000000
# 5 0.000000 0.000000 0.000000 0.000000 0.024792 0.000000
# 6 0.000000 0.000000 0.000000 0.000000 0.000000 0.026662
#
#
# Mechanical properties :
#
#
# Convention : Reuss Voigt Hill
#
# Bulk Modulus (GPa) = 71.29605 72.43289 71.86447
# Shear Modulus (GPa) = 40.38597 41.43694 40.91146
#
# Velocity S-wave (km/s) = 4.04697 4.09929 4.07322
# Velocity P-wave (km/s) = 7.12394 7.19582 7.15997
#
# Compressibility (1/GPa) = 0.01402602
#
# Stress axis : x y z
#
# Youngs Moduli (GPa) = 123.47776 109.23708 95.88439
#
# Poissons Ratio (x) = 0.19356 0.09566
# Poissons Ratio (y) = 0.21879 0.38915
# Poissons Ratio (z) = 0.12319 0.44334
#
# Static dielectric constant tensor:
#      x y z
#    x 4.793480 0.000000 0.000000 
#    y 0.000000 4.879120 0.000000 
#    z 0.000000 0.000000 4.492700 
# 
# 
# High freq. dielectric constant tensor:
#      x y z
#    x 1.983180 0.000000 0.000000 
#    y 0.000000 1.994150 0.000000 
#    z 0.000000 0.000000 1.994300 
# 
# From -- ./inp_files/494.got.cif
#   From: 2010.03.12/outbox.cif.g09.slc.cpg/sg18_1_cif.got.tgz:494.got - 2010.04.10 18:53:55.
