data_PCOD8156108
_publ_section_title
;
Structure prediction by ZEFSAII (Michael W. Deem and Ramdas Pophale) SiO2 
 PCOD8156108
Probable space group: P 21 21 2
;
_chemical_formula_sum "Si O2"
_cell_formula_units_Z 26
_cell_length_a 8.609415
_cell_length_b 16.203287
_cell_length_c 8.936934
_cell_angle_alpha 90.000000
_cell_angle_beta 90.000000
_cell_angle_gamma 90.000000
_cell_volume 1246.709640
_symmetry_space_group_name_H-M "P 21 21 2"
_symmetry_group_IT_number 18
_symmetry_cell_setting 'orthorhombic'
loop_
_space_group_symop_operation_xyz
x,y,z
-x,-y,z
1/2+x,1/2-y,-z
1/2-x,1/2+y,-z
loop_
_atom_site_type_symbol
_atom_site_label
_atom_site_fract_x
_atom_site_fract_y
_atom_site_fract_z
Si Si1 0.487768 0.215064 0.075471
Si Si2 0.500000 0.000000 0.741563
Si Si3 0.713944 0.777037 0.345205
Si Si4 0.549120 0.360922 0.855957
Si Si5 0.934240 0.641588 0.486564
Si Si6 0.789320 0.597764 0.786268
Si Si7 0.194638 0.550390 0.996477
O O1 0.385990 0.259650 0.205445
O O2 0.652860 0.184642 0.142024
O O3 0.403592 0.132891 0.022082
O O4 0.513787 0.274393 0.936223
O O5 0.473656 0.918959 0.646613
O O6 0.655441 0.987341 0.841558
O O7 0.831242 0.846640 0.280924
O O8 0.810623 0.707867 0.429202
O O9 0.595655 0.817253 0.463094
O O10 0.396701 0.401690 0.786895
O O11 0.624393 0.424404 0.976555
O O12 0.854394 0.589786 0.618966
O O13 0.852515 0.518500 0.874911
#
# Coordination Sequence:
#
# PCOD8156108 Si02
#       7
#     4   2   4   4   4   4   4
#     4  10  21  39  71  94 132 168 223 272 326 389
#     4  12  26  40  72  92 140 170 230 270 340 396
#     4  10  23  42  66  99 132 176 227 268 328 406
#     4  11  23  39  71  99 132 169 226 277 326 387
#     4  11  26  43  70  97 137 183 217 276 339 404
#     4  11  22  41  66  97 135 174 213 273 335 400
#     4  11  23  42  66  97 126 178 224 270 327 395
#
# _framework density 20.854897999999999
#
# number of rings (size 3 to 8) (size 9 to 14) (size 15 to 20)
#    0.000    1.231    1.538    4.154    8.615    2.462 
#    0.000    0.000    0.000    0.000    0.000    0.000 
#    0.000    0.000    0.000    0.000    0.000    0.000 
#
# Total GULP energy -322383.838370 kJ/mol
# GULP energy per Si atom -12399.378399 kJ/mol
# Density = 2.080743 g / cm^3
# Si number density = 20.854898 Si / 1000 Ang^3
#
#
#
# Elastic Constant Matrix: (Units=GPa)
#
#
# Indices 1 2 3 4 5 6 
#
# 1 141.7233 48.5795 57.7569 0.0000 0.0000 0.0000
# 2 48.5795 98.0102 69.0081 0.0000 0.0000 0.0000
# 3 57.7569 69.0081 122.2057 0.0000 0.0000 0.0000
# 4 0.0000 0.0000 0.0000 35.4127 0.0000 0.0000
# 5 0.0000 0.0000 0.0000 0.0000 35.5378 0.0000
# 6 0.0000 0.0000 0.0000 0.0000 0.0000 35.3396
#
#
#
# Elastic Compliance Matrix: (Units=1/GPa)
#
#
# Indices 1 2 3 4 5 6 
#
# 1 0.009082 -0.002456 -0.002906 0.000000 0.000000 0.000000
# 2 -0.002456 0.017601 -0.008778 0.000000 0.000000 0.000000
# 3 -0.002906 -0.008778 0.014513 0.000000 0.000000 0.000000
# 4 0.000000 0.000000 0.000000 0.028238 0.000000 0.000000
# 5 0.000000 0.000000 0.000000 0.000000 0.028139 0.000000
# 6 0.000000 0.000000 0.000000 0.000000 0.000000 0.028297
#
#
# Mechanical properties :
#
#
# Convention : Reuss Voigt Hill
#
# Bulk Modulus (GPa) = 77.41937 79.18089 78.30013
# Shear Modulus (GPa) = 31.55458 33.69769 32.62613
#
# Velocity S-wave (km/s) = 3.89402 4.02408 3.95959
# Velocity P-wave (km/s) = 7.57769 7.72275 7.65056
#
# Compressibility (1/GPa) = 0.01291666
#
# Stress axis : x y z
#
# Youngs Moduli (GPa) = 110.10934 56.81478 68.90253
#
# Poissons Ratio (x) = 0.13952 0.20020
# Poissons Ratio (y) = 0.27040 0.60486
# Poissons Ratio (z) = 0.31993 0.49875
#
# Static dielectric constant tensor:
#      x y z
#    x 4.165780 0.000000 0.000000 
#    y 0.000000 3.765380 0.000000 
#    z 0.000000 0.000000 3.901750 
# 
# 
# High freq. dielectric constant tensor:
#      x y z
#    x 1.832250 0.000000 0.000000 
#    y 0.000000 1.812760 0.000000 
#    z 0.000000 0.000000 1.811860 
# 
# From -- ./inp_files/3385.got.cif
#   From: 2010.03.12/outbox.cif.g09.slc.cpg/sg18_2_cif.got.tgz:3385.got - 2010.04.10 18:53:55.
