data_PCOD8156886
_publ_section_title
;
Structure prediction by ZEFSAII (Michael W. Deem and Ramdas Pophale) SiO2 
 PCOD8156886
Probable space group: P 21 21 21
;
_chemical_formula_sum "Si O2"
_cell_formula_units_Z 28
_cell_length_a 8.546582
_cell_length_b 15.355729
_cell_length_c 9.315447
_cell_angle_alpha 90.000000
_cell_angle_beta 90.000000
_cell_angle_gamma 90.000000
_cell_volume 1222.549922
_symmetry_space_group_name_H-M "P 21 21 21"
_symmetry_group_IT_number 19
_symmetry_cell_setting 'orthorhombic'
loop_
_space_group_symop_operation_xyz
x,y,z
1/2-x,-y,1/2+z
1/2+x,1/2-y,-z
-x,1/2+y,1/2-z
loop_
_atom_site_type_symbol
_atom_site_label
_atom_site_fract_x
_atom_site_fract_y
_atom_site_fract_z
Si Si1 0.814054 0.086589 0.662651
Si Si2 0.645252 0.577545 0.978987
Si Si3 0.241854 0.892111 0.499100
Si Si4 0.611768 0.211720 0.524239
Si Si5 0.424327 0.523121 0.594906
Si Si6 0.116635 0.137181 0.299392
Si Si7 0.860591 0.657959 0.774105
O O1 0.778988 0.178857 0.583769
O O2 0.825209 0.010659 0.541777
O O3 0.982996 0.100713 0.731332
O O4 0.689368 0.068731 0.790215
O O5 0.473725 0.617831 0.985818
O O6 0.724040 0.589870 0.822767
O O7 0.650108 0.477614 0.025262
O O8 0.752516 0.637114 0.078368
O O9 0.285503 0.853655 0.653659
O O10 0.306616 0.819315 0.387946
O O11 0.058204 0.913359 0.472823
O O12 0.529904 0.273569 0.647588
O O13 0.626455 0.254306 0.366948
O O14 0.502873 0.445225 0.688378
#
# Coordination Sequence:
#
# PCOD8156886 Si02
#       7
#     4   4   4   4   4   4   4
#     4  12  25  44  66 106 139 176 232 291 342 404
#     4  10  20  40  71  93 128 187 229 267 338 422
#     4  11  22  43  69 102 133 184 232 284 339 414
#     4  11  23  43  70  97 137 184 230 281 350 414
#     4  11  26  42  70 104 139 180 233 285 347 401
#     4  10  22  40  69 100 134 174 239 275 335 414
#     4  11  22  40  69  98 138 179 231 275 343 421
#
# _framework density 22.902949
#
# number of rings (size 3 to 8) (size 9 to 14) (size 15 to 20)
#    0.000    1.143    4.286    5.143    4.000    0.000 
#    0.000    7.143    0.000    0.000    0.000    0.000 
#    0.000    0.000    0.000    0.000    0.000    0.000 
#
# Total GULP energy -346901.269182 kJ/mol
# GULP energy per Si atom -12389.331042 kJ/mol
# Density = 2.285082 g / cm^3
# Si number density = 22.902949 Si / 1000 Ang^3
#
#
#
# Elastic Constant Matrix: (Units=GPa)
#
#
# Indices 1 2 3 4 5 6 
#
# 1 27.3506 5.9968 -8.2786 0.0000 0.0000 0.0000
# 2 5.9968 54.2009 0.8559 0.0000 0.0000 0.0000
# 3 -8.2786 0.8559 71.1562 0.0000 0.0000 0.0000
# 4 0.0000 0.0000 0.0000 27.5884 0.0000 0.0000
# 5 0.0000 0.0000 0.0000 0.0000 44.5600 0.0000
# 6 0.0000 0.0000 0.0000 0.0000 0.0000 26.3974
#
#
#
# Elastic Compliance Matrix: (Units=1/GPa)
#
#
# Indices 1 2 3 4 5 6 
#
# 1 0.038908 -0.004377 0.004579 0.000000 0.000000 0.000000
# 2 -0.004377 0.018946 -0.000737 0.000000 0.000000 0.000000
# 3 0.004579 -0.000737 0.014595 0.000000 0.000000 0.000000
# 4 0.000000 0.000000 0.000000 0.036247 0.000000 0.000000
# 5 0.000000 0.000000 0.000000 0.000000 0.022442 0.000000
# 6 0.000000 0.000000 0.000000 0.000000 0.000000 0.037883
#
#
# Mechanical properties :
#
#
# Convention : Reuss Voigt Hill
#
# Bulk Modulus (GPa) = 14.00963 16.65064 15.33013
# Shear Modulus (GPa) = 25.78871 29.98474 27.88672
#
# Velocity S-wave (km/s) = 3.35923 3.62222 3.49320
# Velocity P-wave (km/s) = 4.60176 4.97794 4.79354
#
# Compressibility (1/GPa) = 0.07137948
#
# Stress axis : x y z
#
# Youngs Moduli (GPa) = 25.70157 52.78213 68.51547
#
# Poissons Ratio (x) = 0.23103 -0.31376
# Poissons Ratio (y) = 0.11250 0.05051
# Poissons Ratio (z) = -0.11770 0.03891
#
# Static dielectric constant tensor:
#      x y z
#    x 4.184060 0.000000 0.000000 
#    y 0.000000 3.904120 0.000000 
#    z 0.000000 0.000000 4.195130 
# 
# 
# High freq. dielectric constant tensor:
#      x y z
#    x 1.906400 0.000000 0.000000 
#    y 0.000000 1.882660 0.000000 
#    z 0.000000 0.000000 1.909990 
# 
# From -- ./inp_files/2970.got.cif
#   From: 2010.03.12/outbox.cif.g09.slc.cpg/sg19_2_cif.got.tgz:2970.got - 2010.04.10 18:59:41.
