data_PCOD8156837
_publ_section_title
;
Structure prediction by ZEFSAII (Michael W. Deem and Ramdas Pophale) SiO2 
 PCOD8156837
Probable space group: P 21 21 21
;
_chemical_formula_sum "Si O2"
_cell_formula_units_Z 32
_cell_length_a 12.738499
_cell_length_b 6.220166
_cell_length_c 19.942440
_cell_angle_alpha 90.000000
_cell_angle_beta 90.000000
_cell_angle_gamma 90.000000
_cell_volume 1580.150768
_symmetry_space_group_name_H-M "P 21 21 21"
_symmetry_group_IT_number 19
_symmetry_cell_setting 'orthorhombic'
loop_
_space_group_symop_operation_xyz
x,y,z
1/2-x,-y,1/2+z
1/2+x,1/2-y,-z
-x,1/2+y,1/2-z
loop_
_atom_site_type_symbol
_atom_site_label
_atom_site_fract_x
_atom_site_fract_y
_atom_site_fract_z
Si Si1 0.672774 0.949283 0.639150
Si Si2 0.329086 0.207499 0.404458
Si Si3 0.470990 0.889997 0.333940
Si Si4 0.137116 0.935922 0.443641
Si Si5 0.992915 0.494582 0.923887
Si Si6 0.046197 0.166780 0.318486
Si Si7 0.112881 0.244978 0.693120
Si Si8 0.661634 0.672995 0.762124
O O1 0.652798 0.819870 0.569588
O O2 0.702532 0.769608 0.692513
O O3 0.769551 0.107838 0.635381
O O4 0.573622 0.086870 0.664245
O O5 0.417311 0.334686 0.447972
O O6 0.381664 0.067789 0.346340
O O7 0.247498 0.066212 0.447916
O O8 0.463301 0.735003 0.398917
O O9 0.444114 0.774343 0.264744
O O10 0.585216 0.010253 0.330280
O O11 0.084640 0.962089 0.514935
O O12 0.060466 0.025208 0.385401
O O13 0.932936 0.577098 0.858986
O O14 0.925159 0.173246 0.296356
O O15 0.115373 0.063784 0.257170
O O16 0.235914 0.181530 0.691324
#
# Coordination Sequence:
#
# PCOD8156837 Si02
#       8
#     4   4   4   4   4   4   4   4
#     4  10  20  38  65  88 127 167 211 260 312 398
#     4  10  22  41  68  87 121 172 216 257 319 396
#     4  11  22  41  63  97 124 169 210 278 324 382
#     4  10  23  41  63  92 123 176 214 257 323 390
#     4  11  24  42  62  94 131 165 214 274 316 393
#     4  10  21  39  63  92 133 162 217 258 322 385
#     4  11  23  37  64  92 131 161 218 266 334 373
#     4  11  21  37  62 100 124 170 204 272 324 379
#
# _framework density 20.251232000000002
#
# number of rings (size 3 to 8) (size 9 to 14) (size 15 to 20)
#    0.000    1.500    2.500    3.750    1.750    6.000 
#    0.000    2.500    0.000    0.000    0.000    0.000 
#    0.000    0.000    0.000    0.000    0.000    0.000 
#
# Total GULP energy -396601.705944 kJ/mol
# GULP energy per Si atom -12393.803311 kJ/mol
# Density = 2.020514 g / cm^3
# Si number density = 20.251232 Si / 1000 Ang^3
#
#
#
# Elastic Constant Matrix: (Units=GPa)
#
#
# Indices 1 2 3 4 5 6 
#
# 1 129.9391 47.6301 44.3831 0.0000 0.0000 0.0000
# 2 47.6301 114.1224 35.6400 0.0000 0.0000 0.0000
# 3 44.3831 35.6400 89.0879 0.0000 0.0000 0.0000
# 4 0.0000 0.0000 0.0000 24.0918 0.0000 0.0000
# 5 0.0000 0.0000 0.0000 0.0000 30.5645 0.0000
# 6 0.0000 0.0000 0.0000 0.0000 0.0000 32.7082
#
#
#
# Elastic Compliance Matrix: (Units=1/GPa)
#
#
# Indices 1 2 3 4 5 6 
#
# 1 0.010112 -0.003025 -0.003828 0.000000 0.000000 0.000000
# 2 -0.003025 0.010919 -0.002861 0.000000 0.000000 0.000000
# 3 -0.003828 -0.002861 0.014276 0.000000 0.000000 0.000000
# 4 0.000000 0.000000 0.000000 0.041508 0.000000 0.000000
# 5 0.000000 0.000000 0.000000 0.000000 0.032718 0.000000
# 6 0.000000 0.000000 0.000000 0.000000 0.000000 0.030573
#
#
# Mechanical properties :
#
#
# Convention : Reuss Voigt Hill
#
# Bulk Modulus (GPa) = 62.97333 65.38398 64.17866
# Shear Modulus (GPa) = 30.33493 31.17265 30.75379
#
# Velocity S-wave (km/s) = 3.87451 3.92764 3.90117
# Velocity P-wave (km/s) = 7.15397 7.27496 7.21472
#
# Compressibility (1/GPa) = 0.01587974
#
# Stress axis : x y z
#
# Youngs Moduli (GPa) = 98.89077 91.58757 70.04615
#
# Poissons Ratio (x) = 0.27706 0.26811
# Poissons Ratio (y) = 0.29915 0.20040
# Poissons Ratio (z) = 0.37852 0.26203
#
# Static dielectric constant tensor:
#      x y z
#    x 3.853890 0.000000 0.000000 
#    y 0.000000 4.015980 0.000000 
#    z 0.000000 0.000000 3.356610 
# 
# 
# High freq. dielectric constant tensor:
#      x y z
#    x 1.792330 0.000000 0.000000 
#    y 0.000000 1.807390 0.000000 
#    z 0.000000 0.000000 1.760570 
# 
# From -- ./inp_files/7176.got.cif
#   From: 2010.03.12/outbox.cif.g09.slc.cpg/sg19_4_cif.got.tgz:7176.got - 2010.04.10 18:59:41.
