data_PCOD8156330
_publ_section_title
;
Structure prediction by ZEFSAII (Michael W. Deem and Ramdas Pophale) SiO2 
 PCOD8156330
Probable space group: P 21 21 2
;
_chemical_formula_sum "Si O2"
_cell_formula_units_Z 32
_cell_length_a 15.179765
_cell_length_b 11.244432
_cell_length_c 9.212950
_cell_angle_alpha 90.000000
_cell_angle_beta 90.000000
_cell_angle_gamma 90.000000
_cell_volume 1572.538492
_symmetry_space_group_name_H-M "P 21 21 2"
_symmetry_group_IT_number 18
_symmetry_cell_setting 'orthorhombic'
loop_
_space_group_symop_operation_xyz
x,y,z
-x,-y,z
1/2+x,1/2-y,-z
1/2-x,1/2+y,-z
loop_
_atom_site_type_symbol
_atom_site_label
_atom_site_fract_x
_atom_site_fract_y
_atom_site_fract_z
Si Si1 0.245319 0.656477 0.337337
Si Si2 0.399589 0.487051 0.285154
Si Si3 0.904058 0.539838 0.346865
Si Si4 0.242061 0.375115 0.860972
Si Si5 0.172285 0.269444 0.143535
Si Si6 0.316837 0.240093 0.364701
Si Si7 0.402121 0.525188 0.946775
Si Si8 0.095765 0.500893 0.670899
O O1 0.341369 0.595923 0.344002
O O2 0.170075 0.558268 0.312088
O O3 0.239469 0.744770 0.201597
O O4 0.235471 0.732650 0.483801
O O5 0.500000 0.500000 0.338908
O O6 0.361399 0.367821 0.354681
O O7 0.394878 0.482316 0.111885
O O8 0.885487 0.660121 0.260291
O O9 0.904652 0.569960 0.518277
O O10 0.000000 0.500000 0.293724
O O11 0.332032 0.450329 0.853432
O O12 0.167602 0.443941 0.773325
O O13 0.207577 0.362111 0.024490
O O14 0.254200 0.212957 0.228541
O O15 0.115896 0.165698 0.067864
O O16 0.390050 0.139167 0.362904
O O17 0.500000 0.500000 0.886099
O O18 0.000000 0.500000 0.746801
#
# Coordination Sequence:
#
# PCOD8156330 Si02
#       8
#     4   4   4   4   4   4   4   4
#     4  11  24  42  65  97 130 175 219 274 335 399
#     4  11  24  46  67  99 135 179 225 277 338 398
#     4  10  23  44  68  95 133 171 220 275 336 387
#     4  12  24  41  66  95 134 173 223 270 336 395
#     4  12  23  43  67  93 133 179 215 277 334 392
#     4  11  23  42  69  90 134 174 217 276 338 392
#     4  11  25  43  65 101 139 177 226 278 334 402
#     4  10  24  43  67 100 128 172 227 275 327 403
#
# _framework density 20.349264000000002
#
# number of rings (size 3 to 8) (size 9 to 14) (size 15 to 20)
#    0.000    1.000    5.000    0.750    5.250    0.500 
#    2.250    1.250    0.000    0.000    0.000    0.000 
#    0.000    0.000    0.000    0.000    0.000    0.000 
#
# Total GULP energy -396924.318194 kJ/mol
# GULP energy per Si atom -12403.884944 kJ/mol
# Density = 2.030295 g / cm^3
# Si number density = 20.349264 Si / 1000 Ang^3
#
#
#
# Elastic Constant Matrix: (Units=GPa)
#
#
# Indices 1 2 3 4 5 6 
#
# 1 174.2860 56.2563 45.4049 0.0000 0.0000 0.0000
# 2 56.2563 99.9770 33.2713 0.0000 0.0000 0.0000
# 3 45.4049 33.2713 83.6485 0.0000 0.0000 0.0000
# 4 0.0000 0.0000 0.0000 36.7614 0.0000 0.0000
# 5 0.0000 0.0000 0.0000 0.0000 31.3690 0.0000
# 6 0.0000 0.0000 0.0000 0.0000 0.0000 27.2836
#
#
#
# Elastic Compliance Matrix: (Units=1/GPa)
#
#
# Indices 1 2 3 4 5 6 
#
# 1 0.007529 -0.003315 -0.002768 0.000000 0.000000 0.000000
# 2 -0.003315 0.012988 -0.003366 0.000000 0.000000 0.000000
# 3 -0.002768 -0.003366 0.014796 0.000000 0.000000 0.000000
# 4 0.000000 0.000000 0.000000 0.027202 0.000000 0.000000
# 5 0.000000 0.000000 0.000000 0.000000 0.031879 0.000000
# 6 0.000000 0.000000 0.000000 0.000000 0.000000 0.036652
#
#
# Mechanical properties :
#
#
# Convention : Reuss Voigt Hill
#
# Bulk Modulus (GPa) = 60.92478 69.75293 65.33885
# Shear Modulus (GPa) = 32.17142 33.94808 33.05975
#
# Velocity S-wave (km/s) = 3.98045 4.08888 4.03503
# Velocity P-wave (km/s) = 7.15051 7.52623 7.34078
#
# Compressibility (1/GPa) = 0.01641368
#
# Stress axis : x y z
#
# Youngs Moduli (GPa) = 132.82066 76.99348 67.58430
#
# Poissons Ratio (x) = 0.25526 0.18708
# Poissons Ratio (y) = 0.44034 0.22752
# Poissons Ratio (z) = 0.36766 0.25920
#
# Static dielectric constant tensor:
#      x y z
#    x 3.924700 0.000000 0.000000 
#    y 0.000000 3.632180 0.000000 
#    z 0.000000 0.000000 3.678510 
# 
# 
# High freq. dielectric constant tensor:
#      x y z
#    x 1.805610 0.000000 0.000000 
#    y 0.000000 1.801840 0.000000 
#    z 0.000000 0.000000 1.793480 
# 
# From -- ./inp_files/4311.got.cif
#   From: 2010.03.12/outbox.cif.g09.slc.cpg/sg18_3_cif.got.tgz:4311.got - 2010.04.10 18:53:55.
