data_PCOD8156192
_publ_section_title
;
Structure prediction by ZEFSAII (Michael W. Deem and Ramdas Pophale) SiO2 
 PCOD8156192
Probable space group: P 21 21 2
;
_chemical_formula_sum "Si O2"
_cell_formula_units_Z 18
_cell_length_a 12.125060
_cell_length_b 5.366412
_cell_length_c 12.502215
_cell_angle_alpha 90.000000
_cell_angle_beta 90.000000
_cell_angle_gamma 90.000000
_cell_volume 813.494969
_symmetry_space_group_name_H-M "P 21 21 2"
_symmetry_group_IT_number 18
_symmetry_cell_setting 'orthorhombic'
loop_
_space_group_symop_operation_xyz
x,y,z
-x,-y,z
1/2+x,1/2-y,-z
1/2-x,1/2+y,-z
loop_
_atom_site_type_symbol
_atom_site_label
_atom_site_fract_x
_atom_site_fract_y
_atom_site_fract_z
Si Si1 0.810399 0.680982 0.651743
Si Si2 0.887861 0.386438 0.453888
Si Si3 0.000000 0.000000 0.601121
Si Si4 0.871327 0.462957 0.075079
Si Si5 0.755414 0.959971 0.138494
O O1 0.828338 0.578076 0.532909
O O2 0.694299 0.829893 0.644471
O O3 0.801239 0.476187 0.744827
O O4 0.919770 0.842132 0.678881
O O5 0.000000 0.500000 0.403341
O O6 0.917942 0.149057 0.524545
O O7 0.836880 0.196481 0.124310
O O8 0.000000 0.500000 0.086315
O O9 0.815264 0.694047 0.136462
O O10 0.839305 0.472649 0.950509
#
# Coordination Sequence:
#
# PCOD8156192 Si02
#       5
#     4   4   2   4   4
#     4  11  22  41  65  95 132 170 223 271 326 406
#     4  10  22  39  62  90 131 170 215 267 326 384
#     4  10  22  40  60  92 122 176 208 270 320 386
#     4  10  22  46  65  97 132 172 217 283 333 401
#     4  10  24  41  70  98 130 171 225 272 337 391
#
# _framework density 22.126752
#
# number of rings (size 3 to 8) (size 9 to 14) (size 15 to 20)
#    0.000    1.778    2.222    0.667    3.111    3.556 
#   12.000    0.000    0.000    0.000    0.000    0.000 
#    0.000    0.000    0.000    0.000    0.000    0.000 
#
# Total GULP energy -223155.446976 kJ/mol
# GULP energy per Si atom -12397.524832 kJ/mol
# Density = 2.207639 g / cm^3
# Si number density = 22.126752 Si / 1000 Ang^3
#
#
#
# Elastic Constant Matrix: (Units=GPa)
#
#
# Indices 1 2 3 4 5 6 
#
# 1 106.5409 14.7163 22.7788 0.0000 0.0000 0.0000
# 2 14.7163 83.7052 -3.9178 0.0000 0.0000 0.0000
# 3 22.7788 -3.9178 58.5522 0.0000 0.0000 0.0000
# 4 0.0000 0.0000 0.0000 26.1438 0.0000 0.0000
# 5 0.0000 0.0000 0.0000 0.0000 10.7740 0.0000
# 6 0.0000 0.0000 0.0000 0.0000 0.0000 28.1774
#
#
#
# Elastic Compliance Matrix: (Units=1/GPa)
#
#
# Indices 1 2 3 4 5 6 
#
# 1 0.010580 -0.002059 -0.004254 0.000000 0.000000 0.000000
# 2 -0.002059 0.012385 0.001630 0.000000 0.000000 0.000000
# 3 -0.004254 0.001630 0.018843 0.000000 0.000000 0.000000
# 4 0.000000 0.000000 0.000000 0.038250 0.000000 0.000000
# 5 0.000000 0.000000 0.000000 0.000000 0.092816 0.000000
# 6 0.000000 0.000000 0.000000 0.000000 0.000000 0.035489
#
#
# Mechanical properties :
#
#
# Convention : Reuss Voigt Hill
#
# Bulk Modulus (GPa) = 30.82483 35.10587 32.96535
# Shear Modulus (GPa) = 21.87769 27.36711 24.62240
#
# Velocity S-wave (km/s) = 3.14784 3.52068 3.33947
# Velocity P-wave (km/s) = 5.21279 5.69449 5.45895
#
# Compressibility (1/GPa) = 0.03244138
#
# Stress axis : x y z
#
# Youngs Moduli (GPa) = 94.51824 80.74285 53.07095
#
# Poissons Ratio (x) = 0.16626 0.22575
# Poissons Ratio (y) = 0.19463 -0.08649
# Poissons Ratio (z) = 0.40206 -0.13159
#
# Static dielectric constant tensor:
#      x y z
#    x 4.608040 0.000000 0.000000 
#    y 0.000000 4.235180 0.000000 
#    z 0.000000 0.000000 3.627020 
# 
# 
# High freq. dielectric constant tensor:
#      x y z
#    x 1.882890 0.000000 0.000000 
#    y 0.000000 1.880320 0.000000 
#    z 0.000000 0.000000 1.848770 
# 
# From -- ./inp_files/4982.got.cif
#   From: 2010.03.12/outbox.cif.g09.slc.cpg/sg18_3_cif.got.tgz:4982.got - 2010.04.10 18:53:55.
