data_PCOD8156855
_publ_section_title
;
Structure prediction by ZEFSAII (Michael W. Deem and Ramdas Pophale) SiO2 
 PCOD8156855
Probable space group: P 21 21 21
;
_chemical_formula_sum "Si O2"
_cell_formula_units_Z 28
_cell_length_a 13.384499
_cell_length_b 7.123218
_cell_length_c 12.268031
_cell_angle_alpha 90.000000
_cell_angle_beta 90.000000
_cell_angle_gamma 90.000000
_cell_volume 1169.642715
_symmetry_space_group_name_H-M "P 21 21 21"
_symmetry_group_IT_number 19
_symmetry_cell_setting 'orthorhombic'
loop_
_space_group_symop_operation_xyz
x,y,z
1/2-x,-y,1/2+z
1/2+x,1/2-y,-z
-x,1/2+y,1/2-z
loop_
_atom_site_type_symbol
_atom_site_label
_atom_site_fract_x
_atom_site_fract_y
_atom_site_fract_z
Si Si1 0.286534 0.562715 0.709910
Si Si2 0.715287 0.412890 0.656061
Si Si3 0.087726 0.464264 0.801438
Si Si4 0.069438 0.879992 0.874289
Si Si5 0.033997 0.254377 0.429114
Si Si6 0.427153 0.259120 0.796565
Si Si7 0.930994 0.873691 0.469366
O O1 0.267340 0.780470 0.738744
O O2 0.185176 0.438731 0.723808
O O3 0.372655 0.460324 0.783686
O O4 0.323970 0.571760 0.584824
O O5 0.822633 0.479815 0.608937
O O6 0.654279 0.273911 0.574054
O O7 0.653637 0.596571 0.686716
O O8 0.096846 0.663334 0.858960
O O9 0.986979 0.457104 0.731679
O O10 0.084283 0.311963 0.902738
O O11 0.001566 0.909862 0.982458
O O12 0.989662 0.297354 0.310108
O O13 0.998296 0.055931 0.473088
O O14 0.506145 0.277536 0.896854
#
# Coordination Sequence:
#
# PCOD8156855 Si02
#       7
#     4   4   4   4   4   4   4
#     4  10  21  39  63  89 122 164 209 248 316 371
#     4  10  21  40  62  93 124 160 212 255 310 374
#     4  10  23  42  60  89 131 163 204 265 314 380
#     4  10  23  42  60  91 127 166 206 260 326 372
#     4   9  19  38  66  86 121 167 207 253 313 375
#     4  10  20  39  64  92 120 161 207 262 303 371
#     4   9  19  40  61  90 127 157 207 263 304 365
#
# _framework density 23.938934
#
# number of rings (size 3 to 8) (size 9 to 14) (size 15 to 20)
#    0.000    2.286    1.429    0.000    2.000    4.571 
#   15.429    0.000    0.000    0.000    0.000    0.000 
#    0.000    0.000    0.000    0.000    0.000    0.000 
#
# Total GULP energy -346895.484173 kJ/mol
# GULP energy per Si atom -12389.124435 kJ/mol
# Density = 2.388445 g / cm^3
# Si number density = 23.938934 Si / 1000 Ang^3
#
#
#
# Elastic Constant Matrix: (Units=GPa)
#
#
# Indices 1 2 3 4 5 6 
#
# 1 177.9903 6.2355 63.7966 0.0000 0.0000 0.0000
# 2 6.2355 40.8700 7.8886 0.0000 0.0000 0.0000
# 3 63.7966 7.8886 116.3292 0.0000 0.0000 0.0000
# 4 0.0000 0.0000 0.0000 23.1165 0.0000 0.0000
# 5 0.0000 0.0000 0.0000 0.0000 31.8356 0.0000
# 6 0.0000 0.0000 0.0000 0.0000 0.0000 24.4190
#
#
#
# Elastic Compliance Matrix: (Units=1/GPa)
#
#
# Indices 1 2 3 4 5 6 
#
# 1 0.006997 -0.000331 -0.003815 0.000000 0.000000 0.000000
# 2 -0.000331 0.024808 -0.001501 0.000000 0.000000 0.000000
# 3 -0.003815 -0.001501 0.010790 0.000000 0.000000 0.000000
# 4 0.000000 0.000000 0.000000 0.043259 0.000000 0.000000
# 5 0.000000 0.000000 0.000000 0.000000 0.031411 0.000000
# 6 0.000000 0.000000 0.000000 0.000000 0.000000 0.040952
#
#
# Mechanical properties :
#
#
# Convention : Reuss Voigt Hill
#
# Bulk Modulus (GPa) = 31.94696 54.55900 43.25298
# Shear Modulus (GPa) = 27.78623 33.02548 30.40585
#
# Velocity S-wave (km/s) = 3.41062 3.71829 3.56777
# Velocity P-wave (km/s) = 5.37438 6.42453 5.92278
#
# Compressibility (1/GPa) = 0.03130188
#
# Stress axis : x y z
#
# Youngs Moduli (GPa) = 142.91293 40.30957 92.67651
#
# Poissons Ratio (x) = 0.01335 0.35356
# Poissons Ratio (y) = 0.04734 0.13907
# Poissons Ratio (z) = 0.54520 0.06049
#
# Static dielectric constant tensor:
#      x y z
#    x 4.722790 0.000000 0.000000 
#    y 0.000000 4.118510 0.000000 
#    z 0.000000 0.000000 4.536060 
# 
# 
# High freq. dielectric constant tensor:
#      x y z
#    x 1.954750 0.000000 0.000000 
#    y 0.000000 1.943520 0.000000 
#    z 0.000000 0.000000 1.929150 
# 
# From -- ./inp_files/3526.got.cif
#   From: 2010.03.12/outbox.cif.g09.slc.cpg/sg19_2_cif.got.tgz:3526.got - 2010.04.10 18:59:41.
