data_PCOD8156376
_publ_section_title
;
Structure prediction by ZEFSAII (Michael W. Deem and Ramdas Pophale) SiO2 
 PCOD8156376
Probable space group: P 21 21 2
;
_chemical_formula_sum "Si O2"
_cell_formula_units_Z 30
_cell_length_a 6.451068
_cell_length_b 18.988910
_cell_length_c 10.921764
_cell_angle_alpha 90.000000
_cell_angle_beta 90.000000
_cell_angle_gamma 90.000000
_cell_volume 1337.902434
_symmetry_space_group_name_H-M "P 21 21 2"
_symmetry_group_IT_number 18
_symmetry_cell_setting 'orthorhombic'
loop_
_space_group_symop_operation_xyz
x,y,z
-x,-y,z
1/2+x,1/2-y,-z
1/2-x,1/2+y,-z
loop_
_atom_site_type_symbol
_atom_site_label
_atom_site_fract_x
_atom_site_fract_y
_atom_site_fract_z
Si Si1 0.391301 0.732230 0.362253
Si Si2 0.500000 0.000000 0.358837
Si Si3 0.102236 0.432640 0.872487
Si Si4 0.944329 0.078572 0.940945
Si Si5 0.944567 0.363849 0.490971
Si Si6 0.771753 0.643354 0.275454
Si Si7 0.575415 0.756209 0.847020
Si Si8 0.240284 0.668722 0.938207
O O1 0.430764 0.802876 0.438352
O O2 0.611805 0.702530 0.320688
O O3 0.265389 0.671843 0.437663
O O4 0.263812 0.758429 0.244275
O O5 0.663794 0.039345 0.265233
O O6 0.392558 0.063603 0.435827
O O7 0.000000 0.500000 0.944058
O O8 0.929975 0.371858 0.859415
O O9 0.289298 0.399122 0.948947
O O10 0.849556 0.085839 0.805327
O O11 0.000000 0.000000 0.967252
O O12 0.154326 0.123036 0.953148
O O13 0.107346 0.391409 0.388671
O O14 0.950146 0.674313 0.189410
O O15 0.413320 0.691789 0.840051
O O16 0.646615 0.764213 0.988860
#
# Coordination Sequence:
#
# PCOD8156376 Si02
#       8
#     4   2   4   4   4   4   4   4
#     4  11  24  45  72 100 139 188 244 291 362 419
#     4  10  26  46  70  98 142 178 236 298 360 416
#     4  10  24  45  65  98 140 181 225 284 361 435
#     4  12  23  42  68  99 140 186 227 283 362 433
#     4  11  25  47  70 101 137 191 241 304 350 425
#     4  11  24  44  68  98 132 184 235 291 355 414
#     4  11  26  38  69 103 138 179 229 297 347 432
#     4  12  24  41  65 106 140 180 232 281 362 430
#
# _framework density 22.423157
#
# number of rings (size 3 to 8) (size 9 to 14) (size 15 to 20)
#    0.400    0.533    5.333    0.800    3.733    1.067 
#    1.200    2.667    0.000    0.000    0.000    0.000 
#    0.000    0.000    0.000    0.000    0.000    0.000 
#
# Total GULP energy -371782.735715 kJ/mol
# GULP energy per Si atom -12392.757857 kJ/mol
# Density = 2.237212 g / cm^3
# Si number density = 22.423157 Si / 1000 Ang^3
#
#
#
# Elastic Constant Matrix: (Units=GPa)
#
#
# Indices 1 2 3 4 5 6 
#
# 1 80.2607 19.8230 25.3041 0.0000 0.0000 0.0000
# 2 19.8230 69.4147 24.7930 0.0000 0.0000 0.0000
# 3 25.3041 24.7930 100.4238 0.0000 0.0000 0.0000
# 4 0.0000 0.0000 0.0000 35.2432 0.0000 0.0000
# 5 0.0000 0.0000 0.0000 0.0000 31.1788 0.0000
# 6 0.0000 0.0000 0.0000 0.0000 0.0000 31.3673
#
#
#
# Elastic Compliance Matrix: (Units=1/GPa)
#
#
# Indices 1 2 3 4 5 6 
#
# 1 0.014090 -0.003022 -0.002804 0.000000 0.000000 0.000000
# 2 -0.003022 0.016448 -0.003299 0.000000 0.000000 0.000000
# 3 -0.002804 -0.003299 0.011479 0.000000 0.000000 0.000000
# 4 0.000000 0.000000 0.000000 0.028374 0.000000 0.000000
# 5 0.000000 0.000000 0.000000 0.000000 0.032073 0.000000
# 6 0.000000 0.000000 0.000000 0.000000 0.000000 0.031880
#
#
# Mechanical properties :
#
#
# Convention : Reuss Voigt Hill
#
# Bulk Modulus (GPa) = 42.07785 43.32659 42.70222
# Shear Modulus (GPa) = 31.14941 31.56981 31.35961
#
# Velocity S-wave (km/s) = 3.73119 3.75628 3.74376
# Velocity P-wave (km/s) = 6.11298 6.17876 6.14596
#
# Compressibility (1/GPa) = 0.02376547
#
# Stress axis : x y z
#
# Youngs Moduli (GPa) = 70.97283 60.79927 87.11657
#
# Poissons Ratio (x) = 0.18374 0.24429
# Poissons Ratio (y) = 0.21449 0.28741
# Poissons Ratio (z) = 0.19902 0.20058
#
# Static dielectric constant tensor:
#      x y z
#    x 4.240300 0.000000 0.000000 
#    y 0.000000 3.880030 0.000000 
#    z 0.000000 0.000000 4.110600 
# 
# 
# High freq. dielectric constant tensor:
#      x y z
#    x 1.881640 0.000000 0.000000 
#    y 0.000000 1.879840 0.000000 
#    z 0.000000 0.000000 1.880740 
# 
# From -- ./inp_files/5230.got.cif
#   From: 2010.03.12/outbox.cif.g09.slc.cpg/sg18_3_cif.got.tgz:5230.got - 2010.04.10 18:53:55.
