data_PCOD8156126
_publ_section_title
;
Structure prediction by ZEFSAII (Michael W. Deem and Ramdas Pophale) SiO2 
 PCOD8156126
Probable space group: P 21 21 2
;
_chemical_formula_sum "Si O2"
_cell_formula_units_Z 30
_cell_length_a 17.026898
_cell_length_b 16.507508
_cell_length_c 5.036151
_cell_angle_alpha 90.000000
_cell_angle_beta 90.000000
_cell_angle_gamma 90.000000
_cell_volume 1415.519296
_symmetry_space_group_name_H-M "P 21 21 2"
_symmetry_group_IT_number 18
_symmetry_cell_setting 'orthorhombic'
loop_
_space_group_symop_operation_xyz
x,y,z
-x,-y,z
1/2+x,1/2-y,-z
1/2-x,1/2+y,-z
loop_
_atom_site_type_symbol
_atom_site_label
_atom_site_fract_x
_atom_site_fract_y
_atom_site_fract_z
Si Si1 0.040412 0.640699 0.162569
Si Si2 0.722787 0.349673 0.712712
Si Si3 0.468791 0.252408 0.336149
Si Si4 0.281187 0.866221 0.216360
Si Si5 0.863724 0.803783 0.782613
Si Si6 0.694045 0.679547 0.275498
Si Si7 0.642723 0.967209 0.162380
Si Si8 0.500000 0.000000 0.541870
O O1 0.974152 0.576435 0.268083
O O2 0.050944 0.710349 0.382004
O O3 0.116565 0.581782 0.105577
O O4 0.020455 0.683402 0.886947
O O5 0.684729 0.356868 0.425085
O O6 0.778173 0.271996 0.729540
O O7 0.777112 0.427817 0.735011
O O8 0.652840 0.344280 0.931304
O O9 0.546829 0.306389 0.318892
O O10 0.399769 0.317329 0.296297
O O11 0.337509 0.789113 0.214628
O O12 0.237535 0.873481 0.499302
O O13 0.337645 0.938908 0.128275
O O14 0.211737 0.861204 0.004220
O O15 0.571063 0.963619 0.370817
#
# Coordination Sequence:
#
# PCOD8156126 Si02
#       8
#     4   4   4   4   4   4   4   2
#     4  12  25  37  64  94 129 171 201 257 326 395
#     4  10  22  40  64  87 126 171 215 258 316 392
#     4  12  23  42  68  91 125 167 224 274 312 370
#     4  10  24  37  62  90 129 166 205 261 324 391
#     4  10  23  41  62  93 122 167 218 265 315 374
#     4  10  21  41  61  89 120 169 220 261 315 376
#     4  12  26  43  64  95 141 171 212 259 332 400
#     4  12  26  40  58  96 136 168 202 246 316 412
#
# _framework density 21.193636000000001
#
# number of rings (size 3 to 8) (size 9 to 14) (size 15 to 20)
#    0.000    1.067    2.667    2.800    9.333    1.067 
#    0.000    0.000    0.000    4.800    0.000    0.000 
#    0.000    0.000    0.000    0.000    0.000    0.000 
#
# Total GULP energy -371835.940770 kJ/mol
# GULP energy per Si atom -12394.531359 kJ/mol
# Density = 2.114540 g / cm^3
# Si number density = 21.193636 Si / 1000 Ang^3
#
#
#
# Elastic Constant Matrix: (Units=GPa)
#
#
# Indices 1 2 3 4 5 6 
#
# 1 98.6458 15.6838 17.7372 0.0000 0.0000 0.0000
# 2 15.6838 24.5772 10.3535 0.0000 0.0000 0.0000
# 3 17.7372 10.3535 92.0286 0.0000 0.0000 0.0000
# 4 0.0000 0.0000 0.0000 23.6657 0.0000 0.0000
# 5 0.0000 0.0000 0.0000 0.0000 20.5331 0.0000
# 6 0.0000 0.0000 0.0000 0.0000 0.0000 29.2088
#
#
#
# Elastic Compliance Matrix: (Units=1/GPa)
#
#
# Indices 1 2 3 4 5 6 
#
# 1 0.011465 -0.006703 -0.001456 0.000000 0.000000 0.000000
# 2 -0.006703 0.046631 -0.003954 0.000000 0.000000 0.000000
# 3 -0.001456 -0.003954 0.011592 0.000000 0.000000 0.000000
# 4 0.000000 0.000000 0.000000 0.042255 0.000000 0.000000
# 5 0.000000 0.000000 0.000000 0.000000 0.048702 0.000000
# 6 0.000000 0.000000 0.000000 0.000000 0.000000 0.034236
#
#
# Mechanical properties :
#
#
# Convention : Reuss Voigt Hill
#
# Bulk Modulus (GPa) = 21.99634 33.64452 27.82043
# Shear Modulus (GPa) = 21.34375 26.11333 23.72854
#
# Velocity S-wave (km/s) = 3.17690 3.51398 3.34968
# Velocity P-wave (km/s) = 4.88449 5.68976 5.30243
#
# Compressibility (1/GPa) = 0.04546211
#
# Stress axis : x y z
#
# Youngs Moduli (GPa) = 87.22425 21.44479 86.26946
#
# Poissons Ratio (x) = 0.14374 0.12557
# Poissons Ratio (y) = 0.58466 0.34113
# Poissons Ratio (z) = 0.12696 0.08480
#
# Static dielectric constant tensor:
#      x y z
#    x 3.754820 0.000000 0.000000 
#    y 0.000000 3.620940 0.000000 
#    z 0.000000 0.000000 4.157540 
# 
# 
# High freq. dielectric constant tensor:
#      x y z
#    x 1.818560 0.000000 0.000000 
#    y 0.000000 1.800710 0.000000 
#    z 0.000000 0.000000 1.850990 
# 
# From -- ./inp_files/1627.got.cif
#   From: 2010.03.12/outbox.cif.g09.slc.cpg/sg18_1_cif.got.tgz:1627.got - 2010.04.10 18:53:55.
