data_PCOD8156908
_publ_section_title
;
Structure prediction by ZEFSAII (Michael W. Deem and Ramdas Pophale) SiO2 
 PCOD8156908
Probable space group: P 21 21 21
;
_chemical_formula_sum "Si O2"
_cell_formula_units_Z 32
_cell_length_a 11.484975
_cell_length_b 8.972060
_cell_length_c 14.332824
_cell_angle_alpha 90.000000
_cell_angle_beta 90.000000
_cell_angle_gamma 90.000000
_cell_volume 1476.909865
_symmetry_space_group_name_H-M "P 21 21 21"
_symmetry_group_IT_number 19
_symmetry_cell_setting 'orthorhombic'
loop_
_space_group_symop_operation_xyz
x,y,z
1/2-x,-y,1/2+z
1/2+x,1/2-y,-z
-x,1/2+y,1/2-z
loop_
_atom_site_type_symbol
_atom_site_label
_atom_site_fract_x
_atom_site_fract_y
_atom_site_fract_z
Si Si1 0.141337 0.152237 0.154769
Si Si2 0.286452 0.435486 0.409424
Si Si3 0.486734 0.566169 0.943625
Si Si4 0.946400 0.213849 0.290422
Si Si5 0.894955 0.378865 0.633459
Si Si6 0.115891 0.384315 0.737623
Si Si7 0.244895 0.094715 0.762464
Si Si8 0.800329 0.978250 0.384291
O O1 0.199007 0.299884 0.114161
O O2 0.073592 0.192388 0.249588
O O3 0.239181 0.030896 0.181718
O O4 0.049171 0.089563 0.080509
O O5 0.147493 0.450270 0.416051
O O6 0.322672 0.272802 0.373981
O O7 0.341626 0.554180 0.337775
O O8 0.333997 0.465180 0.512922
O O9 0.546105 0.699515 0.887268
O O10 0.513390 0.600827 0.050455
O O11 0.864773 0.312518 0.220540
O O12 0.891162 0.050956 0.310527
O O13 0.800024 0.512539 0.643044
O O14 0.975695 0.386658 0.726727
O O15 0.149269 0.211004 0.726525
O O16 0.172703 0.474734 0.651086
#
# Coordination Sequence:
#
# PCOD8156908 Si02
#       8
#     4   4   4   4   4   4   4   4
#     4  11  23  41  68  99 132 178 227 282 342 407
#     4  12  25  44  70  99 139 186 229 288 348 414
#     4  11  23  41  67  97 131 179 230 281 341 412
#     4  10  20  42  66  95 129 173 228 279 338 405
#     4  12  24  44  67  98 138 180 225 285 349 407
#     4  11  24  45  68  96 139 181 230 279 344 416
#     4  10  23  40  67  95 128 174 219 278 338 403
#     4  11  22  41  67  99 134 175 232 284 340 418
#
# _framework density 21.666861000000001
#
# number of rings (size 3 to 8) (size 9 to 14) (size 15 to 20)
#    0.000    1.000    2.500    6.000    1.750    0.000 
#    0.000    1.250    0.000    0.000    0.000    0.000 
#    0.000    0.000    0.000    0.000    0.000    0.000 
#
# Total GULP energy -396731.108037 kJ/mol
# GULP energy per Si atom -12397.847126 kJ/mol
# Density = 2.161755 g / cm^3
# Si number density = 21.666861 Si / 1000 Ang^3
#
#
#
# Elastic Constant Matrix: (Units=GPa)
#
#
# Indices 1 2 3 4 5 6 
#
# 1 84.8471 43.5615 39.2377 0.0000 0.0000 0.0000
# 2 43.5615 154.9575 29.7841 0.0000 0.0000 0.0000
# 3 39.2377 29.7841 79.1930 0.0000 0.0000 0.0000
# 4 0.0000 0.0000 0.0000 30.0459 0.0000 0.0000
# 5 0.0000 0.0000 0.0000 0.0000 33.0540 0.0000
# 6 0.0000 0.0000 0.0000 0.0000 0.0000 25.7690
#
#
#
# Elastic Compliance Matrix: (Units=1/GPa)
#
#
# Indices 1 2 3 4 5 6 
#
# 1 0.016769 -0.003360 -0.007045 0.000000 0.000000 0.000000
# 2 -0.003360 0.007629 -0.001205 0.000000 0.000000 0.000000
# 3 -0.007045 -0.001205 0.016571 0.000000 0.000000 0.000000
# 4 0.000000 0.000000 0.000000 0.033282 0.000000 0.000000
# 5 0.000000 0.000000 0.000000 0.000000 0.030254 0.000000
# 6 0.000000 0.000000 0.000000 0.000000 0.000000 0.038806
#
#
# Mechanical properties :
#
#
# Convention : Reuss Voigt Hill
#
# Bulk Modulus (GPa) = 56.33665 60.46270 58.39967
# Shear Modulus (GPa) = 28.99442 31.53474 30.26458
#
# Velocity S-wave (km/s) = 3.66210 3.81916 3.74145
# Velocity P-wave (km/s) = 6.62865 6.88579 6.75845
#
# Compressibility (1/GPa) = 0.01775044
#
# Stress axis : x y z
#
# Youngs Moduli (GPa) = 59.63451 131.07059 60.34673
#
# Poissons Ratio (x) = 0.44039 0.42513
# Poissons Ratio (y) = 0.20037 0.07270
# Poissons Ratio (z) = 0.42011 0.15789
#
# Static dielectric constant tensor:
#      x y z
#    x 3.859770 0.000000 0.000000 
#    y 0.000000 4.074740 0.000000 
#    z 0.000000 0.000000 3.775220 
# 
# 
# High freq. dielectric constant tensor:
#      x y z
#    x 1.853200 0.000000 0.000000 
#    y 0.000000 1.864900 0.000000 
#    z 0.000000 0.000000 1.832840 
# 
# From -- ./inp_files/6178.got.cif
#   From: 2010.03.12/outbox.cif.g09.slc.cpg/sg19_4_cif.got.tgz:6178.got - 2010.04.10 18:59:41.
