data_PCOD8156262
_publ_section_title
;
Structure prediction by ZEFSAII (Michael W. Deem and Ramdas Pophale) SiO2 
 PCOD8156262
Probable space group: P 21 21 2
;
_chemical_formula_sum "Si O2"
_cell_formula_units_Z 18
_cell_length_a 7.672107
_cell_length_b 5.046274
_cell_length_c 20.044562
_cell_angle_alpha 90.000000
_cell_angle_beta 90.000000
_cell_angle_gamma 90.000000
_cell_volume 776.036324
_symmetry_space_group_name_H-M "P 21 21 2"
_symmetry_group_IT_number 18
_symmetry_cell_setting 'orthorhombic'
loop_
_space_group_symop_operation_xyz
x,y,z
-x,-y,z
1/2+x,1/2-y,-z
1/2-x,1/2+y,-z
loop_
_atom_site_type_symbol
_atom_site_label
_atom_site_fract_x
_atom_site_fract_y
_atom_site_fract_z
Si Si1 0.646539 0.171771 0.985752
Si Si2 0.500000 0.500000 0.871541
Si Si3 0.790326 0.509203 0.765946
Si Si4 0.196962 0.991394 0.689471
Si Si5 0.699928 0.024046 0.541753
O O1 0.556235 0.245862 0.915505
O O2 0.500000 0.000000 0.027189
O O3 0.697181 0.452031 0.021477
O O4 0.675398 0.574684 0.830992
O O5 0.716781 0.237703 0.734226
O O6 0.000000 0.500000 0.781231
O O7 0.730575 0.722581 0.709875
O O8 0.205007 0.924923 0.611302
O O9 0.000000 0.000000 0.711971
O O10 0.773888 0.759440 0.509662
O O11 0.500000 0.000000 0.559546
#
# Coordination Sequence:
#
# PCOD8156262 Si02
#       5
#     4   2   4   4   4
#     4  12  26  50  75 110 150 196 247 308 374 443
#     4  12  28  46  84 106 152 196 254 300 372 464
#     4  10  25  44  69 106 143 187 241 305 370 438
#     4  10  22  43  67  96 140 184 237 307 369 433
#     4  12  25  41  67 100 140 192 246 305 367 438
#
# _framework density 23.194790000000001
#
# number of rings (size 3 to 8) (size 9 to 14) (size 15 to 20)
#    0.000    0.889    2.222    3.333    6.222    2.667 
#    4.000    0.000    0.000    0.000    0.000    0.000 
#    0.000    0.000    0.000    0.000    0.000    0.000 
#
# Total GULP energy -223004.160696 kJ/mol
# GULP energy per Si atom -12389.120039 kJ/mol
# Density = 2.314200 g / cm^3
# Si number density = 23.194790 Si / 1000 Ang^3
#
#
#
# Elastic Constant Matrix: (Units=GPa)
#
#
# Indices 1 2 3 4 5 6 
#
# 1 83.2130 38.3723 45.4946 0.0000 0.0000 0.0000
# 2 38.3723 166.7088 57.2722 0.0000 0.0000 0.0000
# 3 45.4946 57.2722 116.8871 0.0000 0.0000 0.0000
# 4 0.0000 0.0000 0.0000 29.3770 0.0000 0.0000
# 5 0.0000 0.0000 0.0000 0.0000 40.0738 0.0000
# 6 0.0000 0.0000 0.0000 0.0000 0.0000 36.7439
#
#
#
# Elastic Compliance Matrix: (Units=1/GPa)
#
#
# Indices 1 2 3 4 5 6 
#
# 1 0.015713 -0.001823 -0.005223 0.000000 0.000000 0.000000
# 2 -0.001823 0.007424 -0.002928 0.000000 0.000000 0.000000
# 3 -0.005223 -0.002928 0.012023 0.000000 0.000000 0.000000
# 4 0.000000 0.000000 0.000000 0.034040 0.000000 0.000000
# 5 0.000000 0.000000 0.000000 0.000000 0.024954 0.000000
# 6 0.000000 0.000000 0.000000 0.000000 0.000000 0.027215
#
#
# Mechanical properties :
#
#
# Convention : Reuss Voigt Hill
#
# Bulk Modulus (GPa) = 65.73394 72.12077 68.92736
# Shear Modulus (GPa) = 34.15583 36.28359 35.21971
#
# Velocity S-wave (km/s) = 3.84156 3.95941 3.90093
# Velocity P-wave (km/s) = 6.93385 7.21551 7.07608
#
# Compressibility (1/GPa) = 0.01521284
#
# Stress axis : x y z
#
# Youngs Moduli (GPa) = 63.64050 134.69896 83.17477
#
# Poissons Ratio (x) = 0.24549 0.43441
# Poissons Ratio (y) = 0.11599 0.24355
# Poissons Ratio (z) = 0.33239 0.39443
#
# Static dielectric constant tensor:
#      x y z
#    x 4.454370 0.000000 0.000000 
#    y 0.000000 4.847220 0.000000 
#    z 0.000000 0.000000 3.824630 
# 
# 
# High freq. dielectric constant tensor:
#      x y z
#    x 1.927400 0.000000 0.000000 
#    y 0.000000 1.942030 0.000000 
#    z 0.000000 0.000000 1.893720 
# 
# From -- ./inp_files/7258.got.cif
#   From: 2010.03.12/outbox.cif.g09.slc.cpg/sg18_4_cif.got.tgz:7258.got - 2010.04.10 18:53:55.
