data_PCOD8156714
_publ_section_title
;
Structure prediction by ZEFSAII (Michael W. Deem and Ramdas Pophale) SiO2 
 PCOD8156714
Probable space group: P 21 21 21
;
_chemical_formula_sum "Si O2"
_cell_formula_units_Z 32
_cell_length_a 10.104592
_cell_length_b 22.932416
_cell_length_c 6.155108
_cell_angle_alpha 90.000000
_cell_angle_beta 90.000000
_cell_angle_gamma 90.000000
_cell_volume 1426.278289
_symmetry_space_group_name_H-M "P 21 21 21"
_symmetry_group_IT_number 19
_symmetry_cell_setting 'orthorhombic'
loop_
_space_group_symop_operation_xyz
x,y,z
1/2-x,-y,1/2+z
1/2+x,1/2-y,-z
-x,1/2+y,1/2-z
loop_
_atom_site_type_symbol
_atom_site_label
_atom_site_fract_x
_atom_site_fract_y
_atom_site_fract_z
Si Si1 0.198455 0.621414 0.354290
Si Si2 0.981856 0.917700 0.567078
Si Si3 0.779073 0.412062 0.628881
Si Si4 0.632885 0.662185 0.750020
Si Si5 0.948208 0.219870 0.377816
Si Si6 0.657619 0.322160 0.928244
Si Si7 0.003195 0.541058 0.102920
Si Si8 0.541946 0.867089 0.255767
O O1 0.347917 0.600915 0.309047
O O2 0.171332 0.680070 0.215728
O O3 0.181794 0.634175 0.613885
O O4 0.093882 0.570756 0.286661
O O5 0.090534 0.936310 0.749437
O O6 0.025237 0.864048 0.414763
O O7 0.954698 0.974059 0.417983
O O8 0.808247 0.393405 0.379839
O O9 0.655579 0.456562 0.649317
O O10 0.739375 0.352371 0.740426
O O11 0.581710 0.711821 0.916580
O O12 0.739299 0.700114 0.609079
O O13 0.985192 0.190610 0.608455
O O14 0.066396 0.224042 0.198330
O O15 0.565709 0.368837 0.052290
O O16 0.032091 0.574118 0.878674
#
# Coordination Sequence:
#
# PCOD8156714 Si02
#       8
#     4   4   4   4   4   4   4   4
#     4  10  24  47  66 103 135 180 237 277 347 404
#     4  11  29  42  67 106 144 175 228 299 336 409
#     4  11  23  45  65 102 138 175 232 274 349 416
#     4  11  25  42  66 100 142 177 226 293 350 402
#     4  10  22  41  70  97 132 183 228 282 343 419
#     4  10  19  42  65  96 125 174 231 273 338 409
#     4  11  23  44  72  98 133 192 227 276 344 422
#     4  10  19  41  71  92 127 176 235 268 339 409
#
# _framework density 22.436014
#
# number of rings (size 3 to 8) (size 9 to 14) (size 15 to 20)
#    0.000    1.500    5.000    0.000    5.250    7.000 
#    4.500    0.000    0.000    0.000    0.000    0.000 
#    0.000    0.000    0.000    0.000    0.000    0.000 
#
# Total GULP energy -396492.792652 kJ/mol
# GULP energy per Si atom -12390.399770 kJ/mol
# Density = 2.238495 g / cm^3
# Si number density = 22.436014 Si / 1000 Ang^3
#
#
#
# Elastic Constant Matrix: (Units=GPa)
#
#
# Indices 1 2 3 4 5 6 
#
# 1 113.4442 17.6795 28.5133 0.0000 0.0000 0.0000
# 2 17.6795 83.0471 2.3189 0.0000 0.0000 0.0000
# 3 28.5133 2.3189 82.1966 0.0000 0.0000 0.0000
# 4 0.0000 0.0000 0.0000 16.0613 0.0000 0.0000
# 5 0.0000 0.0000 0.0000 0.0000 31.8935 0.0000
# 6 0.0000 0.0000 0.0000 0.0000 0.0000 18.0950
#
#
#
# Elastic Compliance Matrix: (Units=1/GPa)
#
#
# Indices 1 2 3 4 5 6 
#
# 1 0.009988 -0.002031 -0.003407 0.000000 0.000000 0.000000
# 2 -0.002031 0.012464 0.000353 0.000000 0.000000 0.000000
# 3 -0.003407 0.000353 0.013338 0.000000 0.000000 0.000000
# 4 0.000000 0.000000 0.000000 0.062261 0.000000 0.000000
# 5 0.000000 0.000000 0.000000 0.000000 0.031354 0.000000
# 6 0.000000 0.000000 0.000000 0.000000 0.000000 0.055264
#
#
# Mechanical properties :
#
#
# Convention : Reuss Voigt Hill
#
# Bulk Modulus (GPa) = 39.03413 41.74570 40.38991
# Shear Modulus (GPa) = 24.58448 28.55502 26.56975
#
# Velocity S-wave (km/s) = 3.31382 3.57141 3.44502
# Velocity P-wave (km/s) = 5.66371 5.97106 5.81941
#
# Compressibility (1/GPa) = 0.02561861
#
# Stress axis : x y z
#
# Youngs Moduli (GPa) = 100.12143 80.23167 74.97380
#
# Poissons Ratio (x) = 0.16296 0.25547
# Poissons Ratio (y) = 0.20336 -0.02646
# Poissons Ratio (z) = 0.34115 -0.02832
#
# Static dielectric constant tensor:
#      x y z
#    x 4.233080 0.000000 0.000000 
#    y 0.000000 3.552190 0.000000 
#    z 0.000000 0.000000 4.241730 
# 
# 
# High freq. dielectric constant tensor:
#      x y z
#    x 1.882630 0.000000 0.000000 
#    y 0.000000 1.855620 0.000000 
#    z 0.000000 0.000000 1.891780 
# 
# From -- ./inp_files/1305.got.cif
#   From: 2010.03.12/outbox.cif.g09.slc.cpg/sg19_1_cif.got.tgz:1305.got - 2010.04.10 18:59:41.
