data_PCOD8156472
_publ_section_title
;
Structure prediction by ZEFSAII (Michael W. Deem and Ramdas Pophale) SiO2 
 PCOD8156472
Probable space group: P 21 21 2
;
_chemical_formula_sum "Si O2"
_cell_formula_units_Z 20
_cell_length_a 10.657057
_cell_length_b 12.471281
_cell_length_c 6.234727
_cell_angle_alpha 90.000000
_cell_angle_beta 90.000000
_cell_angle_gamma 90.000000
_cell_volume 828.639812
_symmetry_space_group_name_H-M "P 21 21 2"
_symmetry_group_IT_number 18
_symmetry_cell_setting 'orthorhombic'
loop_
_space_group_symop_operation_xyz
x,y,z
-x,-y,z
1/2+x,1/2-y,-z
1/2-x,1/2+y,-z
loop_
_atom_site_type_symbol
_atom_site_label
_atom_site_fract_x
_atom_site_fract_y
_atom_site_fract_z
Si Si1 0.166493 0.202760 0.885892
Si Si2 0.027306 0.889397 0.165740
Si Si3 0.121071 0.556706 0.278642
Si Si4 0.525607 0.765605 0.449895
Si Si5 0.776258 0.138290 0.827606
O O1 0.305580 0.151636 0.849054
O O2 0.108552 0.260376 0.672946
O O3 0.166140 0.284791 0.086663
O O4 0.069991 0.112327 0.964754
O O5 0.010287 0.790596 0.322202
O O6 0.163218 0.895258 0.055663
O O7 0.000000 0.000000 0.293860
O O8 0.067929 0.610867 0.499357
O O9 0.222369 0.461049 0.312185
O O10 0.000000 0.500000 0.160700
O O11 0.632709 0.706669 0.319312
#
# Coordination Sequence:
#
# PCOD8156472 Si02
#       5
#     4   4   4   4   4
#     4  11  26  49  72 105 159 196 251 322 376 459
#     4  11  23  43  74 107 141 205 245 305 392 451
#     4  12  27  48  75 114 147 200 262 311 380 466
#     4  11  28  48  76 110 155 203 255 316 388 459
#     4  11  26  49  75 107 152 199 251 319 383 454
#
# _framework density 24.135940000000002
#
# number of rings (size 3 to 8) (size 9 to 14) (size 15 to 20)
#    0.000    0.800    4.000    1.200   11.200    0.000 
#    3.600    0.000    0.000    0.000    0.000    0.000 
#    0.000    0.000    0.000    0.000    0.000    0.000 
#
# Total GULP energy -247767.425005 kJ/mol
# GULP energy per Si atom -12388.371250 kJ/mol
# Density = 2.408101 g / cm^3
# Si number density = 24.135940 Si / 1000 Ang^3
#
#
#
# Elastic Constant Matrix: (Units=GPa)
#
#
# Indices 1 2 3 4 5 6 
#
# 1 121.6477 53.6937 55.7581 0.0000 0.0000 0.0000
# 2 53.6937 139.1147 49.3167 0.0000 0.0000 0.0000
# 3 55.7581 49.3167 87.9693 0.0000 0.0000 0.0000
# 4 0.0000 0.0000 0.0000 24.5571 0.0000 0.0000
# 5 0.0000 0.0000 0.0000 0.0000 40.6253 0.0000
# 6 0.0000 0.0000 0.0000 0.0000 0.0000 47.7428
#
#
#
# Elastic Compliance Matrix: (Units=1/GPa)
#
#
# Indices 1 2 3 4 5 6 
#
# 1 0.012226 -0.002461 -0.006370 0.000000 0.000000 0.000000
# 2 -0.002461 0.009467 -0.003747 0.000000 0.000000 0.000000
# 3 -0.006370 -0.003747 0.017506 0.000000 0.000000 0.000000
# 4 0.000000 0.000000 0.000000 0.040721 0.000000 0.000000
# 5 0.000000 0.000000 0.000000 0.000000 0.024615 0.000000
# 6 0.000000 0.000000 0.000000 0.000000 0.000000 0.020946
#
#
# Mechanical properties :
#
#
# Convention : Reuss Voigt Hill
#
# Bulk Modulus (GPa) = 71.21158 74.02985 72.62071
# Shear Modulus (GPa) = 32.19204 35.24926 33.72065
#
# Velocity S-wave (km/s) = 3.65606 3.82573 3.74185
# Velocity P-wave (km/s) = 6.88410 7.08897 6.98728
#
# Compressibility (1/GPa) = 0.01404266
#
# Stress axis : x y z
#
# Youngs Moduli (GPa) = 81.79065 105.63519 57.12362
#
# Poissons Ratio (x) = 0.25995 0.36387
# Poissons Ratio (y) = 0.20127 0.21406
# Poissons Ratio (z) = 0.52100 0.39585
#
# Static dielectric constant tensor:
#      x y z
#    x 4.576690 0.000000 0.000000 
#    y 0.000000 4.524520 0.000000 
#    z 0.000000 0.000000 3.977000 
# 
# 
# High freq. dielectric constant tensor:
#      x y z
#    x 1.975570 0.000000 0.000000 
#    y 0.000000 1.969300 0.000000 
#    z 0.000000 0.000000 1.926080 
# 
# From -- ./inp_files/967.got.cif
#   From: 2010.03.12/outbox.cif.g09.slc.cpg/sg18_1_cif.got.tgz:967.got - 2010.04.10 18:53:55.
