data_PCOD8156612
_publ_section_title
;
Structure prediction by ZEFSAII (Michael W. Deem and Ramdas Pophale) SiO2 
 PCOD8156612
Probable space group: P 21 21 21
;
_chemical_formula_sum "Si O2"
_cell_formula_units_Z 28
_cell_length_a 12.411643
_cell_length_b 5.002564
_cell_length_c 21.898131
_cell_angle_alpha 90.000000
_cell_angle_beta 90.000000
_cell_angle_gamma 90.000000
_cell_volume 1359.655796
_symmetry_space_group_name_H-M "P 21 21 21"
_symmetry_group_IT_number 19
_symmetry_cell_setting 'orthorhombic'
loop_
_space_group_symop_operation_xyz
x,y,z
1/2-x,-y,1/2+z
1/2+x,1/2-y,-z
-x,1/2+y,1/2-z
loop_
_atom_site_type_symbol
_atom_site_label
_atom_site_fract_x
_atom_site_fract_y
_atom_site_fract_z
Si Si1 0.874398 0.022878 0.039265
Si Si2 0.000000 0.024164 0.286865
Si Si3 0.249190 0.969547 0.921273
Si Si4 0.250809 0.530454 0.078727
Si Si5 0.625602 0.477121 0.960735
Si Si6 0.265631 0.078876 0.791495
Si Si7 0.765631 0.921124 0.291496
O O1 0.807237 0.818271 0.081414
O O2 1.000000 0.987994 0.052572
O O3 0.837875 0.319934 0.055762
O O4 0.851130 0.962743 0.967819
O O5 1.000000 0.342368 0.275288
O O6 0.111609 0.940708 0.319010
O O7 0.888391 0.940706 0.319010
O O8 0.198792 0.037365 0.853987
O O9 0.148869 0.962744 0.967819
O O10 0.192763 0.818272 0.081414
O O11 0.301208 0.462636 0.146013
O O12 0.162125 0.319935 0.055762
O O13 0.241252 0.862495 0.739081
O O14 0.241252 0.362496 0.760919
#
# Coordination Sequence:
#
# PCOD8156612 Si02
#       7
#     4   4   4   4   4   4   4
#     4  10  21  36  56  78 104 138 177 223 260 301
#     4   8  16  26  38  62  92 124 158 182 232 296
#     4  10  21  36  54  80 105 138 179 211 264 316
#     4  10  21  36  54  80 105 138 179 211 264 316
#     4  10  21  36  56  78 104 138 177 223 260 301
#     4  10  19  32  48  72 104 137 165 208 257 311
#     4  10  19  32  48  72 104 137 165 208 257 311
#
# _framework density 20.593447999999999
#
# number of rings (size 3 to 8) (size 9 to 14) (size 15 to 20)
#    0.000    2.286    0.000    2.571    4.000    0.000 
#    5.143    0.000    0.000    1.714    0.000    0.000 
#    0.000    0.000    0.000    0.000    0.000    0.000 
#
# Total GULP energy -347025.363622 kJ/mol
# GULP energy per Si atom -12393.762986 kJ/mol
# Density = 2.054658 g / cm^3
# Si number density = 20.593448 Si / 1000 Ang^3
#
#
#
# Elastic Constant Matrix: (Units=GPa)
#
#
# Indices 1 2 3 4 5 6 
#
# 1 23.0371 1.5297 0.6527 0.0000 0.0000 0.0000
# 2 1.5297 72.6608 -13.7277 0.0000 0.0000 0.0000
# 3 0.6527 -13.7277 79.9866 0.0000 0.0000 0.0000
# 4 0.0000 0.0000 0.0000 23.4957 0.0000 0.0000
# 5 0.0000 0.0000 0.0000 0.0000 13.4452 0.0000
# 6 0.0000 0.0000 0.0000 0.0000 0.0000 16.3113
#
#
#
# Elastic Compliance Matrix: (Units=1/GPa)
#
#
# Indices 1 2 3 4 5 6 
#
# 1 0.043491 -0.001016 -0.000529 0.000000 0.000000 0.000000
# 2 -0.001016 0.014247 0.002454 0.000000 0.000000 0.000000
# 3 -0.000529 0.002454 0.012928 0.000000 0.000000 0.000000
# 4 0.000000 0.000000 0.000000 0.042561 0.000000 0.000000
# 5 0.000000 0.000000 0.000000 0.000000 0.074376 0.000000
# 6 0.000000 0.000000 0.000000 0.000000 0.000000 0.061307
#
#
# Mechanical properties :
#
#
# Convention : Reuss Voigt Hill
#
# Bulk Modulus (GPa) = 13.79633 16.95489 15.37561
# Shear Modulus (GPa) = 18.43293 23.13241 20.78267
#
# Velocity S-wave (km/s) = 2.99505 3.35519 3.18022
# Velocity P-wave (km/s) = 4.32138 4.82294 4.57903
#
# Compressibility (1/GPa) = 0.07248307
#
# Stress axis : x y z
#
# Youngs Moduli (GPa) = 22.99346 70.18776 77.35445
#
# Poissons Ratio (x) = 0.07128 0.04094
# Poissons Ratio (y) = 0.02335 -0.18979
# Poissons Ratio (z) = 0.01217 -0.17221
#
# Static dielectric constant tensor:
#      x y z
#    x 3.305560 0.000000 0.000000 
#    y 0.000000 3.838600 0.000000 
#    z 0.000000 0.000000 3.702700 
# 
# 
# High freq. dielectric constant tensor:
#      x y z
#    x 1.741310 0.000000 0.000000 
#    y 0.000000 1.826630 0.000000 
#    z 0.000000 0.000000 1.807540 
# 
# From -- ./inp_files/1937.got.cif
#   From: 2010.03.12/outbox.cif.g09.slc.cpg/sg19_1_cif.got.tgz:1937.got - 2010.04.10 18:59:41.
