data_PCOD8156539
_publ_section_title
;
Structure prediction by ZEFSAII (Michael W. Deem and Ramdas Pophale) SiO2 
 PCOD8156539
Probable space group: P 21 21 21
;
_chemical_formula_sum "Si O2"
_cell_formula_units_Z 32
_cell_length_a 30.545903
_cell_length_b 5.264161
_cell_length_c 8.337678
_cell_angle_alpha 90.000000
_cell_angle_beta 90.000000
_cell_angle_gamma 90.000000
_cell_volume 1340.686543
_symmetry_space_group_name_H-M "P 21 21 21"
_symmetry_group_IT_number 19
_symmetry_cell_setting 'orthorhombic'
loop_
_space_group_symop_operation_xyz
x,y,z
1/2-x,-y,1/2+z
1/2+x,1/2-y,-z
-x,1/2+y,1/2-z
loop_
_atom_site_type_symbol
_atom_site_label
_atom_site_fract_x
_atom_site_fract_y
_atom_site_fract_z
Si Si1 0.358505 0.499998 0.517100
Si Si2 0.281112 0.999998 0.830103
Si Si3 0.992762 0.500008 0.583964
Si Si4 0.076857 0.500008 0.420070
Si Si5 0.671871 0.999997 0.618907
Si Si6 0.039096 0.000009 0.283934
Si Si7 0.188592 0.000002 0.964426
Si Si8 0.539941 0.999993 0.034565
O O1 0.342627 0.499997 0.697738
O O2 0.340656 0.751428 0.428818
O O3 0.410678 0.499996 0.520801
O O4 0.340656 0.248568 0.428818
O O5 0.299812 0.249757 0.919696
O O6 0.299812 0.750239 0.919696
O O7 0.293141 0.999998 0.644281
O O8 0.228804 0.999999 0.841370
O O9 0.974739 0.500010 0.399608
O O10 0.971978 0.238031 0.653337
O O11 0.045544 0.500007 0.576860
O O12 0.971978 0.761986 0.653338
O O13 0.126918 0.500006 0.484107
O O14 0.068848 0.245953 0.316033
O O15 0.068848 0.754066 0.316035
O O16 0.994050 0.000010 0.385241
#
# Coordination Sequence:
#
# PCOD8156539 Si02
#       8
#     4   4   4   4   4   4   4   4
#     4  10  18  29  46  66  90 121 158 192 226 276
#     4  10  21  35  51  70  92 121 154 193 240 281
#     4  10  16  22  33  51  82 119 150 178 213 257
#     4  10  17  24  35  55  82 117 154 181 210 260
#     4  10  18  29  46  66  90 121 158 192 226 276
#     4  10  16  22  33  51  82 119 150 178 213 257
#     4  10  21  35  51  70  92 121 154 193 240 281
#     4  10  17  24  35  55  82 117 154 181 210 260
#
# _framework density 23.868366000000002
#
# number of rings (size 3 to 8) (size 9 to 14) (size 15 to 20)
#    0.000    2.000    0.000    8.250    0.000    2.000 
#    0.000    0.000    0.000    0.000    0.000    0.000 
#    0.000    0.000    0.000   90.000    0.000   80.000 
#
# Total GULP energy -396686.934051 kJ/mol
# GULP energy per Si atom -12396.466689 kJ/mol
# Density = 2.381404 g / cm^3
# Si number density = 23.868366 Si / 1000 Ang^3
#
#
#
# Elastic Constant Matrix: (Units=GPa)
#
#
# Indices 1 2 3 4 5 6 
#
# 1 137.6665 52.5105 10.5413 0.0000 0.0000 0.0000
# 2 52.5105 219.0818 -1.9207 0.0000 0.0000 0.0000
# 3 10.5413 -1.9207 27.0134 0.0000 0.0000 0.0000
# 4 0.0000 0.0000 0.0000********** 0.0000 0.0000
# 5 0.0000 0.0000 0.0000 0.0000 23.1642 0.0000
# 6 0.0000 0.0000 0.0000 0.0000 0.0000 45.8158
#
#
#
# Elastic Compliance Matrix: (Units=1/GPa)
#
#
# Indices 1 2 3 4 5 6 
#
# 1 0.008292 -0.002017 -0.003379 0.000000 0.000000 0.000000
# 2 -0.002017 0.005058 0.001147 0.000000 0.000000 0.000000
# 3 -0.003379 0.001147 0.038419 0.000000 0.000000 0.000000
# 4 0.000000 0.000000 0.000000 -0.000066 0.000000 0.000000
# 5 0.000000 0.000000 0.000000 0.000000 0.043170 0.000000
# 6 0.000000 0.000000 0.000000 0.000000 0.000000 0.021827
#
#
# Mechanical properties :
#
#
# Convention : Reuss Voigt Hill
#
# Bulk Modulus (GPa) = 23.11078 56.22489 39.66783
# Shear Modulus (GPa) = 35.81090 -3017.29920 -1490.74415
#
# Velocity S-wave (km/s) = 3.87764 -35.59334 -25.01849
# Velocity P-wave (km/s) = 5.45451 40.81144 28.59914
#
# Compressibility (1/GPa) = 0.04326985
#
# Stress axis : x y z
#
# Youngs Moduli (GPa) = 120.59718 197.70550 26.02891
#
# Poissons Ratio (x) = 0.39879 0.08796
# Poissons Ratio (y) = 0.24326 -0.02985
# Poissons Ratio (z) = 0.40752 -0.22672
#
# Static dielectric constant tensor:
#      x y z
#    x 4.382860 0.000000 0.000000 
#    y 0.000000 7.003710 0.000000 
#    z 0.000000 0.000000 3.790060 
# 
# 
# High freq. dielectric constant tensor:
#      x y z
#    x 1.945750 0.000000 0.000000 
#    y 0.000000 1.987240 0.000000 
#    z 0.000000 0.000000 1.903470 
# 
# From -- ./inp_files/5607.got.cif
#   From: 2010.03.12/outbox.cif.g09.slc.cpg/sg19_3_cif.got.tgz:5607.got - 2010.04.10 18:59:41.
