data_PCOD8156696
_publ_section_title
;
Structure prediction by ZEFSAII (Michael W. Deem and Ramdas Pophale) SiO2 
 PCOD8156696
Probable space group: P 21 21 21
;
_chemical_formula_sum "Si O2"
_cell_formula_units_Z 28
_cell_length_a 10.941677
_cell_length_b 8.509712
_cell_length_c 15.472067
_cell_angle_alpha 90.000000
_cell_angle_beta 90.000000
_cell_angle_gamma 90.000000
_cell_volume 1440.612205
_symmetry_space_group_name_H-M "P 21 21 21"
_symmetry_group_IT_number 19
_symmetry_cell_setting 'orthorhombic'
loop_
_space_group_symop_operation_xyz
x,y,z
1/2-x,-y,1/2+z
1/2+x,1/2-y,-z
-x,1/2+y,1/2-z
loop_
_atom_site_type_symbol
_atom_site_label
_atom_site_fract_x
_atom_site_fract_y
_atom_site_fract_z
Si Si1 0.795160 0.659673 0.314760
Si Si2 0.111445 0.806597 0.541171
Si Si3 0.081773 0.419995 0.824599
Si Si4 0.995775 0.543930 0.425529
Si Si5 0.784788 0.460716 0.549654
Si Si6 0.631892 0.414274 0.230531
Si Si7 0.709371 0.155426 0.638572
O O1 0.714102 0.742960 0.388978
O O2 0.934098 0.641610 0.347186
O O3 0.736474 0.488476 0.291871
O O4 0.795303 0.770528 0.232851
O O5 0.991175 0.864448 0.590732
O O6 0.078412 0.655512 0.484668
O O7 0.164627 0.942048 0.478624
O O8 0.131136 0.274646 0.766770
O O9 0.195299 0.514172 0.862085
O O10 0.000599 0.527233 0.761779
O O11 0.885327 0.459860 0.475123
O O12 0.076756 0.407434 0.385229
O O13 0.847694 0.535859 0.632607
O O14 0.746304 0.282278 0.566793
#
# Coordination Sequence:
#
# PCOD8156696 Si02
#       7
#     4   4   4   4   4   4   4
#     4   9  23  43  59  91 127 165 213 258 310 386
#     4  10  21  40  65  89 124 167 208 264 315 368
#     4  11  21  38  64  94 118 172 213 257 315 374
#     4  11  23  41  65  89 128 168 205 263 323 363
#     4  10  22  40  60  91 128 157 209 267 308 372
#     4  10  19  39  63  86 124 163 212 259 305 373
#     4  11  25  39  62  94 127 166 214 254 316 380
#
# _framework density 19.436178999999999
#
# number of rings (size 3 to 8) (size 9 to 14) (size 15 to 20)
#    0.000    1.714    1.429    3.429    4.000    3.429 
#    2.571    1.429    0.000    0.000    0.000    0.000 
#    0.000    0.000    0.000    0.000    0.000    0.000 
#
# Total GULP energy -347278.788190 kJ/mol
# GULP energy per Si atom -12402.813864 kJ/mol
# Density = 1.939194 g / cm^3
# Si number density = 19.436179 Si / 1000 Ang^3
#
#
#
# Elastic Constant Matrix: (Units=GPa)
#
#
# Indices 1 2 3 4 5 6 
#
# 1 99.5528 45.5262 29.1792 0.0000 0.0000 0.0000
# 2 45.5262 99.1764 15.0024 0.0000 0.0000 0.0000
# 3 29.1792 15.0024 56.1319 0.0000 0.0000 0.0000
# 4 0.0000 0.0000 0.0000 30.5504 0.0000 0.0000
# 5 0.0000 0.0000 0.0000 0.0000 26.8768 0.0000
# 6 0.0000 0.0000 0.0000 0.0000 0.0000 28.9768
#
#
#
# Elastic Compliance Matrix: (Units=1/GPa)
#
#
# Indices 1 2 3 4 5 6 
#
# 1 0.014403 -0.005710 -0.005961 0.000000 0.000000 0.000000
# 2 -0.005710 0.012772 -0.000445 0.000000 0.000000 0.000000
# 3 -0.005961 -0.000445 0.021033 0.000000 0.000000 0.000000
# 4 0.000000 0.000000 0.000000 0.032733 0.000000 0.000000
# 5 0.000000 0.000000 0.000000 0.000000 0.037207 0.000000
# 6 0.000000 0.000000 0.000000 0.000000 0.000000 0.034510
#
#
# Mechanical properties :
#
#
# Convention : Reuss Voigt Hill
#
# Bulk Modulus (GPa) = 41.71006 48.25299 44.98153
# Shear Modulus (GPa) = 27.04419 28.29101 27.66760
#
# Velocity S-wave (km/s) = 3.73424 3.81935 3.77704
# Velocity P-wave (km/s) = 6.33240 6.65809 6.49729
#
# Compressibility (1/GPa) = 0.02397503
#
# Stress axis : x y z
#
# Youngs Moduli (GPa) = 69.42802 78.29916 47.54425
#
# Poissons Ratio (x) = 0.44709 0.28342
# Poissons Ratio (y) = 0.39644 0.02117
# Poissons Ratio (z) = 0.41388 0.03486
#
# Static dielectric constant tensor:
#      x y z
#    x 3.617350 0.000000 0.000000 
#    y 0.000000 3.555090 0.000000 
#    z 0.000000 0.000000 3.708700 
# 
# 
# High freq. dielectric constant tensor:
#      x y z
#    x 1.761950 0.000000 0.000000 
#    y 0.000000 1.750250 0.000000 
#    z 0.000000 0.000000 1.766710 
# 
# From -- ./inp_files/5887.got.cif
#   From: 2010.03.12/outbox.cif.g09.slc.cpg/sg19_3_cif.got.tgz:5887.got - 2010.04.10 18:59:41.
