data_PCOD8156156
_publ_section_title
;
Structure prediction by ZEFSAII (Michael W. Deem and Ramdas Pophale) SiO2 
 PCOD8156156
Probable space group: P 21 21 2
;
_chemical_formula_sum "Si O2"
_cell_formula_units_Z 20
_cell_length_a 14.055896
_cell_length_b 9.105564
_cell_length_c 7.452315
_cell_angle_alpha 90.000000
_cell_angle_beta 90.000000
_cell_angle_gamma 90.000000
_cell_volume 953.798401
_symmetry_space_group_name_H-M "P 21 21 2"
_symmetry_group_IT_number 18
_symmetry_cell_setting 'orthorhombic'
loop_
_space_group_symop_operation_xyz
x,y,z
-x,-y,z
1/2+x,1/2-y,-z
1/2-x,1/2+y,-z
loop_
_atom_site_type_symbol
_atom_site_label
_atom_site_fract_x
_atom_site_fract_y
_atom_site_fract_z
Si Si1 0.392196 0.304193 0.742775
Si Si2 0.994516 0.832684 0.614480
Si Si3 0.924627 0.370013 0.908583
Si Si4 0.241549 0.052255 0.270646
Si Si5 0.790383 0.727472 0.555668
O O1 0.473064 0.315757 0.591322
O O2 0.354370 0.468846 0.798418
O O3 0.300656 0.213093 0.669341
O O4 0.437905 0.222005 0.910519
O O5 0.062100 0.734625 0.737738
O O6 0.886969 0.781915 0.645758
O O7 0.000000 0.000000 0.677590
O O8 0.817255 0.433152 0.890959
O O9 0.000000 0.500000 0.910205
O O10 0.215638 0.211586 0.352139
O O11 0.286022 0.950852 0.433452
#
# Coordination Sequence:
#
# PCOD8156156 Si02
#       5
#     4   4   4   4   4
#     4  10  25  42  66 102 131 174 225 274 342 400
#     4  12  23  44  70  98 136 176 227 281 341 400
#     4  12  24  44  69 101 136 180 228 282 339 413
#     4  10  21  45  66  96 132 177 227 269 340 400
#     4  10  21  43  70  93 133 177 216 279 333 399
#
# _framework density 20.968792000000001
#
# number of rings (size 3 to 8) (size 9 to 14) (size 15 to 20)
#    1.200    0.000    6.000    0.000    0.000    4.800 
#    7.200    0.000    0.000    0.000    0.000    0.000 
#    0.000    0.000    0.000    0.000    0.000    0.000 
#
# Total GULP energy -247837.038858 kJ/mol
# GULP energy per Si atom -12391.851943 kJ/mol
# Density = 2.092107 g / cm^3
# Si number density = 20.968792 Si / 1000 Ang^3
#
#
#
# Elastic Constant Matrix: (Units=GPa)
#
#
# Indices 1 2 3 4 5 6 
#
# 1 62.7273 8.6440 5.2486 0.0000 0.0000 0.0000
# 2 8.6440 83.5006 33.6076 0.0000 0.0000 0.0000
# 3 5.2486 33.6076 80.0529 0.0000 0.0000 0.0000
# 4 0.0000 0.0000 0.0000 31.4509 0.0000 0.0000
# 5 0.0000 0.0000 0.0000 0.0000 8.2250 0.0000
# 6 0.0000 0.0000 0.0000 0.0000 0.0000 22.8583
#
#
#
# Elastic Compliance Matrix: (Units=1/GPa)
#
#
# Indices 1 2 3 4 5 6 
#
# 1 0.016185 -0.001502 -0.000431 0.000000 0.000000 0.000000
# 2 -0.001502 0.014550 -0.006010 0.000000 0.000000 0.000000
# 3 -0.000431 -0.006010 0.015043 0.000000 0.000000 0.000000
# 4 0.000000 0.000000 0.000000 0.031796 0.000000 0.000000
# 5 0.000000 0.000000 0.000000 0.000000 0.121580 0.000000
# 6 0.000000 0.000000 0.000000 0.000000 0.000000 0.043748
#
#
# Mechanical properties :
#
#
# Convention : Reuss Voigt Hill
#
# Bulk Modulus (GPa) = 33.45259 35.69792 34.57526
# Shear Modulus (GPa) = 18.60452 24.42555 21.51504
#
# Velocity S-wave (km/s) = 2.98190 3.41670 3.20668
# Velocity P-wave (km/s) = 5.27672 5.71195 5.49864
#
# Compressibility (1/GPa) = 0.02989305
#
# Stress axis : x y z
#
# Youngs Moduli (GPa) = 61.78540 68.72655 66.47572
#
# Poissons Ratio (x) = 0.10324 0.02862
# Poissons Ratio (y) = 0.09281 0.39952
# Poissons Ratio (z) = 0.02660 0.41305
#
# Static dielectric constant tensor:
#      x y z
#    x 3.851140 0.000000 0.000000 
#    y 0.000000 3.788920 0.000000 
#    z 0.000000 0.000000 3.331370 
# 
# 
# High freq. dielectric constant tensor:
#      x y z
#    x 1.833820 0.000000 0.000000 
#    y 0.000000 1.819430 0.000000 
#    z 0.000000 0.000000 1.786350 
# 
# From -- ./inp_files/4096.got.cif
#   From: 2010.03.12/outbox.cif.g09.slc.cpg/sg18_3_cif.got.tgz:4096.got - 2010.04.10 18:53:55.
