data_PCOD8156639
_publ_section_title
;
Structure prediction by ZEFSAII (Michael W. Deem and Ramdas Pophale) SiO2 
 PCOD8156639
Probable space group: P 21 21 21
;
_chemical_formula_sum "Si O2"
_cell_formula_units_Z 28
_cell_length_a 10.821696
_cell_length_b 8.509835
_cell_length_c 16.878886
_cell_angle_alpha 90.000000
_cell_angle_beta 90.000000
_cell_angle_gamma 90.000000
_cell_volume 1554.390915
_symmetry_space_group_name_H-M "P 21 21 21"
_symmetry_group_IT_number 19
_symmetry_cell_setting 'orthorhombic'
loop_
_space_group_symop_operation_xyz
x,y,z
1/2-x,-y,1/2+z
1/2+x,1/2-y,-z
-x,1/2+y,1/2-z
loop_
_atom_site_type_symbol
_atom_site_label
_atom_site_fract_x
_atom_site_fract_y
_atom_site_fract_z
Si Si1 0.842271 0.311036 0.902807
Si Si2 0.729342 0.831814 0.097190
Si Si3 0.181336 0.916045 0.025619
Si Si4 0.223677 0.597340 0.731639
Si Si5 0.407394 0.493237 0.014171
Si Si6 0.995283 0.566252 0.826951
Si Si7 0.291325 0.695780 0.146181
O O1 0.765091 0.435998 0.953007
O O2 0.754876 0.218838 0.840122
O O3 0.949161 0.393384 0.851182
O O4 0.901182 0.191467 0.966017
O O5 0.783667 0.831534 0.187778
O O6 0.804168 0.965394 0.050840
O O7 0.583366 0.875789 0.100391
O O8 0.737622 0.661310 0.054982
O O9 0.187384 0.783617 0.094369
O O10 0.041440 0.968840 0.019433
O O11 0.076196 0.563825 0.746536
O O12 0.276694 0.424088 0.707494
O O13 0.383401 0.592378 0.092826
O O14 0.877115 0.676318 0.810609
#
# Coordination Sequence:
#
# PCOD8156639 Si02
#       7
#     4   4   4   4   4   4   4
#     4  10  21  32  54  83 108 139 180 225 274 308
#     4   9  20  33  56  76 105 141 181 215 271 320
#     4  10  20  35  53  77 111 143 176 219 266 325
#     4   9  18  33  53  81 108 133 179 228 268 313
#     4  10  19  35  51  75 109 140 178 218 261 321
#     4   9  17  31  54  78 104 130 177 216 277 306
#     4   9  17  33  53  80 101 140 173 219 277 311
#
# _framework density 18.013484999999999
#
# number of rings (size 3 to 8) (size 9 to 14) (size 15 to 20)
#    0.857    1.714    1.429    0.857    2.000    0.000 
#    0.000    4.286    0.000    0.000    0.000    0.000 
#    0.000    0.000    0.000    0.000    0.000    0.000 
#
# Total GULP energy -346932.472030 kJ/mol
# GULP energy per Si atom -12390.445430 kJ/mol
# Density = 1.797249 g / cm^3
# Si number density = 18.013485 Si / 1000 Ang^3
#
#
#
# Elastic Constant Matrix: (Units=GPa)
#
#
# Indices 1 2 3 4 5 6 
#
# 1 30.3341 23.3865 14.9411 0.0000 0.0000 0.0000
# 2 23.3865 129.2093 52.0711 0.0000 0.0000 0.0000
# 3 14.9411 52.0711 91.5030 0.0000 0.0000 0.0000
# 4 0.0000 0.0000 0.0000 34.7145 0.0000 0.0000
# 5 0.0000 0.0000 0.0000 0.0000 26.9755 0.0000
# 6 0.0000 0.0000 0.0000 0.0000 0.0000 20.2170
#
#
#
# Elastic Compliance Matrix: (Units=1/GPa)
#
#
# Indices 1 2 3 4 5 6 
#
# 1 0.038956 -0.005823 -0.003047 0.000000 0.000000 0.000000
# 2 -0.005823 0.010913 -0.005259 0.000000 0.000000 0.000000
# 3 -0.003047 -0.005259 0.014419 0.000000 0.000000 0.000000
# 4 0.000000 0.000000 0.000000 0.028806 0.000000 0.000000
# 5 0.000000 0.000000 0.000000 0.000000 0.037071 0.000000
# 6 0.000000 0.000000 0.000000 0.000000 0.000000 0.049463
#
#
# Mechanical properties :
#
#
# Convention : Reuss Voigt Hill
#
# Bulk Modulus (GPa) = 27.75535 47.98264 37.86900
# Shear Modulus (GPa) = 22.73785 27.09123 24.91454
#
# Velocity S-wave (km/s) = 3.55670 3.88228 3.72305
# Velocity P-wave (km/s) = 5.68404 6.84039 6.28885
#
# Compressibility (1/GPa) = 0.03602909
#
# Stress axis : x y z
#
# Youngs Moduli (GPa) = 25.66971 91.63557 69.35253
#
# Poissons Ratio (x) = 0.53358 0.21135
# Poissons Ratio (y) = 0.14947 0.36475
# Poissons Ratio (z) = 0.07823 0.48194
#
# Static dielectric constant tensor:
#      x y z
#    x 2.953570 0.000000 0.000000 
#    y 0.000000 3.454320 0.000000 
#    z 0.000000 0.000000 3.306120 
# 
# 
# High freq. dielectric constant tensor:
#      x y z
#    x 1.658080 0.000000 0.000000 
#    y 0.000000 1.707950 0.000000 
#    z 0.000000 0.000000 1.692280 
# 
# From -- ./inp_files/5381.got.cif
#   From: 2010.03.12/outbox.cif.g09.slc.cpg/sg19_3_cif.got.tgz:5381.got - 2010.04.10 18:59:41.
