data_PCOD8156232
_publ_section_title
;
Structure prediction by ZEFSAII (Michael W. Deem and Ramdas Pophale) SiO2 
 PCOD8156232
Probable space group: P 21 21 2
;
_chemical_formula_sum "Si O2"
_cell_formula_units_Z 24
_cell_length_a 9.156068
_cell_length_b 15.135702
_cell_length_c 8.115223
_cell_angle_alpha 90.000000
_cell_angle_beta 90.000000
_cell_angle_gamma 90.000000
_cell_volume 1124.636142
_symmetry_space_group_name_H-M "P 21 21 2"
_symmetry_group_IT_number 18
_symmetry_cell_setting 'orthorhombic'
loop_
_space_group_symop_operation_xyz
x,y,z
-x,-y,z
1/2+x,1/2-y,-z
1/2-x,1/2+y,-z
loop_
_atom_site_type_symbol
_atom_site_label
_atom_site_fract_x
_atom_site_fract_y
_atom_site_fract_z
Si Si1 0.039937 0.172981 0.394224
Si Si2 0.579039 0.677492 0.974122
Si Si3 0.728903 0.331981 0.106847
Si Si4 0.154287 0.669159 0.468066
Si Si5 0.500000 0.500000 0.406051
Si Si6 0.244281 0.977571 0.854828
Si Si7 0.000000 0.500000 0.361002
O O1 0.217469 0.178471 0.395362
O O2 0.985581 0.167530 0.207494
O O3 0.970002 0.256486 0.490926
O O4 0.982710 0.085457 0.481536
O O5 0.679140 0.763179 0.002289
O O6 0.444078 0.685168 0.097861
O O7 0.679358 0.593729 0.021127
O O8 0.768435 0.315441 0.294821
O O9 0.771320 0.430847 0.044958
O O10 0.080243 0.571810 0.476157
O O11 0.639767 0.491077 0.291926
O O12 0.391367 0.945781 0.762350
#
# Coordination Sequence:
#
# PCOD8156232 Si02
#       7
#     4   4   4   4   2   4   2
#     4  11  25  39  66 102 133 172 221 276 328 388
#     4  11  24  39  69  98 134 165 224 277 323 389
#     4  10  22  42  61  98 124 175 212 264 329 390
#     4  10  23  44  65  94 133 174 222 264 330 396
#     4  12  22  42  70  88 128 184 216 264 330 402
#     4  11  22  43  69  90 128 179 219 262 325 401
#     4  10  22  42  70  94 124 180 226 254 324 406
#
# _framework density 21.340236000000001
#
# number of rings (size 3 to 8) (size 9 to 14) (size 15 to 20)
#    0.000    1.333    5.000    0.000   11.667    1.333 
#    0.000    0.000    0.000    2.000    0.000    0.000 
#    0.000    0.000    0.000    0.000    0.000    0.000 
#
# Total GULP energy -297572.861455 kJ/mol
# GULP energy per Si atom -12398.869227 kJ/mol
# Density = 2.129167 g / cm^3
# Si number density = 21.340236 Si / 1000 Ang^3
#
#
#
# Elastic Constant Matrix: (Units=GPa)
#
#
# Indices 1 2 3 4 5 6 
#
# 1 124.5172 65.7013 26.5072 0.0000 0.0000 0.0000
# 2 65.7013 171.5729 40.1389 0.0000 0.0000 0.0000
# 3 26.5072 40.1389 46.2696 0.0000 0.0000 0.0000
# 4 0.0000 0.0000 0.0000 16.7190 0.0000 0.0000
# 5 0.0000 0.0000 0.0000 0.0000 -42.4857 0.0000
# 6 0.0000 0.0000 0.0000 0.0000 0.0000 44.8561
#
#
#
# Elastic Compliance Matrix: (Units=1/GPa)
#
#
# Indices 1 2 3 4 5 6 
#
# 1 0.010417 -0.003253 -0.003146 0.000000 0.000000 0.000000
# 2 -0.003253 0.008328 -0.005361 0.000000 0.000000 0.000000
# 3 -0.003146 -0.005361 0.028065 0.000000 0.000000 0.000000
# 4 0.000000 0.000000 0.000000 0.059812 0.000000 0.000000
# 5 0.000000 0.000000 0.000000 0.000000 -0.023537 0.000000
# 6 0.000000 0.000000 0.000000 0.000000 0.000000 0.022294
#
#
# Mechanical properties :
#
#
# Convention : Reuss Voigt Hill
#
# Bulk Modulus (GPa) = 42.93536 67.45051 55.19294
# Shear Modulus (GPa) = 36.58620 17.81868 27.20244
#
# Velocity S-wave (km/s) = 4.14505 2.89274 3.57417
# Velocity P-wave (km/s) = 6.56290 6.54470 6.55381
#
# Compressibility (1/GPa) = 0.02329083
#
# Stress axis : x y z
#
# Youngs Moduli (GPa) = 95.99490 120.07085 35.63098
#
# Poissons Ratio (x) = 0.39061 0.11209
# Poissons Ratio (y) = 0.31229 0.19103
# Poissons Ratio (z) = 0.30198 0.64372
#
# Static dielectric constant tensor:
#      x y z
#    x 4.386150 0.000000 0.000000 
#    y 0.000000 4.290260 0.000000 
#    z 0.000000 0.000000 3.521720 
# 
# 
# High freq. dielectric constant tensor:
#      x y z
#    x 1.854060 0.000000 0.000000 
#    y 0.000000 1.850250 0.000000 
#    z 0.000000 0.000000 1.808090 
# 
# From -- ./inp_files/3192.got.cif
#   From: 2010.03.12/outbox.cif.g09.slc.cpg/sg18_2_cif.got.tgz:3192.got - 2010.04.10 18:53:55.
