data_PCOD8156226
_publ_section_title
;
Structure prediction by ZEFSAII (Michael W. Deem and Ramdas Pophale) SiO2 
 PCOD8156226
Probable space group: P 21 21 2
;
_chemical_formula_sum "Si O2"
_cell_formula_units_Z 18
_cell_length_a 9.258009
_cell_length_b 7.858984
_cell_length_c 10.754918
_cell_angle_alpha 90.000000
_cell_angle_beta 90.000000
_cell_angle_gamma 90.000000
_cell_volume 782.512181
_symmetry_space_group_name_H-M "P 21 21 2"
_symmetry_group_IT_number 18
_symmetry_cell_setting 'orthorhombic'
loop_
_space_group_symop_operation_xyz
x,y,z
-x,-y,z
1/2+x,1/2-y,-z
1/2-x,1/2+y,-z
loop_
_atom_site_type_symbol
_atom_site_label
_atom_site_fract_x
_atom_site_fract_y
_atom_site_fract_z
Si Si1 0.784315 0.395791 0.624321
Si Si2 0.742253 0.273639 0.351380
Si Si3 0.000000 0.000000 0.005784
Si Si4 0.682561 0.590422 0.219181
Si Si5 0.541926 0.267093 0.772843
O O1 0.801368 0.336350 0.483203
O O2 0.839800 0.591487 0.636798
O O3 0.874651 0.262784 0.711021
O O4 0.615854 0.390743 0.668103
O O5 0.635498 0.417285 0.292831
O O6 0.876177 0.261297 0.257303
O O7 0.875225 0.081193 0.920264
O O8 0.062813 0.147994 0.092116
O O9 0.859416 0.595900 0.220251
#
# Coordination Sequence:
#
# PCOD8156226 Si02
#       5
#     4   4   2   4   4
#     4  10  22  41  68 104 134 178 234 283 352 405
#     4  12  20  44  71 100 140 179 235 291 350 411
#     4  12  24  46  72  96 150 182 240 282 336 430
#     4  10  26  41  67 104 130 192 225 284 346 408
#     4  10  23  44  67  97 138 187 224 287 344 400
#
# _framework density 23.002835999999999
#
# number of rings (size 3 to 8) (size 9 to 14) (size 15 to 20)
#    1.333    0.000    4.444    0.667    3.111    1.778 
#    0.000    3.333    0.000    0.000    0.000    0.000 
#    0.000    0.000    0.000    0.000    0.000    0.000 
#
# Total GULP energy -223020.638803 kJ/mol
# GULP energy per Si atom -12390.035489 kJ/mol
# Density = 2.295048 g / cm^3
# Si number density = 23.002836 Si / 1000 Ang^3
#
#
#
# Elastic Constant Matrix: (Units=GPa)
#
#
# Indices 1 2 3 4 5 6 
#
# 1 11.9341 15.6249 5.9468 0.0000 0.0000 0.0000
# 2 15.6249 198.4535 49.0466 0.0000 0.0000 0.0000
# 3 5.9468 49.0466 136.5498 0.0000 0.0000 0.0000
# 4 0.0000 0.0000 0.0000 43.8414 0.0000 0.0000
# 5 0.0000 0.0000 0.0000 0.0000 36.1339 0.0000
# 6 0.0000 0.0000 0.0000 0.0000 0.0000 32.2172
#
#
#
# Elastic Compliance Matrix: (Units=1/GPa)
#
#
# Indices 1 2 3 4 5 6 
#
# 1 0.093730 -0.006991 -0.001571 0.000000 0.000000 0.000000
# 2 -0.006991 0.006051 -0.001869 0.000000 0.000000 0.000000
# 3 -0.001571 -0.001869 0.008063 0.000000 0.000000 0.000000
# 4 0.000000 0.000000 0.000000 0.022809 0.000000 0.000000
# 5 0.000000 0.000000 0.000000 0.000000 0.027675 0.000000
# 6 0.000000 0.000000 0.000000 0.000000 0.000000 0.031039
#
#
# Mechanical properties :
#
#
# Convention : Reuss Voigt Hill
#
# Bulk Modulus (GPa) = 11.49669 54.24155 32.86912
# Shear Modulus (GPa) = 20.90090 40.85978 30.88034
#
# Velocity S-wave (km/s) = 3.01761 4.21918 3.66793
# Velocity P-wave (km/s) = 4.14126 6.88236 5.67965
#
# Compressibility (1/GPa) = 0.08698156
#
# Stress axis : x y z
#
# Youngs Moduli (GPa) = 10.66898 165.25235 124.02201
#
# Poissons Ratio (x) = 1.15535 0.19481
# Poissons Ratio (y) = 0.07459 0.23181
# Poissons Ratio (z) = 0.01676 0.30887
#
# Static dielectric constant tensor:
#      x y z
#    x 3.713100 0.000000 0.000000 
#    y 0.000000 4.466000 0.000000 
#    z 0.000000 0.000000 3.907220 
# 
# 
# High freq. dielectric constant tensor:
#      x y z
#    x 1.883170 0.000000 0.000000 
#    y 0.000000 1.927670 0.000000 
#    z 0.000000 0.000000 1.903120 
# 
# From -- ./inp_files/5374.got.cif
#   From: 2010.03.12/outbox.cif.g09.slc.cpg/sg18_3_cif.got.tgz:5374.got - 2010.04.10 18:53:55.
