data_PCOD8156948
_publ_section_title
;
Structure prediction by ZEFSAII (Michael W. Deem and Ramdas Pophale) SiO2 
 PCOD8156948
Probable space group: P 21 21 21
;
_chemical_formula_sum "Si O2"
_cell_formula_units_Z 32
_cell_length_a 11.739467
_cell_length_b 5.229325
_cell_length_c 20.442557
_cell_angle_alpha 90.000000
_cell_angle_beta 90.000000
_cell_angle_gamma 90.000000
_cell_volume 1254.958113
_symmetry_space_group_name_H-M "P 21 21 21"
_symmetry_group_IT_number 19
_symmetry_cell_setting 'orthorhombic'
loop_
_space_group_symop_operation_xyz
x,y,z
1/2-x,-y,1/2+z
1/2+x,1/2-y,-z
-x,1/2+y,1/2-z
loop_
_atom_site_type_symbol
_atom_site_label
_atom_site_fract_x
_atom_site_fract_y
_atom_site_fract_z
Si Si1 0.787555 0.871825 0.137899
Si Si2 0.910223 0.889575 0.012038
Si Si3 0.189302 0.652893 0.238361
Si Si4 0.227102 0.542392 0.607930
Si Si5 0.435839 0.110008 0.171672
Si Si6 0.075228 0.890203 0.824121
Si Si7 0.549091 0.488445 0.692217
Si Si8 0.020029 0.369417 0.059882
O O1 0.808722 0.963014 0.063750
O O2 0.693127 0.647028 0.136273
O O3 0.913328 0.781308 0.162135
O O4 0.745077 0.068718 0.194742
O O5 0.967072 0.613682 0.022434
O O6 0.004788 0.115412 0.016336
O O7 0.855531 0.890029 0.940500
O O8 0.268881 0.634768 0.174517
O O9 0.144918 0.938106 0.253852
O O10 0.073882 0.492229 0.225533
O O11 0.175928 0.820393 0.628144
O O12 0.347787 0.579840 0.573756
O O13 0.397856 0.117031 0.247090
O O14 0.525563 0.336420 0.155832
O O15 0.489142 0.836577 0.153718
O O16 0.544679 0.679498 0.629268
#
# Coordination Sequence:
#
# PCOD8156948 Si02
#       8
#     4   4   4   4   4   4   4   4
#     4  11  22  39  65  94 135 188 222 282 359 411
#     4  11  26  46  66 100 143 178 231 287 342 419
#     4  11  20  39  64 105 134 178 234 298 353 413
#     4  11  26  45  73 105 136 189 236 292 351 419
#     4  10  23  42  60  95 128 167 224 281 324 406
#     4  10  23  40  64  91 132 172 217 272 342 400
#     4  10  21  36  66 101 140 171 231 301 348 408
#     4  10  25  47  70  99 136 183 233 281 353 414
#
# _framework density 25.498858999999999
#
# number of rings (size 3 to 8) (size 9 to 14) (size 15 to 20)
#    0.000    1.500    3.750    0.000    1.750    6.000 
#    2.250    0.000    0.000    0.000    0.000    0.000 
#    0.000    0.000    0.000    0.000    0.000    0.000 
#
# Total GULP energy -396561.700039 kJ/mol
# GULP energy per Si atom -12392.553126 kJ/mol
# Density = 2.544082 g / cm^3
# Si number density = 25.498859 Si / 1000 Ang^3
#
#
#
# Elastic Constant Matrix: (Units=GPa)
#
#
# Indices 1 2 3 4 5 6 
#
# 1 73.8930 -2.7725 26.5972 0.0000 0.0000 0.0000
# 2 -2.7725 72.2035 13.6977 0.0000 0.0000 0.0000
# 3 26.5972 13.6977 106.4572 0.0000 0.0000 0.0000
# 4 0.0000 0.0000 0.0000 24.2734 0.0000 0.0000
# 5 0.0000 0.0000 0.0000 0.0000 43.4646 0.0000
# 6 0.0000 0.0000 0.0000 0.0000 0.0000 18.5517
#
#
#
# Elastic Compliance Matrix: (Units=1/GPa)
#
#
# Indices 1 2 3 4 5 6 
#
# 1 0.014992 0.001318 -0.003915 0.000000 0.000000 0.000000
# 2 0.001318 0.014312 -0.002171 0.000000 0.000000 0.000000
# 3 -0.003915 -0.002171 0.010651 0.000000 0.000000 0.000000
# 4 0.000000 0.000000 0.000000 0.041197 0.000000 0.000000
# 5 0.000000 0.000000 0.000000 0.000000 0.023007 0.000000
# 6 0.000000 0.000000 0.000000 0.000000 0.000000 0.053903
#
#
# Mechanical properties :
#
#
# Convention : Reuss Voigt Hill
#
# Bulk Modulus (GPa) = 32.87358 36.39983 34.63670
# Shear Modulus (GPa) = 28.13128 31.59336 29.86232
#
# Velocity S-wave (km/s) = 3.32510 3.52378 3.42588
# Velocity P-wave (km/s) = 5.25946 5.55536 5.40944
#
# Compressibility (1/GPa) = 0.03041957
#
# Stress axis : x y z
#
# Youngs Moduli (GPa) = 66.70317 69.87035 93.88840
#
# Poissons Ratio (x) = -0.09212 0.36759
# Poissons Ratio (y) = -0.08794 0.20382
# Poissons Ratio (z) = 0.26115 0.15168
#
# Static dielectric constant tensor:
#      x y z
#    x 4.571730 0.000000 0.000000 
#    y 0.000000 4.335430 0.000000 
#    z 0.000000 0.000000 4.741260 
# 
# 
# High freq. dielectric constant tensor:
#      x y z
#    x 2.018980 0.000000 0.000000 
#    y 0.000000 2.007730 0.000000 
#    z 0.000000 0.000000 2.014090 
# 
# From -- ./inp_files/7166.got.cif
#   From: 2010.03.12/outbox.cif.g09.slc.cpg/sg19_4_cif.got.tgz:7166.got - 2010.04.10 18:59:41.
