data_PCOD8156571
_publ_section_title
;
Structure prediction by ZEFSAII (Michael W. Deem and Ramdas Pophale) SiO2 
 PCOD8156571
Probable space group: P 21 21 21
;
_chemical_formula_sum "Si O2"
_cell_formula_units_Z 32
_cell_length_a 8.301163
_cell_length_b 8.286605
_cell_length_c 23.376054
_cell_angle_alpha 90.000000
_cell_angle_beta 90.000000
_cell_angle_gamma 90.000000
_cell_volume 1608.002728
_symmetry_space_group_name_H-M "P 21 21 21"
_symmetry_group_IT_number 19
_symmetry_cell_setting 'orthorhombic'
loop_
_space_group_symop_operation_xyz
x,y,z
1/2-x,-y,1/2+z
1/2+x,1/2-y,-z
-x,1/2+y,1/2-z
loop_
_atom_site_type_symbol
_atom_site_label
_atom_site_fract_x
_atom_site_fract_y
_atom_site_fract_z
Si Si1 0.046825 0.477505 0.401302
Si Si2 0.291758 0.453057 0.011643
Si Si3 0.797649 0.464407 0.244613
Si Si4 0.200290 0.807764 0.369597
Si Si5 0.855968 0.956835 0.371758
Si Si6 0.007431 0.228432 0.311086
Si Si7 0.529548 0.204915 0.058025
Si Si8 0.220003 0.889047 0.642401
O O1 0.098922 0.442541 0.467602
O O2 0.155915 0.618068 0.372971
O O3 0.077508 0.310682 0.368377
O O4 0.859594 0.527687 0.395768
O O5 0.243967 0.526346 0.073358
O O6 0.391693 0.289452 0.021031
O O7 0.120422 0.416290 0.983481
O O8 0.726129 0.355220 0.193162
O O9 0.950956 0.366722 0.267953
O O10 0.686008 0.511078 0.298809
O O11 0.849471 0.636015 0.219700
O O12 0.345310 0.835454 0.414663
O O13 0.044164 0.915197 0.385358
O O14 0.768488 0.798630 0.346203
O O15 0.860930 0.104264 0.326669
O O16 0.446721 0.101023 0.108376
#
# Coordination Sequence:
#
# PCOD8156571 Si02
#       8
#     4   4   4   4   4   4   4   4
#     4   9  18  32  52  78 101 130 172 206 243 298
#     4  10  18  32  52  74 102 136 164 210 254 284
#     4  10  18  32  52  74 102 136 164 210 254 284
#     4   9  18  32  52  78 101 130 172 206 243 298
#     4   9  18  32  52  78 101 130 172 206 243 298
#     4  10  18  32  53  76 101 132 172 204 244 306
#     4  10  18  32  53  76 101 132 172 204 244 306
#     4   9  18  32  52  78 101 130 172 206 243 298
#
# _framework density 19.900463999999999
#
# number of rings (size 3 to 8) (size 9 to 14) (size 15 to 20)
#    0.000    2.500    0.000    6.000    0.000    0.000 
#    0.000   10.000    0.000   13.500    0.000    0.000 
#    0.000    0.000    0.000    0.000    0.000    0.000 
#
# Total GULP energy -396427.725243 kJ/mol
# GULP energy per Si atom -12388.366414 kJ/mol
# Density = 1.985517 g / cm^3
# Si number density = 19.900464 Si / 1000 Ang^3
#
#
#
# Elastic Constant Matrix: (Units=GPa)
#
#
# Indices 1 2 3 4 5 6 
#
# 1 51.1215 7.2647 7.8104 0.0000 0.0000 0.0000
# 2 7.2647 49.7927 6.6894 0.0000 0.0000 0.0000
# 3 7.8104 6.6894 70.6631 0.0000 0.0000 0.0000
# 4 0.0000 0.0000 0.0000 36.2289 0.0000 0.0000
# 5 0.0000 0.0000 0.0000 0.0000 37.6779 0.0000
# 6 0.0000 0.0000 0.0000 0.0000 0.0000 14.8647
#
#
#
# Elastic Compliance Matrix: (Units=1/GPa)
#
#
# Indices 1 2 3 4 5 6 
#
# 1 0.020246 -0.002687 -0.001983 0.000000 0.000000 0.000000
# 2 -0.002687 0.020699 -0.001662 0.000000 0.000000 0.000000
# 3 -0.001983 -0.001662 0.014528 0.000000 0.000000 0.000000
# 4 0.000000 0.000000 0.000000 0.027602 0.000000 0.000000
# 5 0.000000 0.000000 0.000000 0.000000 0.026541 0.000000
# 6 0.000000 0.000000 0.000000 0.000000 0.000000 0.067273
#
#
# Mechanical properties :
#
#
# Convention : Reuss Voigt Hill
#
# Bulk Modulus (GPa) = 23.36088 23.90070 23.63079
# Shear Modulus (GPa) = 24.53086 27.74182 26.13634
#
# Velocity S-wave (km/s) = 3.51476 3.73772 3.62795
# Velocity P-wave (km/s) = 5.31373 5.53747 5.42675
#
# Compressibility (1/GPa) = 0.04280661
#
# Stress axis : x y z
#
# Youngs Moduli (GPa) = 49.39206 48.31220 68.83133
#
# Poissons Ratio (x) = 0.12984 0.13652
# Poissons Ratio (y) = 0.13274 0.11443
# Poissons Ratio (z) = 0.09796 0.08032
#
# Static dielectric constant tensor:
#      x y z
#    x 3.494940 0.000000 0.000000 
#    y 0.000000 3.478730 0.000000 
#    z 0.000000 0.000000 4.001580 
# 
# 
# High freq. dielectric constant tensor:
#      x y z
#    x 1.747520 0.000000 0.000000 
#    y 0.000000 1.746950 0.000000 
#    z 0.000000 0.000000 1.790190 
# 
# From -- ./inp_files/7373.got.cif
#   From: 2010.03.12/outbox.cif.g09.slc.cpg/sg19_4_cif.got.tgz:7373.got - 2010.04.10 18:59:41.
