data_PCOD8156276
_publ_section_title
;
Structure prediction by ZEFSAII (Michael W. Deem and Ramdas Pophale) SiO2 
 PCOD8156276
Probable space group: P 21 21 2
;
_chemical_formula_sum "Si O2"
_cell_formula_units_Z 30
_cell_length_a 5.156936
_cell_length_b 20.859151
_cell_length_c 13.147867
_cell_angle_alpha 90.000000
_cell_angle_beta 90.000000
_cell_angle_gamma 90.000000
_cell_volume 1414.306938
_symmetry_space_group_name_H-M "P 21 21 2"
_symmetry_group_IT_number 18
_symmetry_cell_setting 'orthorhombic'
loop_
_space_group_symop_operation_xyz
x,y,z
-x,-y,z
1/2+x,1/2-y,-z
1/2-x,1/2+y,-z
loop_
_atom_site_type_symbol
_atom_site_label
_atom_site_fract_x
_atom_site_fract_y
_atom_site_fract_z
Si Si1 0.675862 0.313839 0.590122
Si Si2 0.053072 0.141984 0.188133
Si Si3 0.941493 0.573341 0.894743
Si Si4 0.000000 0.000000 0.850755
Si Si5 0.320151 0.828720 0.539610
Si Si6 0.619040 0.064300 0.704313
Si Si7 0.118448 0.742126 0.059180
Si Si8 0.631952 0.898347 0.901993
O O1 0.627954 0.351778 0.694105
O O2 0.659977 0.236947 0.604292
O O3 0.456060 0.335303 0.512774
O O4 0.954035 0.333675 0.544503
O O5 0.810220 0.094542 0.169556
O O6 0.973219 0.212890 0.150982
O O7 0.305779 0.116895 0.129684
O O8 0.000000 0.500000 0.865728
O O9 0.900104 0.585499 0.016804
O O10 0.164107 0.044873 0.927066
O O11 0.861224 0.049295 0.775126
O O12 0.322175 0.887806 0.614803
O O13 0.419802 0.095469 0.782728
O O14 0.500000 0.000000 0.654723
O O15 0.239276 0.673795 0.091172
O O16 0.360421 0.776106 0.004547
#
# Coordination Sequence:
#
# PCOD8156276 Si02
#       8
#     4   4   4   2   4   4   4   4
#     4  10  23  43  70  97 125 172 216 273 331 401
#     4  12  24  46  65  98 138 170 228 278 325 398
#     4  12  26  42  67  90 133 187 224 270 322 396
#     4  10  24  40  66  98 138 180 228 268 340 420
#     4  10  22  44  71  97 128 165 219 268 346 396
#     4  10  23  41  64 101 132 169 218 276 342 397
#     4  12  24  41  64 101 134 178 220 276 337 384
#     4  11  24  41  65  97 140 175 229 265 339 403
#
# _framework density 21.211803
#
# number of rings (size 3 to 8) (size 9 to 14) (size 15 to 20)
#    0.000    1.067    2.667    3.200    9.333    0.000 
#    4.800    4.000    0.000    0.000    0.000    0.000 
#    0.000    0.000    0.000    0.000    0.000    0.000 
#
# Total GULP energy -371848.777460 kJ/mol
# GULP energy per Si atom -12394.959249 kJ/mol
# Density = 2.116352 g / cm^3
# Si number density = 21.211803 Si / 1000 Ang^3
#
#
#
# Elastic Constant Matrix: (Units=GPa)
#
#
# Indices 1 2 3 4 5 6 
#
# 1 70.7787 10.0356 -8.8001 0.0000 0.0000 0.0000
# 2 10.0356 113.5008 35.3122 0.0000 0.0000 0.0000
# 3 -8.8001 35.3122 62.7903 0.0000 0.0000 0.0000
# 4 0.0000 0.0000 0.0000 26.4767 0.0000 0.0000
# 5 0.0000 0.0000 0.0000 0.0000 12.6417 0.0000
# 6 0.0000 0.0000 0.0000 0.0000 0.0000 28.5423
#
#
#
# Elastic Compliance Matrix: (Units=1/GPa)
#
#
# Indices 1 2 3 4 5 6 
#
# 1 0.014893 -0.002383 0.003427 0.000000 0.000000 0.000000
# 2 -0.002383 0.011060 -0.006554 0.000000 0.000000 0.000000
# 3 0.003427 -0.006554 0.020092 0.000000 0.000000 0.000000
# 4 0.000000 0.000000 0.000000 0.037769 0.000000 0.000000
# 5 0.000000 0.000000 0.000000 0.000000 0.079103 0.000000
# 6 0.000000 0.000000 0.000000 0.000000 0.000000 0.035036
#
#
# Mechanical properties :
#
#
# Convention : Reuss Voigt Hill
#
# Bulk Modulus (GPa) = 28.55055 35.57392 32.06224
# Shear Modulus (GPa) = 22.66050 27.56695 25.11372
#
# Velocity S-wave (km/s) = 3.27203 3.60891 3.44459
# Velocity P-wave (km/s) = 5.26914 5.84576 5.56492
#
# Compressibility (1/GPa) = 0.03502559
#
# Stress axis : x y z
#
# Youngs Moduli (GPa) = 67.14747 90.41311 49.77025
#
# Poissons Ratio (x) = 0.21547 -0.17058
# Poissons Ratio (y) = 0.16002 0.32620
# Poissons Ratio (z) = -0.23014 0.59258
#
# Static dielectric constant tensor:
#      x y z
#    x 4.213410 0.000000 0.000000 
#    y 0.000000 4.119010 0.000000 
#    z 0.000000 0.000000 3.594200 
# 
# 
# High freq. dielectric constant tensor:
#      x y z
#    x 1.841640 0.000000 0.000000 
#    y 0.000000 1.846290 0.000000 
#    z 0.000000 0.000000 1.814560 
# 
# From -- ./inp_files/5229.got.cif
#   From: 2010.03.12/outbox.cif.g09.slc.cpg/sg18_3_cif.got.tgz:5229.got - 2010.04.10 18:53:55.
