data_PCOD8156909
_publ_section_title
;
Structure prediction by ZEFSAII (Michael W. Deem and Ramdas Pophale) SiO2 
 PCOD8156909
Probable space group: P 21 21 21
;
_chemical_formula_sum "Si O2"
_cell_formula_units_Z 32
_cell_length_a 8.580037
_cell_length_b 13.275770
_cell_length_c 12.076863
_cell_angle_alpha 90.000000
_cell_angle_beta 90.000000
_cell_angle_gamma 90.000000
_cell_volume 1375.634376
_symmetry_space_group_name_H-M "P 21 21 21"
_symmetry_group_IT_number 19
_symmetry_cell_setting 'orthorhombic'
loop_
_space_group_symop_operation_xyz
x,y,z
1/2-x,-y,1/2+z
1/2+x,1/2-y,-z
-x,1/2+y,1/2-z
loop_
_atom_site_type_symbol
_atom_site_label
_atom_site_fract_x
_atom_site_fract_y
_atom_site_fract_z
Si Si1 0.513347 0.260067 0.342238
Si Si2 0.165431 0.082718 0.511298
Si Si3 0.944046 0.950798 0.393505
Si Si4 0.712283 0.260093 0.924825
Si Si5 0.517317 0.593158 0.855351
Si Si6 0.969366 0.662090 0.615004
Si Si7 0.123595 0.455944 0.575222
Si Si8 0.827749 0.717502 0.186317
O O1 0.554273 0.330611 0.443696
O O2 0.600842 0.297381 0.230898
O O3 0.557618 0.145796 0.370544
O O4 0.331121 0.282267 0.320319
O O5 0.313079 0.073161 0.591184
O O6 0.203179 0.119788 0.387321
O O7 0.073666 0.978856 0.487228
O O8 0.881371 0.844044 0.430830
O O9 0.008729 0.953824 0.267292
O O10 0.805692 0.033518 0.396695
O O11 0.894769 0.235851 0.928540
O O12 0.657223 0.318362 0.813769
O O13 0.671928 0.332019 0.027670
O O14 0.474359 0.712353 0.848731
O O15 0.396354 0.542314 0.941561
O O16 0.025454 0.547412 0.628732
#
# Coordination Sequence:
#
# PCOD8156909 Si02
#       8
#     4   4   4   4   4   4   4   4
#     4  11  24  43  69 100 136 182 233 289 348 425
#     4  12  23  40  70 101 138 182 232 291 343 415
#     4  10  26  44  67 102 144 184 231 294 355 426
#     4   9  22  44  64  94 138 178 225 284 347 426
#     4  11  24  43  70 104 142 180 240 289 358 422
#     4  10  24  42  67  96 135 187 224 285 355 415
#     4  11  23  44  69  99 133 183 233 284 353 423
#     4  10  20  42  66  96 136 178 224 290 349 404
#
# _framework density 23.261994999999999
#
# number of rings (size 3 to 8) (size 9 to 14) (size 15 to 20)
#    0.000    1.500    2.500    1.500    3.500    7.000 
#    2.250    0.000    0.000    0.000    0.000    0.000 
#    0.000    0.000    0.000    0.000    0.000    0.000 
#
# Total GULP energy -396693.783785 kJ/mol
# GULP energy per Si atom -12396.680743 kJ/mol
# Density = 2.320905 g / cm^3
# Si number density = 23.261995 Si / 1000 Ang^3
#
#
#
# Elastic Constant Matrix: (Units=GPa)
#
#
# Indices 1 2 3 4 5 6 
#
# 1 61.5657 15.7591 26.1697 0.0000 0.0000 0.0000
# 2 15.7591 51.4745 32.5662 0.0000 0.0000 0.0000
# 3 26.1697 32.5662 105.9507 0.0000 0.0000 0.0000
# 4 0.0000 0.0000 0.0000 29.7370 0.0000 0.0000
# 5 0.0000 0.0000 0.0000 0.0000 41.2858 0.0000
# 6 0.0000 0.0000 0.0000 0.0000 0.0000 33.7129
#
#
#
# Elastic Compliance Matrix: (Units=1/GPa)
#
#
# Indices 1 2 3 4 5 6 
#
# 1 0.018634 -0.003467 -0.003537 0.000000 0.000000 0.000000
# 2 -0.003467 0.024762 -0.006755 0.000000 0.000000 0.000000
# 3 -0.003537 -0.006755 0.012388 0.000000 0.000000 0.000000
# 4 0.000000 0.000000 0.000000 0.033628 0.000000 0.000000
# 5 0.000000 0.000000 0.000000 0.000000 0.024221 0.000000
# 6 0.000000 0.000000 0.000000 0.000000 0.000000 0.029662
#
#
# Mechanical properties :
#
#
# Convention : Reuss Voigt Hill
#
# Bulk Modulus (GPa) = 35.37754 40.88674 38.13214
# Shear Modulus (GPa) = 27.74151 30.58021 29.16086
#
# Velocity S-wave (km/s) = 3.45710 3.62967 3.54444
# Velocity P-wave (km/s) = 5.58361 5.93134 5.76010
#
# Compressibility (1/GPa) = 0.02826652
#
# Stress axis : x y z
#
# Youngs Moduli (GPa) = 53.66622 40.38431 80.72229
#
# Poissons Ratio (x) = 0.14002 0.28550
# Poissons Ratio (y) = 0.18607 0.54526
# Poissons Ratio (z) = 0.18981 0.27279
#
# Static dielectric constant tensor:
#      x y z
#    x 4.280600 0.000000 0.000000 
#    y 0.000000 3.927220 0.000000 
#    z 0.000000 0.000000 4.352590 
# 
# 
# High freq. dielectric constant tensor:
#      x y z
#    x 1.917940 0.000000 0.000000 
#    y 0.000000 1.909290 0.000000 
#    z 0.000000 0.000000 1.930820 
# 
# From -- ./inp_files/4719.got.cif
#   From: 2010.03.12/outbox.cif.g09.slc.cpg/sg19_3_cif.got.tgz:4719.got - 2010.04.10 18:59:41.
