data_PCOD8156574
_publ_section_title
;
Structure prediction by ZEFSAII (Michael W. Deem and Ramdas Pophale) SiO2 
 PCOD8156574
Probable space group: P 21 21 21
;
_chemical_formula_sum "Si O2"
_cell_formula_units_Z 32
_cell_length_a 12.136583
_cell_length_b 16.430813
_cell_length_c 8.134622
_cell_angle_alpha 90.000000
_cell_angle_beta 90.000000
_cell_angle_gamma 90.000000
_cell_volume 1622.156907
_symmetry_space_group_name_H-M "P 21 21 21"
_symmetry_group_IT_number 19
_symmetry_cell_setting 'orthorhombic'
loop_
_space_group_symop_operation_xyz
x,y,z
1/2-x,-y,1/2+z
1/2+x,1/2-y,-z
-x,1/2+y,1/2-z
loop_
_atom_site_type_symbol
_atom_site_label
_atom_site_fract_x
_atom_site_fract_y
_atom_site_fract_z
Si Si1 0.321045 0.914514 0.153221
Si Si2 0.856682 0.099239 0.572599
Si Si3 0.405040 0.888392 0.668814
Si Si4 0.514831 0.029366 0.872009
Si Si5 0.601536 0.108117 0.554787
Si Si6 0.954845 0.711314 0.037237
Si Si7 0.477202 0.453901 0.136441
Si Si8 0.702126 0.570033 0.521224
O O1 0.358434 0.829702 0.072541
O O2 0.426622 0.962221 0.228184
O O3 0.234398 0.899030 0.297184
O O4 0.270030 0.974035 0.013844
O O5 0.731400 0.116685 0.529606
O O6 0.872491 0.085338 0.768994
O O7 0.925905 0.177183 0.513163
O O8 0.894131 0.017196 0.478416
O O9 0.483742 0.893624 0.508889
O O10 0.276141 0.882811 0.614183
O O11 0.430990 0.965400 0.785426
O O12 0.431985 0.806767 0.769901
O O13 0.577878 0.085352 0.742990
O O14 0.431023 0.083543 0.985946
O O15 0.544067 0.192721 0.508503
O O16 0.552229 0.042204 0.431419
#
# Coordination Sequence:
#
# PCOD8156574 Si02
#       8
#     4   4   4   4   4   4   4   4
#     4  10  18  32  59  85 116 148 184 238 292 340
#     4  10  20  41  58  79 115 156 189 245 284 338
#     4   9  18  33  57  83 117 147 182 237 290 340
#     4  10  19  34  57  83 112 148 200 229 273 345
#     4  11  23  37  58  85 110 156 197 239 286 349
#     4  10  21  40  53  84 123 145 186 247 302 337
#     4   9  19  36  60  84 105 153 204 227 273 352
#     4  11  16  31  58  87 108 147 192 228 280 341
#
# _framework density 19.726821999999999
#
# number of rings (size 3 to 8) (size 9 to 14) (size 15 to 20)
#    0.000    2.000    5.000    0.750    0.000    1.000 
#    2.250    5.000    0.000    0.000    0.000    0.000 
#    0.000    0.000    0.000    0.000    0.000    0.000 
#
# Total GULP energy -396587.109862 kJ/mol
# GULP energy per Si atom -12393.347183 kJ/mol
# Density = 1.968192 g / cm^3
# Si number density = 19.726822 Si / 1000 Ang^3
#
#
#
# Elastic Constant Matrix: (Units=GPa)
#
#
# Indices 1 2 3 4 5 6 
#
# 1 84.6375 40.0363 23.5896 0.0000 0.0000 0.0000
# 2 40.0363 88.5641 36.4626 0.0000 0.0000 0.0000
# 3 23.5896 36.4626 93.4229 0.0000 0.0000 0.0000
# 4 0.0000 0.0000 0.0000 16.7953 0.0000 0.0000
# 5 0.0000 0.0000 0.0000 0.0000 28.8358 0.0000
# 6 0.0000 0.0000 0.0000 0.0000 0.0000 19.8763
#
#
#
# Elastic Compliance Matrix: (Units=1/GPa)
#
#
# Indices 1 2 3 4 5 6 
#
# 1 0.015176 -0.006294 -0.001375 0.000000 0.000000 0.000000
# 2 -0.006294 0.016063 -0.004680 0.000000 0.000000 0.000000
# 3 -0.001375 -0.004680 0.012878 0.000000 0.000000 0.000000
# 4 0.000000 0.000000 0.000000 0.059540 0.000000 0.000000
# 5 0.000000 0.000000 0.000000 0.000000 0.034679 0.000000
# 6 0.000000 0.000000 0.000000 0.000000 0.000000 0.050311
#
#
# Mechanical properties :
#
#
# Convention : Reuss Voigt Hill
#
# Bulk Modulus (GPa) = 51.49913 51.86681 51.68297
# Shear Modulus (GPa) = 22.74590 24.20388 23.47489
#
# Velocity S-wave (km/s) = 3.39933 3.50659 3.45338
# Velocity P-wave (km/s) = 6.44749 6.53793 6.49287
#
# Compressibility (1/GPa) = 0.01941780
#
# Stress axis : x y z
#
# Youngs Moduli (GPa) = 65.89461 62.25311 77.65199
#
# Poissons Ratio (x) = 0.39183 0.10680
# Poissons Ratio (y) = 0.41475 0.36343
# Poissons Ratio (z) = 0.09063 0.29136
#
# Static dielectric constant tensor:
#      x y z
#    x 3.599380 0.000000 0.000000 
#    y 0.000000 3.117290 0.000000 
#    z 0.000000 0.000000 3.940780 
# 
# 
# High freq. dielectric constant tensor:
#      x y z
#    x 1.767570 0.000000 0.000000 
#    y 0.000000 1.720370 0.000000 
#    z 0.000000 0.000000 1.782480 
# 
# From -- ./inp_files/3715.got.cif
#   From: 2010.03.12/outbox.cif.g09.slc.cpg/sg19_2_cif.got.tgz:3715.got - 2010.04.10 18:59:41.
