data_PCOD8156247
_publ_section_title
;
Structure prediction by ZEFSAII (Michael W. Deem and Ramdas Pophale) SiO2 
 PCOD8156247
Probable space group: P 21 21 2
;
_chemical_formula_sum "Si O2"
_cell_formula_units_Z 20
_cell_length_a 8.052122
_cell_length_b 10.252259
_cell_length_c 11.885358
_cell_angle_alpha 90.000000
_cell_angle_beta 90.000000
_cell_angle_gamma 90.000000
_cell_volume 981.165306
_symmetry_space_group_name_H-M "P 21 21 2"
_symmetry_group_IT_number 18
_symmetry_cell_setting 'orthorhombic'
loop_
_space_group_symop_operation_xyz
x,y,z
-x,-y,z
1/2+x,1/2-y,-z
1/2-x,1/2+y,-z
loop_
_atom_site_type_symbol
_atom_site_label
_atom_site_fract_x
_atom_site_fract_y
_atom_site_fract_z
Si Si1 0.876065 0.882174 0.438779
Si Si2 0.106234 0.126976 0.027112
Si Si3 0.408339 0.131900 0.612381
Si Si4 0.169850 0.739540 0.159913
Si Si5 0.304276 0.013099 0.224075
O O1 0.765264 0.861320 0.548254
O O2 0.762023 0.907135 0.330252
O O3 0.976293 0.750730 0.421990
O O4 0.000000 0.000000 0.462059
O O5 0.255905 0.089811 0.110766
O O6 0.991144 0.237035 0.082978
O O7 0.178007 0.187634 0.913670
O O8 0.000000 0.000000 0.994938
O O9 0.372268 0.132858 0.745855
O O10 0.500000 0.000000 0.578419
O O11 0.217848 0.872225 0.224412
O O12 0.500000 0.000000 0.232032
#
# Coordination Sequence:
#
# PCOD8156247 Si02
#       5
#     4   4   4   4   4
#     4  12  24  49  70  97 140 181 229 280 343 414
#     4  10  22  42  67  99 141 177 226 282 340 408
#     4  12  27  43  70 103 138 178 230 290 335 399
#     4  11  23  44  67 101 139 178 229 285 337 408
#     4  11  22  42  73  95 130 189 228 273 346 411
#
# _framework density 20.383925000000001
#
# number of rings (size 3 to 8) (size 9 to 14) (size 15 to 20)
#    0.000    0.800    4.000    3.600    2.800    4.800 
#    3.600    0.000    0.000    0.000    0.000    0.000 
#    0.000    0.000    0.000    0.000    0.000    0.000 
#
# Total GULP energy -248156.054689 kJ/mol
# GULP energy per Si atom -12407.802734 kJ/mol
# Density = 2.033753 g / cm^3
# Si number density = 20.383925 Si / 1000 Ang^3
#
#
#
# Elastic Constant Matrix: (Units=GPa)
#
#
# Indices 1 2 3 4 5 6 
#
# 1 147.3517 60.9994 58.6032 0.0000 0.0000 0.0000
# 2 60.9994 111.3350 57.2333 0.0000 0.0000 0.0000
# 3 58.6032 57.2333 109.2503 0.0000 0.0000 0.0000
# 4 0.0000 0.0000 0.0000 21.6584 0.0000 0.0000
# 5 0.0000 0.0000 0.0000 0.0000 35.3985 0.0000
# 6 0.0000 0.0000 0.0000 0.0000 0.0000 34.6612
#
#
#
# Elastic Compliance Matrix: (Units=1/GPa)
#
#
# Indices 1 2 3 4 5 6 
#
# 1 0.009557 -0.003560 -0.003262 0.000000 0.000000 0.000000
# 2 -0.003560 0.013618 -0.005225 0.000000 0.000000 0.000000
# 3 -0.003262 -0.005225 0.013640 0.000000 0.000000 0.000000
# 4 0.000000 0.000000 0.000000 0.046172 0.000000 0.000000
# 5 0.000000 0.000000 0.000000 0.000000 0.028250 0.000000
# 6 0.000000 0.000000 0.000000 0.000000 0.000000 0.028851
#
#
# Mechanical properties :
#
#
# Convention : Reuss Voigt Hill
#
# Bulk Modulus (GPa) = 78.59735 80.17876 79.38805
# Shear Modulus (GPa) = 29.68756 31.08370 30.38563
#
# Velocity S-wave (km/s) = 3.82045 3.90925 3.86510
# Velocity P-wave (km/s) = 7.62255 7.73279 7.67787
#
# Compressibility (1/GPa) = 0.01272308
#
# Stress axis : x y z
#
# Youngs Moduli (GPa) = 104.63179 73.43241 73.31322
#
# Poissons Ratio (x) = 0.26139 0.23914
# Poissons Ratio (y) = 0.37244 0.38304
# Poissons Ratio (z) = 0.34130 0.38366
#
# Static dielectric constant tensor:
#      x y z
#    x 3.929050 0.000000 0.000000 
#    y 0.000000 3.731220 0.000000 
#    z 0.000000 0.000000 3.768360 
# 
# 
# High freq. dielectric constant tensor:
#      x y z
#    x 1.810100 0.000000 0.000000 
#    y 0.000000 1.800050 0.000000 
#    z 0.000000 0.000000 1.804030 
# 
# From -- ./inp_files/5400.got.cif
#   From: 2010.03.12/outbox.cif.g09.slc.cpg/sg18_3_cif.got.tgz:5400.got - 2010.04.10 18:53:55.
