data_PCOD8156345
_publ_section_title
;
Structure prediction by ZEFSAII (Michael W. Deem and Ramdas Pophale) SiO2 
 PCOD8156345
Probable space group: P 21 21 2
;
_chemical_formula_sum "Si O2"
_cell_formula_units_Z 22
_cell_length_a 13.805352
_cell_length_b 11.338273
_cell_length_c 6.089720
_cell_angle_alpha 90.000000
_cell_angle_beta 90.000000
_cell_angle_gamma 90.000000
_cell_volume 953.216867
_symmetry_space_group_name_H-M "P 21 21 2"
_symmetry_group_IT_number 18
_symmetry_cell_setting 'orthorhombic'
loop_
_space_group_symop_operation_xyz
x,y,z
-x,-y,z
1/2+x,1/2-y,-z
1/2-x,1/2+y,-z
loop_
_atom_site_type_symbol
_atom_site_label
_atom_site_fract_x
_atom_site_fract_y
_atom_site_fract_z
Si Si1 0.560413 0.235522 0.800115
Si Si2 0.000000 0.500000 0.063913
Si Si3 0.211661 0.220037 0.860770
Si Si4 0.351529 0.145742 0.228272
Si Si5 0.175941 0.076860 0.476382
Si Si6 0.624859 0.676663 0.605480
O O1 0.622613 0.305316 0.618168
O O2 0.451714 0.289159 0.796654
O O3 0.552657 0.092901 0.770221
O O4 0.606911 0.243541 0.044572
O O5 0.929193 0.430126 0.901955
O O6 0.193807 0.096017 0.736038
O O7 0.263627 0.306257 0.683881
O O8 0.285452 0.215877 0.059415
O O9 0.279963 0.058405 0.361296
O O10 0.399067 0.241432 0.394067
O O11 0.110545 0.960960 0.449817
#
# Coordination Sequence:
#
# PCOD8156345 Si02
#       6
#     4   2   4   4   4   4
#     4  11  25  43  71 106 139 192 237 292 362 411
#     4  12  24  46  70 102 146 184 248 294 342 448
#     4  10  23  47  68 106 142 189 236 289 369 418
#     4  10  24  44  70 104 138 190 232 299 359 414
#     4  10  24  45  71 103 145 187 234 303 357 429
#     4  11  23  46  70 107 148 183 245 293 361 431
#
# _framework density 23.079743000000001
#
# number of rings (size 3 to 8) (size 9 to 14) (size 15 to 20)
#    0.000    1.455    1.818    1.636    2.545    8.000 
#    6.545    0.000    0.000    0.000    0.000    0.000 
#    0.000    0.000    0.000    0.000    0.000    0.000 
#
# Total GULP energy -272564.691459 kJ/mol
# GULP energy per Si atom -12389.304157 kJ/mol
# Density = 2.302721 g / cm^3
# Si number density = 23.079743 Si / 1000 Ang^3
#
#
#
# Elastic Constant Matrix: (Units=GPa)
#
#
# Indices 1 2 3 4 5 6 
#
# 1 103.4981 60.6850 37.7887 0.0000 0.0000 0.0000
# 2 60.6850 144.9101 43.7905 0.0000 0.0000 0.0000
# 3 37.7887 43.7905 75.9329 0.0000 0.0000 0.0000
# 4 0.0000 0.0000 0.0000 29.9599 0.0000 0.0000
# 5 0.0000 0.0000 0.0000 0.0000 38.1892 0.0000
# 6 0.0000 0.0000 0.0000 0.0000 0.0000 28.6106
#
#
#
# Elastic Compliance Matrix: (Units=1/GPa)
#
#
# Indices 1 2 3 4 5 6 
#
# 1 0.013879 -0.004511 -0.004305 0.000000 0.000000 0.000000
# 2 -0.004511 0.009824 -0.003420 0.000000 0.000000 0.000000
# 3 -0.004305 -0.003420 0.017285 0.000000 0.000000 0.000000
# 4 0.000000 0.000000 0.000000 0.033378 0.000000 0.000000
# 5 0.000000 0.000000 0.000000 0.000000 0.026185 0.000000
# 6 0.000000 0.000000 0.000000 0.000000 0.000000 0.034952
#
#
# Mechanical properties :
#
#
# Convention : Reuss Voigt Hill
#
# Bulk Modulus (GPa) = 60.55631 67.65217 64.10424
# Shear Modulus (GPa) = 30.21498 31.49042 30.85270
#
# Velocity S-wave (km/s) = 3.62215 3.69781 3.66018
# Velocity P-wave (km/s) = 6.61726 6.89984 6.76002
#
# Compressibility (1/GPa) = 0.01651356
#
# Stress axis : x y z
#
# Youngs Moduli (GPa) = 72.05090 101.79612 57.85486
#
# Poissons Ratio (x) = 0.45922 0.24909
# Poissons Ratio (y) = 0.32503 0.19788
# Poissons Ratio (z) = 0.31021 0.34817
#
# Static dielectric constant tensor:
#      x y z
#    x 4.644730 0.000000 0.000000 
#    y 0.000000 4.063610 0.000000 
#    z 0.000000 0.000000 4.182560 
# 
# 
# High freq. dielectric constant tensor:
#      x y z
#    x 1.923050 0.000000 0.000000 
#    y 0.000000 1.899050 0.000000 
#    z 0.000000 0.000000 1.908620 
# 
# From -- ./inp_files/1060.got.cif
#   From: 2010.03.12/outbox.cif.g09.slc.cpg/sg18_1_cif.got.tgz:1060.got - 2010.04.10 18:53:55.
