data_PCOD8156266
_publ_section_title
;
Structure prediction by ZEFSAII (Michael W. Deem and Ramdas Pophale) SiO2 
 PCOD8156266
Probable space group: P 21 21 2
;
_chemical_formula_sum "Si O2"
_cell_formula_units_Z 22
_cell_length_a 12.060804
_cell_length_b 5.010719
_cell_length_c 16.375754
_cell_angle_alpha 90.000000
_cell_angle_beta 90.000000
_cell_angle_gamma 90.000000
_cell_volume 989.640850
_symmetry_space_group_name_H-M "P 21 21 2"
_symmetry_group_IT_number 18
_symmetry_cell_setting 'orthorhombic'
loop_
_space_group_symop_operation_xyz
x,y,z
-x,-y,z
1/2+x,1/2-y,-z
1/2-x,1/2+y,-z
loop_
_atom_site_type_symbol
_atom_site_label
_atom_site_fract_x
_atom_site_fract_y
_atom_site_fract_z
Si Si1 0.260448 0.911228 0.778996
Si Si2 0.706207 0.102951 0.319844
Si Si3 0.500000 0.500000 0.946241
Si Si4 0.314404 0.240326 0.527097
Si Si5 0.792533 0.116054 0.963987
Si Si6 0.500000 0.000000 0.833347
Si Si7 0.000000 0.500000 0.569895
O O1 0.219328 0.692205 0.715005
O O2 0.203671 0.189850 0.754528
O O3 0.216099 0.832559 0.868020
O O4 0.393651 0.937040 0.777021
O O5 0.812200 0.165921 0.378324
O O6 0.593452 0.133999 0.372696
O O7 0.473710 0.252381 0.888846
O O8 0.398615 0.554531 0.007049
O O9 0.245210 0.451833 0.473875
O O10 0.438564 0.214969 0.489530
O O11 0.698137 0.905766 0.992482
#
# Coordination Sequence:
#
# PCOD8156266 Si02
#       7
#     4   4   2   4   4   2   2
#     4  12  25  44  67 103 144 176 229 297 352 401
#     4  11  25  43  68 104 142 177 226 289 350 411
#     4  12  22  42  70  96 124 184 240 282 344 400
#     4  10  22  43  71 102 130 181 234 268 332 426
#     4  12  23  42  68 100 132 183 241 287 335 422
#     4  12  24  43  69  90 132 186 226 286 350 397
#     4  10  24  47  75  96 144 188 222 280 352 421
#
# _framework density 22.230287000000001
#
# number of rings (size 3 to 8) (size 9 to 14) (size 15 to 20)
#    0.000    0.727    3.636    4.364    0.000    8.727 
#    0.000    7.273    0.000    0.000    0.000    0.000 
#    0.000    0.000    0.000    0.000    0.000    0.000 
#
# Total GULP energy -272728.893492 kJ/mol
# GULP energy per Si atom -12396.767886 kJ/mol
# Density = 2.217969 g / cm^3
# Si number density = 22.230287 Si / 1000 Ang^3
#
#
#
# Elastic Constant Matrix: (Units=GPa)
#
#
# Indices 1 2 3 4 5 6 
#
# 1 112.3930 27.1924 39.7308 0.0000 0.0000 0.0000
# 2 27.1924 108.3307 31.1598 0.0000 0.0000 0.0000
# 3 39.7308 31.1598 114.6198 0.0000 0.0000 0.0000
# 4 0.0000 0.0000 0.0000 40.7896 0.0000 0.0000
# 5 0.0000 0.0000 0.0000 0.0000 49.9707 0.0000
# 6 0.0000 0.0000 0.0000 0.0000 0.0000 28.1561
#
#
#
# Elastic Compliance Matrix: (Units=1/GPa)
#
#
# Indices 1 2 3 4 5 6 
#
# 1 0.010424 -0.001711 -0.003148 0.000000 0.000000 0.000000
# 2 -0.001711 0.010295 -0.002206 0.000000 0.000000 0.000000
# 3 -0.003148 -0.002206 0.010415 0.000000 0.000000 0.000000
# 4 0.000000 0.000000 0.000000 0.024516 0.000000 0.000000
# 5 0.000000 0.000000 0.000000 0.000000 0.020012 0.000000
# 6 0.000000 0.000000 0.000000 0.000000 0.000000 0.035516
#
#
# Mechanical properties :
#
#
# Convention : Reuss Voigt Hill
#
# Bulk Modulus (GPa) = 58.80713 59.05661 58.93187
# Shear Modulus (GPa) = 38.17479 39.60065 38.88772
#
# Velocity S-wave (km/s) = 4.14846 4.22522 4.18702
# Velocity P-wave (km/s) = 7.03259 7.10119 7.06697
#
# Compressibility (1/GPa) = 0.01700474
#
# Stress axis : x y z
#
# Youngs Moduli (GPa) = 95.93045 97.13542 96.01201
#
# Poissons Ratio (x) = 0.16621 0.30226
# Poissons Ratio (y) = 0.16414 0.21176
# Poissons Ratio (z) = 0.30201 0.21424
#
# Static dielectric constant tensor:
#      x y z
#    x 4.017460 0.000000 0.000000 
#    y 0.000000 4.105070 0.000000 
#    z 0.000000 0.000000 4.020980 
# 
# 
# High freq. dielectric constant tensor:
#      x y z
#    x 1.864430 0.000000 0.000000 
#    y 0.000000 1.890410 0.000000 
#    z 0.000000 0.000000 1.878910 
# 
# From -- ./inp_files/6869.got.cif
#   From: 2010.03.12/outbox.cif.g09.slc.cpg/sg18_4_cif.got.tgz:6869.got - 2010.04.10 18:53:55.
