data_PCOD8156370
_publ_section_title
;
Structure prediction by ZEFSAII (Michael W. Deem and Ramdas Pophale) SiO2 
 PCOD8156370
Probable space group: P 21 21 2
;
_chemical_formula_sum "Si O2"
_cell_formula_units_Z 32
_cell_length_a 8.426312
_cell_length_b 11.851406
_cell_length_c 14.730756
_cell_angle_alpha 90.000000
_cell_angle_beta 90.000000
_cell_angle_gamma 90.000000
_cell_volume 1471.066982
_symmetry_space_group_name_H-M "P 21 21 2"
_symmetry_group_IT_number 18
_symmetry_cell_setting 'orthorhombic'
loop_
_space_group_symop_operation_xyz
x,y,z
-x,-y,z
1/2+x,1/2-y,-z
1/2-x,1/2+y,-z
loop_
_atom_site_type_symbol
_atom_site_label
_atom_site_fract_x
_atom_site_fract_y
_atom_site_fract_z
Si Si1 0.677949 0.173316 0.726805
Si Si2 0.174280 0.592887 0.768525
Si Si3 0.673735 0.807878 0.680834
Si Si4 0.687024 0.512875 0.420456
Si Si5 0.169393 0.944785 0.375610
Si Si6 0.884128 0.717715 0.828068
Si Si7 0.326563 0.461903 0.915430
Si Si8 0.390578 0.404366 0.117935
O O1 0.721782 0.304434 0.730310
O O2 0.490480 0.154998 0.726944
O O3 0.741496 0.112853 0.817163
O O4 0.756172 0.120305 0.637138
O O5 0.207874 0.488710 0.700686
O O6 0.216508 0.559603 0.873056
O O7 0.988043 0.624055 0.773661
O O8 0.722644 0.899819 0.607438
O O9 0.652226 0.689125 0.631477
O O10 0.810165 0.804926 0.756806
O O11 0.500000 0.500000 0.408971
O O12 0.735834 0.529616 0.524812
O O13 0.000000 0.000000 0.357444
O O14 0.736844 0.659389 0.879959
O O15 0.003717 0.789560 0.893106
O O16 0.500000 0.500000 0.880009
O O17 0.323373 0.453447 0.023621
O O18 0.500000 0.500000 0.162965
#
# Coordination Sequence:
#
# PCOD8156370 Si02
#       8
#     4   4   4   4   4   4   4   4
#     4  11  23  45  72  99 140 185 234 289 353 421
#     4  11  22  44  70 101 138 178 228 290 359 415
#     4  12  24  43  71 102 139 188 237 287 356 417
#     4  11  26  45  66 101 145 185 238 289 350 424
#     4  11  24  44  71 105 141 179 232 298 352 417
#     4  11  24  42  69 100 137 183 233 281 359 419
#     4  11  23  42  66 101 137 176 229 291 345 420
#     4  10  24  44  69  98 140 183 229 288 354 421
#
# _framework density 21.75292
#
# number of rings (size 3 to 8) (size 9 to 14) (size 15 to 20)
#    0.000    1.000    2.500    4.500    1.750    5.000 
#    4.500    5.000    0.000    0.000    0.000    0.000 
#    0.000    0.000    0.000    0.000    0.000    0.000 
#
# Total GULP energy -396802.654347 kJ/mol
# GULP energy per Si atom -12400.082948 kJ/mol
# Density = 2.170341 g / cm^3
# Si number density = 21.752920 Si / 1000 Ang^3
#
#
#
# Elastic Constant Matrix: (Units=GPa)
#
#
# Indices 1 2 3 4 5 6 
#
# 1 134.2493 47.7329 68.1902 0.0000 0.0000 0.0000
# 2 47.7329 126.3328 57.3773 0.0000 0.0000 0.0000
# 3 68.1902 57.3773 135.3443 0.0000 0.0000 0.0000
# 4 0.0000 0.0000 0.0000 37.0558 0.0000 0.0000
# 5 0.0000 0.0000 0.0000 0.0000 29.5692 0.0000
# 6 0.0000 0.0000 0.0000 0.0000 0.0000 42.9911
#
#
#
# Elastic Compliance Matrix: (Units=1/GPa)
#
#
# Indices 1 2 3 4 5 6 
#
# 1 0.010371 -0.001914 -0.004414 0.000000 0.000000 0.000000
# 2 -0.001914 0.010156 -0.003341 0.000000 0.000000 0.000000
# 3 -0.004414 -0.003341 0.011029 0.000000 0.000000 0.000000
# 4 0.000000 0.000000 0.000000 0.026986 0.000000 0.000000
# 5 0.000000 0.000000 0.000000 0.000000 0.033819 0.000000
# 6 0.000000 0.000000 0.000000 0.000000 0.000000 0.023261
#
#
# Mechanical properties :
#
#
# Convention : Reuss Voigt Hill
#
# Bulk Modulus (GPa) = 81.84563 82.50301 82.17432
# Shear Modulus (GPa) = 35.96249 36.76496 36.36372
#
# Velocity S-wave (km/s) = 4.07040 4.11556 4.09304
# Velocity P-wave (km/s) = 7.73290 7.78418 7.75858
#
# Compressibility (1/GPa) = 0.01221812
#
# Stress axis : x y z
#
# Youngs Moduli (GPa) = 96.41929 98.46104 90.67037
#
# Poissons Ratio (x) = 0.18845 0.40022
# Poissons Ratio (y) = 0.18454 0.30296
# Poissons Ratio (z) = 0.42559 0.32899
#
# Static dielectric constant tensor:
#      x y z
#    x 3.983710 0.000000 0.000000 
#    y 0.000000 4.112880 0.000000 
#    z 0.000000 0.000000 3.786140 
# 
# 
# High freq. dielectric constant tensor:
#      x y z
#    x 1.865190 0.000000 0.000000 
#    y 0.000000 1.871720 0.000000 
#    z 0.000000 0.000000 1.845490 
# 
# From -- ./inp_files/6807.got.cif
#   From: 2010.03.12/outbox.cif.g09.slc.cpg/sg18_4_cif.got.tgz:6807.got - 2010.04.10 18:53:55.
