data_PCOD8156492
_publ_section_title
;
Structure prediction by ZEFSAII (Michael W. Deem and Ramdas Pophale) SiO2 
 PCOD8156492
Probable space group: P 21 21 2
;
_chemical_formula_sum "Si O2"
_cell_formula_units_Z 22
_cell_length_a 5.238898
_cell_length_b 12.937461
_cell_length_c 14.681072
_cell_angle_alpha 90.000000
_cell_angle_beta 90.000000
_cell_angle_gamma 90.000000
_cell_volume 995.054264
_symmetry_space_group_name_H-M "P 21 21 2"
_symmetry_group_IT_number 18
_symmetry_cell_setting 'orthorhombic'
loop_
_space_group_symop_operation_xyz
x,y,z
-x,-y,z
1/2+x,1/2-y,-z
1/2-x,1/2+y,-z
loop_
_atom_site_type_symbol
_atom_site_label
_atom_site_fract_x
_atom_site_fract_y
_atom_site_fract_z
Si Si1 0.347100 0.341235 0.589276
Si Si2 0.000000 0.000000 0.745583
Si Si3 0.000000 0.000000 0.273910
Si Si4 0.500000 0.000000 0.862961
Si Si5 0.500000 0.000000 0.490381
Si Si6 0.000000 0.500000 0.848622
Si Si7 0.380570 0.635701 0.406406
Si Si8 0.498463 0.821113 0.004659
O O1 0.533035 0.400493 0.659501
O O2 0.091143 0.409082 0.576685
O O3 0.453720 0.319948 0.488553
O O4 0.294434 0.228854 0.630768
O O5 0.042999 0.900022 0.680899
O O6 0.249723 0.017555 0.804163
O O7 0.248572 0.990598 0.212129
O O8 0.544652 0.103344 0.920123
O O9 0.273463 0.036515 0.556356
O O10 0.980056 0.394402 0.906770
O O11 0.757499 0.755915 0.990420
#
# Coordination Sequence:
#
# PCOD8156492 Si02
#       8
#     4   2   2   2   2   2   4   4
#     4  12  25  40  66  92 132 193 240 288 341 400
#     4  12  25  45  68 102 148 176 230 297 345 398
#     4  12  25  45  68 102 148 176 230 297 345 398
#     4  11  27  46  72 108 140 178 223 283 350 420
#     4  12  20  44  62  88 128 180 248 292 340 394
#     4  11  27  46  72 108 140 178 223 283 350 420
#     4  12  25  40  66  92 132 193 240 288 341 400
#     4  11  24  49  80 104 138 181 222 271 348 434
#
# _framework density 22.109345000000001
#
# number of rings (size 3 to 8) (size 9 to 14) (size 15 to 20)
#    0.000    0.364    5.455    3.273    0.000    7.273 
#    0.000    3.636    0.000    0.000    0.000    0.000 
#    0.000    0.000    0.000    0.000    0.000    0.000 
#
# Total GULP energy -272797.818085 kJ/mol
# GULP energy per Si atom -12399.900822 kJ/mol
# Density = 2.205902 g / cm^3
# Si number density = 22.109345 Si / 1000 Ang^3
#
#
#
# Elastic Constant Matrix: (Units=GPa)
#
#
# Indices 1 2 3 4 5 6 
#
# 1 97.0291 10.2110 25.9828 0.0000 0.0000 0.0000
# 2 10.2110 121.9106 39.5137 0.0000 0.0000 0.0000
# 3 25.9828 39.5137 109.6842 0.0000 0.0000 0.0000
# 4 0.0000 0.0000 0.0000 -1.9926 0.0000 0.0000
# 5 0.0000 0.0000 0.0000 0.0000 43.5364 0.0000
# 6 0.0000 0.0000 0.0000 0.0000 0.0000 46.4649
#
#
#
# Elastic Compliance Matrix: (Units=1/GPa)
#
#
# Indices 1 2 3 4 5 6 
#
# 1 0.011005 -0.000087 -0.002576 0.000000 0.000000 0.000000
# 2 -0.000087 0.009288 -0.003325 0.000000 0.000000 0.000000
# 3 -0.002576 -0.003325 0.010925 0.000000 0.000000 0.000000
# 4 0.000000 0.000000 0.000000 -0.501849 0.000000 0.000000
# 5 0.000000 0.000000 0.000000 0.000000 0.022969 0.000000
# 6 0.000000 0.000000 0.000000 0.000000 0.000000 0.021522
#
#
# Mechanical properties :
#
#
# Convention : Reuss Voigt Hill
#
# Bulk Modulus (GPa) = 51.96910 53.33766 52.65338
# Shear Modulus (GPa) = -12.26242 34.46283 11.10020
#
# Velocity S-wave (km/s) = -2.35760 3.95238 2.24310
# Velocity P-wave (km/s) = 4.01814 6.70859 5.52950
#
# Compressibility (1/GPa) = 0.01924220
#
# Stress axis : x y z
#
# Youngs Moduli (GPa) = 90.86737 107.66781 91.53167
#
# Poissons Ratio (x) = 0.00936 0.23575
# Poissons Ratio (y) = 0.00790 0.30437
# Poissons Ratio (z) = 0.23404 0.35803
#
# Static dielectric constant tensor:
#      x y z
#    x 4.065410 0.000000 0.000000 
#    y 0.000000 4.176820 0.000000 
#    z 0.000000 0.000000 4.135860 
# 
# 
# High freq. dielectric constant tensor:
#      x y z
#    x 1.876420 0.000000 0.000000 
#    y 0.000000 1.887140 0.000000 
#    z 0.000000 0.000000 1.869500 
# 
# From -- ./inp_files/6456.got.cif
#   From: 2010.03.12/outbox.cif.g09.slc.cpg/sg18_4_cif.got.tgz:6456.got - 2010.04.10 18:53:55.
