data_PCOD8156414
_publ_section_title
;
Structure prediction by ZEFSAII (Michael W. Deem and Ramdas Pophale) SiO2 
 PCOD8156414
Probable space group: P 21 21 2
;
_chemical_formula_sum "Si O2"
_cell_formula_units_Z 30
_cell_length_a 19.617942
_cell_length_b 11.723483
_cell_length_c 5.610273
_cell_angle_alpha 90.000000
_cell_angle_beta 90.000000
_cell_angle_gamma 90.000000
_cell_volume 1290.310107
_symmetry_space_group_name_H-M "P 21 21 2"
_symmetry_group_IT_number 18
_symmetry_cell_setting 'orthorhombic'
loop_
_space_group_symop_operation_xyz
x,y,z
-x,-y,z
1/2+x,1/2-y,-z
1/2-x,1/2+y,-z
loop_
_atom_site_type_symbol
_atom_site_label
_atom_site_fract_x
_atom_site_fract_y
_atom_site_fract_z
Si Si1 0.465280 0.794083 0.602199
Si Si2 0.668381 0.865584 0.079112
Si Si3 0.349571 0.922384 0.786872
Si Si4 0.532612 0.747390 0.087356
Si Si5 0.619056 0.401482 0.472117
Si Si6 0.752315 0.516113 0.595039
Si Si7 0.500000 0.500000 0.188242
Si Si8 0.707059 0.240199 0.139357
O O1 0.410892 0.899245 0.599100
O O2 0.500012 0.793307 0.338289
O O3 0.427698 0.673083 0.647493
O O4 0.511618 0.811948 0.840438
O O5 0.613487 0.766234 0.122716
O O6 0.699686 0.910325 0.327191
O O7 0.731139 0.822264 0.923463
O O8 0.630375 0.972280 0.954461
O O9 0.276717 0.950721 0.668003
O O10 0.339747 0.801270 0.920664
O O11 0.514140 0.615034 0.039348
O O12 0.673581 0.479052 0.609541
O O13 0.569401 0.487802 0.337048
O O14 0.657235 0.308879 0.309289
O O15 0.759837 0.625387 0.759653
#
# Coordination Sequence:
#
# PCOD8156414 Si02
#       8
#     4   4   4   4   4   4   2   4
#     4  11  25  48  72 100 149 195 235 301 363 438
#     4  11  27  43  70 111 141 186 246 308 359 433
#     4  11  23  45  68 103 136 189 240 289 373 425
#     4  11  28  48  73 106 146 194 244 301 364 443
#     4  11  23  46  72 107 143 192 244 301 368 441
#     4  11  25  42  74 105 139 191 245 299 369 431
#     4  10  26  44  76 104 146 192 246 294 374 448
#     4  11  24  43  70 104 146 185 238 314 362 432
#
# _framework density 23.250223999999999
#
# number of rings (size 3 to 8) (size 9 to 14) (size 15 to 20)
#    0.000    1.067    2.667    2.400    5.600    5.867 
#    0.000    0.000    0.000    0.000    0.000    0.000 
#    0.000    0.000    0.000    0.000    0.000    0.000 
#
# Total GULP energy -371793.697956 kJ/mol
# GULP energy per Si atom -12393.123265 kJ/mol
# Density = 2.319731 g / cm^3
# Si number density = 23.250224 Si / 1000 Ang^3
#
#
#
# Elastic Constant Matrix: (Units=GPa)
#
#
# Indices 1 2 3 4 5 6 
#
# 1 92.4169 31.2343 25.2807 0.0000 0.0000 0.0000
# 2 31.2343 62.5397 12.7327 0.0000 0.0000 0.0000
# 3 25.2807 12.7327 100.5253 0.0000 0.0000 0.0000
# 4 0.0000 0.0000 0.0000 23.7745 0.0000 0.0000
# 5 0.0000 0.0000 0.0000 0.0000 17.4748 0.0000
# 6 0.0000 0.0000 0.0000 0.0000 0.0000 46.8252
#
#
#
# Elastic Compliance Matrix: (Units=1/GPa)
#
#
# Indices 1 2 3 4 5 6 
#
# 1 0.013668 -0.006289 -0.002641 0.000000 0.000000 0.000000
# 2 -0.006289 0.019307 -0.000864 0.000000 0.000000 0.000000
# 3 -0.002641 -0.000864 0.010721 0.000000 0.000000 0.000000
# 4 0.000000 0.000000 0.000000 0.042062 0.000000 0.000000
# 5 0.000000 0.000000 0.000000 0.000000 0.057225 0.000000
# 6 0.000000 0.000000 0.000000 0.000000 0.000000 0.021356
#
#
# Mechanical properties :
#
#
# Convention : Reuss Voigt Hill
#
# Bulk Modulus (GPa) = 41.47785 43.77525 42.62655
# Shear Modulus (GPa) = 26.04671 30.03050 28.03861
#
# Velocity S-wave (km/s) = 3.35069 3.59781 3.47645
# Velocity P-wave (km/s) = 5.73131 6.01064 5.87264
#
# Compressibility (1/GPa) = 0.02410925
#
# Stress axis : x y z
#
# Youngs Moduli (GPa) = 73.16163 51.79594 93.27227
#
# Poissons Ratio (x) = 0.32573 0.24632
# Poissons Ratio (y) = 0.46010 0.08057
# Poissons Ratio (z) = 0.19321 0.04474
#
# Static dielectric constant tensor:
#      x y z
#    x 4.238110 0.000000 0.000000 
#    y 0.000000 4.335160 0.000000 
#    z 0.000000 0.000000 4.093120 
# 
# 
# High freq. dielectric constant tensor:
#      x y z
#    x 1.925430 0.000000 0.000000 
#    y 0.000000 1.924770 0.000000 
#    z 0.000000 0.000000 1.912020 
# 
# From -- ./inp_files/2000.got.cif
#   From: 2010.03.12/outbox.cif.g09.slc.cpg/sg18_1_cif.got.tgz:2000.got - 2010.04.10 18:53:55.
