data_PCOD8156756
_publ_section_title
;
Structure prediction by ZEFSAII (Michael W. Deem and Ramdas Pophale) SiO2 
 PCOD8156756
Probable space group: P 21 21 21
;
_chemical_formula_sum "Si O2"
_cell_formula_units_Z 20
_cell_length_a 15.409407
_cell_length_b 5.147967
_cell_length_c 13.003032
_cell_angle_alpha 90.000000
_cell_angle_beta 90.000000
_cell_angle_gamma 90.000000
_cell_volume 1031.493063
_symmetry_space_group_name_H-M "P 21 21 21"
_symmetry_group_IT_number 19
_symmetry_cell_setting 'orthorhombic'
loop_
_space_group_symop_operation_xyz
x,y,z
1/2-x,-y,1/2+z
1/2+x,1/2-y,-z
-x,1/2+y,1/2-z
loop_
_atom_site_type_symbol
_atom_site_label
_atom_site_fract_x
_atom_site_fract_y
_atom_site_fract_z
Si Si1 0.103074 0.058088 0.704464
Si Si2 0.886449 0.870022 0.259657
Si Si3 0.552187 0.711770 0.103684
Si Si4 0.052851 0.870087 0.130055
Si Si5 0.310141 0.428912 0.263370
O O1 0.171021 0.292264 0.714757
O O2 0.034977 0.114051 0.613297
O O3 0.047731 0.021607 0.811356
O O4 0.158334 0.795710 0.682585
O O5 0.891687 0.593931 0.315878
O O6 0.791294 0.904927 0.212538
O O7 0.952758 0.887807 0.164675
O O8 0.906863 0.092311 0.342462
O O9 0.637586 0.886643 0.129169
O O10 0.558210 0.589075 0.991642
#
# Coordination Sequence:
#
# PCOD8156756 Si02
#       5
#     4   4   4   4   4
#     4  10  20  35  61  84 122 148 181 257 291 340
#     4  10  22  43  56  87 117 165 192 250 277 362
#     4  10  21  38  61  90 117 156 194 239 302 351
#     4  10  23  39  65  77 125 160 199 229 307 348
#     4  10  20  37  59  84 121 147 194 247 289 335
#
# _framework density 19.389368000000001
#
# number of rings (size 3 to 8) (size 9 to 14) (size 15 to 20)
#    1.200    0.800    2.000    1.200    2.800    0.000 
#    7.200    0.000    0.000    0.000    0.000    0.000 
#    0.000    0.000    0.000    0.000    0.000    0.000 
#
# Total GULP energy -247918.481121 kJ/mol
# GULP energy per Si atom -12395.924056 kJ/mol
# Density = 1.934524 g / cm^3
# Si number density = 19.389368 Si / 1000 Ang^3
#
#
#
# Elastic Constant Matrix: (Units=GPa)
#
#
# Indices 1 2 3 4 5 6 
#
# 1 120.6209 16.9925 11.9377 0.0000 0.0000 0.0000
# 2 16.9925 97.4048 -1.6937 0.0000 0.0000 0.0000
# 3 11.9377 -1.6937 65.8587 0.0000 0.0000 0.0000
# 4 0.0000 0.0000 0.0000 17.2321 0.0000 0.0000
# 5 0.0000 0.0000 0.0000 0.0000 10.4601 0.0000
# 6 0.0000 0.0000 0.0000 0.0000 0.0000 26.4132
#
#
#
# Elastic Compliance Matrix: (Units=1/GPa)
#
#
# Indices 1 2 3 4 5 6 
#
# 1 0.008667 -0.001540 -0.001611 0.000000 0.000000 0.000000
# 2 -0.001540 0.010545 0.000550 0.000000 0.000000 0.000000
# 3 -0.001611 0.000550 0.015490 0.000000 0.000000 0.000000
# 4 0.000000 0.000000 0.000000 0.058031 0.000000 0.000000
# 5 0.000000 0.000000 0.000000 0.000000 0.095601 0.000000
# 6 0.000000 0.000000 0.000000 0.000000 0.000000 0.037860
#
#
# Mechanical properties :
#
#
# Convention : Reuss Voigt Hill
#
# Bulk Modulus (GPa) = 33.89701 37.59528 35.74614
# Shear Modulus (GPa) = 20.72725 27.93091 24.32908
#
# Velocity S-wave (km/s) = 3.27310 3.79955 3.54611
# Velocity P-wave (km/s) = 5.63955 6.21936 5.93654
#
# Compressibility (1/GPa) = 0.02950113
#
# Stress axis : x y z
#
# Youngs Moduli (GPa) = 115.38314 94.83479 64.55731
#
# Poissons Ratio (x) = 0.14604 0.10397
# Poissons Ratio (y) = 0.17768 -0.03553
# Poissons Ratio (z) = 0.18583 -0.05219
#
# Static dielectric constant tensor:
#      x y z
#    x 3.464080 0.000000 0.000000 
#    y 0.000000 3.639230 0.000000 
#    z 0.000000 0.000000 3.010580 
# 
# 
# High freq. dielectric constant tensor:
#      x y z
#    x 1.757740 0.000000 0.000000 
#    y 0.000000 1.769770 0.000000 
#    z 0.000000 0.000000 1.708530 
# 
# From -- ./inp_files/843.got.cif
#   From: 2010.03.12/outbox.cif.g09.slc.cpg/sg19_1_cif.got.tgz:843.got - 2010.04.10 18:59:41.
