data_PCOD8156197
_publ_section_title
;
Structure prediction by ZEFSAII (Michael W. Deem and Ramdas Pophale) SiO2 
 PCOD8156197
Probable space group: P 21 21 2
;
_chemical_formula_sum "Si O2"
_cell_formula_units_Z 24
_cell_length_a 8.549028
_cell_length_b 13.897528
_cell_length_c 9.726667
_cell_angle_alpha 90.000000
_cell_angle_beta 90.000000
_cell_angle_gamma 90.000000
_cell_volume 1155.628769
_symmetry_space_group_name_H-M "P 21 21 2"
_symmetry_group_IT_number 18
_symmetry_cell_setting 'orthorhombic'
loop_
_space_group_symop_operation_xyz
x,y,z
-x,-y,z
1/2+x,1/2-y,-z
1/2-x,1/2+y,-z
loop_
_atom_site_type_symbol
_atom_site_label
_atom_site_fract_x
_atom_site_fract_y
_atom_site_fract_z
Si Si1 0.316996 0.698814 0.649424
Si Si2 0.181328 0.199221 0.849153
Si Si3 0.816265 0.201049 0.897177
Si Si4 0.178190 0.000264 0.492349
Si Si5 0.174326 0.795735 0.401750
Si Si6 0.316927 0.998200 0.788492
O O1 0.263554 0.715694 0.805270
O O2 0.287132 0.589552 0.606189
O O3 0.207170 0.767112 0.558489
O O4 0.496992 0.730434 0.636300
O O5 0.207782 0.236473 0.694143
O O6 0.000661 0.202657 0.882863
O O7 0.240806 0.090107 0.862867
O O8 0.275596 0.272304 0.946620
O O9 0.753663 0.096410 0.857601
O O10 0.207328 0.909452 0.392924
O O11 0.288898 0.000603 0.624792
O O12 0.000000 0.000000 0.547817
O O13 0.500000 0.000000 0.816274
#
# Coordination Sequence:
#
# PCOD8156197 Si02
#       6
#     4   4   4   4   4   4
#     4  11  22  39  64  96 130 170 219 269 323 382
#     4  12  26  45  67  95 134 175 220 272 330 392
#     4  12  26  45  67  95 134 175 220 272 330 392
#     4  10  22  39  64  95 132 172 216 268 326 383
#     4  11  22  39  64  96 130 170 219 269 323 382
#     4  12  24  41  68  97 128 170 220 268 330 397
#
# _framework density 20.767914000000001
#
# number of rings (size 3 to 8) (size 9 to 14) (size 15 to 20)
#    0.000    0.667    3.333    5.500    0.000    2.667 
#    0.000    5.000    0.000    0.000    0.000    0.000 
#    0.000    0.000    0.000    0.000    0.000    0.000 
#
# Total GULP energy -297769.632751 kJ/mol
# GULP energy per Si atom -12407.068031 kJ/mol
# Density = 2.072064 g / cm^3
# Si number density = 20.767914 Si / 1000 Ang^3
#
#
#
# Elastic Constant Matrix: (Units=GPa)
#
#
# Indices 1 2 3 4 5 6 
#
# 1 138.0386 35.2666 11.4675 0.0000 0.0000 0.0000
# 2 35.2666 135.5313 20.8004 0.0000 0.0000 0.0000
# 3 11.4675 20.8004 56.9462 0.0000 0.0000 0.0000
# 4 0.0000 0.0000 0.0000 27.8966 0.0000 0.0000
# 5 0.0000 0.0000 0.0000 0.0000 39.8364 0.0000
# 6 0.0000 0.0000 0.0000 0.0000 0.0000 27.8452
#
#
#
# Elastic Compliance Matrix: (Units=1/GPa)
#
#
# Indices 1 2 3 4 5 6 
#
# 1 0.007802 -0.001895 -0.000879 0.000000 0.000000 0.000000
# 2 -0.001895 0.008277 -0.002642 0.000000 0.000000 0.000000
# 3 -0.000879 -0.002642 0.018702 0.000000 0.000000 0.000000
# 4 0.000000 0.000000 0.000000 0.035847 0.000000 0.000000
# 5 0.000000 0.000000 0.000000 0.000000 0.025103 0.000000
# 6 0.000000 0.000000 0.000000 0.000000 0.000000 0.035913
#
#
# Mechanical properties :
#
#
# Convention : Reuss Voigt Hill
#
# Bulk Modulus (GPa) = 41.75439 51.73168 46.74303
# Shear Modulus (GPa) = 33.23205 36.64776 34.93990
#
# Velocity S-wave (km/s) = 4.00454 4.20531 4.10615
# Velocity P-wave (km/s) = 6.44443 6.96728 6.71095
#
# Compressibility (1/GPa) = 0.02394958
#
# Stress axis : x y z
#
# Youngs Moduli (GPa) = 128.17984 120.81775 53.46943
#
# Poissons Ratio (x) = 0.22897 0.04699
# Poissons Ratio (y) = 0.24292 0.14125
# Poissons Ratio (z) = 0.11264 0.31915
#
# Static dielectric constant tensor:
#      x y z
#    x 3.823760 0.000000 0.000000 
#    y 0.000000 3.924690 0.000000 
#    z 0.000000 0.000000 3.696950 
# 
# 
# High freq. dielectric constant tensor:
#      x y z
#    x 1.825000 0.000000 0.000000 
#    y 0.000000 1.829480 0.000000 
#    z 0.000000 0.000000 1.803300 
# 
# From -- ./inp_files/3149.got.cif
#   From: 2010.03.12/outbox.cif.g09.slc.cpg/sg18_2_cif.got.tgz:3149.got - 2010.04.10 18:53:55.
