data_PCOD8156513
_publ_section_title
;
Structure prediction by ZEFSAII (Michael W. Deem and Ramdas Pophale) SiO2 
 PCOD8156513
Probable space group: P 21 21 2
;
_chemical_formula_sum "Si O2"
_cell_formula_units_Z 26
_cell_length_a 9.000273
_cell_length_b 8.121228
_cell_length_c 16.365957
_cell_angle_alpha 90.000000
_cell_angle_beta 90.000000
_cell_angle_gamma 90.000000
_cell_volume 1196.241299
_symmetry_space_group_name_H-M "P 21 21 2"
_symmetry_group_IT_number 18
_symmetry_cell_setting 'orthorhombic'
loop_
_space_group_symop_operation_xyz
x,y,z
-x,-y,z
1/2+x,1/2-y,-z
1/2-x,1/2+y,-z
loop_
_atom_site_type_symbol
_atom_site_label
_atom_site_fract_x
_atom_site_fract_y
_atom_site_fract_z
Si Si1 0.051400 0.249438 0.254000
Si Si2 0.000000 0.500000 0.858517
Si Si3 0.735945 0.579877 0.740249
Si Si4 0.097433 0.347397 0.079440
Si Si5 0.569462 0.666330 0.043943
Si Si6 0.068190 0.259661 0.434842
Si Si7 0.233790 0.920052 0.440640
O O1 0.119751 0.349288 0.177635
O O2 0.075060 0.335164 0.342380
O O3 0.875180 0.228923 0.235626
O O4 0.133408 0.078394 0.262034
O O5 0.135046 0.437985 0.804471
O O6 0.042747 0.663858 0.907667
O O7 0.801152 0.612017 0.649771
O O8 0.255195 0.361572 0.034254
O O9 0.000000 0.500000 0.050207
O O10 0.010164 0.186212 0.045115
O O11 0.500000 0.500000 0.084996
O O12 0.131757 0.399138 0.495114
O O13 0.900556 0.208255 0.457303
O O14 0.174674 0.103996 0.446985
#
# Coordination Sequence:
#
# PCOD8156513 Si02
#       7
#     4   2   4   4   4   4   4
#     4   9  20  40  65  89 132 176 228 273 338 422
#     4  12  24  46  70 100 138 180 232 290 362 404
#     4   9  20  38  67  94 123 181 222 274 342 417
#     4  12  26  47  71 100 139 185 228 290 358 413
#     4  12  29  46  71 106 141 179 238 295 348 430
#     4   9  19  38  59  92 124 169 221 270 330 405
#     4   9  19  37  61  88 127 167 218 271 334 398
#
# _framework density 21.734743999999999
#
# number of rings (size 3 to 8) (size 9 to 14) (size 15 to 20)
#    0.000    1.846    2.308    2.769    6.462    3.077 
#    5.538    0.000    0.000    0.000    0.000    0.000 
#    0.000    0.000    0.000    0.000    0.000    0.000 
#
# Total GULP energy -322205.936078 kJ/mol
# GULP energy per Si atom -12392.536003 kJ/mol
# Density = 2.168527 g / cm^3
# Si number density = 21.734744 Si / 1000 Ang^3
#
#
#
# Elastic Constant Matrix: (Units=GPa)
#
#
# Indices 1 2 3 4 5 6 
#
# 1 116.2934 39.4053 59.4186 0.0000 0.0000 0.0000
# 2 39.4053 85.8339 27.2260 0.0000 0.0000 0.0000
# 3 59.4186 27.2260 121.2416 0.0000 0.0000 0.0000
# 4 0.0000 0.0000 0.0000 32.5218 0.0000 0.0000
# 5 0.0000 0.0000 0.0000 0.0000 57.0728 0.0000
# 6 0.0000 0.0000 0.0000 0.0000 0.0000 30.5198
#
#
#
# Elastic Compliance Matrix: (Units=1/GPa)
#
#
# Indices 1 2 3 4 5 6 
#
# 1 0.012714 -0.004157 -0.005298 0.000000 0.000000 0.000000
# 2 -0.004157 0.013903 -0.001085 0.000000 0.000000 0.000000
# 3 -0.005298 -0.001085 0.011088 0.000000 0.000000 0.000000
# 4 0.000000 0.000000 0.000000 0.030749 0.000000 0.000000
# 5 0.000000 0.000000 0.000000 0.000000 0.017521 0.000000
# 6 0.000000 0.000000 0.000000 0.000000 0.000000 0.032766
#
#
# Mechanical properties :
#
#
# Convention : Reuss Voigt Hill
#
# Bulk Modulus (GPa) = 60.14452 63.94095 62.04274
# Shear Modulus (GPa) = 34.39716 37.17747 35.78732
#
# Velocity S-wave (km/s) = 3.98249 4.14032 4.06217
# Velocity P-wave (km/s) = 6.99136 7.23457 7.11400
#
# Compressibility (1/GPa) = 0.01662662
#
# Stress axis : x y z
#
# Youngs Moduli (GPa) = 78.65293 71.92811 90.18843
#
# Poissons Ratio (x) = 0.29897 0.47778
# Poissons Ratio (y) = 0.32692 0.09785
# Poissons Ratio (z) = 0.41667 0.07804
#
# Static dielectric constant tensor:
#      x y z
#    x 3.816030 0.000000 0.000000 
#    y 0.000000 3.161000 0.000000 
#    z 0.000000 0.000000 4.191070 
# 
# 
# High freq. dielectric constant tensor:
#      x y z
#    x 1.853900 0.000000 0.000000 
#    y 0.000000 1.843250 0.000000 
#    z 0.000000 0.000000 1.857680 
# 
# From -- ./inp_files/7325.got.cif
#   From: 2010.03.12/outbox.cif.g09.slc.cpg/sg18_4_cif.got.tgz:7325.got - 2010.04.10 18:53:55.
