data_PCOD8156403
_publ_section_title
;
Structure prediction by ZEFSAII (Michael W. Deem and Ramdas Pophale) SiO2 
 PCOD8156403
Probable space group: P 21 21 2
;
_chemical_formula_sum "Si O2"
_cell_formula_units_Z 26
_cell_length_a 11.187868
_cell_length_b 8.181412
_cell_length_c 12.555366
_cell_angle_alpha 90.000000
_cell_angle_beta 90.000000
_cell_angle_gamma 90.000000
_cell_volume 1149.224760
_symmetry_space_group_name_H-M "P 21 21 2"
_symmetry_group_IT_number 18
_symmetry_cell_setting 'orthorhombic'
loop_
_space_group_symop_operation_xyz
x,y,z
-x,-y,z
1/2+x,1/2-y,-z
1/2-x,1/2+y,-z
loop_
_atom_site_type_symbol
_atom_site_label
_atom_site_fract_x
_atom_site_fract_y
_atom_site_fract_z
Si Si1 0.518980 0.739234 0.625506
Si Si2 0.269818 0.962001 0.906436
Si Si3 0.934140 0.347279 0.600330
Si Si4 0.302132 0.520970 0.663981
Si Si5 0.189700 0.333315 0.865897
Si Si6 0.000000 0.500000 0.212135
Si Si7 0.453756 0.323241 0.190461
O O1 0.494208 0.812884 0.508798
O O2 0.403311 0.659145 0.682362
O O3 0.629478 0.620212 0.600509
O O4 0.564800 0.871036 0.710109
O O5 0.178217 0.822882 0.861817
O O6 0.242410 0.149588 0.873330
O O7 0.399170 0.916079 0.859895
O O8 0.275461 0.941513 0.032835
O O9 0.795766 0.398751 0.586051
O O10 0.942494 0.196588 0.682183
O O11 0.000000 0.500000 0.655376
O O12 0.243851 0.442691 0.770067
O O13 0.045104 0.312861 0.856300
O O14 0.500000 0.500000 0.161150
#
# Coordination Sequence:
#
# PCOD8156403 Si02
#       7
#     4   4   4   4   4   2   4
#     4  11  27  46  71 106 138 190 235 300 361 432
#     4  11  27  43  73 105 143 194 243 304 361 439
#     4  12  25  42  74 100 139 187 235 292 363 428
#     4  11  26  48  70 102 146 182 239 300 357 442
#     4  11  25  47  72 103 141 192 242 300 372 422
#     4  12  24  46  70 100 150 180 244 294 370 426
#     4  10  25  47  69 106 141 184 245 297 352 436
#
# _framework density 22.623947999999999
#
# number of rings (size 3 to 8) (size 9 to 14) (size 15 to 20)
#    0.000    0.923    3.846    0.923   10.769    1.231 
#    5.538    0.000    0.000    0.000    0.000    0.000 
#    0.000    0.000    0.000    0.000    0.000    0.000 
#
# Total GULP energy -322189.210287 kJ/mol
# GULP energy per Si atom -12391.892703 kJ/mol
# Density = 2.257245 g / cm^3
# Si number density = 22.623948 Si / 1000 Ang^3
#
#
#
# Elastic Constant Matrix: (Units=GPa)
#
#
# Indices 1 2 3 4 5 6 
#
# 1 139.6613 23.2046 56.0846 0.0000 0.0000 0.0000
# 2 23.2046 62.1766 38.0263 0.0000 0.0000 0.0000
# 3 56.0846 38.0263 121.9617 0.0000 0.0000 0.0000
# 4 0.0000 0.0000 0.0000 32.4217 0.0000 0.0000
# 5 0.0000 0.0000 0.0000 0.0000 30.7182 0.0000
# 6 0.0000 0.0000 0.0000 0.0000 0.0000 33.4635
#
#
#
# Elastic Compliance Matrix: (Units=1/GPa)
#
#
# Indices 1 2 3 4 5 6 
#
# 1 0.008832 -0.001004 -0.003749 0.000000 0.000000 0.000000
# 2 -0.001004 0.019987 -0.005770 0.000000 0.000000 0.000000
# 3 -0.003749 -0.005770 0.011722 0.000000 0.000000 0.000000
# 4 0.000000 0.000000 0.000000 0.030844 0.000000 0.000000
# 5 0.000000 0.000000 0.000000 0.000000 0.032554 0.000000
# 6 0.000000 0.000000 0.000000 0.000000 0.000000 0.029883
#
#
# Mechanical properties :
#
#
# Convention : Reuss Voigt Hill
#
# Bulk Modulus (GPa) = 51.29151 62.04783 56.66967
# Shear Modulus (GPa) = 30.98551 33.08626 32.03589
#
# Velocity S-wave (km/s) = 3.70481 3.82834 3.76708
# Velocity P-wave (km/s) = 6.40479 6.85761 6.63507
#
# Compressibility (1/GPa) = 0.01949641
#
# Stress axis : x y z
#
# Youngs Moduli (GPa) = 113.22087 50.03325 85.30834
#
# Poissons Ratio (x) = 0.05022 0.31979
# Poissons Ratio (y) = 0.11363 0.49224
# Poissons Ratio (z) = 0.42442 0.28870
#
# Static dielectric constant tensor:
#      x y z
#    x 4.392890 0.000000 0.000000 
#    y 0.000000 4.162110 0.000000 
#    z 0.000000 0.000000 3.705670 
# 
# 
# High freq. dielectric constant tensor:
#      x y z
#    x 1.901920 0.000000 0.000000 
#    y 0.000000 1.900570 0.000000 
#    z 0.000000 0.000000 1.881700 
# 
# From -- ./inp_files/5864.got.cif
#   From: 2010.03.12/outbox.cif.g09.slc.cpg/sg18_3_cif.got.tgz:5864.got - 2010.04.10 18:53:55.
