data_PCOD8156248
_publ_section_title
;
Structure prediction by ZEFSAII (Michael W. Deem and Ramdas Pophale) SiO2 
 PCOD8156248
Probable space group: P 21 21 2
;
_chemical_formula_sum "Si O2"
_cell_formula_units_Z 18
_cell_length_a 10.786737
_cell_length_b 8.130687
_cell_length_c 10.010950
_cell_angle_alpha 90.000000
_cell_angle_beta 90.000000
_cell_angle_gamma 90.000000
_cell_volume 877.996177
_symmetry_space_group_name_H-M "P 21 21 2"
_symmetry_group_IT_number 18
_symmetry_cell_setting 'orthorhombic'
loop_
_space_group_symop_operation_xyz
x,y,z
-x,-y,z
1/2+x,1/2-y,-z
1/2-x,1/2+y,-z
loop_
_atom_site_type_symbol
_atom_site_label
_atom_site_fract_x
_atom_site_fract_y
_atom_site_fract_z
Si Si1 0.854533 0.527110 0.102511
Si Si2 0.825223 0.740271 0.351274
Si Si3 0.500000 0.500000 0.755039
Si Si4 0.235120 0.830074 0.152067
Si Si5 0.640503 0.020948 0.398067
O O1 0.802435 0.661065 0.206269
O O2 0.779263 0.361008 0.124759
O O3 0.000000 0.500000 0.123999
O O4 0.828428 0.591552 0.954490
O O5 0.853263 0.594642 0.453800
O O6 0.943153 0.861967 0.342988
O O7 0.704059 0.841820 0.394799
O O8 0.602672 0.577884 0.853152
O O9 0.292846 0.852797 0.298431
O O10 0.500000 0.000000 0.352304
#
# Coordination Sequence:
#
# PCOD8156248 Si02
#       5
#     4   4   2   4   4
#     4  12  24  44  70  96 134 177 221 281 333 400
#     4  11  24  43  69  97 133 179 220 268 344 389
#     4  10  22  42  68  96 132 178 214 270 334 410
#     4  11  24  43  66  99 130 174 224 270 334 391
#     4  11  25  43  65  99 135 171 223 276 322 400
#
# _framework density 20.501227
#
# number of rings (size 3 to 8) (size 9 to 14) (size 15 to 20)
#    0.000    0.889    2.222    5.333    6.222    0.000 
#    0.000    0.000    0.000    0.000    0.000    0.000 
#    0.000    0.000    0.000    0.000    0.000    0.000 
#
# Total GULP energy -223329.739373 kJ/mol
# GULP energy per Si atom -12407.207743 kJ/mol
# Density = 2.045457 g / cm^3
# Si number density = 20.501227 Si / 1000 Ang^3
#
#
#
# Elastic Constant Matrix: (Units=GPa)
#
#
# Indices 1 2 3 4 5 6 
#
# 1 95.4791 47.2125 20.7314 0.0000 0.0000 0.0000
# 2 47.2125 103.9748 21.5579 0.0000 0.0000 0.0000
# 3 20.7314 21.5579 86.9444 0.0000 0.0000 0.0000
# 4 0.0000 0.0000 0.0000 43.3608 0.0000 0.0000
# 5 0.0000 0.0000 0.0000 0.0000 25.6624 0.0000
# 6 0.0000 0.0000 0.0000 0.0000 0.0000 32.3448
#
#
#
# Elastic Compliance Matrix: (Units=1/GPa)
#
#
# Indices 1 2 3 4 5 6 
#
# 1 0.013776 -0.005876 -0.001828 0.000000 0.000000 0.000000
# 2 -0.005876 0.012646 -0.001734 0.000000 0.000000 0.000000
# 3 -0.001828 -0.001734 0.012367 0.000000 0.000000 0.000000
# 4 0.000000 0.000000 0.000000 0.023062 0.000000 0.000000
# 5 0.000000 0.000000 0.000000 0.000000 0.038967 0.000000
# 6 0.000000 0.000000 0.000000 0.000000 0.000000 0.030917
#
#
# Mechanical properties :
#
#
# Convention : Reuss Voigt Hill
#
# Bulk Modulus (GPa) = 50.22043 51.71131 50.96587
# Shear Modulus (GPa) = 31.79643 33.40003 32.59823
#
# Velocity S-wave (km/s) = 3.94249 4.04068 3.99188
# Velocity P-wave (km/s) = 6.72858 6.85913 6.79417
#
# Compressibility (1/GPa) = 0.01991222
#
# Stress axis : x y z
#
# Youngs Moduli (GPa) = 72.58921 79.07859 80.85751
#
# Poissons Ratio (x) = 0.46470 0.14779
# Poissons Ratio (y) = 0.42657 0.14023
# Poissons Ratio (z) = 0.13268 0.13714
#
# Static dielectric constant tensor:
#      x y z
#    x 3.807900 0.000000 0.000000 
#    y 0.000000 3.858080 0.000000 
#    z 0.000000 0.000000 3.610540 
# 
# 
# High freq. dielectric constant tensor:
#      x y z
#    x 1.803880 0.000000 0.000000 
#    y 0.000000 1.817580 0.000000 
#    z 0.000000 0.000000 1.802650 
# 
# From -- ./inp_files/2888.got.cif
#   From: 2010.03.12/outbox.cif.g09.slc.cpg/sg18_2_cif.got.tgz:2888.got - 2010.04.10 18:53:55.
