data_PCOD8156581
_publ_section_title
;
Structure prediction by ZEFSAII (Michael W. Deem and Ramdas Pophale) SiO2 
 PCOD8156581
Probable space group: P 21 21 21
;
_chemical_formula_sum "Si O2"
_cell_formula_units_Z 32
_cell_length_a 6.844722
_cell_length_b 12.674280
_cell_length_c 21.460670
_cell_angle_alpha 90.000000
_cell_angle_beta 90.000000
_cell_angle_gamma 90.000000
_cell_volume 1861.754395
_symmetry_space_group_name_H-M "P 21 21 21"
_symmetry_group_IT_number 19
_symmetry_cell_setting 'orthorhombic'
loop_
_space_group_symop_operation_xyz
x,y,z
1/2-x,-y,1/2+z
1/2+x,1/2-y,-z
-x,1/2+y,1/2-z
loop_
_atom_site_type_symbol
_atom_site_label
_atom_site_fract_x
_atom_site_fract_y
_atom_site_fract_z
Si Si1 0.464159 0.160767 0.424444
Si Si2 0.747336 0.319779 0.371374
Si Si3 0.133504 0.332072 0.444736
Si Si4 0.606212 0.949774 0.146500
Si Si5 0.952320 0.494418 0.678361
Si Si6 0.282663 0.341175 0.221685
Si Si7 0.161982 0.843766 0.267986
Si Si8 0.053814 0.342814 0.786056
O O1 0.603425 0.219941 0.375161
O O2 0.272213 0.229122 0.441355
O O3 0.597741 0.133084 0.484140
O O4 0.396123 0.054065 0.389056
O O5 0.604806 0.419782 0.382430
O O6 0.851829 0.333742 0.305793
O O7 0.916808 0.306443 0.421361
O O8 0.226759 0.427455 0.404891
O O9 0.592795 0.074462 0.158488
O O10 0.649526 0.881587 0.209418
O O11 0.762561 0.546874 0.710887
O O12 0.048056 0.404944 0.721413
O O13 0.114647 0.585322 0.669878
O O14 0.349571 0.220695 0.210436
O O15 0.056060 0.346503 0.207033
O O16 0.271529 0.740736 0.292801
#
# Coordination Sequence:
#
# PCOD8156581 Si02
#       8
#     4   4   4   4   4   4   4   4
#     4  11  22  38  54  83 116 147 180 220 280 324
#     4  11  19  34  52  78 118 142 176 224 263 333
#     4  11  22  35  56  82 109 148 182 218 267 336
#     4  10  20  34  52  79 112 142 182 223 271 325
#     4  10  21  35  50  80 116 145 171 231 277 330
#     4  10  20  33  51  82 111 144 181 222 275 332
#     4  11  20  33  54  82 111 145 185 217 285 334
#     4  10  18  34  51  78 113 141 173 231 274 316
#
# _framework density 17.188088
#
# number of rings (size 3 to 8) (size 9 to 14) (size 15 to 20)
#    0.000    1.500    7.500    0.750    0.000    4.000 
#    0.000    0.000    0.000    0.000   19.500    0.000 
#    0.000    0.000    0.000    0.000    0.000    0.000 
#
# Total GULP energy -396578.404703 kJ/mol
# GULP energy per Si atom -12393.075147 kJ/mol
# Density = 1.714897 g / cm^3
# Si number density = 17.188088 Si / 1000 Ang^3
#
#
#
# Elastic Constant Matrix: (Units=GPa)
#
#
# Indices 1 2 3 4 5 6 
#
# 1 106.9092 26.6035 21.1229 0.0000 0.0000 0.0000
# 2 26.6035 91.8050 44.4726 0.0000 0.0000 0.0000
# 3 21.1229 44.4726 77.6559 0.0000 0.0000 0.0000
# 4 0.0000 0.0000 0.0000 24.3716 0.0000 0.0000
# 5 0.0000 0.0000 0.0000 0.0000 27.7149 0.0000
# 6 0.0000 0.0000 0.0000 0.0000 0.0000 17.5770
#
#
#
# Elastic Compliance Matrix: (Units=1/GPa)
#
#
# Indices 1 2 3 4 5 6 
#
# 1 0.010205 -0.002232 -0.001498 0.000000 0.000000 0.000000
# 2 -0.002232 0.015563 -0.008306 0.000000 0.000000 0.000000
# 3 -0.001498 -0.008306 0.018041 0.000000 0.000000 0.000000
# 4 0.000000 0.000000 0.000000 0.041031 0.000000 0.000000
# 5 0.000000 0.000000 0.000000 0.000000 0.036082 0.000000
# 6 0.000000 0.000000 0.000000 0.000000 0.000000 0.056892
#
#
# Mechanical properties :
#
#
# Convention : Reuss Voigt Hill
#
# Bulk Modulus (GPa) = 50.66127 51.19646 50.92887
# Shear Modulus (GPa) = 23.98495 26.21079 25.09787
#
# Velocity S-wave (km/s) = 3.73961 3.90928 3.82539
# Velocity P-wave (km/s) = 6.94153 7.08713 7.01471
#
# Compressibility (1/GPa) = 0.01973894
#
# Stress axis : x y z
#
# Youngs Moduli (GPa) = 97.99128 64.25593 55.42858
#
# Poissons Ratio (x) = 0.14340 0.08302
# Poissons Ratio (y) = 0.21868 0.46037
# Poissons Ratio (z) = 0.14677 0.53368
#
# Static dielectric constant tensor:
#      x y z
#    x 3.254150 0.000000 0.000000 
#    y 0.000000 3.294340 0.000000 
#    z 0.000000 0.000000 3.043680 
# 
# 
# High freq. dielectric constant tensor:
#      x y z
#    x 1.673780 0.000000 0.000000 
#    y 0.000000 1.653420 0.000000 
#    z 0.000000 0.000000 1.636000 
# 
# From -- ./inp_files/7290.got.cif
#   From: 2010.03.12/outbox.cif.g09.slc.cpg/sg19_4_cif.got.tgz:7290.got - 2010.04.10 18:59:41.
