data_PCOD8156179
_publ_section_title
;
Structure prediction by ZEFSAII (Michael W. Deem and Ramdas Pophale) SiO2 
 PCOD8156179
Probable space group: P 21 21 2
;
_chemical_formula_sum "Si O2"
_cell_formula_units_Z 20
_cell_length_a 5.046658
_cell_length_b 18.344944
_cell_length_c 8.265494
_cell_angle_alpha 90.000000
_cell_angle_beta 90.000000
_cell_angle_gamma 90.000000
_cell_volume 765.224876
_symmetry_space_group_name_H-M "P 21 21 2"
_symmetry_group_IT_number 18
_symmetry_cell_setting 'orthorhombic'
loop_
_space_group_symop_operation_xyz
x,y,z
-x,-y,z
1/2+x,1/2-y,-z
1/2-x,1/2+y,-z
loop_
_atom_site_type_symbol
_atom_site_label
_atom_site_fract_x
_atom_site_fract_y
_atom_site_fract_z
Si Si1 0.272810 0.716663 0.930902
Si Si2 0.088377 0.918092 0.094550
Si Si3 0.444670 0.414198 0.552838
Si Si4 0.819652 0.284266 0.573316
Si Si5 0.244486 0.449802 0.232510
O O1 0.330834 0.630450 0.947556
O O2 0.145921 0.735319 0.759800
O O3 0.056684 0.742006 0.060737
O O4 0.203820 0.894982 0.274407
O O5 0.000000 0.000000 0.118477
O O6 0.291471 0.907696 0.941944
O O7 0.500000 0.500000 0.542976
O O8 0.714980 0.366967 0.544882
O O9 0.279369 0.396034 0.388126
O O10 0.610883 0.225917 0.500552
O O11 0.500000 0.500000 0.204405
O O12 0.000000 0.500000 0.272440
#
# Coordination Sequence:
#
# PCOD8156179 Si02
#       5
#     4   4   4   4   4
#     4  11  25  44  69  99 136 182 226 282 345 406
#     4   9  21  43  68  96 133 176 225 277 333 401
#     4   9  21  43  68  96 133 176 225 277 333 401
#     4  11  25  44  69  99 136 182 226 282 345 406
#     4  10  22  38  62  96 126 164 211 266 331 382
#
# _framework density 26.136111
#
# number of rings (size 3 to 8) (size 9 to 14) (size 15 to 20)
#    0.000    2.000    0.000    1.200    5.600    7.200 
#    0.000   12.000    0.000    0.000    0.000    0.000 
#    0.000    0.000    0.000    0.000    0.000    0.000 
#
# Total GULP energy -247768.450007 kJ/mol
# GULP energy per Si atom -12388.422500 kJ/mol
# Density = 2.607662 g / cm^3
# Si number density = 26.136111 Si / 1000 Ang^3
#
#
#
# Elastic Constant Matrix: (Units=GPa)
#
#
# Indices 1 2 3 4 5 6 
#
# 1 51.6611 -19.3386 -11.8147 0.0000 0.0000 0.0000
# 2 -19.3386 86.2437 -5.7750 0.0000 0.0000 0.0000
# 3 -11.8147 -5.7750 176.8290 0.0000 0.0000 0.0000
# 4 0.0000 0.0000 0.0000 30.9555 0.0000 0.0000
# 5 0.0000 0.0000 0.0000 0.0000 25.7191 0.0000
# 6 0.0000 0.0000 0.0000 0.0000 0.0000 36.1663
#
#
#
# Elastic Compliance Matrix: (Units=1/GPa)
#
#
# Indices 1 2 3 4 5 6 
#
# 1 0.021575 0.004945 0.001603 0.000000 0.000000 0.000000
# 2 0.004945 0.012754 0.000747 0.000000 0.000000 0.000000
# 3 0.001603 0.000747 0.005787 0.000000 0.000000 0.000000
# 4 0.000000 0.000000 0.000000 0.032304 0.000000 0.000000
# 5 0.000000 0.000000 0.000000 0.000000 0.038882 0.000000
# 6 0.000000 0.000000 0.000000 0.000000 0.000000 0.027650
#
#
# Mechanical properties :
#
#
# Convention : Reuss Voigt Hill
#
# Bulk Modulus (GPa) = 18.27978 26.76413 22.52196
# Shear Modulus (GPa) = 35.06397 42.01230 38.53813
#
# Velocity S-wave (km/s) = 3.66675 4.01364 3.84411
# Velocity P-wave (km/s) = 4.99359 5.63397 5.32342
#
# Compressibility (1/GPa) = 0.05470525
#
# Stress axis : x y z
#
# Youngs Moduli (GPa) = 46.35067 78.40728 172.81079
#
# Poissons Ratio (x) = -0.38773 -0.27701
# Poissons Ratio (y) = -0.22921 -0.12908
# Poissons Ratio (z) = -0.07430 -0.05856
#
# Static dielectric constant tensor:
#      x y z
#    x 4.159330 0.000000 0.000000 
#    y 0.000000 4.701350 0.000000 
#    z 0.000000 0.000000 6.272700 
# 
# 
# High freq. dielectric constant tensor:
#      x y z
#    x 2.006540 0.000000 0.000000 
#    y 0.000000 2.054740 0.000000 
#    z 0.000000 0.000000 2.081930 
# 
# From -- ./inp_files/2490.got.cif
#   From: 2010.03.12/outbox.cif.g09.slc.cpg/sg18_2_cif.got.tgz:2490.got - 2010.04.10 18:53:55.
