data_PCOD8156796
_publ_section_title
;
Structure prediction by ZEFSAII (Michael W. Deem and Ramdas Pophale) SiO2 
 PCOD8156796
Probable space group: P 21 21 21
;
_chemical_formula_sum "Si O2"
_cell_formula_units_Z 32
_cell_length_a 9.017933
_cell_length_b 9.513511
_cell_length_c 19.061658
_cell_angle_alpha 90.000000
_cell_angle_beta 90.000000
_cell_angle_gamma 90.000000
_cell_volume 1635.341667
_symmetry_space_group_name_H-M "P 21 21 21"
_symmetry_group_IT_number 19
_symmetry_cell_setting 'orthorhombic'
loop_
_space_group_symop_operation_xyz
x,y,z
1/2-x,-y,1/2+z
1/2+x,1/2-y,-z
-x,1/2+y,1/2-z
loop_
_atom_site_type_symbol
_atom_site_label
_atom_site_fract_x
_atom_site_fract_y
_atom_site_fract_z
Si Si1 0.155894 0.119673 0.442810
Si Si2 0.711172 0.107803 0.043293
Si Si3 0.187465 0.789496 0.805010
Si Si4 0.692829 0.030454 0.192031
Si Si5 0.119842 0.848268 0.526672
Si Si6 0.163239 0.286139 0.677737
Si Si7 0.823083 0.175269 0.461628
Si Si8 0.156636 0.966761 0.672736
O O1 0.222684 0.131689 0.365564
O O2 0.264822 0.185513 0.500478
O O3 0.996358 0.196113 0.444571
O O4 0.139805 0.955833 0.462117
O O5 0.771775 0.095753 0.123152
O O6 0.551386 0.181204 0.042824
O O7 0.819278 0.197280 0.995032
O O8 0.699303 0.950511 0.015497
O O9 0.244059 0.629900 0.795599
O O10 0.225512 0.868710 0.732817
O O11 0.014015 0.797922 0.823802
O O12 0.733812 0.127446 0.257913
O O13 0.518900 0.029720 0.178431
O O14 0.201898 0.905875 0.596624
O O15 0.228597 0.355928 0.607890
O O16 0.217684 0.124867 0.682232
#
# Coordination Sequence:
#
# PCOD8156796 Si02
#       8
#     4   4   4   4   4   4   4   4
#     4  11  22  39  61  85 116 153 195 241 290 344
#     4  10  22  39  58  85 117 149 193 241 288 343
#     4  10  20  37  60  85 115 151 195 239 286 344
#     4   9  19  36  58  84 113 149 190 234 282 344
#     4  10  22  39  58  85 117 149 193 241 288 343
#     4  10  20  37  60  85 115 151 195 239 286 344
#     4  11  22  39  61  85 116 153 195 241 290 344
#     4   9  19  36  58  84 113 149 190 234 282 344
#
# _framework density 19.567775999999999
#
# number of rings (size 3 to 8) (size 9 to 14) (size 15 to 20)
#    0.000    2.000    2.500    0.750    3.500    2.000 
#    0.000    2.500    0.000    0.000    0.000    0.000 
#    0.000    0.000    0.000    0.000    0.000    0.000 
#
# Total GULP energy -396870.111803 kJ/mol
# GULP energy per Si atom -12402.190994 kJ/mol
# Density = 1.952324 g / cm^3
# Si number density = 19.567776 Si / 1000 Ang^3
#
#
#
# Elastic Constant Matrix: (Units=GPa)
#
#
# Indices 1 2 3 4 5 6 
#
# 1 42.1063 7.3109 9.1097 0.0000 0.0000 0.0000
# 2 7.3109 39.8004 16.2941 0.0000 0.0000 0.0000
# 3 9.1097 16.2941 115.5232 0.0000 0.0000 0.0000
# 4 0.0000 0.0000 0.0000 36.9846 0.0000 0.0000
# 5 0.0000 0.0000 0.0000 0.0000 26.8404 0.0000
# 6 0.0000 0.0000 0.0000 0.0000 0.0000 25.4885
#
#
#
# Elastic Compliance Matrix: (Units=1/GPa)
#
#
# Indices 1 2 3 4 5 6 
#
# 1 0.024740 -0.003975 -0.001390 0.000000 0.000000 0.000000
# 2 -0.003975 0.027304 -0.003538 0.000000 0.000000 0.000000
# 3 -0.001390 -0.003538 0.009265 0.000000 0.000000 0.000000
# 4 0.000000 0.000000 0.000000 0.027038 0.000000 0.000000
# 5 0.000000 0.000000 0.000000 0.000000 0.037257 0.000000
# 6 0.000000 0.000000 0.000000 0.000000 0.000000 0.039233
#
#
# Mechanical properties :
#
#
# Convention : Reuss Voigt Hill
#
# Bulk Modulus (GPa) = 22.98709 29.20661 26.09685
# Shear Modulus (GPa) = 25.36198 28.84372 27.10285
#
# Velocity S-wave (km/s) = 3.60406 3.84349 3.72570
# Velocity P-wave (km/s) = 5.39369 5.88684 5.64565
#
# Compressibility (1/GPa) = 0.04350267
#
# Stress axis : x y z
#
# Youngs Moduli (GPa) = 40.41969 36.62479 107.93467
#
# Poissons Ratio (x) = 0.14560 0.15005
# Poissons Ratio (y) = 0.16069 0.38183
# Poissons Ratio (z) = 0.05619 0.12957
#
# Static dielectric constant tensor:
#      x y z
#    x 3.329700 0.000000 0.000000 
#    y 0.000000 3.522040 0.000000 
#    z 0.000000 0.000000 3.768360 
# 
# 
# High freq. dielectric constant tensor:
#      x y z
#    x 1.729630 0.000000 0.000000 
#    y 0.000000 1.764180 0.000000 
#    z 0.000000 0.000000 1.776370 
# 
# From -- ./inp_files/7052.got.cif
#   From: 2010.03.12/outbox.cif.g09.slc.cpg/sg19_4_cif.got.tgz:7052.got - 2010.04.10 18:59:41.
