data_PCOD8156114
_publ_section_title
;
Structure prediction by ZEFSAII (Michael W. Deem and Ramdas Pophale) SiO2 
 PCOD8156114
Probable space group: P 21 21 2
;
_chemical_formula_sum "Si O2"
_cell_formula_units_Z 30
_cell_length_a 11.603782
_cell_length_b 5.599137
_cell_length_c 22.177458
_cell_angle_alpha 90.000000
_cell_angle_beta 90.000000
_cell_angle_gamma 90.000000
_cell_volume 1440.895286
_symmetry_space_group_name_H-M "P 21 21 2"
_symmetry_group_IT_number 18
_symmetry_cell_setting 'orthorhombic'
loop_
_space_group_symop_operation_xyz
x,y,z
-x,-y,z
1/2+x,1/2-y,-z
1/2-x,1/2+y,-z
loop_
_atom_site_type_symbol
_atom_site_label
_atom_site_fract_x
_atom_site_fract_y
_atom_site_fract_z
Si Si1 0.320243 0.336267 0.693604
Si Si2 0.273305 0.032609 0.077031
Si Si3 0.625858 0.392987 0.806215
Si Si4 0.500000 0.000000 0.749369
Si Si5 0.131476 0.028220 0.954976
Si Si6 0.627990 0.464358 0.365899
Si Si7 0.386379 0.857369 0.477324
Si Si8 0.207341 0.153000 0.411771
O O1 0.296854 0.497849 0.752548
O O2 0.431782 0.173653 0.704778
O O3 0.199126 0.208612 0.678629
O O4 0.359729 0.488031 0.635481
O O5 0.346353 0.781566 0.080891
O O6 0.183780 0.045759 0.131082
O O7 0.343459 0.283440 0.082655
O O8 0.206977 0.031506 0.014497
O O9 0.500000 0.500000 0.806870
O O10 0.600180 0.114528 0.792066
O O11 0.000000 0.000000 0.974416
O O12 0.500000 0.500000 0.337641
O O13 0.613966 0.371283 0.434033
O O14 0.700779 0.705705 0.370741
O O15 0.385264 0.802065 0.549190
O O16 0.500000 0.000000 0.460952
O O17 0.273115 0.009558 0.463851
#
# Coordination Sequence:
#
# PCOD8156114 Si02
#       8
#     4   4   4   2   4   4   4   4
#     4  10  24  42  65  91 126 157 213 261 327 378
#     4  10  22  38  69  99 137 182 232 274 334 395
#     4  10  22  42  66  93 125 166 217 269 320 382
#     4  10  22  46  66  92 122 168 206 284 316 386
#     4  10  21  40  63 102 143 183 222 281 333 393
#     4  11  22  41  65  85 121 160 201 259 313 391
#     4  11  22  39  62  87 116 156 200 253 316 388
#     4  11  22  41  62  91 120 155 204 255 317 393
#
# _framework density 20.820391000000001
#
# number of rings (size 3 to 8) (size 9 to 14) (size 15 to 20)
#    0.000    1.600    2.667    1.600    3.733    0.000 
#   12.000    2.000    5.867    0.000    0.000    0.000 
#    0.000    0.000    0.000    0.000    0.000    0.000 
#
# Total GULP energy -371754.170379 kJ/mol
# GULP energy per Si atom -12391.805679 kJ/mol
# Density = 2.077300 g / cm^3
# Si number density = 20.820391 Si / 1000 Ang^3
#
#
#
# Elastic Constant Matrix: (Units=GPa)
#
#
# Indices 1 2 3 4 5 6 
#
# 1 61.6805 25.8077 5.8894 0.0000 0.0000 0.0000
# 2 25.8077 129.6529 28.8034 0.0000 0.0000 0.0000
# 3 5.8894 28.8034 68.1470 0.0000 0.0000 0.0000
# 4 0.0000 0.0000 0.0000 42.5675 0.0000 0.0000
# 5 0.0000 0.0000 0.0000 0.0000 27.8196 0.0000
# 6 0.0000 0.0000 0.0000 0.0000 0.0000 25.5194
#
#
#
# Elastic Compliance Matrix: (Units=1/GPa)
#
#
# Indices 1 2 3 4 5 6 
#
# 1 0.017686 -0.003510 -0.000045 0.000000 0.000000 0.000000
# 2 -0.003510 0.009209 -0.003589 0.000000 0.000000 0.000000
# 3 -0.000045 -0.003589 0.016195 0.000000 0.000000 0.000000
# 4 0.000000 0.000000 0.000000 0.023492 0.000000 0.000000
# 5 0.000000 0.000000 0.000000 0.000000 0.035946 0.000000
# 6 0.000000 0.000000 0.000000 0.000000 0.000000 0.039186
#
#
# Mechanical properties :
#
#
# Convention : Reuss Voigt Hill
#
# Bulk Modulus (GPa) = 34.72050 42.27572 38.49811
# Shear Modulus (GPa) = 30.19285 32.44662 31.31973
#
# Velocity S-wave (km/s) = 3.81222 3.95195 3.88271
# Velocity P-wave (km/s) = 6.00748 6.41661 6.21541
#
# Compressibility (1/GPa) = 0.02880143
#
# Stress axis : x y z
#
# Youngs Moduli (GPa) = 56.54300 108.58975 61.74764
#
# Poissons Ratio (x) = 0.38120 0.00276
# Poissons Ratio (y) = 0.19849 0.22161
# Poissons Ratio (z) = 0.00253 0.38972
#
# Static dielectric constant tensor:
#      x y z
#    x 3.987840 0.000000 0.000000 
#    y 0.000000 4.803900 0.000000 
#    z 0.000000 0.000000 3.567060 
# 
# 
# High freq. dielectric constant tensor:
#      x y z
#    x 1.807420 0.000000 0.000000 
#    y 0.000000 1.835090 0.000000 
#    z 0.000000 0.000000 1.795280 
# 
# From -- ./inp_files/7571.got.cif
#   From: 2010.03.12/outbox.cif.g09.slc.cpg/sg18_4_cif.got.tgz:7571.got - 2010.04.10 18:53:55.
