data_PCOD8156433
_publ_section_title
;
Structure prediction by ZEFSAII (Michael W. Deem and Ramdas Pophale) SiO2 
 PCOD8156433
Probable space group: P 21 21 2
;
_chemical_formula_sum "Si O2"
_cell_formula_units_Z 32
_cell_length_a 14.520169
_cell_length_b 11.173799
_cell_length_c 9.088940
_cell_angle_alpha 90.000000
_cell_angle_beta 90.000000
_cell_angle_gamma 90.000000
_cell_volume 1474.639159
_symmetry_space_group_name_H-M "P 21 21 2"
_symmetry_group_IT_number 18
_symmetry_cell_setting 'orthorhombic'
loop_
_space_group_symop_operation_xyz
x,y,z
-x,-y,z
1/2+x,1/2-y,-z
1/2-x,1/2+y,-z
loop_
_atom_site_type_symbol
_atom_site_label
_atom_site_fract_x
_atom_site_fract_y
_atom_site_fract_z
Si Si1 0.083637 0.077096 0.156517
Si Si2 0.127123 0.718883 0.816826
Si Si3 0.382103 0.973109 0.049424
Si Si4 0.695836 0.641087 0.918145
Si Si5 0.396108 0.997224 0.720442
Si Si6 0.305303 0.749252 0.643065
Si Si7 0.563245 0.272242 0.128229
Si Si8 0.743559 0.303431 0.317131
O O1 0.141254 0.137286 0.286477
O O2 0.144761 0.983441 0.068644
O O3 0.050908 0.171548 0.034042
O O4 0.000000 0.000000 0.226346
O O5 0.200271 0.760037 0.696249
O O6 0.031456 0.789725 0.777865
O O7 0.128838 0.573950 0.825297
O O8 0.155414 0.755964 0.980922
O O9 0.410128 0.027019 0.892335
O O10 0.295678 0.887439 0.019590
O O11 0.451898 0.872613 0.110054
O O12 0.699863 0.691817 0.751002
O O13 0.360475 0.866257 0.685604
O O14 0.500000 0.000000 0.648704
O O15 0.316978 0.088560 0.660329
O O16 0.302852 0.732452 0.469137
O O17 0.654940 0.324877 0.207413
#
# Coordination Sequence:
#
# PCOD8156433 Si02
#       8
#     4   4   4   4   4   4   4   4
#     4  12  24  43  70 100 138 173 238 293 353 401
#     4  12  22  42  71  98 134 179 232 292 351 407
#     4  11  21  40  70 102 131 170 233 296 344 396
#     4  11  22  41  67  96 132 178 223 292 345 402
#     4  12  25  44  74 101 134 179 235 284 340 411
#     4  12  28  46  66 103 143 189 230 278 354 433
#     4  11  24  43  68 105 136 180 233 298 347 409
#     4  11  28  46  67  99 146 182 227 277 351 418
#
# _framework density 21.700223999999999
#
# number of rings (size 3 to 8) (size 9 to 14) (size 15 to 20)
#    0.000    0.500    6.250    2.625    3.500    1.000 
#    0.000    0.625    0.000    0.000    0.000    0.000 
#    0.000    0.000    0.000    0.000    0.000    0.000 
#
# Total GULP energy -396481.312649 kJ/mol
# GULP energy per Si atom -12390.041020 kJ/mol
# Density = 2.165083 g / cm^3
# Si number density = 21.700224 Si / 1000 Ang^3
#
#
#
# Elastic Constant Matrix: (Units=GPa)
#
#
# Indices 1 2 3 4 5 6 
#
# 1 110.0830 27.7879 20.0332 0.0000 0.0000 0.0000
# 2 27.7879 79.5948 -0.1635 0.0000 0.0000 0.0000
# 3 20.0332 -0.1635 62.4572 0.0000 0.0000 0.0000
# 4 0.0000 0.0000 0.0000 -25.0536 0.0000 0.0000
# 5 0.0000 0.0000 0.0000 0.0000 -13.8672 0.0000
# 6 0.0000 0.0000 0.0000 0.0000 0.0000 29.9879
#
#
#
# Elastic Compliance Matrix: (Units=1/GPa)
#
#
# Indices 1 2 3 4 5 6 
#
# 1 0.010647 -0.003724 -0.003425 0.000000 0.000000 0.000000
# 2 -0.003724 0.013866 0.001231 0.000000 0.000000 0.000000
# 3 -0.003425 0.001231 0.017113 0.000000 0.000000 0.000000
# 4 0.000000 0.000000 0.000000 -0.039914 0.000000 0.000000
# 5 0.000000 0.000000 0.000000 0.000000 -0.072113 0.000000
# 6 0.000000 0.000000 0.000000 0.000000 0.000000 0.033347
#
#
# Mechanical properties :
#
#
# Convention : Reuss Voigt Hill
#
# Bulk Modulus (GPa) = 33.56842 38.60557 36.08699
# Shear Modulus (GPa) = -327.06887 11.84527 -157.61180
#
# Velocity S-wave (km/s) = -12.29018 2.33890 -8.53165
# Velocity P-wave (km/s) = 13.63435 5.01228 8.96584
#
# Compressibility (1/GPa) = 0.02978991
#
# Stress axis : x y z
#
# Youngs Moduli (GPa) = 93.91948 72.11706 58.43609
#
# Poissons Ratio (x) = 0.26858 0.20014
# Poissons Ratio (y) = 0.34978 -0.07193
# Poissons Ratio (z) = 0.32167 -0.08877
#
# Static dielectric constant tensor:
#      x y z
#    x 7.304850 0.000000 0.000000 
#    y 0.000000 4.133040 0.000000 
#    z 0.000000 0.000000 3.521870 
# 
# 
# High freq. dielectric constant tensor:
#      x y z
#    x 1.882960 0.000000 0.000000 
#    y 0.000000 1.862200 0.000000 
#    z 0.000000 0.000000 1.809560 
# 
# From -- ./inp_files/4316.got.cif
#   From: 2010.03.12/outbox.cif.g09.slc.cpg/sg18_3_cif.got.tgz:4316.got - 2010.04.10 18:53:55.
