data_PCOD8156338
_publ_section_title
;
Structure prediction by ZEFSAII (Michael W. Deem and Ramdas Pophale) SiO2 
 PCOD8156338
Probable space group: P 21 21 2
;
_chemical_formula_sum "Si O2"
_cell_formula_units_Z 26
_cell_length_a 17.074827
_cell_length_b 11.045330
_cell_length_c 5.850720
_cell_angle_alpha 90.000000
_cell_angle_beta 90.000000
_cell_angle_gamma 90.000000
_cell_volume 1103.428819
_symmetry_space_group_name_H-M "P 21 21 2"
_symmetry_group_IT_number 18
_symmetry_cell_setting 'orthorhombic'
loop_
_space_group_symop_operation_xyz
x,y,z
-x,-y,z
1/2+x,1/2-y,-z
1/2-x,1/2+y,-z
loop_
_atom_site_type_symbol
_atom_site_label
_atom_site_fract_x
_atom_site_fract_y
_atom_site_fract_z
Si Si1 0.630901 0.943730 0.706066
Si Si2 0.378144 0.656279 0.935477
Si Si3 0.530071 0.782391 0.022872
Si Si4 0.722959 0.460216 0.572558
Si Si5 0.705350 0.121137 0.048264
Si Si6 0.000000 0.500000 0.652585
Si Si7 0.861326 0.087229 0.803610
O O1 0.715984 0.900520 0.608689
O O2 0.576806 0.994182 0.503620
O O3 0.590532 0.831332 0.833895
O O4 0.643161 0.050310 0.888764
O O5 0.324783 0.642823 0.707856
O O6 0.462946 0.712446 0.880071
O O7 0.332025 0.747993 0.105698
O O8 0.390002 0.527626 0.051964
O O9 0.492266 0.884449 0.182758
O O10 0.572094 0.688994 0.196167
O O11 0.778347 0.543440 0.728098
O O12 0.657818 0.545128 0.453252
O O13 0.784812 0.146042 0.913025
#
# Coordination Sequence:
#
# PCOD8156338 Si02
#       7
#     4   4   4   4   4   2   4
#     4  11  24  45  73 110 142 189 253 300 364 426
#     4  11  24  46  71 102 147 190 242 302 367 434
#     4  12  26  47  72 108 153 191 241 312 357 427
#     4  10  24  47  72 107 140 197 246 295 373 436
#     4  10  23  45  72 103 142 184 241 309 351 431
#     4  12  26  42  78 108 144 204 234 300 370 430
#     4  10  26  43  70 104 142 192 241 297 361 437
#
# _framework density 23.562916000000001
#
# number of rings (size 3 to 8) (size 9 to 14) (size 15 to 20)
#    0.000    1.231    0.000    4.615    8.615    7.385 
#    2.769    4.615    0.000    0.000    0.000    0.000 
#    0.000    0.000    0.000    0.000    0.000    0.000 
#
# Total GULP energy -322442.108884 kJ/mol
# GULP energy per Si atom -12401.619572 kJ/mol
# Density = 2.350929 g / cm^3
# Si number density = 23.562916 Si / 1000 Ang^3
#
#
#
# Elastic Constant Matrix: (Units=GPa)
#
#
# Indices 1 2 3 4 5 6 
#
# 1 132.4038 76.4415 52.6916 0.0000 0.0000 0.0000
# 2 76.4415 128.0833 42.8051 0.0000 0.0000 0.0000
# 3 52.6916 42.8051 110.4887 0.0000 0.0000 0.0000
# 4 0.0000 0.0000 0.0000 19.4078 0.0000 0.0000
# 5 0.0000 0.0000 0.0000 0.0000 50.5232 0.0000
# 6 0.0000 0.0000 0.0000 0.0000 0.0000 46.6525
#
#
#
# Elastic Compliance Matrix: (Units=1/GPa)
#
#
# Indices 1 2 3 4 5 6 
#
# 1 0.012639 -0.006351 -0.003567 0.000000 0.000000 0.000000
# 2 -0.006351 0.012160 -0.001682 0.000000 0.000000 0.000000
# 3 -0.003567 -0.001682 0.011403 0.000000 0.000000 0.000000
# 4 0.000000 0.000000 0.000000 0.051526 0.000000 0.000000
# 5 0.000000 0.000000 0.000000 0.000000 0.019793 0.000000
# 6 0.000000 0.000000 0.000000 0.000000 0.000000 0.021435
#
#
# Mechanical properties :
#
#
# Convention : Reuss Voigt Hill
#
# Bulk Modulus (GPa) = 76.91105 79.42802 78.16954
# Shear Modulus (GPa) = 31.95095 36.58587 34.26841
#
# Velocity S-wave (km/s) = 3.68636 3.94469 3.81771
# Velocity P-wave (km/s) = 7.12956 7.38441 7.25810
#
# Compressibility (1/GPa) = 0.01300203
#
# Stress axis : x y z
#
# Youngs Moduli (GPa) = 79.12173 82.23759 87.69251
#
# Poissons Ratio (x) = 0.52228 0.31279
# Poissons Ratio (y) = 0.50249 0.14752
# Poissons Ratio (z) = 0.28222 0.13834
#
# Static dielectric constant tensor:
#      x y z
#    x 4.423050 0.000000 0.000000 
#    y 0.000000 4.120470 0.000000 
#    z 0.000000 0.000000 4.191840 
# 
# 
# High freq. dielectric constant tensor:
#      x y z
#    x 1.949820 0.000000 0.000000 
#    y 0.000000 1.931230 0.000000 
#    z 0.000000 0.000000 1.922790 
# 
# From -- ./inp_files/1807.got.cif
#   From: 2010.03.12/outbox.cif.g09.slc.cpg/sg18_1_cif.got.tgz:1807.got - 2010.04.10 18:53:55.
