data_PCOD8156685
_publ_section_title
;
Structure prediction by ZEFSAII (Michael W. Deem and Ramdas Pophale) SiO2 
 PCOD8156685
Probable space group: P 21 21 21
;
_chemical_formula_sum "Si O2"
_cell_formula_units_Z 32
_cell_length_a 13.702231
_cell_length_b 6.971650
_cell_length_c 15.336734
_cell_angle_alpha 90.000000
_cell_angle_beta 90.000000
_cell_angle_gamma 90.000000
_cell_volume 1465.074624
_symmetry_space_group_name_H-M "P 21 21 21"
_symmetry_group_IT_number 19
_symmetry_cell_setting 'orthorhombic'
loop_
_space_group_symop_operation_xyz
x,y,z
1/2-x,-y,1/2+z
1/2+x,1/2-y,-z
-x,1/2+y,1/2-z
loop_
_atom_site_type_symbol
_atom_site_label
_atom_site_fract_x
_atom_site_fract_y
_atom_site_fract_z
Si Si1 0.018157 0.055428 0.142171
Si Si2 0.841011 0.343573 0.115029
Si Si3 0.629020 0.738434 0.428042
Si Si4 0.507062 0.391832 0.350177
Si Si5 0.028199 0.982011 0.954536
Si Si6 0.356036 0.880145 0.302639
Si Si7 0.383171 0.770411 0.799825
Si Si8 0.680544 0.815266 0.242080
O O1 0.933904 0.214143 0.135337
O O2 0.102453 0.128516 0.206119
O O3 0.975741 0.857192 0.178588
O O4 0.072476 0.000428 0.051802
O O5 0.750295 0.285440 0.179469
O O6 0.870240 0.565231 0.128092
O O7 0.809610 0.333776 0.012269
O O8 0.551326 0.576730 0.397061
O O9 0.692617 0.811811 0.346759
O O10 0.579810 0.932969 0.462747
O O11 0.477602 0.237306 0.423126
O O12 0.584638 0.296923 0.280994
O O13 0.406791 0.451794 0.296431
O O14 0.083246 0.131585 0.891620
O O15 0.347250 0.104655 0.287437
O O16 0.286664 0.634243 0.797109
#
# Coordination Sequence:
#
# PCOD8156685 Si02
#       8
#     4   4   4   4   4   4   4   4
#     4  11  23  39  60  82 115 161 203 246 298 357
#     4  10  22  39  58  89 117 156 203 242 302 360
#     4  10  20  35  59  85 120 150 192 248 294 358
#     4  10  19  38  60  88 118 154 187 245 317 349
#     4  10  21  35  58  87 115 151 194 243 291 359
#     4   9  19  36  61  86 119 154 189 246 307 360
#     4  11  22  41  60  80 118 160 204 250 296 361
#     4   9  20  35  60  89 114 154 198 244 301 362
#
# _framework density 21.841891
#
# number of rings (size 3 to 8) (size 9 to 14) (size 15 to 20)
#    0.000    2.000    2.500    0.750    1.750    2.000 
#    0.000    0.000    0.000    1.500    0.000    0.000 
#    0.000    0.000    0.000    0.000    0.000    0.000 
#
# Total GULP energy -396493.154949 kJ/mol
# GULP energy per Si atom -12390.411092 kJ/mol
# Density = 2.179218 g / cm^3
# Si number density = 21.841891 Si / 1000 Ang^3
#
#
#
# Elastic Constant Matrix: (Units=GPa)
#
#
# Indices 1 2 3 4 5 6 
#
# 1 58.1449 -13.6212 1.7625 0.0000 0.0000 0.0000
# 2 -13.6212 25.4573 -8.7965 0.0000 0.0000 0.0000
# 3 1.7625 -8.7965 99.1411 0.0000 0.0000 0.0000
# 4 0.0000 0.0000 0.0000 28.6402 0.0000 0.0000
# 5 0.0000 0.0000 0.0000 0.0000 19.8606 0.0000
# 6 0.0000 0.0000 0.0000 0.0000 0.0000 21.5630
#
#
#
# Elastic Compliance Matrix: (Units=1/GPa)
#
#
# Indices 1 2 3 4 5 6 
#
# 1 0.019698 0.010748 0.000603 0.000000 0.000000 0.000000
# 2 0.010748 0.046389 0.003925 0.000000 0.000000 0.000000
# 3 0.000603 0.003925 0.010424 0.000000 0.000000 0.000000
# 4 0.000000 0.000000 0.000000 0.034916 0.000000 0.000000
# 5 0.000000 0.000000 0.000000 0.000000 0.050351 0.000000
# 6 0.000000 0.000000 0.000000 0.000000 0.000000 0.046376
#
#
# Mechanical properties :
#
#
# Convention : Reuss Voigt Hill
#
# Bulk Modulus (GPa) = 9.34024 15.71476 12.52750
# Shear Modulus (GPa) = 23.44244 27.57265 25.50755
#
# Velocity S-wave (km/s) = 3.27965 3.55685 3.42106
# Velocity P-wave (km/s) = 4.31590 4.90700 4.62091
#
# Compressibility (1/GPa) = 0.10706361
#
# Stress axis : x y z
#
# Youngs Moduli (GPa) = 50.76654 21.55706 95.93110
#
# Poissons Ratio (x) = -0.23170 -0.05789
# Poissons Ratio (y) = -0.54565 -0.37651
# Poissons Ratio (z) = -0.03064 -0.08461
#
# Static dielectric constant tensor:
#      x y z
#    x 3.921530 0.000000 0.000000 
#    y 0.000000 3.661150 0.000000 
#    z 0.000000 0.000000 4.380110 
# 
# 
# High freq. dielectric constant tensor:
#      x y z
#    x 1.838690 0.000000 0.000000 
#    y 0.000000 1.851180 0.000000 
#    z 0.000000 0.000000 1.867070 
# 
# From -- ./inp_files/6103.got.cif
#   From: 2010.03.12/outbox.cif.g09.slc.cpg/sg19_4_cif.got.tgz:6103.got - 2010.04.10 18:59:41.
