data_PCOD8156969
_publ_section_title
;
Structure prediction by ZEFSAII (Michael W. Deem and Ramdas Pophale) SiO2 
 PCOD8156969
Probable space group: P 21 21 21
;
_chemical_formula_sum "Si O2"
_cell_formula_units_Z 32
_cell_length_a 13.333713
_cell_length_b 8.398112
_cell_length_c 12.332085
_cell_angle_alpha 90.000000
_cell_angle_beta 90.000000
_cell_angle_gamma 90.000000
_cell_volume 1380.922401
_symmetry_space_group_name_H-M "P 21 21 21"
_symmetry_group_IT_number 19
_symmetry_cell_setting 'orthorhombic'
loop_
_space_group_symop_operation_xyz
x,y,z
1/2-x,-y,1/2+z
1/2+x,1/2-y,-z
-x,1/2+y,1/2-z
loop_
_atom_site_type_symbol
_atom_site_label
_atom_site_fract_x
_atom_site_fract_y
_atom_site_fract_z
Si Si1 0.912105 0.107667 0.644624
Si Si2 0.922934 0.677356 0.019679
Si Si3 0.945982 0.380139 0.337037
Si Si4 0.269684 0.652576 0.384313
Si Si5 0.421515 0.858497 0.492554
Si Si6 0.922345 0.340594 0.093776
Si Si7 0.780903 0.695889 0.834104
Si Si8 0.418050 0.049524 0.273672
O O1 0.893053 0.263315 0.718204
O O2 0.970381 0.158478 0.537777
O O3 0.806210 0.030431 0.603277
O O4 0.978908 0.978351 0.709069
O O5 0.874208 0.507930 0.055154
O O6 0.954494 0.791317 0.118256
O O7 0.839833 0.756413 0.941056
O O8 0.933206 0.553045 0.392121
O O9 0.970387 0.388014 0.209580
O O10 0.837499 0.298958 0.357144
O O11 0.316024 0.770077 0.475219
O O12 0.152223 0.689750 0.392117
O O13 0.309171 0.687099 0.263134
O O14 0.500578 0.713065 0.500486
O O15 0.437587 0.979424 0.393796
O O16 0.824045 0.524832 0.792622
#
# Coordination Sequence:
#
# PCOD8156969 Si02
#       8
#     4   4   4   4   4   4   4   4
#     4  11  20  40  65 102 125 165 223 276 342 393
#     4  11  21  41  68  91 128 178 216 272 332 395
#     4  11  23  42  63  92 134 176 221 264 326 401
#     4  10  22  42  65  96 133 162 220 281 324 401
#     4  11  21  41  64  91 130 174 215 270 332 389
#     4  11  24  42  62  91 134 176 217 271 327 388
#     4   9  22  41  65  98 129 169 215 278 328 391
#     4  10  21  37  70  95 127 168 215 282 339 388
#
# _framework density 23.172916000000001
#
# number of rings (size 3 to 8) (size 9 to 14) (size 15 to 20)
#    0.000    1.500    2.500    3.750    1.750    0.000 
#    2.250    3.750    0.000    0.000    0.000    0.000 
#    0.000    0.000    0.000    0.000    0.000    0.000 
#
# Total GULP energy -396502.535074 kJ/mol
# GULP energy per Si atom -12390.704221 kJ/mol
# Density = 2.312017 g / cm^3
# Si number density = 23.172916 Si / 1000 Ang^3
#
#
#
# Elastic Constant Matrix: (Units=GPa)
#
#
# Indices 1 2 3 4 5 6 
#
# 1 52.3098 0.8862 20.5234 0.0000 0.0000 0.0000
# 2 0.8862 58.5174 6.1458 0.0000 0.0000 0.0000
# 3 20.5234 6.1458 72.9093 0.0000 0.0000 0.0000
# 4 0.0000 0.0000 0.0000 32.4696 0.0000 0.0000
# 5 0.0000 0.0000 0.0000 0.0000 33.5886 0.0000
# 6 0.0000 0.0000 0.0000 0.0000 0.0000 32.9726
#
#
#
# Elastic Compliance Matrix: (Units=1/GPa)
#
#
# Indices 1 2 3 4 5 6 
#
# 1 0.021496 0.000313 -0.006077 0.000000 0.000000 0.000000
# 2 0.000313 0.017246 -0.001542 0.000000 0.000000 0.000000
# 3 -0.006077 -0.001542 0.015556 0.000000 0.000000 0.000000
# 4 0.000000 0.000000 0.000000 0.030798 0.000000 0.000000
# 5 0.000000 0.000000 0.000000 0.000000 0.029772 0.000000
# 6 0.000000 0.000000 0.000000 0.000000 0.000000 0.030328
#
#
# Mechanical properties :
#
#
# Convention : Reuss Voigt Hill
#
# Bulk Modulus (GPa) = 25.19796 26.53858 25.86827
# Shear Modulus (GPa) = 28.89538 30.21822 29.55680
#
# Velocity S-wave (km/s) = 3.53504 3.61506 3.57527
# Velocity P-wave (km/s) = 5.24972 5.37607 5.31327
#
# Compressibility (1/GPa) = 0.03968576
#
# Stress axis : x y z
#
# Youngs Moduli (GPa) = 46.52031 57.98403 64.28242
#
# Poissons Ratio (x) = -0.01813 0.39066
# Poissons Ratio (y) = -0.01455 0.09911
# Poissons Ratio (z) = 0.28272 0.08940
#
# Static dielectric constant tensor:
#      x y z
#    x 3.926810 0.000000 0.000000 
#    y 0.000000 4.055930 0.000000 
#    z 0.000000 0.000000 4.242950 
# 
# 
# High freq. dielectric constant tensor:
#      x y z
#    x 1.897700 0.000000 0.000000 
#    y 0.000000 1.906670 0.000000 
#    z 0.000000 0.000000 1.923060 
# 
# From -- ./inp_files/5242.got.cif
#   From: 2010.03.12/outbox.cif.g09.slc.cpg/sg19_3_cif.got.tgz:5242.got - 2010.04.10 18:59:41.
