data_PCOD8156582
_publ_section_title
;
Structure prediction by ZEFSAII (Michael W. Deem and Ramdas Pophale) SiO2 
 PCOD8156582
Probable space group: P 21 21 21
;
_chemical_formula_sum "Si O2"
_cell_formula_units_Z 32
_cell_length_a 4.918930
_cell_length_b 17.167397
_cell_length_c 19.104668
_cell_angle_alpha 90.000000
_cell_angle_beta 90.000000
_cell_angle_gamma 90.000000
_cell_volume 1613.297971
_symmetry_space_group_name_H-M "P 21 21 21"
_symmetry_group_IT_number 19
_symmetry_cell_setting 'orthorhombic'
loop_
_space_group_symop_operation_xyz
x,y,z
1/2-x,-y,1/2+z
1/2+x,1/2-y,-z
-x,1/2+y,1/2-z
loop_
_atom_site_type_symbol
_atom_site_label
_atom_site_fract_x
_atom_site_fract_y
_atom_site_fract_z
Si Si1 0.370516 0.211257 0.532983
Si Si2 0.000103 0.400172 0.656688
Si Si3 0.405141 0.087213 0.192082
Si Si4 0.596323 0.809702 0.683682
Si Si5 0.114099 0.959845 0.990192
Si Si6 0.504232 0.293885 0.666579
Si Si7 0.392110 0.540470 0.449568
Si Si8 0.797199 0.217099 0.035770
O O1 0.634339 0.228617 0.486512
O O2 0.278483 0.123443 0.517908
O O3 0.435391 0.222955 0.615068
O O4 0.930366 0.447517 0.728891
O O5 0.963962 0.458623 0.591714
O O6 0.803553 0.325234 0.648549
O O7 0.306954 0.368424 0.657690
O O8 0.591733 0.164395 0.191929
O O9 0.507773 0.029045 0.131132
O O10 0.096848 0.113867 0.175812
O O11 0.509217 0.761913 0.753261
O O12 0.583733 0.759107 0.612489
O O13 0.355941 0.021520 0.999662
O O14 0.853654 0.981969 0.036449
O O15 0.298601 0.627973 0.465224
O O16 0.541295 0.271982 0.019037
#
# Coordination Sequence:
#
# PCOD8156582 Si02
#       8
#     4   4   4   4   4   4   4   4
#     4  12  21  35  56  86 119 154 193 231 278 337
#     4  10  19  33  58  84 107 148 195 233 270 324
#     4   9  18  35  56  80 108 143 193 235 266 338
#     4   9  18  32  58  86 106 138 187 238 281 329
#     4  12  22  35  58  86 120 152 187 236 293 339
#     4  10  18  34  54  84 114 143 194 237 263 326
#     4  11  23  38  57  86 113 149 192 235 292 351
#     4  11  21  38  63  86 109 143 193 245 295 344
#
# _framework density 19.835146000000002
#
# number of rings (size 3 to 8) (size 9 to 14) (size 15 to 20)
#    0.000    1.500    2.500    5.250    0.000    0.000 
#    0.000    0.000    8.250    0.000    0.000    0.000 
#    0.000    0.000    0.000    0.000    0.000    0.000 
#
# Total GULP energy -396741.844484 kJ/mol
# GULP energy per Si atom -12398.182640 kJ/mol
# Density = 1.979000 g / cm^3
# Si number density = 19.835146 Si / 1000 Ang^3
#
#
#
# Elastic Constant Matrix: (Units=GPa)
#
#
# Indices 1 2 3 4 5 6 
#
# 1 91.4171 13.1508 30.5056 0.0000 0.0000 0.0000
# 2 13.1508 44.1129 51.8598 0.0000 0.0000 0.0000
# 3 30.5056 51.8598 148.5834 0.0000 0.0000 0.0000
# 4 0.0000 0.0000 0.0000 25.0964 0.0000 0.0000
# 5 0.0000 0.0000 0.0000 0.0000 32.2762 0.0000
# 6 0.0000 0.0000 0.0000 0.0000 0.0000 25.2378
#
#
#
# Elastic Compliance Matrix: (Units=1/GPa)
#
#
# Indices 1 2 3 4 5 6 
#
# 1 0.011777 -0.001133 -0.002022 0.000000 0.000000 0.000000
# 2 -0.001133 0.038552 -0.013223 0.000000 0.000000 0.000000
# 3 -0.002022 -0.013223 0.011761 0.000000 0.000000 0.000000
# 4 0.000000 0.000000 0.000000 0.039846 0.000000 0.000000
# 5 0.000000 0.000000 0.000000 0.000000 0.030983 0.000000
# 6 0.000000 0.000000 0.000000 0.000000 0.000000 0.039623
#
#
# Mechanical properties :
#
#
# Convention : Reuss Voigt Hill
#
# Bulk Modulus (GPa) = 34.09244 52.79398 43.44321
# Shear Modulus (GPa) = 23.24753 29.09525 26.17139
#
# Velocity S-wave (km/s) = 3.42722 3.83411 3.63636
# Velocity P-wave (km/s) = 5.73466 6.80255 6.29130
#
# Compressibility (1/GPa) = 0.02933201
#
# Stress axis : x y z
#
# Youngs Moduli (GPa) = 84.91310 25.93880 85.02923
#
# Poissons Ratio (x) = 0.02940 0.17195
# Poissons Ratio (y) = 0.09624 1.12435
# Poissons Ratio (z) = 0.17172 0.34299
#
# Static dielectric constant tensor:
#      x y z
#    x 3.802870 0.000000 0.000000 
#    y 0.000000 3.006610 0.000000 
#    z 0.000000 0.000000 4.177970 
# 
# 
# High freq. dielectric constant tensor:
#      x y z
#    x 1.800230 0.000000 0.000000 
#    y 0.000000 1.701570 0.000000 
#    z 0.000000 0.000000 1.796280 
# 
# From -- ./inp_files/6453.got.cif
#   From: 2010.03.12/outbox.cif.g09.slc.cpg/sg19_4_cif.got.tgz:6453.got - 2010.04.10 18:59:41.
