data_PCOD8156347
_publ_section_title
;
Structure prediction by ZEFSAII (Michael W. Deem and Ramdas Pophale) SiO2 
 PCOD8156347
Probable space group: P 21 21 2
;
_chemical_formula_sum "Si O2"
_cell_formula_units_Z 28
_cell_length_a 6.331154
_cell_length_b 18.968581
_cell_length_c 11.241111
_cell_angle_alpha 90.000000
_cell_angle_beta 90.000000
_cell_angle_gamma 90.000000
_cell_volume 1349.978827
_symmetry_space_group_name_H-M "P 21 21 2"
_symmetry_group_IT_number 18
_symmetry_cell_setting 'orthorhombic'
loop_
_space_group_symop_operation_xyz
x,y,z
-x,-y,z
1/2+x,1/2-y,-z
1/2-x,1/2+y,-z
loop_
_atom_site_type_symbol
_atom_site_label
_atom_site_fract_x
_atom_site_fract_y
_atom_site_fract_z
Si Si1 0.256976 0.319307 0.610901
Si Si2 0.520098 0.422339 0.460549
Si Si3 0.086448 0.166089 0.928062
Si Si4 0.250001 0.379123 0.250000
Si Si5 0.979902 0.422339 0.039451
Si Si6 0.086447 0.666089 0.428062
Si Si7 0.756975 0.680693 0.889098
O O1 0.447770 0.364767 0.556813
O O2 0.282282 0.237655 0.578196
O O3 0.250001 0.333571 0.750000
O O4 0.035420 0.342398 0.552867
O O5 0.500000 0.500000 0.518543
O O6 0.367013 0.427149 0.346346
O O7 0.755830 0.400669 0.419520
O O8 0.244171 0.099331 0.919519
O O9 0.217719 0.237655 0.921805
O O10 0.922826 0.169024 0.817432
O O11 0.964580 0.157601 0.052867
O O12 0.132988 0.427149 0.153654
O O13 0.077175 0.330976 0.317432
O O14 0.000000 0.500000 0.981458
O O15 0.052230 0.364768 0.943186
#
# Coordination Sequence:
#
# PCOD8156347 Si02
#       7
#     4   4   4   4   4   4   4
#     4  11  24  42  69  97 132 179 222 274 324 401
#     4  11  25  43  65 100 135 174 220 276 339 395
#     4  11  23  43  68 102 130 173 228 268 335 393
#     4  10  24  38  72  98 136 170 214 280 334 394
#     4  11  25  43  65 100 135 174 220 276 339 395
#     4  11  23  43  68 102 130 173 228 268 335 393
#     4  11  24  42  69  97 132 179 222 274 324 401
#
# _framework density 20.741064999999999
#
# number of rings (size 3 to 8) (size 9 to 14) (size 15 to 20)
#    0.000    1.143    2.857    2.571    8.000    4.571 
#    5.143    0.000    0.000    0.000    0.000    0.000 
#    0.000    0.000    0.000    0.000    0.000    0.000 
#
# Total GULP energy -347294.124071 kJ/mol
# GULP energy per Si atom -12403.361574 kJ/mol
# Density = 2.069386 g / cm^3
# Si number density = 20.741065 Si / 1000 Ang^3
#
#
#
# Elastic Constant Matrix: (Units=GPa)
#
#
# Indices 1 2 3 4 5 6 
#
# 1 120.8921 45.1706 41.1800 0.0000 0.0000 0.0000
# 2 45.1706 123.6993 19.9702 0.0000 0.0000 0.0000
# 3 41.1800 19.9702 134.3655 0.0000 0.0000 0.0000
# 4 0.0000 0.0000 0.0000 12.8481 0.0000 0.0000
# 5 0.0000 0.0000 0.0000 0.0000 28.0537 0.0000
# 6 0.0000 0.0000 0.0000 0.0000 0.0000 27.6608
#
#
#
# Elastic Compliance Matrix: (Units=1/GPa)
#
#
# Indices 1 2 3 4 5 6 
#
# 1 0.010456 -0.003382 -0.002702 0.000000 0.000000 0.000000
# 2 -0.003382 0.009377 -0.000357 0.000000 0.000000 0.000000
# 3 -0.002702 -0.000357 0.008324 0.000000 0.000000 0.000000
# 4 0.000000 0.000000 0.000000 0.077832 0.000000 0.000000
# 5 0.000000 0.000000 0.000000 0.000000 0.035646 0.000000
# 6 0.000000 0.000000 0.000000 0.000000 0.000000 0.036152
#
#
# Mechanical properties :
#
#
# Convention : Reuss Voigt Hill
#
# Bulk Modulus (GPa) = 65.46948 65.73316 65.60132
# Shear Modulus (GPa) = 25.54151 31.88827 28.71489
#
# Velocity S-wave (km/s) = 3.51300 3.92528 3.72485
# Velocity P-wave (km/s) = 6.93460 7.23221 7.08497
#
# Compressibility (1/GPa) = 0.01527429
#
# Stress axis : x y z
#
# Youngs Moduli (GPa) = 95.64066 106.64701 120.14155
#
# Poissons Ratio (x) = 0.36067 0.32460
# Poissons Ratio (y) = 0.32345 0.04291
# Poissons Ratio (z) = 0.25840 0.03809
#
# Static dielectric constant tensor:
#      x y z
#    x 4.024590 0.000000 0.000000 
#    y 0.000000 3.474220 0.000000 
#    z 0.000000 0.000000 3.742920 
# 
# 
# High freq. dielectric constant tensor:
#      x y z
#    x 1.826740 0.000000 0.000000 
#    y 0.000000 1.797370 0.000000 
#    z 0.000000 0.000000 1.808670 
# 
# From -- ./inp_files/5206.got.cif
#   From: 2010.03.12/outbox.cif.g09.slc.cpg/sg18_3_cif.got.tgz:5206.got - 2010.04.10 18:53:55.
