data_PCOD8156006
_publ_section_title
;
Structure prediction by ZEFSAII (Michael W. Deem and Ramdas Pophale) SiO2 
 PCOD8156006
Probable space group: P 21 21 2
;
_chemical_formula_sum "Si O2"
_cell_formula_units_Z 20
_cell_length_a 11.403920
_cell_length_b 9.164642
_cell_length_c 8.317135
_cell_angle_alpha 90.000000
_cell_angle_beta 90.000000
_cell_angle_gamma 90.000000
_cell_volume 869.247434
_symmetry_space_group_name_H-M "P 21 21 2"
_symmetry_group_IT_number 18
_symmetry_cell_setting 'orthorhombic'
loop_
_space_group_symop_operation_xyz
x,y,z
-x,-y,z
1/2+x,1/2-y,-z
1/2-x,1/2+y,-z
loop_
_atom_site_type_symbol
_atom_site_label
_atom_site_fract_x
_atom_site_fract_y
_atom_site_fract_z
Si Si1 0.740813 0.879939 0.305125
Si Si2 0.507084 0.338847 0.771776
Si Si3 0.183821 0.717277 0.013430
Si Si4 0.863014 0.995812 0.848231
Si Si5 0.155045 0.876917 0.502973
O O1 0.654293 0.877554 0.149525
O O2 0.698405 0.784266 0.454656
O O3 0.856589 0.797393 0.233376
O O4 0.762207 0.044176 0.368397
O O5 0.500000 0.500000 0.853353
O O6 0.468867 0.351449 0.584435
O O7 0.429729 0.219506 0.868549
O O8 0.205860 0.882570 0.952472
O O9 0.298927 0.656852 0.107362
O O10 0.852723 0.021273 0.658042
O O11 0.000000 0.000000 0.892929
#
# Coordination Sequence:
#
# PCOD8156006 Si02
#       5
#     4   4   4   4   4
#     4  10  21  38  60  89 119 156 204 257 307 364
#     4  10  20  39  64  88 121 163 206 258 312 363
#     4  11  22  37  63  91 122 163 207 251 310 373
#     4  11  22  40  63  91 125 164 208 258 309 367
#     4  10  21  38  63  87 116 160 205 250 310 367
#
# _framework density 23.008407999999999
#
# number of rings (size 3 to 8) (size 9 to 14) (size 15 to 20)
#    0.000    1.600    0.000    7.200    0.000    0.000 
#    0.000   14.000    0.000   14.400    0.000    0.000 
#    0.000    0.000    0.000    0.000    0.000    0.000 
#
# Total GULP energy -247778.611955 kJ/mol
# GULP energy per Si atom -12388.930598 kJ/mol
# Density = 2.295604 g / cm^3
# Si number density = 23.008408 Si / 1000 Ang^3
#
#
#
# Elastic Constant Matrix: (Units=GPa)
#
#
# Indices 1 2 3 4 5 6 
#
# 1 46.2981 4.1314 5.1896 0.0000 0.0000 0.0000
# 2 4.1314 28.8205 4.3407 0.0000 0.0000 0.0000
# 3 5.1896 4.3407 120.9992 0.0000 0.0000 0.0000
# 4 0.0000 0.0000 0.0000 37.5169 0.0000 0.0000
# 5 0.0000 0.0000 0.0000 0.0000 0.5254 0.0000
# 6 0.0000 0.0000 0.0000 0.0000 0.0000 40.7940
#
#
#
# Elastic Compliance Matrix: (Units=1/GPa)
#
#
# Indices 1 2 3 4 5 6 
#
# 1 0.021962 -0.003023 -0.000834 0.000000 0.000000 0.000000
# 2 -0.003023 0.035302 -0.001137 0.000000 0.000000 0.000000
# 3 -0.000834 -0.001137 0.008341 0.000000 0.000000 0.000000
# 4 0.000000 0.000000 0.000000 0.026655 0.000000 0.000000
# 5 0.000000 0.000000 0.000000 0.000000 1.903446 0.000000
# 6 0.000000 0.000000 0.000000 0.000000 0.000000 0.024513
#
#
# Mechanical properties :
#
#
# Convention : Reuss Voigt Hill
#
# Bulk Modulus (GPa) = 17.97935 24.82680 21.40308
# Shear Modulus (GPa) = 2.44052 27.93099 15.18576
#
# Velocity S-wave (km/s) = 1.03102 3.48795 2.57185
# Velocity P-wave (km/s) = 3.04115 5.19950 4.25931
#
# Compressibility (1/GPa) = 0.05561936
#
# Stress axis : x y z
#
# Youngs Moduli (GPa) = 45.53250 28.32697 119.88907
#
# Poissons Ratio (x) = 0.08562 0.09993
# Poissons Ratio (y) = 0.13763 0.13629
# Poissons Ratio (z) = 0.03795 0.03220
#
# Static dielectric constant tensor:
#      x y z
#    x 3.992850 0.000000 0.000000 
#    y 0.000000 3.917370 0.000000 
#    z 0.000000 0.000000 4.537140 
# 
# 
# High freq. dielectric constant tensor:
#      x y z
#    x 1.878390 0.000000 0.000000 
#    y 0.000000 1.877670 0.000000 
#    z 0.000000 0.000000 1.951060 
# 
# From -- ./inp_files/3641.got.cif
#   From: 2010.03.12/outbox.cif.g09.slc.cpg/sg18_2_cif.got.tgz:3641.got - 2010.04.10 18:53:55.
