data_PCOD8156528
_publ_section_title
;
Structure prediction by ZEFSAII (Michael W. Deem and Ramdas Pophale) SiO2 
 PCOD8156528
Probable space group: P 21 21 2
;
_chemical_formula_sum "Si O2"
_cell_formula_units_Z 10
_cell_length_a 4.831309
_cell_length_b 7.383919
_cell_length_c 11.540101
_cell_angle_alpha 90.000000
_cell_angle_beta 90.000000
_cell_angle_gamma 90.000000
_cell_volume 411.681498
_symmetry_space_group_name_H-M "P 21 21 2"
_symmetry_group_IT_number 18
_symmetry_cell_setting 'orthorhombic'
loop_
_space_group_symop_operation_xyz
x,y,z
-x,-y,z
1/2+x,1/2-y,-z
1/2-x,1/2+y,-z
loop_
_atom_site_type_symbol
_atom_site_label
_atom_site_fract_x
_atom_site_fract_y
_atom_site_fract_z
Si Si1 0.802471 0.352389 0.965758
Si Si2 0.974705 0.293817 0.424301
Si Si3 0.500000 0.500000 0.756554
O O1 0.747241 0.418167 0.834778
O O2 0.000000 0.500000 0.030937
O O3 0.503612 0.325820 0.029137
O O4 0.766264 0.283757 0.531862
O O5 0.000000 0.500000 0.380015
O O6 0.876235 0.164526 0.319672
#
# Coordination Sequence:
#
# PCOD8156528 Si02
#       3
#     4   4   2
#     4  12  26  50  77 109 155 205 271 333 387 469
#     4  12  26  49  79 116 159 202 256 321 385 475
#     4  12  28  48  88 110 164 212 264 316 414 464
#
# _framework density 24.290621000000002
#
# number of rings (size 3 to 8) (size 9 to 14) (size 15 to 20)
#    0.000    0.000    8.000    0.000    5.600    1.600 
#    7.200    0.000    0.000    0.000    0.000    0.000 
#    0.000    0.000    0.000    0.000    0.000    0.000 
#
# Total GULP energy -123962.390009 kJ/mol
# GULP energy per Si atom -12396.239001 kJ/mol
# Density = 2.423533 g / cm^3
# Si number density = 24.290621 Si / 1000 Ang^3
#
#
#
# Elastic Constant Matrix: (Units=GPa)
#
#
# Indices 1 2 3 4 5 6 
#
# 1 147.3319 38.9585 45.3186 0.0000 0.0000 0.0000
# 2 38.9585 151.5275 89.8375 0.0000 0.0000 0.0000
# 3 45.3186 89.8375 118.3205 0.0000 0.0000 0.0000
# 4 0.0000 0.0000 0.0000 51.0332 0.0000 0.0000
# 5 0.0000 0.0000 0.0000 0.0000 21.8733 0.0000
# 6 0.0000 0.0000 0.0000 0.0000 0.0000 55.3436
#
#
#
# Elastic Compliance Matrix: (Units=1/GPa)
#
#
# Indices 1 2 3 4 5 6 
#
# 1 0.007709 -0.000421 -0.002633 0.000000 0.000000 0.000000
# 2 -0.000421 0.012025 -0.008969 0.000000 0.000000 0.000000
# 3 -0.002633 -0.008969 0.016270 0.000000 0.000000 0.000000
# 4 0.000000 0.000000 0.000000 0.019595 0.000000 0.000000
# 5 0.000000 0.000000 0.000000 0.000000 0.045718 0.000000
# 6 0.000000 0.000000 0.000000 0.000000 0.000000 0.018069
#
#
# Mechanical properties :
#
#
# Convention : Reuss Voigt Hill
#
# Bulk Modulus (GPa) = 83.62688 85.04546 84.33617
# Shear Modulus (GPa) = 33.91708 41.85438 37.88573
#
# Velocity S-wave (km/s) = 3.74077 4.15549 3.95357
# Velocity P-wave (km/s) = 7.29110 7.62311 7.45895
#
# Compressibility (1/GPa) = 0.01195788
#
# Stress axis : x y z
#
# Youngs Moduli (GPa) = 129.72581 83.15717 61.46191
#
# Poissons Ratio (x) = 0.03500 0.16182
# Poissons Ratio (y) = 0.05460 0.55127
# Poissons Ratio (z) = 0.34156 0.74587
#
# Static dielectric constant tensor:
#      x y z
#    x 4.556080 0.000000 0.000000 
#    y 0.000000 4.926470 0.000000 
#    z 0.000000 0.000000 3.883380 
# 
# 
# High freq. dielectric constant tensor:
#      x y z
#    x 1.984280 0.000000 0.000000 
#    y 0.000000 1.996650 0.000000 
#    z 0.000000 0.000000 1.920650 
# 
# From -- ./inp_files/2337.got.cif
#   From: 2010.03.12/outbox.cif.g09.slc.cpg/sg18_2_cif.got.tgz:2337.got - 2010.04.10 18:53:55.
