data_PCOD8156779
_publ_section_title
;
Structure prediction by ZEFSAII (Michael W. Deem and Ramdas Pophale) SiO2 
 PCOD8156779
Probable space group: P 21 21 21
;
_chemical_formula_sum "Si O2"
_cell_formula_units_Z 28
_cell_length_a 13.541279
_cell_length_b 18.534131
_cell_length_c 4.838975
_cell_angle_alpha 90.000000
_cell_angle_beta 90.000000
_cell_angle_gamma 90.000000
_cell_volume 1214.465810
_symmetry_space_group_name_H-M "P 21 21 21"
_symmetry_group_IT_number 19
_symmetry_cell_setting 'orthorhombic'
loop_
_space_group_symop_operation_xyz
x,y,z
1/2-x,-y,1/2+z
1/2+x,1/2-y,-z
-x,1/2+y,1/2-z
loop_
_atom_site_type_symbol
_atom_site_label
_atom_site_fract_x
_atom_site_fract_y
_atom_site_fract_z
Si Si1 0.864684 0.050190 0.782288
Si Si2 0.978760 0.324631 0.149597
Si Si3 0.358214 0.846760 0.856342
Si Si4 0.358215 0.153240 0.356341
Si Si5 0.250000 0.958533 0.161908
Si Si6 0.521240 0.324631 0.149597
Si Si7 0.135317 0.449810 0.217711
O O1 0.926179 0.123810 0.822771
O O2 0.750000 0.072843 0.808720
O O3 0.890636 0.014715 0.490156
O O4 0.890636 0.985284 0.990156
O O5 0.933753 0.302271 0.449310
O O6 0.073822 0.376189 0.177228
O O7 0.899094 0.363389 0.948322
O O8 0.999999 0.250000 1.000000
O O9 0.250000 0.808440 0.831591
O O10 0.399093 0.863388 0.551680
O O11 0.347762 0.920284 0.038212
O O12 0.433752 0.802270 0.050692
O O13 0.347762 0.079716 0.538211
O O14 0.250000 0.963800 0.496476
#
# Coordination Sequence:
#
# PCOD8156779 Si02
#       7
#     4   4   4   4   4   4   4
#     4  10  23  43  66  94 127 170 225 277 326 383
#     4  12  24  42  66  98 128 175 221 270 334 395
#     4  10  24  40  59  91 134 163 210 260 321 397
#     4  10  24  40  59  91 134 163 210 260 321 397
#     4  10  20  36  60  88 124 166 202 242 314 396
#     4  12  24  42  66  98 128 175 221 270 334 395
#     4  10  23  43  66  94 127 170 225 277 326 383
#
# _framework density 23.055403999999999
#
# number of rings (size 3 to 8) (size 9 to 14) (size 15 to 20)
#    0.857    0.571    0.000    5.143    0.000    9.143 
#    0.000    2.857    0.000    0.000    0.000    0.000 
#    0.000    0.000    0.000    0.000    0.000    0.000 
#
# Total GULP energy -346868.171358 kJ/mol
# GULP energy per Si atom -12388.148977 kJ/mol
# Density = 2.300293 g / cm^3
# Si number density = 23.055404 Si / 1000 Ang^3
#
#
#
# Elastic Constant Matrix: (Units=GPa)
#
#
# Indices 1 2 3 4 5 6 
#
# 1 121.5979 27.9769 22.5587 0.0000 0.0000 0.0000
# 2 27.9769 51.1349 -34.0201 0.0000 0.0000 0.0000
# 3 22.5587 -34.0201 89.3557 0.0000 0.0000 0.0000
# 4 0.0000 0.0000 0.0000 23.8424 0.0000 0.0000
# 5 0.0000 0.0000 0.0000 0.0000 -1.9217 0.0000
# 6 0.0000 0.0000 0.0000 0.0000 0.0000 27.3550
#
#
#
# Elastic Compliance Matrix: (Units=1/GPa)
#
#
# Indices 1 2 3 4 5 6 
#
# 1 0.012363 -0.011840 -0.007629 0.000000 0.000000 0.000000
# 2 -0.011840 0.037528 0.017277 0.000000 0.000000 0.000000
# 3 -0.007629 0.017277 0.019695 0.000000 0.000000 0.000000
# 4 0.000000 0.000000 0.000000 0.041942 0.000000 0.000000
# 5 0.000000 0.000000 0.000000 0.000000 -0.520384 0.000000
# 6 0.000000 0.000000 0.000000 0.000000 0.000000 0.036556
#
#
# Mechanical properties :
#
#
# Convention : Reuss Voigt Hill
#
# Bulk Modulus (GPa) = 15.33659 32.79106 24.06382
# Shear Modulus (GPa) = -14.44329 26.22667 5.89169
#
# Velocity S-wave (km/s) = -2.50563 3.37642 1.60031
# Velocity P-wave (km/s) = 1.30554 5.42714 3.72488
#
# Compressibility (1/GPa) = 0.06520356
#
# Stress axis : x y z
#
# Youngs Moduli (GPa) = 80.88545 26.64658 50.77420
#
# Poissons Ratio (x) = 0.31549 0.38735
# Poissons Ratio (y) = 0.95765 -0.87723
# Poissons Ratio (z) = 0.61706 -0.46037
#
# Static dielectric constant tensor:
#      x y z
#    x 4.943120 0.000000 0.000000 
#    y 0.000000 3.727010 0.000000 
#    z 0.000000 0.000000 4.958900 
# 
# 
# High freq. dielectric constant tensor:
#      x y z
#    x 1.912530 0.000000 0.000000 
#    y 0.000000 1.886410 0.000000 
#    z 0.000000 0.000000 1.940560 
# 
# From -- ./inp_files/1621.got.cif
#   From: 2010.03.12/outbox.cif.g09.slc.cpg/sg19_1_cif.got.tgz:1621.got - 2010.04.10 18:59:41.
