data_PCOD8156601
_publ_section_title
;
Structure prediction by ZEFSAII (Michael W. Deem and Ramdas Pophale) SiO2 
 PCOD8156601
Probable space group: P 21 21 21
;
_chemical_formula_sum "Si O2"
_cell_formula_units_Z 28
_cell_length_a 8.278286
_cell_length_b 19.427518
_cell_length_c 7.802243
_cell_angle_alpha 90.000000
_cell_angle_beta 90.000000
_cell_angle_gamma 90.000000
_cell_volume 1254.807826
_symmetry_space_group_name_H-M "P 21 21 21"
_symmetry_group_IT_number 19
_symmetry_cell_setting 'orthorhombic'
loop_
_space_group_symop_operation_xyz
x,y,z
1/2-x,-y,1/2+z
1/2+x,1/2-y,-z
-x,1/2+y,1/2-z
loop_
_atom_site_type_symbol
_atom_site_label
_atom_site_fract_x
_atom_site_fract_y
_atom_site_fract_z
Si Si1 0.951396 0.764976 0.939688
Si Si2 0.352070 0.593949 0.122716
Si Si3 0.897796 0.132275 0.674333
Si Si4 0.345588 0.373608 0.940453
Si Si5 0.631707 0.735372 0.743001
Si Si6 0.925887 0.511021 0.475258
Si Si7 0.247706 0.911448 0.266797
O O1 0.768525 0.750071 0.885090
O O2 0.076546 0.714357 0.845418
O O3 0.985312 0.845180 0.895559
O O4 0.966253 0.759784 0.147411
O O5 0.206057 0.602600 0.983888
O O6 0.435563 0.520105 0.100327
O O7 0.295194 0.597314 0.320197
O O8 0.077750 0.098996 0.676482
O O9 0.807621 0.119177 0.856500
O O10 0.376779 0.292515 0.905020
O O11 0.501407 0.419817 0.889562
O O12 0.667427 0.659769 0.665839
O O13 0.767717 0.536139 0.575577
O O14 0.881408 0.448927 0.351921
#
# Coordination Sequence:
#
# PCOD8156601 Si02
#       7
#     4   4   4   4   4   4   4
#     4  10  18  39  66  94 127 176 220 277 340 398
#     4  11  23  44  68  98 134 185 228 279 356 403
#     4  10  22  44  67  98 138 175 234 290 328 419
#     4  10  24  43  69 101 131 177 230 281 339 405
#     4  10  20  42  65  97 134 174 229 279 334 408
#     4  11  25  44  67 102 136 183 231 287 348 413
#     4  10  24  44  66 100 138 176 234 283 343 410
#
# _framework density 22.314174999999999
#
# number of rings (size 3 to 8) (size 9 to 14) (size 15 to 20)
#    0.000    1.714    4.286    0.000    6.000    0.000 
#   15.429    0.000    0.000    0.000    0.000    0.000 
#    0.000    0.000    0.000    0.000    0.000    0.000 
#
# Total GULP energy -346913.725442 kJ/mol
# GULP energy per Si atom -12389.775909 kJ/mol
# Density = 2.226339 g / cm^3
# Si number density = 22.314175 Si / 1000 Ang^3
#
#
#
# Elastic Constant Matrix: (Units=GPa)
#
#
# Indices 1 2 3 4 5 6 
#
# 1 38.7519 37.4076 22.0567 0.0000 0.0000 0.0000
# 2 37.4076 146.8054 32.1353 0.0000 0.0000 0.0000
# 3 22.0567 32.1353 77.3924 0.0000 0.0000 0.0000
# 4 0.0000 0.0000 0.0000 29.9140 0.0000 0.0000
# 5 0.0000 0.0000 0.0000 0.0000 28.8800 0.0000
# 6 0.0000 0.0000 0.0000 0.0000 0.0000 34.0648
#
#
#
# Elastic Compliance Matrix: (Units=1/GPa)
#
#
# Indices 1 2 3 4 5 6 
#
# 1 0.037755 -0.007991 -0.007442 0.000000 0.000000 0.000000
# 2 -0.007991 0.009184 -0.001536 0.000000 0.000000 0.000000
# 3 -0.007442 -0.001536 0.015680 0.000000 0.000000 0.000000
# 4 0.000000 0.000000 0.000000 0.033429 0.000000 0.000000
# 5 0.000000 0.000000 0.000000 0.000000 0.034626 0.000000
# 6 0.000000 0.000000 0.000000 0.000000 0.000000 0.029356
#
#
# Mechanical properties :
#
#
# Convention : Reuss Voigt Hill
#
# Bulk Modulus (GPa) = 34.86670 49.57211 42.21940
# Shear Modulus (GPa) = 24.56649 29.99509 27.28079
#
# Velocity S-wave (km/s) = 3.32164 3.67033 3.50033
# Velocity P-wave (km/s) = 5.51093 6.34236 5.94121
#
# Compressibility (1/GPa) = 0.02868066
#
# Stress axis : x y z
#
# Youngs Moduli (GPa) = 26.48642 108.88189 63.77596
#
# Poissons Ratio (x) = 0.87012 0.47462
# Poissons Ratio (y) = 0.21166 0.09796
# Poissons Ratio (z) = 0.19711 0.16724
#
# Static dielectric constant tensor:
#      x y z
#    x 3.820200 0.000000 0.000000 
#    y 0.000000 4.460910 0.000000 
#    z 0.000000 0.000000 3.845770 
# 
# 
# High freq. dielectric constant tensor:
#      x y z
#    x 1.858340 0.000000 0.000000 
#    y 0.000000 1.902690 0.000000 
#    z 0.000000 0.000000 1.858370 
# 
# From -- ./inp_files/2947.got.cif
#   From: 2010.03.12/outbox.cif.g09.slc.cpg/sg19_2_cif.got.tgz:2947.got - 2010.04.10 18:59:41.
