data_PCOD8156459
_publ_section_title
;
Structure prediction by ZEFSAII (Michael W. Deem and Ramdas Pophale) SiO2 
 PCOD8156459
Probable space group: P 21 21 2
;
_chemical_formula_sum "Si O2"
_cell_formula_units_Z 32
_cell_length_a 13.505026
_cell_length_b 11.413934
_cell_length_c 9.224959
_cell_angle_alpha 90.000000
_cell_angle_beta 90.000000
_cell_angle_gamma 90.000000
_cell_volume 1421.985691
_symmetry_space_group_name_H-M "P 21 21 2"
_symmetry_group_IT_number 18
_symmetry_cell_setting 'orthorhombic'
loop_
_space_group_symop_operation_xyz
x,y,z
-x,-y,z
1/2+x,1/2-y,-z
1/2-x,1/2+y,-z
loop_
_atom_site_type_symbol
_atom_site_label
_atom_site_fract_x
_atom_site_fract_y
_atom_site_fract_z
Si Si1 0.094164 0.073789 0.745625
Si Si2 0.251662 0.161528 0.174908
Si Si3 0.899190 0.642871 0.077888
Si Si4 0.128216 0.567582 0.599441
Si Si5 0.604694 0.510547 0.935632
Si Si6 0.686074 0.944502 0.721102
Si Si7 0.884067 0.277728 0.070131
Si Si8 0.923473 0.653474 0.735947
O O1 0.199341 0.017849 0.692708
O O2 0.088998 0.209394 0.698154
O O3 0.091431 0.067400 0.919328
O O4 0.000000 0.000000 0.681789
O O5 0.186270 0.271819 0.133634
O O6 0.285761 0.156136 0.342865
O O7 0.192134 0.041560 0.157091
O O8 0.350969 0.155683 0.076309
O O9 0.874911 0.522838 0.162357
O O10 0.005147 0.694413 0.123422
O O11 0.904864 0.627074 0.905523
O O12 0.124696 0.565528 0.426292
O O13 0.151618 0.433618 0.651721
O O14 0.028880 0.615348 0.671902
O O15 0.500000 0.500000 0.850515
O O16 0.632576 0.643069 0.969301
O O17 0.688452 0.816378 0.798098
#
# Coordination Sequence:
#
# PCOD8156459 Si02
#       8
#     4   4   4   4   4   4   4   4
#     4  11  24  46  76 106 144 188 248 314 377 440
#     4  12  24  44  75 107 140 192 240 308 372 430
#     4  12  24  44  77 107 142 190 252 307 362 433
#     4  11  29  46  70 106 152 195 243 301 379 446
#     4  11  22  43  70 108 142 173 238 316 364 425
#     4  12  28  47  71 107 148 200 247 299 374 461
#     4  12  24  43  73 108 142 186 247 305 359 434
#     4  11  24  48  72 106 143 192 247 316 364 430
#
# _framework density 22.503741999999999
#
# number of rings (size 3 to 8) (size 9 to 14) (size 15 to 20)
#    0.000    0.500    5.000    2.625   10.500    1.000 
#    0.000    0.625    0.000    0.000    0.000    0.000 
#    0.000    0.000    0.000    0.000    0.000    0.000 
#
# Total GULP energy -396539.587468 kJ/mol
# GULP energy per Si atom -12391.862108 kJ/mol
# Density = 2.245252 g / cm^3
# Si number density = 22.503742 Si / 1000 Ang^3
#
#
#
# Elastic Constant Matrix: (Units=GPa)
#
#
# Indices 1 2 3 4 5 6 
#
# 1 88.9882 23.5392 22.2587 0.0000 0.0000 0.0000
# 2 23.5392 106.6105 38.0208 0.0000 0.0000 0.0000
# 3 22.2587 38.0208 106.8714 0.0000 0.0000 0.0000
# 4 0.0000 0.0000 0.0000 16.6158 0.0000 0.0000
# 5 0.0000 0.0000 0.0000 0.0000 17.9527 0.0000
# 6 0.0000 0.0000 0.0000 0.0000 0.0000 37.9100
#
#
#
# Elastic Compliance Matrix: (Units=1/GPa)
#
#
# Indices 1 2 3 4 5 6 
#
# 1 0.012235 -0.002053 -0.001818 0.000000 0.000000 0.000000
# 2 -0.002053 0.011088 -0.003517 0.000000 0.000000 0.000000
# 3 -0.001818 -0.003517 0.010987 0.000000 0.000000 0.000000
# 4 0.000000 0.000000 0.000000 0.060184 0.000000 0.000000
# 5 0.000000 0.000000 0.000000 0.000000 0.055702 0.000000
# 6 0.000000 0.000000 0.000000 0.000000 0.000000 0.026378
#
#
# Mechanical properties :
#
#
# Convention : Reuss Voigt Hill
#
# Bulk Modulus (GPa) = 51.19351 52.23417 51.71384
# Shear Modulus (GPa) = 25.27031 29.07247 27.17139
#
# Velocity S-wave (km/s) = 3.35466 3.59819 3.47856
# Velocity P-wave (km/s) = 6.14844 6.36588 6.25810
#
# Compressibility (1/GPa) = 0.01953373
#
# Stress axis : x y z
#
# Youngs Moduli (GPa) = 81.73100 90.19160 91.01810
#
# Poissons Ratio (x) = 0.18518 0.16546
# Poissons Ratio (y) = 0.16781 0.32010
# Poissons Ratio (z) = 0.14858 0.31719
#
# Static dielectric constant tensor:
#      x y z
#    x 4.449210 0.000000 0.000000 
#    y 0.000000 4.308220 0.000000 
#    z 0.000000 0.000000 3.687460 
# 
# 
# High freq. dielectric constant tensor:
#      x y z
#    x 1.907410 0.000000 0.000000 
#    y 0.000000 1.897340 0.000000 
#    z 0.000000 0.000000 1.845580 
# 
# From -- ./inp_files/4301.got.cif
#   From: 2010.03.12/outbox.cif.g09.slc.cpg/sg18_3_cif.got.tgz:4301.got - 2010.04.10 18:53:55.
