data_PCOD8156709
_publ_section_title
;
Structure prediction by ZEFSAII (Michael W. Deem and Ramdas Pophale) SiO2 
 PCOD8156709
Probable space group: P 21 21 21
;
_chemical_formula_sum "Si O2"
_cell_formula_units_Z 20
_cell_length_a 14.001545
_cell_length_b 9.553837
_cell_length_c 7.160751
_cell_angle_alpha 90.000000
_cell_angle_beta 90.000000
_cell_angle_gamma 90.000000
_cell_volume 957.882767
_symmetry_space_group_name_H-M "P 21 21 21"
_symmetry_group_IT_number 19
_symmetry_cell_setting 'orthorhombic'
loop_
_space_group_symop_operation_xyz
x,y,z
1/2-x,-y,1/2+z
1/2+x,1/2-y,-z
-x,1/2+y,1/2-z
loop_
_atom_site_type_symbol
_atom_site_label
_atom_site_fract_x
_atom_site_fract_y
_atom_site_fract_z
Si Si1 0.760985 0.631873 0.199179
Si Si2 0.764890 0.858616 0.486493
Si Si3 0.807842 0.329224 0.315336
Si Si4 0.397385 0.492552 0.248717
Si Si5 0.557880 0.697110 0.127209
O O1 0.806918 0.745947 0.338713
O O2 0.810177 0.483258 0.226399
O O3 0.646329 0.627119 0.242653
O O4 0.772442 0.677904 0.981433
O O5 0.714495 0.784296 0.660918
O O6 0.688940 0.961355 0.392196
O O7 0.853982 0.949737 0.557296
O O8 0.912156 0.299494 0.407242
O O9 0.463043 0.608393 0.153120
O O10 0.458616 0.354183 0.295893
#
# Coordination Sequence:
#
# PCOD8156709 Si02
#       5
#     4   4   4   4   4
#     4   9  20  37  69  97 125 175 208 278 325 389
#     4  11  22  42  67  94 135 174 222 260 348 392
#     4  10  19  40  67 101 126 168 226 263 330 400
#     4  11  24  43  67  97 132 181 212 284 324 393
#     4   9  23  40  62  99 128 166 224 269 331 372
#
# _framework density 20.879383000000001
#
# number of rings (size 3 to 8) (size 9 to 14) (size 15 to 20)
#    1.200    0.800    2.000    1.200    5.600    0.000 
#    0.000   10.000    0.000    0.000    0.000    0.000 
#    0.000    0.000    0.000    0.000    0.000    0.000 
#
# Total GULP energy -247872.138815 kJ/mol
# GULP energy per Si atom -12393.606941 kJ/mol
# Density = 2.083186 g / cm^3
# Si number density = 20.879383 Si / 1000 Ang^3
#
#
#
# Elastic Constant Matrix: (Units=GPa)
#
#
# Indices 1 2 3 4 5 6 
#
# 1 19.1047 15.7221 -16.4972 0.0000 0.0000 0.0000
# 2 15.7221 88.9538 5.3998 0.0000 0.0000 0.0000
# 3 -16.4972 5.3998 72.3701 0.0000 0.0000 0.0000
# 4 0.0000 0.0000 0.0000 47.1529 0.0000 0.0000
# 5 0.0000 0.0000 0.0000 0.0000 24.4327 0.0000
# 6 0.0000 0.0000 0.0000 0.0000 0.0000 33.7975
#
#
#
# Elastic Compliance Matrix: (Units=1/GPa)
#
#
# Indices 1 2 3 4 5 6 
#
# 1 0.082656 -0.015824 0.020023 0.000000 0.000000 0.000000
# 2 -0.015824 0.014322 -0.004676 0.000000 0.000000 0.000000
# 3 0.020023 -0.004676 0.018731 0.000000 0.000000 0.000000
# 4 0.000000 0.000000 0.000000 0.021208 0.000000 0.000000
# 5 0.000000 0.000000 0.000000 0.000000 0.040929 0.000000
# 6 0.000000 0.000000 0.000000 0.000000 0.000000 0.029588
#
#
# Mechanical properties :
#
#
# Convention : Reuss Voigt Hill
#
# Bulk Modulus (GPa) = 8.71430 21.07532 14.89481
# Shear Modulus (GPa) = 20.27244 32.79687 26.53466
#
# Velocity S-wave (km/s) = 3.11936 3.96760 3.56877
# Velocity P-wave (km/s) = 4.14205 5.57718 4.91231
#
# Compressibility (1/GPa) = 0.11475388
#
# Stress axis : x y z
#
# Youngs Moduli (GPa) = 12.09838 69.82023 53.38731
#
# Poissons Ratio (x) = 1.10486 -1.06895
# Poissons Ratio (y) = 0.19145 0.24964
# Poissons Ratio (z) = -0.24224 0.32647
#
# Static dielectric constant tensor:
#      x y z
#    x 3.268750 0.000000 0.000000 
#    y 0.000000 3.810840 0.000000 
#    z 0.000000 0.000000 3.862190 
# 
# 
# High freq. dielectric constant tensor:
#      x y z
#    x 1.769860 0.000000 0.000000 
#    y 0.000000 1.833030 0.000000 
#    z 0.000000 0.000000 1.822370 
# 
# From -- ./inp_files/874.got.cif
#   From: 2010.03.12/outbox.cif.g09.slc.cpg/sg19_1_cif.got.tgz:874.got - 2010.04.10 18:59:41.
