data_PCOD8156359
_publ_section_title
;
Structure prediction by ZEFSAII (Michael W. Deem and Ramdas Pophale) SiO2 
 PCOD8156359
Probable space group: P 21 21 2
;
_chemical_formula_sum "Si O2"
_cell_formula_units_Z 28
_cell_length_a 6.324896
_cell_length_b 11.295080
_cell_length_c 18.996870
_cell_angle_alpha 90.000000
_cell_angle_beta 90.000000
_cell_angle_gamma 90.000000
_cell_volume 1357.140312
_symmetry_space_group_name_H-M "P 21 21 2"
_symmetry_group_IT_number 18
_symmetry_cell_setting 'orthorhombic'
loop_
_space_group_symop_operation_xyz
x,y,z
-x,-y,z
1/2+x,1/2-y,-z
1/2-x,1/2+y,-z
loop_
_atom_site_type_symbol
_atom_site_label
_atom_site_fract_x
_atom_site_fract_y
_atom_site_fract_z
Si Si1 0.269366 0.293497 0.171351
Si Si2 0.230635 0.206504 0.328649
Si Si3 0.007604 0.860592 0.570407
Si Si4 0.336591 0.679333 0.082081
Si Si5 0.007605 0.139408 0.070407
Si Si6 0.163409 0.820667 0.417919
Si Si7 0.000000 0.500000 0.122789
Si Si8 0.500000 0.000000 0.377209
O O1 0.250002 0.250002 0.250000
O O2 0.505600 0.333025 0.148694
O O3 0.197264 0.191402 0.117265
O O4 0.116623 0.406050 0.171462
O O5 0.302738 0.308596 0.382736
O O6 0.994400 0.166976 0.351305
O O7 0.383374 0.093949 0.328536
O O8 0.785419 0.803016 0.593681
O O9 0.032026 0.822584 0.489523
O O10 0.000000 0.000000 0.581871
O O11 0.173214 0.569017 0.075709
O O12 0.214578 0.803015 0.093682
O O13 0.467971 0.677418 0.010477
O O14 0.000000 0.000000 0.081869
O O15 0.326788 0.930981 0.424290
#
# Coordination Sequence:
#
# PCOD8156359 Si02
#       8
#     4   4   4   4   4   4   2   2
#     4  11  25  43  66  98 137 174 221 277 339 397
#     4  11  25  43  66  98 137 174 221 277 339 397
#     4  11  24  39  67  98 131 175 225 276 324 400
#     4  11  23  43  66  99 131 177 225 273 338 390
#     4  11  24  39  67  98 131 175 225 276 324 400
#     4  11  23  43  66  99 131 177 225 273 338 390
#     4  10  24  42  70  94 138 180 216 274 338 400
#     4  10  24  42  70  94 138 180 216 274 338 400
#
# _framework density 20.631618
#
# number of rings (size 3 to 8) (size 9 to 14) (size 15 to 20)
#    0.000    1.143    2.857    2.571    4.000   10.286 
#    0.000    0.000    0.000    0.000    0.000    0.000 
#    0.000    0.000    0.000    0.000    0.000    0.000 
#
# Total GULP energy -347263.544096 kJ/mol
# GULP energy per Si atom -12402.269432 kJ/mol
# Density = 2.058466 g / cm^3
# Si number density = 20.631618 Si / 1000 Ang^3
#
#
#
# Elastic Constant Matrix: (Units=GPa)
#
#
# Indices 1 2 3 4 5 6 
#
# 1 119.9633 45.7112 46.9629 0.0000 0.0000 0.0000
# 2 45.7112 153.5042 31.6597 0.0000 0.0000 0.0000
# 3 46.9629 31.6597 127.1998 0.0000 0.0000 0.0000
# 4 0.0000 0.0000 0.0000 22.0749 0.0000 0.0000
# 5 0.0000 0.0000 0.0000 0.0000 26.5413 0.0000
# 6 0.0000 0.0000 0.0000 0.0000 0.0000 31.2859
#
#
#
# Elastic Compliance Matrix: (Units=1/GPa)
#
#
# Indices 1 2 3 4 5 6 
#
# 1 0.010562 -0.002468 -0.003285 0.000000 0.000000 0.000000
# 2 -0.002468 0.007444 -0.000942 0.000000 0.000000 0.000000
# 3 -0.003285 -0.000942 0.009309 0.000000 0.000000 0.000000
# 4 0.000000 0.000000 0.000000 0.045300 0.000000 0.000000
# 5 0.000000 0.000000 0.000000 0.000000 0.037677 0.000000
# 6 0.000000 0.000000 0.000000 0.000000 0.000000 0.031963
#
#
# Mechanical properties :
#
#
# Convention : Reuss Voigt Hill
#
# Bulk Modulus (GPa) = 71.81130 72.14833 71.97982
# Shear Modulus (GPa) = 31.19404 34.40264 32.79834
#
# Velocity S-wave (km/s) = 3.89260 4.08790 3.99145
# Velocity P-wave (km/s) = 7.42194 7.57146 7.49707
#
# Compressibility (1/GPa) = 0.01392539
#
# Stress axis : x y z
#
# Youngs Moduli (GPa) = 94.67567 134.34508 107.42262
#
# Poissons Ratio (x) = 0.33152 0.35294
# Poissons Ratio (y) = 0.23363 0.10115
# Poissons Ratio (z) = 0.31106 0.12650
#
# Static dielectric constant tensor:
#      x y z
#    x 4.089590 0.000000 0.000000 
#    y 0.000000 3.909540 0.000000 
#    z 0.000000 0.000000 3.455810 
# 
# 
# High freq. dielectric constant tensor:
#      x y z
#    x 1.822700 0.000000 0.000000 
#    y 0.000000 1.819950 0.000000 
#    z 0.000000 0.000000 1.786430 
# 
# From -- ./inp_files/7496.got.cif
#   From: 2010.03.12/outbox.cif.g09.slc.cpg/sg18_4_cif.got.tgz:7496.got - 2010.04.10 18:53:55.
