data_PCOD8156692
_publ_section_title
;
Structure prediction by ZEFSAII (Michael W. Deem and Ramdas Pophale) SiO2 
 PCOD8156692
Probable space group: P 21 21 21
;
_chemical_formula_sum "Si O2"
_cell_formula_units_Z 24
_cell_length_a 26.899057
_cell_length_b 4.973816
_cell_length_c 8.757870
_cell_angle_alpha 90.000000
_cell_angle_beta 90.000000
_cell_angle_gamma 90.000000
_cell_volume 1171.723836
_symmetry_space_group_name_H-M "P 21 21 21"
_symmetry_group_IT_number 19
_symmetry_cell_setting 'orthorhombic'
loop_
_space_group_symop_operation_xyz
x,y,z
1/2-x,-y,1/2+z
1/2+x,1/2-y,-z
-x,1/2+y,1/2-z
loop_
_atom_site_type_symbol
_atom_site_label
_atom_site_fract_x
_atom_site_fract_y
_atom_site_fract_z
Si Si1 0.346915 0.677251 0.005403
Si Si2 0.811897 0.320867 0.170113
Si Si3 0.555512 0.819597 0.149209
Si Si4 0.303126 0.708427 0.332238
Si Si5 0.444643 0.820782 0.146672
Si Si6 0.844752 0.286124 0.505616
O O1 0.325416 0.609806 0.171999
O O2 0.404633 0.766145 0.014159
O O3 0.345201 0.410565 0.904517
O O4 0.314057 0.910535 0.930007
O O5 0.755652 0.225165 0.180628
O O6 0.832978 0.387890 0.336732
O O7 0.500260 0.782857 0.078596
O O8 0.562683 0.622615 0.293366
O O9 0.563822 0.120791 0.210444
O O10 0.595958 0.758120 0.019299
O O11 0.316137 0.491584 0.461860
O O12 0.326772 0.994783 0.372299
#
# Coordination Sequence:
#
# PCOD8156692 Si02
#       6
#     4   4   4   4   4   4
#     4  12  23  42  61  91 122 161 204 250 304 357
#     4  12  26  38  58  90 130 158 194 256 308 356
#     4  10  19  38  64  91 115 153 205 255 295 354
#     4  12  23  41  63  84 119 167 213 238 290 366
#     4  10  20  37  64  91 115 153 206 252 296 356
#     4  12  23  42  62  91 121 160 204 251 305 355
#
# _framework density 20.482642999999999
#
# number of rings (size 3 to 8) (size 9 to 14) (size 15 to 20)
#    0.000    0.667    3.333    6.000    0.000    0.000 
#    0.000    1.667    0.000    0.000    0.000    0.000 
#    0.000    0.000    0.000    0.000    0.000    0.000 
#
# Total GULP energy -297777.146797 kJ/mol
# GULP energy per Si atom -12407.381117 kJ/mol
# Density = 2.043602 g / cm^3
# Si number density = 20.482643 Si / 1000 Ang^3
#
#
#
# Elastic Constant Matrix: (Units=GPa)
#
#
# Indices 1 2 3 4 5 6 
#
# 1 104.2876 -8.0270 29.5316 0.0000 0.0000 0.0000
# 2 -8.0270 74.8262 6.7445 0.0000 0.0000 0.0000
# 3 29.5316 6.7445 68.7475 0.0000 0.0000 0.0000
# 4 0.0000 0.0000 0.0000 21.7645 0.0000 0.0000
# 5 0.0000 0.0000 0.0000 0.0000 5.9195 0.0000
# 6 0.0000 0.0000 0.0000 0.0000 0.0000 29.5175
#
#
#
# Elastic Compliance Matrix: (Units=1/GPa)
#
#
# Indices 1 2 3 4 5 6 
#
# 1 0.011112 0.001637 -0.004934 0.000000 0.000000 0.000000
# 2 0.001637 0.013725 -0.002050 0.000000 0.000000 0.000000
# 3 -0.004934 -0.002050 0.016867 0.000000 0.000000 0.000000
# 4 0.000000 0.000000 0.000000 0.045946 0.000000 0.000000
# 5 0.000000 0.000000 0.000000 0.000000 0.168933 0.000000
# 6 0.000000 0.000000 0.000000 0.000000 0.000000 0.033878
#
#
# Mechanical properties :
#
#
# Convention : Reuss Voigt Hill
#
# Bulk Modulus (GPa) = 32.24796 33.81773 33.03284
# Shear Modulus (GPa) = 16.05186 26.08112 21.06649
#
# Velocity S-wave (km/s) = 2.80247 3.57224 3.21051
# Velocity P-wave (km/s) = 5.12347 5.79317 5.46858
#
# Compressibility (1/GPa) = 0.03100971
#
# Stress axis : x y z
#
# Youngs Moduli (GPa) = 89.99273 72.86174 59.28911
#
# Poissons Ratio (x) = -0.11926 0.29253
# Poissons Ratio (y) = -0.14730 0.12152
# Poissons Ratio (z) = 0.44402 0.14933
#
# Static dielectric constant tensor:
#      x y z
#    x 4.046080 0.000000 0.000000 
#    y 0.000000 3.868180 0.000000 
#    z 0.000000 0.000000 3.378160 
# 
# 
# High freq. dielectric constant tensor:
#      x y z
#    x 1.819600 0.000000 0.000000 
#    y 0.000000 1.819940 0.000000 
#    z 0.000000 0.000000 1.765850 
# 
# From -- ./inp_files/2230.got.cif
#   From: 2010.03.12/outbox.cif.g09.slc.cpg/sg19_2_cif.got.tgz:2230.got - 2010.04.10 18:59:41.
