data_PCOD8156502
_publ_section_title
;
Structure prediction by ZEFSAII (Michael W. Deem and Ramdas Pophale) SiO2 
 PCOD8156502
Probable space group: P 21 21 2
;
_chemical_formula_sum "Si O2"
_cell_formula_units_Z 20
_cell_length_a 8.480796
_cell_length_b 17.688612
_cell_length_c 5.454568
_cell_angle_alpha 90.000000
_cell_angle_beta 90.000000
_cell_angle_gamma 90.000000
_cell_volume 818.258891
_symmetry_space_group_name_H-M "P 21 21 2"
_symmetry_group_IT_number 18
_symmetry_cell_setting 'orthorhombic'
loop_
_space_group_symop_operation_xyz
x,y,z
-x,-y,z
1/2+x,1/2-y,-z
1/2-x,1/2+y,-z
loop_
_atom_site_type_symbol
_atom_site_label
_atom_site_fract_x
_atom_site_fract_y
_atom_site_fract_z
Si Si1 0.490851 0.588238 0.958705
Si Si2 0.474498 0.726187 0.263261
Si Si3 0.990548 0.588692 0.410926
Si Si4 0.671715 0.139535 0.087827
Si Si5 0.256877 0.672462 0.630950
O O1 0.500000 0.500000 0.022606
O O2 0.653596 0.614353 0.831916
O O3 0.334121 0.607977 0.803681
O O4 0.488280 0.637313 0.205869
O O5 0.351656 0.769098 0.080118
O O6 0.398914 0.725916 0.533898
O O7 0.641994 0.767416 0.238411
O O8 0.930894 0.612935 0.679806
O O9 0.000000 0.500000 0.405544
O O10 0.163778 0.628656 0.408244
O O11 0.884557 0.608559 0.174929
#
# Coordination Sequence:
#
# PCOD8156502 Si02
#       5
#     4   4   4   4   4
#     4  12  28  46  76 112 157 200 262 328 404 467
#     4  11  27  46  78 106 153 205 268 323 389 473
#     4  11  26  48  78 110 158 198 259 318 401 466
#     4  11  27  46  76 111 152 204 257 321 388 472
#     4  11  27  46  78 109 153 207 266 322 395 472
#
# _framework density 24.442143999999999
#
# number of rings (size 3 to 8) (size 9 to 14) (size 15 to 20)
#    0.000    0.800    0.000    4.200   25.200    0.800 
#    0.000    0.000    0.000    0.000    0.000    0.000 
#    0.000    0.000    0.000    0.000    0.000    0.000 
#
# Total GULP energy -247770.860162 kJ/mol
# GULP energy per Si atom -12388.543008 kJ/mol
# Density = 2.438651 g / cm^3
# Si number density = 24.442144 Si / 1000 Ang^3
#
#
#
# Elastic Constant Matrix: (Units=GPa)
#
#
# Indices 1 2 3 4 5 6 
#
# 1 130.4073 77.5275 41.7296 0.0000 0.0000 0.0000
# 2 77.5275 172.6852 34.7801 0.0000 0.0000 0.0000
# 3 41.7296 34.7801 104.0087 0.0000 0.0000 0.0000
# 4 0.0000 0.0000 0.0000 22.9399 0.0000 0.0000
# 5 0.0000 0.0000 0.0000 0.0000 32.7429 0.0000
# 6 0.0000 0.0000 0.0000 0.0000 0.0000 39.9713
#
#
#
# Elastic Compliance Matrix: (Units=1/GPa)
#
#
# Indices 1 2 3 4 5 6 
#
# 1 0.011290 -0.004457 -0.003040 0.000000 0.000000 0.000000
# 2 -0.004457 0.007968 -0.000876 0.000000 0.000000 0.000000
# 3 -0.003040 -0.000876 0.011127 0.000000 0.000000 0.000000
# 4 0.000000 0.000000 0.000000 0.043592 0.000000 0.000000
# 5 0.000000 0.000000 0.000000 0.000000 0.030541 0.000000
# 6 0.000000 0.000000 0.000000 0.000000 0.000000 0.025018
#
#
# Mechanical properties :
#
#
# Convention : Reuss Voigt Hill
#
# Bulk Modulus (GPa) = 73.31150 79.46394 76.38772
# Shear Modulus (GPa) = 33.15009 36.00176 34.57593
#
# Velocity S-wave (km/s) = 3.68675 3.84205 3.76520
# Velocity P-wave (km/s) = 6.94131 7.22934 7.08679
#
# Compressibility (1/GPa) = 0.01364042
#
# Stress axis : x y z
#
# Youngs Moduli (GPa) = 88.57059 125.49804 89.87002
#
# Poissons Ratio (x) = 0.55930 0.27317
# Poissons Ratio (y) = 0.39473 0.07877
# Poissons Ratio (z) = 0.26922 0.11000
#
# Static dielectric constant tensor:
#      x y z
#    x 4.969620 0.000000 0.000000 
#    y 0.000000 4.745810 0.000000 
#    z 0.000000 0.000000 4.146740 
# 
# 
# High freq. dielectric constant tensor:
#      x y z
#    x 1.992730 0.000000 0.000000 
#    y 0.000000 1.984050 0.000000 
#    z 0.000000 0.000000 1.960200 
# 
# From -- ./inp_files/535.got.cif
#   From: 2010.03.12/outbox.cif.g09.slc.cpg/sg18_1_cif.got.tgz:535.got - 2010.04.10 18:53:55.
