data_PCOD8156610
_publ_section_title
;
Structure prediction by ZEFSAII (Michael W. Deem and Ramdas Pophale) SiO2 
 PCOD8156610
Probable space group: P 21 21 21
;
_chemical_formula_sum "Si O2"
_cell_formula_units_Z 32
_cell_length_a 5.323484
_cell_length_b 16.791690
_cell_length_c 16.189316
_cell_angle_alpha 90.000000
_cell_angle_beta 90.000000
_cell_angle_gamma 90.000000
_cell_volume 1447.167701
_symmetry_space_group_name_H-M "P 21 21 21"
_symmetry_group_IT_number 19
_symmetry_cell_setting 'orthorhombic'
loop_
_space_group_symop_operation_xyz
x,y,z
1/2-x,-y,1/2+z
1/2+x,1/2-y,-z
-x,1/2+y,1/2-z
loop_
_atom_site_type_symbol
_atom_site_label
_atom_site_fract_x
_atom_site_fract_y
_atom_site_fract_z
Si Si1 0.500002 0.396275 0.196023
Si Si2 0.499999 0.569297 0.662210
Si Si3 0.499996 0.381494 0.997162
Si Si4 0.000004 0.240604 0.134167
Si Si5 0.000030 0.809859 0.911663
Si Si6 0.000030 0.645858 0.997067
Si Si7 0.500007 0.223216 0.228105
Si Si8 0.499998 0.027802 0.015311
O O1 0.249683 0.447025 0.216476
O O2 0.500013 0.317182 0.249780
O O3 0.750315 0.447029 0.216472
O O4 0.499992 0.375696 0.096639
O O5 0.500010 0.663233 0.633185
O O6 0.499993 0.512848 0.583629
O O7 0.500002 0.291848 0.960127
O O8 0.253960 0.425980 0.960834
O O9 0.746027 0.425985 0.960836
O O10 0.245718 0.203978 0.178572
O O11 0.754301 0.203974 0.178575
O O12 0.750755 0.850247 0.947685
O O13 0.000002 0.824551 0.813699
O O14 0.249346 0.850237 0.947666
O O15 0.000016 0.715621 0.929885
O O16 0.000003 0.561724 0.947522
#
# Coordination Sequence:
#
# PCOD8156610 Si02
#       8
#     4   4   4   4   4   4   4   4
#     4   8  16  27  44  72 102 136 171 201 244 295
#     4   8  16  27  44  71 101 136 169 200 240 292
#     4  10  19  31  51  79 113 146 177 207 243 306
#     4  10  19  31  51  78 110 147 180 205 243 308
#     4  10  21  38  60  80  98 127 177 233 277 320
#     4  10  21  38  60  82  98 127 178 231 281 320
#     4  10  19  32  52  76 105 137 175 222 265 304
#     4  10  19  32  52  78 107 136 171 219 265 303
#
# _framework density 22.112158000000001
#
# number of rings (size 3 to 8) (size 9 to 14) (size 15 to 20)
#    0.000    2.500    0.000    2.250    0.000    9.000 
#    0.000    0.000    0.000   27.000    0.000    0.000 
#    0.000    0.000    0.000    0.000    0.000    0.000 
#
# Total GULP energy -396471.963651 kJ/mol
# GULP energy per Si atom -12389.748864 kJ/mol
# Density = 2.206183 g / cm^3
# Si number density = 22.112158 Si / 1000 Ang^3
#
#
#
# Elastic Constant Matrix: (Units=GPa)
#
#
# Indices 1 2 3 4 5 6 
#
# 1 217.3240 8.2438 7.4237 0.0000 0.0000 0.0000
# 2 8.2438 62.3395 0.5189 0.0000 0.0000 0.0000
# 3 7.4237 0.5189 41.2817 0.0000 0.0000 0.0000
# 4 0.0000 0.0000 0.0000 11.4570 0.0000 0.0000
# 5 0.0000 0.0000 0.0000 0.0000 13.5855 0.0000
# 6 0.0000 0.0000 0.0000 0.0000 0.0000 14.7404
#
#
#
# Elastic Compliance Matrix: (Units=1/GPa)
#
#
# Indices 1 2 3 4 5 6 
#
# 1 0.004653 -0.000608 -0.000829 0.000000 0.000000 0.000000
# 2 -0.000608 0.016122 -0.000093 0.000000 0.000000 0.000000
# 3 -0.000829 -0.000093 0.024374 0.000000 0.000000 0.000000
# 4 0.000000 0.000000 0.000000 0.087283 0.000000 0.000000
# 5 0.000000 0.000000 0.000000 0.000000 0.073608 0.000000
# 6 0.000000 0.000000 0.000000 0.000000 0.000000 0.067841
#
#
# Mechanical properties :
#
#
# Convention : Reuss Voigt Hill
#
# Bulk Modulus (GPa) = 23.75982 39.25756 31.50869
# Shear Modulus (GPa) = 17.18383 28.27385 22.72884
#
# Velocity S-wave (km/s) = 2.79071 3.57971 3.20955
# Velocity P-wave (km/s) = 4.59919 5.90577 5.29295
#
# Compressibility (1/GPa) = 0.04208786
#
# Stress axis : x y z
#
# Youngs Moduli (GPa) = 214.92329 62.02543 41.02725
#
# Poissons Ratio (x) = 0.03774 0.03401
# Poissons Ratio (y) = 0.13076 0.00383
# Poissons Ratio (z) = 0.17819 0.00578
#
# Static dielectric constant tensor:
#      x y z
#    x 5.244740 0.000000 0.000000 
#    y 0.000000 3.629510 0.000000 
#    z 0.000000 0.000000 3.369210 
# 
# 
# High freq. dielectric constant tensor:
#      x y z
#    x 1.914270 0.000000 0.000000 
#    y 0.000000 1.839870 0.000000 
#    z 0.000000 0.000000 1.816190 
# 
# From -- ./inp_files/5774.got.cif
#   From: 2010.03.12/outbox.cif.g09.slc.cpg/sg19_3_cif.got.tgz:5774.got - 2010.04.10 18:59:41.
