data_PCOD8156096
_publ_section_title
;
Structure prediction by ZEFSAII (Michael W. Deem and Ramdas Pophale) SiO2 
 PCOD8156096
Probable space group: P 21 21 2
;
_chemical_formula_sum "Si O2"
_cell_formula_units_Z 22
_cell_length_a 14.607748
_cell_length_b 6.556428
_cell_length_c 11.282638
_cell_angle_alpha 90.000000
_cell_angle_beta 90.000000
_cell_angle_gamma 90.000000
_cell_volume 1080.590683
_symmetry_space_group_name_H-M "P 21 21 2"
_symmetry_group_IT_number 18
_symmetry_cell_setting 'orthorhombic'
loop_
_space_group_symop_operation_xyz
x,y,z
-x,-y,z
1/2+x,1/2-y,-z
1/2-x,1/2+y,-z
loop_
_atom_site_type_symbol
_atom_site_label
_atom_site_fract_x
_atom_site_fract_y
_atom_site_fract_z
Si Si1 0.500000 0.500000 0.730184
Si Si2 0.082948 0.658084 0.423129
Si Si3 0.658241 0.453517 0.890069
Si Si4 0.813810 0.145777 0.869882
Si Si5 0.745704 0.272451 0.279643
Si Si6 0.398647 0.059371 0.316379
O O1 0.556189 0.636037 0.640499
O O2 0.568474 0.378780 0.818375
O O3 0.183445 0.611964 0.368548
O O4 0.097987 0.691419 0.562978
O O5 0.000000 0.500000 0.398078
O O6 0.718568 0.250797 0.910894
O O7 0.705439 0.627476 0.813329
O O8 0.633118 0.562950 0.014314
O O9 0.869048 0.313984 0.797835
O O10 0.803146 0.954536 0.786135
O O11 0.667041 0.135825 0.343559
O O12 0.500000 0.000000 0.280881
#
# Coordination Sequence:
#
# PCOD8156096 Si02
#       6
#     2   4   4   4   4   4
#     4  10  22  40  64  90 122 164 214 260 324 368
#     4  10  22  42  63  93 126 161 217 266 312 388
#     4  10  21  39  61  95 120 164 213 256 312 389
#     4  11  21  40  64  87 131 167 203 264 319 375
#     4  10  22  39  64  89 124 169 209 257 323 373
#     4  10  25  41  58  96 130 165 218 260 317 391
#
# _framework density 20.359235999999999
#
# number of rings (size 3 to 8) (size 9 to 14) (size 15 to 20)
#    0.000    1.818    1.818    1.091    2.545    5.091 
#    3.273    0.909    0.000    0.000    0.000    0.000 
#    0.000    0.000    0.000    0.000    0.000    0.000 
#
# Total GULP energy -272609.542898 kJ/mol
# GULP energy per Si atom -12391.342859 kJ/mol
# Density = 2.031290 g / cm^3
# Si number density = 20.359236 Si / 1000 Ang^3
#
#
#
# Elastic Constant Matrix: (Units=GPa)
#
#
# Indices 1 2 3 4 5 6 
#
# 1 106.7001 23.2694 50.3806 0.0000 0.0000 0.0000
# 2 23.2694 61.4632 36.0280 0.0000 0.0000 0.0000
# 3 50.3806 36.0280 128.3883 0.0000 0.0000 0.0000
# 4 0.0000 0.0000 0.0000 27.8597 0.0000 0.0000
# 5 0.0000 0.0000 0.0000 0.0000 46.1786 0.0000
# 6 0.0000 0.0000 0.0000 0.0000 0.0000 30.4102
#
#
#
# Elastic Compliance Matrix: (Units=1/GPa)
#
#
# Indices 1 2 3 4 5 6 
#
# 1 0.011722 -0.002085 -0.004015 0.000000 0.000000 0.000000
# 2 -0.002085 0.019844 -0.004751 0.000000 0.000000 0.000000
# 3 -0.004015 -0.004751 0.010697 0.000000 0.000000 0.000000
# 4 0.000000 0.000000 0.000000 0.035894 0.000000 0.000000
# 5 0.000000 0.000000 0.000000 0.000000 0.021655 0.000000
# 6 0.000000 0.000000 0.000000 0.000000 0.000000 0.032884
#
#
# Mechanical properties :
#
#
# Convention : Reuss Voigt Hill
#
# Bulk Modulus (GPa) = 48.62983 57.32307 52.97645
# Shear Modulus (GPa) = 31.00754 33.34793 32.17773
#
# Velocity S-wave (km/s) = 3.90682 4.05158 3.97986
# Velocity P-wave (km/s) = 6.65498 7.07842 6.86996
#
# Compressibility (1/GPa) = 0.02056351
#
# Stress axis : x y z
#
# Youngs Moduli (GPa) = 85.30654 50.39384 93.47997
#
# Poissons Ratio (x) = 0.10505 0.37532
# Poissons Ratio (y) = 0.17782 0.44408
# Poissons Ratio (z) = 0.34251 0.23940
#
# Static dielectric constant tensor:
#      x y z
#    x 4.077630 0.000000 0.000000 
#    y 0.000000 3.455070 0.000000 
#    z 0.000000 0.000000 3.823670 
# 
# 
# High freq. dielectric constant tensor:
#      x y z
#    x 1.798530 0.000000 0.000000 
#    y 0.000000 1.784360 0.000000 
#    z 0.000000 0.000000 1.807700 
# 
# From -- ./inp_files/5099.got.cif
#   From: 2010.03.12/outbox.cif.g09.slc.cpg/sg18_3_cif.got.tgz:5099.got - 2010.04.10 18:53:55.
