data_PCOD8156066
_publ_section_title
;
Structure prediction by ZEFSAII (Michael W. Deem and Ramdas Pophale) SiO2 
 PCOD8156066
Probable space group: P 21 21 2
;
_chemical_formula_sum "Si O2"
_cell_formula_units_Z 24
_cell_length_a 8.637964
_cell_length_b 15.134976
_cell_length_c 9.394072
_cell_angle_alpha 90.000000
_cell_angle_beta 90.000000
_cell_angle_gamma 90.000000
_cell_volume 1228.137552
_symmetry_space_group_name_H-M "P 21 21 2"
_symmetry_group_IT_number 18
_symmetry_cell_setting 'orthorhombic'
loop_
_space_group_symop_operation_xyz
x,y,z
-x,-y,z
1/2+x,1/2-y,-z
1/2-x,1/2+y,-z
loop_
_atom_site_type_symbol
_atom_site_label
_atom_site_fract_x
_atom_site_fract_y
_atom_site_fract_z
Si Si1 0.407738 0.305342 0.398323
Si Si2 0.318436 0.990740 0.910798
Si Si3 0.816847 0.010561 0.611762
Si Si4 0.196434 0.144968 0.417790
Si Si5 0.864215 0.185693 0.924096
Si Si6 0.167094 0.143796 0.086212
O O1 0.289085 0.386781 0.431058
O O2 0.338048 0.211170 0.437209
O O3 0.558632 0.313146 0.492608
O O4 0.445926 0.311464 0.230319
O O5 0.279528 0.019302 0.749670
O O6 0.500000 0.000000 0.940827
O O7 0.266559 0.889869 0.934593
O O8 0.224632 0.052686 0.018692
O O9 0.758939 0.950424 0.481397
O O10 0.000000 0.000000 0.643812
O O11 0.152747 0.132096 0.254740
O O12 0.783654 0.278575 0.958681
O O13 0.994805 0.167390 0.039075
#
# Coordination Sequence:
#
# PCOD8156066 Si02
#       6
#     4   4   4   4   4   4
#     4   9  20  37  54  79 111 145 184 223 275 340
#     4  11  22  38  59  83 113 153 192 227 278 344
#     4   9  19  38  58  78 108 148 187 225 276 343
#     4  10  21  36  58  84 110 141 185 235 279 324
#     4  10  22  39  58  81 115 152 187 228 279 344
#     4  11  22  38  59  87 115 147 189 236 283 327
#
# _framework density 19.541784
#
# number of rings (size 3 to 8) (size 9 to 14) (size 15 to 20)
#    0.000    2.000    0.000    4.500    0.000   10.667 
#    0.000    4.167    0.000    0.000    0.000    0.000 
#    0.000    0.000    0.000    0.000    0.000    0.000 
#
# Total GULP energy -297608.368962 kJ/mol
# GULP energy per Si atom -12400.348707 kJ/mol
# Density = 1.949731 g / cm^3
# Si number density = 19.541784 Si / 1000 Ang^3
#
#
#
# Elastic Constant Matrix: (Units=GPa)
#
#
# Indices 1 2 3 4 5 6 
#
# 1 38.5939 -17.5703 12.6177 0.0000 0.0000 0.0000
# 2 -17.5703 59.8757 12.0539 0.0000 0.0000 0.0000
# 3 12.6177 12.0539 68.5924 0.0000 0.0000 0.0000
# 4 0.0000 0.0000 0.0000 33.7960 0.0000 0.0000
# 5 0.0000 0.0000 0.0000 0.0000 15.5021 0.0000
# 6 0.0000 0.0000 0.0000 0.0000 0.0000 24.3214
#
#
#
# Elastic Compliance Matrix: (Units=1/GPa)
#
#
# Indices 1 2 3 4 5 6 
#
# 1 0.033906 0.011616 -0.008278 0.000000 0.000000 0.000000
# 2 0.011616 0.021293 -0.005879 0.000000 0.000000 0.000000
# 3 -0.008278 -0.005879 0.017135 0.000000 0.000000 0.000000
# 4 0.000000 0.000000 0.000000 0.029589 0.000000 0.000000
# 5 0.000000 0.000000 0.000000 0.000000 0.064508 0.000000
# 6 0.000000 0.000000 0.000000 0.000000 0.000000 0.041116
#
#
# Mechanical properties :
#
#
# Convention : Reuss Voigt Hill
#
# Bulk Modulus (GPa) = 14.86949 20.14050 17.50499
# Shear Modulus (GPa) = 21.27243 25.38794 23.33019
#
# Velocity S-wave (km/s) = 3.30291 3.60830 3.45898
# Velocity P-wave (km/s) = 4.70864 5.26199 4.99298
#
# Compressibility (1/GPa) = 0.06725182
#
# Stress axis : x y z
#
# Youngs Moduli (GPa) = 29.49361 46.96286 58.36093
#
# Poissons Ratio (x) = -0.54552 0.48313
# Poissons Ratio (y) = -0.34260 0.34309
# Poissons Ratio (z) = 0.24416 0.27608
#
# Static dielectric constant tensor:
#      x y z
#    x 3.339340 0.000000 0.000000 
#    y 0.000000 3.985830 0.000000 
#    z 0.000000 0.000000 3.596840 
# 
# 
# High freq. dielectric constant tensor:
#      x y z
#    x 1.745620 0.000000 0.000000 
#    y 0.000000 1.780850 0.000000 
#    z 0.000000 0.000000 1.762730 
# 
# From -- ./inp_files/3135.got.cif
#   From: 2010.03.12/outbox.cif.g09.slc.cpg/sg18_2_cif.got.tgz:3135.got - 2010.04.10 18:53:55.
