data_PCOD8156015
_publ_section_title
;
Structure prediction by ZEFSAII (Michael W. Deem and Ramdas Pophale) SiO2 
 PCOD8156015
Probable space group: P 21 21 2
;
_chemical_formula_sum "Si O2"
_cell_formula_units_Z 32
_cell_length_a 12.949479
_cell_length_b 10.667974
_cell_length_c 9.741741
_cell_angle_alpha 90.000000
_cell_angle_beta 90.000000
_cell_angle_gamma 90.000000
_cell_volume 1345.769939
_symmetry_space_group_name_H-M "P 21 21 2"
_symmetry_group_IT_number 18
_symmetry_cell_setting 'orthorhombic'
loop_
_space_group_symop_operation_xyz
x,y,z
-x,-y,z
1/2+x,1/2-y,-z
1/2-x,1/2+y,-z
loop_
_atom_site_type_symbol
_atom_site_label
_atom_site_fract_x
_atom_site_fract_y
_atom_site_fract_z
Si Si1 0.995303 0.141290 0.939089
Si Si2 0.500034 0.822675 0.653129
Si Si3 0.908320 0.098413 0.210648
Si Si4 0.683378 0.066559 0.157521
Si Si5 0.861880 0.309730 0.769133
Si Si6 0.166596 0.311982 0.572593
Si Si7 0.684142 0.914750 0.518146
Si Si8 0.347043 0.788138 0.894511
O O1 0.957963 0.222414 0.809753
O O2 0.910213 0.160108 0.058773
O O3 0.000000 0.000000 0.885079
O O4 0.105095 0.178764 0.008562
O O5 0.574893 0.701869 0.673049
O O6 0.433046 0.790788 0.519819
O O7 0.585596 0.932499 0.623600
O O8 0.432351 0.844296 0.790000
O O9 0.796348 0.035571 0.224257
O O10 0.000000 0.000000 0.222159
O O11 0.633791 0.164635 0.267539
O O12 0.619327 0.938814 0.149473
O O13 0.689631 0.107631 0.000897
O O14 0.865442 0.341094 0.609618
O O15 0.749724 0.253605 0.804677
O O16 0.228677 0.180065 0.574120
O O17 0.222615 0.442780 0.515992
#
# Coordination Sequence:
#
# PCOD8156015 Si02
#       8
#     4   4   4   4   4   4   4   4
#     4  10  22  42  65  97 142 183 225 291 354 419
#     4  11  23  45  70 102 140 183 237 295 353 424
#     4  10  20  39  73 100 137 185 232 288 361 432
#     4  11  23  44  68 103 141 190 233 292 368 424
#     4  11  23  44  70 100 146 189 234 294 357 432
#     4  11  25  46  71 101 145 190 236 297 356 430
#     4  11  25  47  71 103 141 189 241 293 361 425
#     4  11  24  43  71 107 136 180 239 294 358 426
#
# _framework density 23.778210000000001
#
# number of rings (size 3 to 8) (size 9 to 14) (size 15 to 20)
#    0.000    1.250    3.750    2.625    3.500    0.500 
#   13.500    0.625    0.000    0.000    0.000    0.000 
#    0.000    0.000    0.000    0.000    0.000    0.000 
#
# Total GULP energy -396463.744701 kJ/mol
# GULP energy per Si atom -12389.492022 kJ/mol
# Density = 2.372409 g / cm^3
# Si number density = 23.778210 Si / 1000 Ang^3
#
#
#
# Elastic Constant Matrix: (Units=GPa)
#
#
# Indices 1 2 3 4 5 6 
#
# 1 76.7572 21.8582 11.3321 0.0000 0.0000 0.0000
# 2 21.8582 77.9412 13.2457 0.0000 0.0000 0.0000
# 3 11.3321 13.2457 72.1083 0.0000 0.0000 0.0000
# 4 0.0000 0.0000 0.0000 39.4856 0.0000 0.0000
# 5 0.0000 0.0000 0.0000 0.0000 38.4900 0.0000
# 6 0.0000 0.0000 0.0000 0.0000 0.0000 30.9648
#
#
#
# Elastic Compliance Matrix: (Units=1/GPa)
#
#
# Indices 1 2 3 4 5 6 
#
# 1 0.014327 -0.003753 -0.001562 0.000000 0.000000 0.000000
# 2 -0.003753 0.014226 -0.002024 0.000000 0.000000 0.000000
# 3 -0.001562 -0.002024 0.014485 0.000000 0.000000 0.000000
# 4 0.000000 0.000000 0.000000 0.025326 0.000000 0.000000
# 5 0.000000 0.000000 0.000000 0.000000 0.025981 0.000000
# 6 0.000000 0.000000 0.000000 0.000000 0.000000 0.032295
#
#
# Mechanical properties :
#
#
# Convention : Reuss Voigt Hill
#
# Bulk Modulus (GPa) = 35.25806 35.51986 35.38896
# Shear Modulus (GPa) = 33.16285 33.81280 33.48782
#
# Velocity S-wave (km/s) = 3.73858 3.77504 3.75686
# Velocity P-wave (km/s) = 5.78758 5.82852 5.80809
#
# Compressibility (1/GPa) = 0.02836231
#
# Stress axis : x y z
#
# Youngs Moduli (GPa) = 69.79656 70.29155 69.03571
#
# Poissons Ratio (x) = 0.26377 0.10785
# Poissons Ratio (y) = 0.26191 0.13970
# Poissons Ratio (z) = 0.10904 0.14224
#
# Static dielectric constant tensor:
#      x y z
#    x 4.187100 0.000000 0.000000 
#    y 0.000000 4.292750 0.000000 
#    z 0.000000 0.000000 4.475510 
# 
# 
# High freq. dielectric constant tensor:
#      x y z
#    x 1.940530 0.000000 0.000000 
#    y 0.000000 1.937050 0.000000 
#    z 0.000000 0.000000 1.943410 
# 
# From -- ./inp_files/4310.got.cif
#   From: 2010.03.12/outbox.cif.g09.slc.cpg/sg18_3_cif.got.tgz:4310.got - 2010.04.10 18:53:55.
