data_PCOD8156169
_publ_section_title
;
Structure prediction by ZEFSAII (Michael W. Deem and Ramdas Pophale) SiO2 
 PCOD8156169
Probable space group: P 21 21 2
;
_chemical_formula_sum "Si O2"
_cell_formula_units_Z 18
_cell_length_a 17.100579
_cell_length_b 5.117386
_cell_length_c 10.322356
_cell_angle_alpha 90.000000
_cell_angle_beta 90.000000
_cell_angle_gamma 90.000000
_cell_volume 903.312094
_symmetry_space_group_name_H-M "P 21 21 2"
_symmetry_group_IT_number 18
_symmetry_cell_setting 'orthorhombic'
loop_
_space_group_symop_operation_xyz
x,y,z
-x,-y,z
1/2+x,1/2-y,-z
1/2-x,1/2+y,-z
loop_
_atom_site_type_symbol
_atom_site_label
_atom_site_fract_x
_atom_site_fract_y
_atom_site_fract_z
Si Si1 0.836058 0.990219 0.094531
Si Si2 0.256143 0.513631 0.169005
Si Si3 0.000000 0.000000 0.213567
Si Si4 0.959211 0.753669 0.464695
Si Si5 0.710097 0.398179 0.454315
O O1 0.808214 0.713430 0.152190
O O2 0.785914 0.209594 0.164562
O O3 0.823175 0.006101 0.939993
O O4 0.926691 0.051102 0.120314
O O5 0.298297 0.500052 0.307544
O O6 0.022379 0.240647 0.309581
O O7 0.867383 0.761572 0.490267
O O8 0.000000 0.500000 0.525653
O O9 0.000000 0.000000 0.535161
O O10 0.727052 0.661474 0.536902
#
# Coordination Sequence:
#
# PCOD8156169 Si02
#       5
#     4   4   2   4   4
#     4  10  22  38  64  85 119 152 201 247 291 349
#     4  10  22  41  59  89 117 156 200 246 289 354
#     4  10  22  36  62  88 116 160 194 242 302 352
#     4  10  23  37  56  88 124 153 193 251 294 356
#     4  12  23  38  65  90 119 162 201 244 303 362
#
# _framework density 19.926666999999998
#
# number of rings (size 3 to 8) (size 9 to 14) (size 15 to 20)
#    0.667    0.889    0.000    5.333    6.222    0.000 
#    2.000    0.000    0.000    0.000    0.000    0.000 
#    0.000    0.000    0.000    0.000    0.000    0.000 
#
# Total GULP energy -223114.239148 kJ/mol
# GULP energy per Si atom -12395.235508 kJ/mol
# Density = 1.988131 g / cm^3
# Si number density = 19.926667 Si / 1000 Ang^3
#
#
#
# Elastic Constant Matrix: (Units=GPa)
#
#
# Indices 1 2 3 4 5 6 
#
# 1 111.0863 9.4097 62.4048 0.0000 0.0000 0.0000
# 2 9.4097 97.4264 34.8428 0.0000 0.0000 0.0000
# 3 62.4048 34.8428 120.8882 0.0000 0.0000 0.0000
# 4 0.0000 0.0000 0.0000 19.1639 0.0000 0.0000
# 5 0.0000 0.0000 0.0000 0.0000 29.2645 0.0000
# 6 0.0000 0.0000 0.0000 0.0000 0.0000 27.4075
#
#
#
# Elastic Compliance Matrix: (Units=1/GPa)
#
#
# Indices 1 2 3 4 5 6 
#
# 1 0.012816 0.001258 -0.006978 0.000000 0.000000 0.000000
# 2 0.001258 0.011567 -0.003983 0.000000 0.000000 0.000000
# 3 -0.006978 -0.003983 0.013022 0.000000 0.000000 0.000000
# 4 0.000000 0.000000 0.000000 0.052181 0.000000 0.000000
# 5 0.000000 0.000000 0.000000 0.000000 0.034171 0.000000
# 6 0.000000 0.000000 0.000000 0.000000 0.000000 0.036486
#
#
# Mechanical properties :
#
#
# Convention : Reuss Voigt Hill
#
# Bulk Modulus (GPa) = 55.56158 60.30173 57.93166
# Shear Modulus (GPa) = 26.93231 30.01676 28.47453
#
# Velocity S-wave (km/s) = 3.68036 3.88540 3.78427
# Velocity P-wave (km/s) = 6.78260 7.10323 6.94477
#
# Compressibility (1/GPa) = 0.01799805
#
# Stress axis : x y z
#
# Youngs Moduli (GPa) = 78.02991 86.45121 76.79046
#
# Poissons Ratio (x) = -0.10874 0.53586
# Poissons Ratio (y) = -0.09815 0.30588
# Poissons Ratio (z) = 0.54451 0.34436
#
# Static dielectric constant tensor:
#      x y z
#    x 3.455400 0.000000 0.000000 
#    y 0.000000 3.707980 0.000000 
#    z 0.000000 0.000000 3.579450 
# 
# 
# High freq. dielectric constant tensor:
#      x y z
#    x 1.764730 0.000000 0.000000 
#    y 0.000000 1.792440 0.000000 
#    z 0.000000 0.000000 1.764640 
# 
# From -- ./inp_files/4404.got.cif
#   From: 2010.03.12/outbox.cif.g09.slc.cpg/sg18_3_cif.got.tgz:4404.got - 2010.04.10 18:53:55.
