data_PCOD8156375
_publ_section_title
;
Structure prediction by ZEFSAII (Michael W. Deem and Ramdas Pophale) SiO2 
 PCOD8156375
Probable space group: P 21 21 2
;
_chemical_formula_sum "Si O2"
_cell_formula_units_Z 14
_cell_length_a 13.751099
_cell_length_b 5.530548
_cell_length_c 7.777210
_cell_angle_alpha 90.000000
_cell_angle_beta 90.000000
_cell_angle_gamma 90.000000
_cell_volume 591.465477
_symmetry_space_group_name_H-M "P 21 21 2"
_symmetry_group_IT_number 18
_symmetry_cell_setting 'orthorhombic'
loop_
_space_group_symop_operation_xyz
x,y,z
-x,-y,z
1/2+x,1/2-y,-z
1/2-x,1/2+y,-z
loop_
_atom_site_type_symbol
_atom_site_label
_atom_site_fract_x
_atom_site_fract_y
_atom_site_fract_z
Si Si1 0.362469 0.125881 0.343184
Si Si2 0.809877 0.612748 0.987888
Si Si3 0.500000 0.500000 0.453104
Si Si4 0.854834 0.699108 0.344244
O O1 0.455635 0.300693 0.323439
O O2 0.260790 0.263794 0.336084
O O3 0.378073 0.023019 0.533159
O O4 0.366019 0.922267 0.193460
O O5 0.885702 0.638110 0.147531
O O6 0.751196 0.865778 0.975484
O O7 0.412096 0.573060 0.580425
#
# Coordination Sequence:
#
# PCOD8156375 Si02
#       4
#     4   4   2   4
#     4  11  23  46  76 105 150 196 244 310 367 443
#     4  10  24  44  81 109 144 200 248 301 376 433
#     4  12  26  44  78 112 144 202 250 292 392 430
#     4  11  23  46  76 105 150 196 244 310 367 443
#
# _framework density 23.670024000000002
#
# number of rings (size 3 to 8) (size 9 to 14) (size 15 to 20)
#    0.000    1.143    2.857    2.571    8.000    0.000 
#    0.000    8.571    0.000    0.000    0.000    0.000 
#    0.000    0.000    0.000    0.000    0.000    0.000 
#
# Total GULP energy -173471.587016 kJ/mol
# GULP energy per Si atom -12390.827644 kJ/mol
# Density = 2.361615 g / cm^3
# Si number density = 23.670024 Si / 1000 Ang^3
#
#
#
# Elastic Constant Matrix: (Units=GPa)
#
#
# Indices 1 2 3 4 5 6 
#
# 1 69.5073 6.7415 14.8349 0.0000 0.0000 0.0000
# 2 6.7415 99.2898 9.5256 0.0000 0.0000 0.0000
# 3 14.8349 9.5256 103.8872 0.0000 0.0000 0.0000
# 4 0.0000 0.0000 0.0000 29.4871 0.0000 0.0000
# 5 0.0000 0.0000 0.0000 0.0000 10.7074 0.0000
# 6 0.0000 0.0000 0.0000 0.0000 0.0000 36.1980
#
#
#
# Elastic Compliance Matrix: (Units=1/GPa)
#
#
# Indices 1 2 3 4 5 6 
#
# 1 0.014904 -0.000815 -0.002054 0.000000 0.000000 0.000000
# 2 -0.000815 0.010205 -0.000819 0.000000 0.000000 0.000000
# 3 -0.002054 -0.000819 0.009994 0.000000 0.000000 0.000000
# 4 0.000000 0.000000 0.000000 0.033913 0.000000 0.000000
# 5 0.000000 0.000000 0.000000 0.000000 0.093393 0.000000
# 6 0.000000 0.000000 0.000000 0.000000 0.000000 0.027626
#
#
# Mechanical properties :
#
#
# Convention : Reuss Voigt Hill
#
# Bulk Modulus (GPa) = 36.06441 37.20980 36.63710
# Shear Modulus (GPa) = 24.19497 31.38401 27.78949
#
# Velocity S-wave (km/s) = 3.20062 3.64524 3.43014
# Velocity P-wave (km/s) = 5.37848 5.78544 5.58567
#
# Compressibility (1/GPa) = 0.02772817
#
# Stress axis : x y z
#
# Youngs Moduli (GPa) = 67.09465 97.98663 100.05798
#
# Poissons Ratio (x) = 0.07985 0.20548
# Poissons Ratio (y) = 0.05468 0.08199
# Poissons Ratio (z) = 0.13779 0.08029
#
# Static dielectric constant tensor:
#      x y z
#    x 4.159410 0.000000 0.000000 
#    y 0.000000 4.318300 0.000000 
#    z 0.000000 0.000000 4.934420 
# 
# 
# High freq. dielectric constant tensor:
#      x y z
#    x 1.916100 0.000000 0.000000 
#    y 0.000000 1.945970 0.000000 
#    z 0.000000 0.000000 1.952860 
# 
# From -- ./inp_files/2392.got.cif
#   From: 2010.03.12/outbox.cif.g09.slc.cpg/sg18_2_cif.got.tgz:2392.got - 2010.04.10 18:53:55.
