data_PCOD8156775
_publ_section_title
;
Structure prediction by ZEFSAII (Michael W. Deem and Ramdas Pophale) SiO2 
 PCOD8156775
Probable space group: P 21 21 21
;
_chemical_formula_sum "Si O2"
_cell_formula_units_Z 28
_cell_length_a 8.489487
_cell_length_b 7.297078
_cell_length_c 19.924147
_cell_angle_alpha 90.000000
_cell_angle_beta 90.000000
_cell_angle_gamma 90.000000
_cell_volume 1234.270001
_symmetry_space_group_name_H-M "P 21 21 21"
_symmetry_group_IT_number 19
_symmetry_cell_setting 'orthorhombic'
loop_
_space_group_symop_operation_xyz
x,y,z
1/2-x,-y,1/2+z
1/2+x,1/2-y,-z
-x,1/2+y,1/2-z
loop_
_atom_site_type_symbol
_atom_site_label
_atom_site_fract_x
_atom_site_fract_y
_atom_site_fract_z
Si Si1 0.387556 0.223889 0.454738
Si Si2 0.789427 0.987805 0.370033
Si Si3 0.430373 0.786096 0.174041
Si Si4 0.935582 0.289613 0.818997
Si Si5 0.951150 0.459572 0.037579
Si Si6 0.143243 0.484109 0.487677
Si Si7 0.356293 0.778567 0.443363
O O1 0.435964 0.212074 0.376842
O O2 0.486924 0.394273 0.484330
O O3 0.455268 0.041693 0.495886
O O4 0.204258 0.278032 0.465745
O O5 0.735495 0.183966 0.340605
O O6 0.718647 0.950890 0.443084
O O7 0.728611 0.823972 0.321859
O O8 0.977052 0.983573 0.386388
O O9 0.487426 0.731363 0.247047
O O10 0.398267 0.000323 0.165237
O O11 0.057095 0.203866 0.872488
O O12 0.757858 0.461604 0.044887
O O13 0.014312 0.265974 0.002569
O O14 0.213040 0.628711 0.433926
#
# Coordination Sequence:
#
# PCOD8156775 Si02
#       7
#     4   4   4   4   4   4   4
#     4   9  19  35  54  84 118 148 194 250 305 358
#     4   9  21  37  59  87 117 153 202 252 308 359
#     4  11  21  37  62  87 117 162 211 246 291 374
#     4  12  21  39  64  87 122 164 210 255 299 372
#     4  10  20  37  61  91 126 153 200 265 316 378
#     4   9  18  33  54  84 116 147 187 252 304 367
#     4  10  20  36  58  92 120 155 204 250 319 370
#
# _framework density 22.685473000000002
#
# number of rings (size 3 to 8) (size 9 to 14) (size 15 to 20)
#    0.000    2.286    4.286    1.714    0.000    3.429 
#    5.143    0.000    3.143    1.714    0.000    0.000 
#    0.000    0.000    0.000    0.000    0.000    0.000 
#
# Total GULP energy -346928.023368 kJ/mol
# GULP energy per Si atom -12390.286549 kJ/mol
# Density = 2.263384 g / cm^3
# Si number density = 22.685473 Si / 1000 Ang^3
#
#
#
# Elastic Constant Matrix: (Units=GPa)
#
#
# Indices 1 2 3 4 5 6 
#
# 1 144.7171 12.6334 39.9421 0.0000 0.0000 0.0000
# 2 12.6334 91.2831 12.2482 0.0000 0.0000 0.0000
# 3 39.9421 12.2482 97.0376 0.0000 0.0000 0.0000
# 4 0.0000 0.0000 0.0000 28.6015 0.0000 0.0000
# 5 0.0000 0.0000 0.0000 0.0000 28.9419 0.0000
# 6 0.0000 0.0000 0.0000 0.0000 0.0000 25.4451
#
#
#
# Elastic Compliance Matrix: (Units=1/GPa)
#
#
# Indices 1 2 3 4 5 6 
#
# 1 0.007835 -0.000663 -0.003141 0.000000 0.000000 0.000000
# 2 -0.000663 0.011200 -0.001141 0.000000 0.000000 0.000000
# 3 -0.003141 -0.001141 0.011742 0.000000 0.000000 0.000000
# 4 0.000000 0.000000 0.000000 0.034963 0.000000 0.000000
# 5 0.000000 0.000000 0.000000 0.000000 0.034552 0.000000
# 6 0.000000 0.000000 0.000000 0.000000 0.000000 0.039300
#
#
# Mechanical properties :
#
#
# Convention : Reuss Voigt Hill
#
# Bulk Modulus (GPa) = 47.87660 51.40946 49.64303
# Shear Modulus (GPa) = 31.96020 34.47865 33.21942
#
# Velocity S-wave (km/s) = 3.75752 3.90276 3.83083
# Velocity P-wave (km/s) = 6.32263 6.55895 6.44187
#
# Compressibility (1/GPa) = 0.02088703
#
# Stress axis : x y z
#
# Youngs Moduli (GPa) = 127.63407 89.28783 85.16233
#
# Poissons Ratio (x) = 0.05918 0.26752
# Poissons Ratio (y) = 0.08460 0.09715
# Poissons Ratio (z) = 0.40094 0.10186
#
# Static dielectric constant tensor:
#      x y z
#    x 4.916610 0.000000 0.000000 
#    y 0.000000 5.141060 0.000000 
#    z 0.000000 0.000000 3.805030 
# 
# 
# High freq. dielectric constant tensor:
#      x y z
#    x 1.904690 0.000000 0.000000 
#    y 0.000000 1.953420 0.000000 
#    z 0.000000 0.000000 1.846700 
# 
# From -- ./inp_files/7001.got.cif
#   From: 2010.03.12/outbox.cif.g09.slc.cpg/sg19_4_cif.got.tgz:7001.got - 2010.04.10 18:59:41.
