data_PCOD8156501
_publ_section_title
;
Structure prediction by ZEFSAII (Michael W. Deem and Ramdas Pophale) SiO2 
 PCOD8156501
Probable space group: P 21 21 2
;
_chemical_formula_sum "Si O2"
_cell_formula_units_Z 20
_cell_length_a 4.993158
_cell_length_b 8.618934
_cell_length_c 19.004516
_cell_angle_alpha 90.000000
_cell_angle_beta 90.000000
_cell_angle_gamma 90.000000
_cell_volume 817.872635
_symmetry_space_group_name_H-M "P 21 21 2"
_symmetry_group_IT_number 18
_symmetry_cell_setting 'orthorhombic'
loop_
_space_group_symop_operation_xyz
x,y,z
-x,-y,z
1/2+x,1/2-y,-z
1/2-x,1/2+y,-z
loop_
_atom_site_type_symbol
_atom_site_label
_atom_site_fract_x
_atom_site_fract_y
_atom_site_fract_z
Si Si1 0.419174 0.818739 0.035029
Si Si2 0.256130 0.601726 0.748352
Si Si3 0.403000 0.167813 0.685605
Si Si4 0.439176 0.678640 0.177004
Si Si5 0.882538 0.333255 0.473033
O O1 0.297705 0.755888 0.109412
O O2 0.500000 0.000000 0.035967
O O3 0.680402 0.712414 0.019881
O O4 0.500000 0.500000 0.776342
O O5 0.355055 0.706812 0.682295
O O6 0.000000 0.500000 0.725242
O O7 0.209080 0.720152 0.813513
O O8 0.201357 0.215136 0.747918
O O9 0.277556 0.162726 0.607814
O O10 0.500000 0.000000 0.708964
O O11 0.500000 0.500000 0.163877
O O12 0.619775 0.292643 0.518097
O O13 0.000000 0.500000 0.496375
#
# Coordination Sequence:
#
# PCOD8156501 Si02
#       5
#     4   4   4   4   4
#     4  12  29  52  79 112 153 200 250 305 370 446
#     4  12  26  43  69 111 148 185 240 311 366 426
#     4  11  26  47  77 109 151 197 252 303 376 450
#     4  12  26  47  80 110 151 197 251 305 376 442
#     4  11  27  49  75 106 149 199 249 306 374 448
#
# _framework density 24.453686000000001
#
# number of rings (size 3 to 8) (size 9 to 14) (size 15 to 20)
#    0.000    0.400    4.000    3.000    5.600    3.200 
#    0.000    0.000    0.000    0.000    0.000    0.000 
#    0.000    0.000    0.000    0.000    0.000    0.000 
#
# Total GULP energy -247860.035422 kJ/mol
# GULP energy per Si atom -12393.001771 kJ/mol
# Density = 2.439803 g / cm^3
# Si number density = 24.453686 Si / 1000 Ang^3
#
#
#
# Elastic Constant Matrix: (Units=GPa)
#
#
# Indices 1 2 3 4 5 6 
#
# 1 117.2111 46.9261 34.8478 0.0000 0.0000 0.0000
# 2 46.9261 172.2707 42.1960 0.0000 0.0000 0.0000
# 3 34.8478 42.1960 118.3482 0.0000 0.0000 0.0000
# 4 0.0000 0.0000 0.0000 -10.9030 0.0000 0.0000
# 5 0.0000 0.0000 0.0000 0.0000 65.6204 0.0000
# 6 0.0000 0.0000 0.0000 0.0000 0.0000 34.9905
#
#
#
# Elastic Compliance Matrix: (Units=1/GPa)
#
#
# Indices 1 2 3 4 5 6 
#
# 1 0.010062 -0.002208 -0.002176 0.000000 0.000000 0.000000
# 2 -0.002208 0.006845 -0.001790 0.000000 0.000000 0.000000
# 3 -0.002176 -0.001790 0.009729 0.000000 0.000000 0.000000
# 4 0.000000 0.000000 0.000000 -0.091718 0.000000 0.000000
# 5 0.000000 0.000000 0.000000 0.000000 0.015239 0.000000
# 6 0.000000 0.000000 0.000000 0.000000 0.000000 0.028579
#
#
# Mechanical properties :
#
#
# Convention : Reuss Voigt Hill
#
# Bulk Modulus (GPa) = 69.98963 72.86334 71.42648
# Shear Modulus (GPa) = -1204.01411 36.86558 -583.57426
#
# Velocity S-wave (km/s) = -22.21337 3.88695 -15.46489
# Velocity P-wave (km/s) = 25.08443 7.07147 17.01797
#
# Compressibility (1/GPa) = 0.01428783
#
# Stress axis : x y z
#
# Youngs Moduli (GPa) = 99.37923 146.09620 102.79004
#
# Poissons Ratio (x) = 0.32259 0.22363
# Poissons Ratio (y) = 0.21944 0.18402
# Poissons Ratio (z) = 0.21621 0.26155
#
# Static dielectric constant tensor:
#      x y z
#    x 5.013820 0.000000 0.000000 
#    y 0.000000 4.663730 0.000000 
#    z 0.000000 0.000000 4.260490 
# 
# 
# High freq. dielectric constant tensor:
#      x y z
#    x 1.966610 0.000000 0.000000 
#    y 0.000000 2.004560 0.000000 
#    z 0.000000 0.000000 1.960420 
# 
# From -- ./inp_files/7079.got.cif
#   From: 2010.03.12/outbox.cif.g09.slc.cpg/sg18_4_cif.got.tgz:7079.got - 2010.04.10 18:53:55.
