data_PCOD8156352
_publ_section_title
;
Structure prediction by ZEFSAII (Michael W. Deem and Ramdas Pophale) SiO2 
 PCOD8156352
Probable space group: P 21 21 2
;
_chemical_formula_sum "Si O2"
_cell_formula_units_Z 24
_cell_length_a 12.087214
_cell_length_b 9.394862
_cell_length_c 10.130478
_cell_angle_alpha 90.000000
_cell_angle_beta 90.000000
_cell_angle_gamma 90.000000
_cell_volume 1150.393858
_symmetry_space_group_name_H-M "P 21 21 2"
_symmetry_group_IT_number 18
_symmetry_cell_setting 'orthorhombic'
loop_
_space_group_symop_operation_xyz
x,y,z
-x,-y,z
1/2+x,1/2-y,-z
1/2-x,1/2+y,-z
loop_
_atom_site_type_symbol
_atom_site_label
_atom_site_fract_x
_atom_site_fract_y
_atom_site_fract_z
Si Si1 0.679628 0.376325 0.336418
Si Si2 0.606031 0.362477 0.628720
Si Si3 0.372663 0.264293 0.023254
Si Si4 0.139285 0.843839 0.276824
Si Si5 0.000000 0.500000 0.034840
Si Si6 0.000000 0.000000 0.831329
Si Si7 0.808785 0.630879 0.201269
O O1 0.642824 0.412926 0.484197
O O2 0.752036 0.230966 0.341321
O O3 0.565001 0.379550 0.254354
O O4 0.748351 0.496134 0.261072
O O5 0.650709 0.485249 0.728833
O O6 0.474452 0.326858 0.638226
O O7 0.668229 0.220296 0.667918
O O8 0.427061 0.408017 0.072052
O O9 0.254496 0.268627 0.095307
O O10 0.366623 0.272856 0.866049
O O11 0.434546 0.114667 0.056727
O O12 0.080221 0.412384 0.128759
#
# Coordination Sequence:
#
# PCOD8156352 Si02
#       7
#     4   4   4   4   2   2   4
#     4  11  23  43  65  93 134 175 225 278 330 399
#     4  11  23  40  65  93 130 173 229 266 333 400
#     4  11  25  39  67  95 135 167 226 274 342 396
#     4  11  23  39  65  93 126 180 213 279 332 402
#     4  12  24  44  64  98 138 172 222 276 332 416
#     4  10  24  42  64  96 130 174 218 282 338 386
#     4  11  24  41  65  99 129 180 217 281 338 392
#
# _framework density 20.862421000000001
#
# number of rings (size 3 to 8) (size 9 to 14) (size 15 to 20)
#    0.000    1.000    3.333    3.000    4.667    1.333 
#    0.000    0.000    0.000    4.000    0.000    0.000 
#    0.000    0.000    0.000    0.000    0.000    0.000 
#
# Total GULP energy -297325.239632 kJ/mol
# GULP energy per Si atom -12388.551651 kJ/mol
# Density = 2.081494 g / cm^3
# Si number density = 20.862421 Si / 1000 Ang^3
#
#
#
# Elastic Constant Matrix: (Units=GPa)
#
#
# Indices 1 2 3 4 5 6 
#
# 1 107.9540 32.7579 41.3406 0.0000 0.0000 0.0000
# 2 32.7579 80.2633 24.0722 0.0000 0.0000 0.0000
# 3 41.3406 24.0722 81.4156 0.0000 0.0000 0.0000
# 4 0.0000 0.0000 0.0000 32.5834 0.0000 0.0000
# 5 0.0000 0.0000 0.0000 0.0000 29.1400 0.0000
# 6 0.0000 0.0000 0.0000 0.0000 0.0000 46.0152
#
#
#
# Elastic Compliance Matrix: (Units=1/GPa)
#
#
# Indices 1 2 3 4 5 6 
#
# 1 0.012316 -0.003457 -0.005231 0.000000 0.000000 0.000000
# 2 -0.003457 0.014642 -0.002574 0.000000 0.000000 0.000000
# 3 -0.005231 -0.002574 0.015700 0.000000 0.000000 0.000000
# 4 0.000000 0.000000 0.000000 0.030690 0.000000 0.000000
# 5 0.000000 0.000000 0.000000 0.000000 0.034317 0.000000
# 6 0.000000 0.000000 0.000000 0.000000 0.000000 0.021732
#
#
# Mechanical properties :
#
#
# Convention : Reuss Voigt Hill
#
# Bulk Modulus (GPa) = 49.67009 51.77492 50.72250
# Shear Modulus (GPa) = 31.51939 32.97855 32.24897
#
# Velocity S-wave (km/s) = 3.89115 3.98019 3.93592
# Velocity P-wave (km/s) = 6.63687 6.78187 6.70976
#
# Compressibility (1/GPa) = 0.02013284
#
# Stress axis : x y z
#
# Youngs Moduli (GPa) = 81.19755 68.29693 63.69475
#
# Poissons Ratio (x) = 0.23613 0.33320
# Poissons Ratio (y) = 0.28074 0.16392
# Poissons Ratio (z) = 0.42477 0.17577
#
# Static dielectric constant tensor:
#      x y z
#    x 4.248280 0.000000 0.000000 
#    y 0.000000 3.835600 0.000000 
#    z 0.000000 0.000000 3.683190 
# 
# 
# High freq. dielectric constant tensor:
#      x y z
#    x 1.827300 0.000000 0.000000 
#    y 0.000000 1.822960 0.000000 
#    z 0.000000 0.000000 1.807360 
# 
# From -- ./inp_files/5867.got.cif
#   From: 2010.03.12/outbox.cif.g09.slc.cpg/sg18_3_cif.got.tgz:5867.got - 2010.04.10 18:53:55.
