data_PCOD8156446
_publ_section_title
;
Structure prediction by ZEFSAII (Michael W. Deem and Ramdas Pophale) SiO2 
 PCOD8156446
Probable space group: P 21 21 2
;
_chemical_formula_sum "Si O2"
_cell_formula_units_Z 32
_cell_length_a 16.987103
_cell_length_b 5.221230
_cell_length_c 18.808640
_cell_angle_alpha 90.000000
_cell_angle_beta 90.000000
_cell_angle_gamma 90.000000
_cell_volume 1668.205462
_symmetry_space_group_name_H-M "P 21 21 2"
_symmetry_group_IT_number 18
_symmetry_cell_setting 'orthorhombic'
loop_
_space_group_symop_operation_xyz
x,y,z
-x,-y,z
1/2+x,1/2-y,-z
1/2-x,1/2+y,-z
loop_
_atom_site_type_symbol
_atom_site_label
_atom_site_fract_x
_atom_site_fract_y
_atom_site_fract_z
Si Si1 0.280131 0.759983 0.784607
Si Si2 0.552936 0.251169 0.864262
Si Si3 0.189805 0.739053 0.927158
Si Si4 0.353704 0.739426 0.006810
Si Si5 0.216477 0.758281 0.304357
Si Si6 0.279582 0.208403 0.535746
Si Si7 0.964376 0.249590 0.476278
Si Si8 0.033566 0.749428 0.316349
O O1 0.369816 0.754888 0.813364
O O2 0.215817 0.732957 0.845789
O O3 0.262827 0.528574 0.730662
O O4 0.258152 0.024027 0.745432
O O5 0.500000 0.500000 0.847933
O O6 0.500000 0.000000 0.852421
O O7 0.581083 0.261800 0.945602
O O8 0.136270 0.491595 0.944520
O O9 0.136704 0.988250 0.944006
O O10 0.266415 0.741057 0.975830
O O11 0.252483 0.738276 0.383510
O O12 0.124977 0.738664 0.315976
O O13 0.234747 0.417108 0.488256
O O14 0.371193 0.263312 0.525593
O O15 0.000729 0.250750 0.396390
O O16 0.000000 0.500000 0.515670
O O17 0.000000 0.000000 0.515883
O O18 0.000000 0.500000 0.275215
O O19 0.000000 0.000000 0.275823
#
# Coordination Sequence:
#
# PCOD8156446 Si02
#       8
#     4   4   4   4   4   4   4   4
#     4  11  22  34  49  72 104 139 176 217 256 312
#     4  11  22  34  49  76 113 147 177 206 246 301
#     4   9  17  31  50  69  91 127 173 214 250 279
#     4   9  17  31  50  69  95 131 170 211 244 279
#     4  11  22  34  49  72 104 139 176 217 262 318
#     4  11  22  37  56  79 110 145 182 235 294 337
#     4   9  17  31  50  73 100 130 168 211 256 319
#     4   9  17  28  43  62  89 130 170 197 228 283
#
# _framework density 19.182289999999998
#
# number of rings (size 3 to 8) (size 9 to 14) (size 15 to 20)
#    0.000    2.000    0.000    4.500    0.000   11.000 
#    0.000    0.000    0.000    0.000    0.000    0.000 
#    0.000   70.000    0.000    0.000    0.000    0.000 
#
# Total GULP energy -396660.084889 kJ/mol
# GULP energy per Si atom -12395.627653 kJ/mol
# Density = 1.913863 g / cm^3
# Si number density = 19.182290 Si / 1000 Ang^3
#
#
#
# Elastic Constant Matrix: (Units=GPa)
#
#
# Indices 1 2 3 4 5 6 
#
# 1 35.6566 15.4282 18.8905 0.0000 0.0000 0.0000
# 2 15.4282 151.2527 25.4297 0.0000 0.0000 0.0000
# 3 18.8905 25.4297 89.9422 0.0000 0.0000 0.0000
# 4 0.0000 0.0000 0.0000 35.6197 0.0000 0.0000
# 5 0.0000 0.0000 0.0000 0.0000 25.5001 0.0000
# 6 0.0000 0.0000 0.0000 0.0000 0.0000 25.1447
#
#
#
# Elastic Compliance Matrix: (Units=1/GPa)
#
#
# Indices 1 2 3 4 5 6 
#
# 1 0.032276 -0.002260 -0.006140 0.000000 0.000000 0.000000
# 2 -0.002260 0.007100 -0.001533 0.000000 0.000000 0.000000
# 3 -0.006140 -0.001533 0.012841 0.000000 0.000000 0.000000
# 4 0.000000 0.000000 0.000000 0.028074 0.000000 0.000000
# 5 0.000000 0.000000 0.000000 0.000000 0.039215 0.000000
# 6 0.000000 0.000000 0.000000 0.000000 0.000000 0.039770
#
#
# Mechanical properties :
#
#
# Convention : Reuss Voigt Hill
#
# Bulk Modulus (GPa) = 30.91026 44.03870 37.47448
# Shear Modulus (GPa) = 26.32611 31.72644 29.02628
#
# Velocity S-wave (km/s) = 3.70863 4.07128 3.89418
# Velocity P-wave (km/s) = 5.87261 6.71627 6.30856
#
# Compressibility (1/GPa) = 0.03235172
#
# Stress axis : x y z
#
# Youngs Moduli (GPa) = 30.98277 140.85193 77.87460
#
# Poissons Ratio (x) = 0.31832 0.47815
# Poissons Ratio (y) = 0.07002 0.11936
# Poissons Ratio (z) = 0.19023 0.21588
#
# Static dielectric constant tensor:
#      x y z
#    x 3.105950 0.000000 0.000000 
#    y 0.000000 4.066300 0.000000 
#    z 0.000000 0.000000 3.597070 
# 
# 
# High freq. dielectric constant tensor:
#      x y z
#    x 1.701330 0.000000 0.000000 
#    y 0.000000 1.777340 0.000000 
#    z 0.000000 0.000000 1.729900 
# 
# From -- ./inp_files/7430.got.cif
#   From: 2010.03.12/outbox.cif.g09.slc.cpg/sg18_4_cif.got.tgz:7430.got - 2010.04.10 18:53:55.
