data_PCOD8156344
_publ_section_title
;
Structure prediction by ZEFSAII (Michael W. Deem and Ramdas Pophale) SiO2 
 PCOD8156344
Probable space group: P 21 21 2
;
_chemical_formula_sum "Si O2"
_cell_formula_units_Z 22
_cell_length_a 5.423976
_cell_length_b 13.928632
_cell_length_c 12.328222
_cell_angle_alpha 90.000000
_cell_angle_beta 90.000000
_cell_angle_gamma 90.000000
_cell_volume 931.379489
_symmetry_space_group_name_H-M "P 21 21 2"
_symmetry_group_IT_number 18
_symmetry_cell_setting 'orthorhombic'
loop_
_space_group_symop_operation_xyz
x,y,z
-x,-y,z
1/2+x,1/2-y,-z
1/2-x,1/2+y,-z
loop_
_atom_site_type_symbol
_atom_site_label
_atom_site_fract_x
_atom_site_fract_y
_atom_site_fract_z
Si Si1 0.888393 0.340395 0.099013
Si Si2 0.000000 0.000000 0.558190
Si Si3 0.000000 0.000000 0.183628
Si Si4 0.319945 0.849226 0.462780
Si Si5 0.335373 0.157097 0.648742
Si Si6 0.000000 0.500000 0.686329
Si Si7 0.107858 0.863203 0.996821
O O1 0.890395 0.317470 0.226730
O O2 0.631138 0.395817 0.074513
O O3 0.140145 0.397071 0.065609
O O4 0.878773 0.249677 0.018807
O O5 0.800102 0.946400 0.635495
O O6 0.080830 0.916638 0.473435
O O7 0.750223 0.983046 0.248497
O O8 0.926792 0.091416 0.113572
O O9 0.404197 0.845437 0.587957
O O10 0.306409 0.744343 0.410375
O O11 0.510510 0.905002 0.386923
#
# Coordination Sequence:
#
# PCOD8156344 Si02
#       7
#     4   2   2   4   4   2   4
#     4  10  24  44  72  99 139 189 234 295 370 432
#     4  12  25  49  66 106 152 188 249 305 350 448
#     4  12  25  45  74 104 136 188 239 305 374 414
#     4  12  26  45  71 107 150 194 248 303 356 452
#     4  12  26  45  75 103 147 203 238 298 381 438
#     4  12  26  44  74 106 146 190 250 300 356 438
#     4  10  23  47  68 102 140 175 246 305 350 437
#
# _framework density 23.620875000000002
#
# number of rings (size 3 to 8) (size 9 to 14) (size 15 to 20)
#    0.000    0.727    3.636    2.727    2.545    5.091 
#    3.273    0.000    0.000    0.000    0.000    0.000 
#    0.000    0.000    0.000    0.000    0.000    0.000 
#
# Total GULP energy -272565.104149 kJ/mol
# GULP energy per Si atom -12389.322916 kJ/mol
# Density = 2.356711 g / cm^3
# Si number density = 23.620875 Si / 1000 Ang^3
#
#
#
# Elastic Constant Matrix: (Units=GPa)
#
#
# Indices 1 2 3 4 5 6 
#
# 1 177.4194 23.9259 67.2473 0.0000 0.0000 0.0000
# 2 23.9259 78.3552 7.0044 0.0000 0.0000 0.0000
# 3 67.2473 7.0044 139.4998 0.0000 0.0000 0.0000
# 4 0.0000 0.0000 0.0000 10.1735 0.0000 0.0000
# 5 0.0000 0.0000 0.0000 0.0000 41.2416 0.0000
# 6 0.0000 0.0000 0.0000 0.0000 0.0000 38.0263
#
#
#
# Elastic Compliance Matrix: (Units=1/GPa)
#
#
# Indices 1 2 3 4 5 6 
#
# 1 0.007164 -0.001887 -0.003359 0.000000 0.000000 0.000000
# 2 -0.001887 0.013317 0.000241 0.000000 0.000000 0.000000
# 3 -0.003359 0.000241 0.008775 0.000000 0.000000 0.000000
# 4 0.000000 0.000000 0.000000 0.098295 0.000000 0.000000
# 5 0.000000 0.000000 0.000000 0.000000 0.024247 0.000000
# 6 0.000000 0.000000 0.000000 0.000000 0.000000 0.026298
#
#
# Mechanical properties :
#
#
# Convention : Reuss Voigt Hill
#
# Bulk Modulus (GPa) = 51.95667 65.73665 58.84666
# Shear Modulus (GPa) = 25.70409 37.69474 31.69941
#
# Velocity S-wave (km/s) = 3.30236 3.99911 3.66732
# Velocity P-wave (km/s) = 6.04852 7.01528 6.54976
#
# Compressibility (1/GPa) = 0.01924681
#
# Stress axis : x y z
#
# Youngs Moduli (GPa) = 139.58860 75.09133 113.95436
#
# Poissons Ratio (x) = 0.14172 0.38274
# Poissons Ratio (y) = 0.26344 -0.02748
# Poissons Ratio (z) = 0.46883 -0.01811
#
# Static dielectric constant tensor:
#      x y z
#    x 4.688290 0.000000 0.000000 
#    y 0.000000 4.443270 0.000000 
#    z 0.000000 0.000000 4.180700 
# 
# 
# High freq. dielectric constant tensor:
#      x y z
#    x 1.951060 0.000000 0.000000 
#    y 0.000000 1.936100 0.000000 
#    z 0.000000 0.000000 1.934060 
# 
# From -- ./inp_files/5114.got.cif
#   From: 2010.03.12/outbox.cif.g09.slc.cpg/sg18_3_cif.got.tgz:5114.got - 2010.04.10 18:53:55.
