data_PCOD8156663
_publ_section_title
;
Structure prediction by ZEFSAII (Michael W. Deem and Ramdas Pophale) SiO2 
 PCOD8156663
Probable space group: P 21 21 21
;
_chemical_formula_sum "Si O2"
_cell_formula_units_Z 32
_cell_length_a 17.026745
_cell_length_b 8.979152
_cell_length_c 10.495434
_cell_angle_alpha 90.000000
_cell_angle_beta 90.000000
_cell_angle_gamma 90.000000
_cell_volume 1604.602104
_symmetry_space_group_name_H-M "P 21 21 21"
_symmetry_group_IT_number 19
_symmetry_cell_setting 'orthorhombic'
loop_
_space_group_symop_operation_xyz
x,y,z
1/2-x,-y,1/2+z
1/2+x,1/2-y,-z
-x,1/2+y,1/2-z
loop_
_atom_site_type_symbol
_atom_site_label
_atom_site_fract_x
_atom_site_fract_y
_atom_site_fract_z
Si Si1 0.443716 0.584120 0.504290
Si Si2 0.891866 0.671018 0.664872
Si Si3 0.943421 0.105350 0.735012
Si Si4 0.038066 0.387967 0.413663
Si Si5 0.035285 0.717910 0.310610
Si Si6 0.162682 0.655729 0.131794
Si Si7 0.889371 0.358550 0.578964
Si Si8 0.841490 0.871097 0.879202
O O1 0.382221 0.704261 0.445049
O O2 0.476314 0.480316 0.390462
O O3 0.516470 0.665521 0.575827
O O4 0.395228 0.481629 0.601450
O O5 0.852321 0.516943 0.619232
O O6 0.856085 0.718847 0.800664
O O7 0.984952 0.648441 0.676012
O O8 0.894028 0.252660 0.701559
O O9 0.884212 0.006884 0.813536
O O10 0.020303 0.549733 0.354872
O O11 0.125563 0.363268 0.474730
O O12 0.022315 0.260015 0.308061
O O13 0.978685 0.369713 0.530626
O O14 0.126822 0.727093 0.262774
O O15 0.249855 0.591980 0.135482
O O16 0.166009 0.785971 0.027066
#
# Coordination Sequence:
#
# PCOD8156663 Si02
#       8
#     4   4   4   4   4   4   4   4
#     4  10  20  37  60  87 119 162 203 248 297 374
#     4  11  19  36  65  90 116 154 203 254 309 358
#     4  10  19  36  64  91 117 154 203 249 307 371
#     4  11  21  36  63  86 121 154 210 248 304 367
#     4  11  21  38  61  90 116 169 209 250 300 372
#     4  10  24  40  58  91 128 160 207 252 312 368
#     4  10  19  37  58  90 117 154 198 256 296 365
#     4  11  23  40  61  93 124 159 201 261 313 365
#
# _framework density 19.942640000000001
#
# number of rings (size 3 to 8) (size 9 to 14) (size 15 to 20)
#    0.000    1.500    5.000    0.750    0.000    3.000 
#    0.000    5.000    0.000    0.000    0.000    0.000 
#    0.000    0.000    0.000    0.000    0.000    0.000 
#
# Total GULP energy -396627.056914 kJ/mol
# GULP energy per Si atom -12394.595529 kJ/mol
# Density = 1.989725 g / cm^3
# Si number density = 19.942640 Si / 1000 Ang^3
#
#
#
# Elastic Constant Matrix: (Units=GPa)
#
#
# Indices 1 2 3 4 5 6 
#
# 1 79.1793 14.3942 20.4619 0.0000 0.0000 0.0000
# 2 14.3942 109.7055 36.8566 0.0000 0.0000 0.0000
# 3 20.4619 36.8566 76.6374 0.0000 0.0000 0.0000
# 4 0.0000 0.0000 0.0000 33.3223 0.0000 0.0000
# 5 0.0000 0.0000 0.0000 0.0000 18.8912 0.0000
# 6 0.0000 0.0000 0.0000 0.0000 0.0000 18.3736
#
#
#
# Elastic Compliance Matrix: (Units=1/GPa)
#
#
# Indices 1 2 3 4 5 6 
#
# 1 0.013607 -0.000674 -0.003309 0.000000 0.000000 0.000000
# 2 -0.000674 0.010905 -0.005065 0.000000 0.000000 0.000000
# 3 -0.003309 -0.005065 0.016368 0.000000 0.000000 0.000000
# 4 0.000000 0.000000 0.000000 0.030010 0.000000 0.000000
# 5 0.000000 0.000000 0.000000 0.000000 0.052935 0.000000
# 6 0.000000 0.000000 0.000000 0.000000 0.000000 0.054426
#
#
# Mechanical properties :
#
#
# Convention : Reuss Voigt Hill
#
# Bulk Modulus (GPa) = 43.88808 45.43862 44.66335
# Shear Modulus (GPa) = 24.51692 27.03804 25.77748
#
# Velocity S-wave (km/s) = 3.51004 3.68610 3.59915
# Velocity P-wave (km/s) = 6.20340 6.39926 6.30209
#
# Compressibility (1/GPa) = 0.02278523
#
# Stress axis : x y z
#
# Youngs Moduli (GPa) = 73.49060 91.69908 61.09587
#
# Poissons Ratio (x) = 0.06177 0.20217
# Poissons Ratio (y) = 0.04951 0.30943
# Poissons Ratio (z) = 0.24319 0.46443
#
# Static dielectric constant tensor:
#      x y z
#    x 3.228040 0.000000 0.000000 
#    y 0.000000 3.929730 0.000000 
#    z 0.000000 0.000000 3.894650 
# 
# 
# High freq. dielectric constant tensor:
#      x y z
#    x 1.726580 0.000000 0.000000 
#    y 0.000000 1.794150 0.000000 
#    z 0.000000 0.000000 1.787640 
# 
# From -- ./inp_files/5411.got.cif
#   From: 2010.03.12/outbox.cif.g09.slc.cpg/sg19_3_cif.got.tgz:5411.got - 2010.04.10 18:59:41.
