data_PCOD8156464
_publ_section_title
;
Structure prediction by ZEFSAII (Michael W. Deem and Ramdas Pophale) SiO2 
 PCOD8156464
Probable space group: P 21 21 2
;
_chemical_formula_sum "Si O2"
_cell_formula_units_Z 30
_cell_length_a 13.111004
_cell_length_b 4.986484
_cell_length_c 20.042480
_cell_angle_alpha 90.000000
_cell_angle_beta 90.000000
_cell_angle_gamma 90.000000
_cell_volume 1310.333483
_symmetry_space_group_name_H-M "P 21 21 2"
_symmetry_group_IT_number 18
_symmetry_cell_setting 'orthorhombic'
loop_
_space_group_symop_operation_xyz
x,y,z
-x,-y,z
1/2+x,1/2-y,-z
1/2-x,1/2+y,-z
loop_
_atom_site_type_symbol
_atom_site_label
_atom_site_fract_x
_atom_site_fract_y
_atom_site_fract_z
Si Si1 0.392969 0.126961 0.282891
Si Si2 0.567246 0.263172 0.855235
Si Si3 0.065893 0.744638 0.864057
Si Si4 0.212588 0.121945 0.668669
Si Si5 0.707665 0.688024 0.533225
Si Si6 0.500000 0.500000 0.592659
Si Si7 0.094838 0.316545 0.288933
Si Si8 0.748887 0.747046 0.044052
O O1 0.380551 0.150153 0.203791
O O2 0.381055 0.415105 0.319476
O O3 0.500000 0.000000 0.305248
O O4 0.304682 0.920893 0.303926
O O5 0.500000 0.500000 0.886420
O O6 0.604002 0.353002 0.780050
O O7 0.661313 0.213270 0.903508
O O8 0.500000 0.000000 0.853584
O O9 0.145513 0.835314 0.919173
O O10 0.000000 0.500000 0.893586
O O11 0.000000 0.000000 0.844341
O O12 0.237107 0.147567 0.591458
O O13 0.306881 0.001341 0.708343
O O14 0.765806 0.400548 0.526211
O O15 0.583461 0.659302 0.546269
O O16 0.576895 0.340272 0.641568
O O17 0.000000 0.500000 0.277823
O O18 0.761213 0.550840 0.981324
#
# Coordination Sequence:
#
# PCOD8156464 Si02
#       8
#     4   4   4   4   4   2   4   4
#     4  11  24  44  71 105 140 180 231 301 357 416
#     4  11  25  43  67 106 142 171 230 302 358 414
#     4  11  24  44  71  99 133 184 239 289 345 421
#     4  12  24  44  74 104 142 181 233 294 357 427
#     4  12  28  49  73 107 143 195 240 282 342 430
#     4  12  24  50  80 104 148 188 242 296 358 434
#     4  11  23  41  76 111 134 178 233 302 376 412
#     4  12  27  44  66  97 140 191 236 281 352 429
#
# _framework density 22.894935
#
# number of rings (size 3 to 8) (size 9 to 14) (size 15 to 20)
#    0.000    0.533    2.000    6.800    0.000    6.400 
#    4.800    0.000    0.000    0.000    0.000    0.000 
#    0.000    0.000    0.000    0.000    0.000    0.000 
#
# Total GULP energy -371928.400388 kJ/mol
# GULP energy per Si atom -12397.613346 kJ/mol
# Density = 2.284283 g / cm^3
# Si number density = 22.894935 Si / 1000 Ang^3
#
#
#
# Elastic Constant Matrix: (Units=GPa)
#
#
# Indices 1 2 3 4 5 6 
#
# 1 100.3285 23.0511 48.8041 0.0000 0.0000 0.0000
# 2 23.0511 112.5039 22.6221 0.0000 0.0000 0.0000
# 3 48.8041 22.6221 82.8897 0.0000 0.0000 0.0000
# 4 0.0000 0.0000 0.0000 55.4731 0.0000 0.0000
# 5 0.0000 0.0000 0.0000 0.0000 49.9453 0.0000
# 6 0.0000 0.0000 0.0000 0.0000 0.0000 44.4192
#
#
#
# Elastic Compliance Matrix: (Units=1/GPa)
#
#
# Indices 1 2 3 4 5 6 
#
# 1 0.014144 -0.001294 -0.007974 0.000000 0.000000 0.000000
# 2 -0.001294 0.009523 -0.001837 0.000000 0.000000 0.000000
# 3 -0.007974 -0.001837 0.017261 0.000000 0.000000 0.000000
# 4 0.000000 0.000000 0.000000 0.018027 0.000000 0.000000
# 5 0.000000 0.000000 0.000000 0.000000 0.020022 0.000000
# 6 0.000000 0.000000 0.000000 0.000000 0.000000 0.022513
#
#
# Mechanical properties :
#
#
# Convention : Reuss Voigt Hill
#
# Bulk Modulus (GPa) = 53.42948 53.85295 53.64122
# Shear Modulus (GPa) = 38.47957 43.38383 40.93170
#
# Velocity S-wave (km/s) = 4.10408 4.35778 4.23283
# Velocity P-wave (km/s) = 6.77093 6.99236 6.88254
#
# Compressibility (1/GPa) = 0.01871626
#
# Stress axis : x y z
#
# Youngs Moduli (GPa) = 70.70281 105.00708 57.93511
#
# Poissons Ratio (x) = 0.13593 0.46199
# Poissons Ratio (y) = 0.09152 0.10642
# Poissons Ratio (z) = 0.56381 0.19289
#
# Static dielectric constant tensor:
#      x y z
#    x 4.181800 0.000000 0.000000 
#    y 0.000000 4.163310 0.000000 
#    z 0.000000 0.000000 4.311470 
# 
# 
# High freq. dielectric constant tensor:
#      x y z
#    x 1.910880 0.000000 0.000000 
#    y 0.000000 1.915400 0.000000 
#    z 0.000000 0.000000 1.903350 
# 
# From -- ./inp_files/7585.got.cif
#   From: 2010.03.12/outbox.cif.g09.slc.cpg/sg18_4_cif.got.tgz:7585.got - 2010.04.10 18:53:55.
