data_PCOD8156361
_publ_section_title
;
Structure prediction by ZEFSAII (Michael W. Deem and Ramdas Pophale) SiO2 
 PCOD8156361
Probable space group: P 21 21 2
;
_chemical_formula_sum "Si O2"
_cell_formula_units_Z 24
_cell_length_a 7.208085
_cell_length_b 11.443994
_cell_length_c 13.800625
_cell_angle_alpha 90.000000
_cell_angle_beta 90.000000
_cell_angle_gamma 90.000000
_cell_volume 1138.403640
_symmetry_space_group_name_H-M "P 21 21 2"
_symmetry_group_IT_number 18
_symmetry_cell_setting 'orthorhombic'
loop_
_space_group_symop_operation_xyz
x,y,z
-x,-y,z
1/2+x,1/2-y,-z
1/2-x,1/2+y,-z
loop_
_atom_site_type_symbol
_atom_site_label
_atom_site_fract_x
_atom_site_fract_y
_atom_site_fract_z
Si Si1 0.575997 0.127316 0.420977
Si Si2 0.760184 0.699567 0.383444
Si Si3 0.689441 0.624230 0.178564
Si Si4 0.510871 0.298243 0.894959
Si Si5 0.564169 0.624845 0.690985
Si Si6 0.820761 0.879876 0.914606
O O1 0.417941 0.224920 0.413983
O O2 0.673422 0.123181 0.525947
O O3 0.728800 0.157346 0.340575
O O4 0.500000 0.000000 0.397057
O O5 0.717832 0.610980 0.294533
O O6 0.927616 0.780979 0.352618
O O7 0.807297 0.730155 0.137851
O O8 0.473267 0.658011 0.164999
O O9 0.748386 0.508103 0.118724
O O10 0.437760 0.377746 0.807601
O O11 0.349874 0.207554 0.923823
O O12 0.567660 0.382255 0.983473
O O13 0.500000 0.500000 0.650119
#
# Coordination Sequence:
#
# PCOD8156361 Si02
#       6
#     4   4   4   4   4   4
#     4  12  24  44  72 100 134 180 227 276 347 408
#     4  11  24  45  67  99 137 176 223 287 336 408
#     4  10  24  43  64  96 133 175 224 272 340 403
#     4  11  23  40  69  92 134 171 222 284 325 398
#     4  11  24  42  65  96 132 177 227 272 335 401
#     4  11  22  43  65  97 130 175 222 273 340 397
#
# _framework density 21.082152000000001
#
# number of rings (size 3 to 8) (size 9 to 14) (size 15 to 20)
#    0.000    1.000    5.000    1.500    2.333    2.667 
#    9.000    0.000    0.000    0.000    0.000    0.000 
#    0.000    0.000    0.000    0.000    0.000    0.000 
#
# Total GULP energy -297592.387792 kJ/mol
# GULP energy per Si atom -12399.682825 kJ/mol
# Density = 2.103417 g / cm^3
# Si number density = 21.082152 Si / 1000 Ang^3
#
#
#
# Elastic Constant Matrix: (Units=GPa)
#
#
# Indices 1 2 3 4 5 6 
#
# 1 84.4123 19.7570 32.0611 0.0000 0.0000 0.0000
# 2 19.7570 61.4119 45.4026 0.0000 0.0000 0.0000
# 3 32.0611 45.4026 133.5932 0.0000 0.0000 0.0000
# 4 0.0000 0.0000 0.0000 26.1491 0.0000 0.0000
# 5 0.0000 0.0000 0.0000 0.0000 45.0586 0.0000
# 6 0.0000 0.0000 0.0000 0.0000 0.0000 29.2250
#
#
#
# Elastic Compliance Matrix: (Units=1/GPa)
#
#
# Indices 1 2 3 4 5 6 
#
# 1 0.013331 -0.002569 -0.002326 0.000000 0.000000 0.000000
# 2 -0.002569 0.022243 -0.006943 0.000000 0.000000 0.000000
# 3 -0.002326 -0.006943 0.010403 0.000000 0.000000 0.000000
# 4 0.000000 0.000000 0.000000 0.038242 0.000000 0.000000
# 5 0.000000 0.000000 0.000000 0.000000 0.022193 0.000000
# 6 0.000000 0.000000 0.000000 0.000000 0.000000 0.034217
#
#
# Mechanical properties :
#
#
# Convention : Reuss Voigt Hill
#
# Bulk Modulus (GPa) = 44.84056 52.65098 48.74577
# Shear Modulus (GPa) = 29.11363 32.23297 30.67330
#
# Velocity S-wave (km/s) = 3.72016 3.91439 3.81851
# Velocity P-wave (km/s) = 6.30622 6.74228 6.52789
#
# Compressibility (1/GPa) = 0.02230124
#
# Stress axis : x y z
#
# Youngs Moduli (GPa) = 75.01038 44.95807 96.12337
#
# Poissons Ratio (x) = 0.11550 0.22361
# Poissons Ratio (y) = 0.19270 0.66737
# Poissons Ratio (z) = 0.17450 0.31214
#
# Static dielectric constant tensor:
#      x y z
#    x 3.954220 0.000000 0.000000 
#    y 0.000000 3.510800 0.000000 
#    z 0.000000 0.000000 4.153360 
# 
# 
# High freq. dielectric constant tensor:
#      x y z
#    x 1.842290 0.000000 0.000000 
#    y 0.000000 1.813130 0.000000 
#    z 0.000000 0.000000 1.838030 
# 
# From -- ./inp_files/5509.got.cif
#   From: 2010.03.12/outbox.cif.g09.slc.cpg/sg18_3_cif.got.tgz:5509.got - 2010.04.10 18:53:55.
