data_PCOD8156026
_publ_section_title
;
Structure prediction by ZEFSAII (Michael W. Deem and Ramdas Pophale) SiO2 
 PCOD8156026
Probable space group: P 21 21 2
;
_chemical_formula_sum "Si O2"
_cell_formula_units_Z 22
_cell_length_a 9.133642
_cell_length_b 11.127083
_cell_length_c 9.592735
_cell_angle_alpha 90.000000
_cell_angle_beta 90.000000
_cell_angle_gamma 90.000000
_cell_volume 974.917262
_symmetry_space_group_name_H-M "P 21 21 2"
_symmetry_group_IT_number 18
_symmetry_cell_setting 'orthorhombic'
loop_
_space_group_symop_operation_xyz
x,y,z
-x,-y,z
1/2+x,1/2-y,-z
1/2-x,1/2+y,-z
loop_
_atom_site_type_symbol
_atom_site_label
_atom_site_fract_x
_atom_site_fract_y
_atom_site_fract_z
Si Si1 0.000000 0.500000 0.745754
Si Si2 0.686999 0.491578 0.654263
Si Si3 0.465208 0.262692 0.139651
Si Si4 0.140943 0.222536 0.131441
Si Si5 0.110691 0.167247 0.589979
Si Si6 0.568213 0.746716 0.649845
O O1 0.140461 0.477455 0.647083
O O2 0.987600 0.380577 0.841183
O O3 0.673562 0.394321 0.776255
O O4 0.635690 0.452701 0.499171
O O5 0.584244 0.604610 0.687686
O O6 0.294673 0.291509 0.107184
O O7 0.510411 0.343569 0.273152
O O8 0.567571 0.309371 0.015193
O O9 0.024983 0.303558 0.221714
O O10 0.270851 0.204767 0.637821
O O11 0.026345 0.264464 0.491557
#
# Coordination Sequence:
#
# PCOD8156026 Si02
#       6
#     2   4   4   4   4   4
#     4  10  20  40  64  94 118 170 200 260 304 390
#     4  10  22  40  66  92 124 166 215 241 322 369
#     4  11  22  40  65  91 124 160 213 256 312 364
#     4  10  22  39  64  90 120 165 206 254 313 370
#     4  11  21  36  65  93 124 163 205 258 300 366
#     4  11  21  40  64  92 126 167 205 254 309 374
#
# _framework density 22.566020000000002
#
# number of rings (size 3 to 8) (size 9 to 14) (size 15 to 20)
#    0.000    1.455    1.818    6.545    0.000    0.000 
#    0.000    3.636   32.000    1.091    0.000    0.000 
#    0.000    0.000    0.000    0.000    0.000    0.000 
#
# Total GULP energy -272596.662766 kJ/mol
# GULP energy per Si atom -12390.757398 kJ/mol
# Density = 2.251466 g / cm^3
# Si number density = 22.566020 Si / 1000 Ang^3
#
#
#
# Elastic Constant Matrix: (Units=GPa)
#
#
# Indices 1 2 3 4 5 6 
#
# 1 184.6646 9.1690 73.3252 0.0000 0.0000 0.0000
# 2 9.1690 35.1800 2.1229 0.0000 0.0000 0.0000
# 3 73.3252 2.1229 157.7563 0.0000 0.0000 0.0000
# 4 0.0000 0.0000 0.0000 14.6014 0.0000 0.0000
# 5 0.0000 0.0000 0.0000 0.0000 53.2165 0.0000
# 6 0.0000 0.0000 0.0000 0.0000 0.0000 27.4254
#
#
#
# Elastic Compliance Matrix: (Units=1/GPa)
#
#
# Indices 1 2 3 4 5 6 
#
# 1 0.006726 -0.001566 -0.003105 0.000000 0.000000 0.000000
# 2 -0.001566 0.028813 0.000340 0.000000 0.000000 0.000000
# 3 -0.003105 0.000340 0.007778 0.000000 0.000000 0.000000
# 4 0.000000 0.000000 0.000000 0.068487 0.000000 0.000000
# 5 0.000000 0.000000 0.000000 0.000000 0.018791 0.000000
# 6 0.000000 0.000000 0.000000 0.000000 0.000000 0.036463
#
#
# Mechanical properties :
#
#
# Convention : Reuss Voigt Hill
#
# Bulk Modulus (GPa) = 28.85614 60.75947 44.80780
# Shear Modulus (GPa) = 26.69945 38.58092 32.64019
#
# Velocity S-wave (km/s) = 3.44346 4.13933 3.80732
# Velocity P-wave (km/s) = 5.35024 7.05897 6.26315
#
# Compressibility (1/GPa) = 0.03465467
#
# Stress axis : x y z
#
# Youngs Moduli (GPa) = 148.67843 34.70686 128.57453
#
# Poissons Ratio (x) = 0.05434 0.39924
# Poissons Ratio (y) = 0.23277 -0.04371
# Poissons Ratio (z) = 0.46167 -0.01180
#
# Static dielectric constant tensor:
#      x y z
#    x 4.971270 0.000000 0.000000 
#    y 0.000000 3.742000 0.000000 
#    z 0.000000 0.000000 4.064630 
# 
# 
# High freq. dielectric constant tensor:
#      x y z
#    x 1.941490 0.000000 0.000000 
#    y 0.000000 1.837930 0.000000 
#    z 0.000000 0.000000 1.882310 
# 
# From -- ./inp_files/3143.got.cif
#   From: 2010.03.12/outbox.cif.g09.slc.cpg/sg18_2_cif.got.tgz:3143.got - 2010.04.10 18:53:55.
