data_PCOD8156619
_publ_section_title
;
Structure prediction by ZEFSAII (Michael W. Deem and Ramdas Pophale) SiO2 
 PCOD8156619
Probable space group: P 21 21 21
;
_chemical_formula_sum "Si O2"
_cell_formula_units_Z 24
_cell_length_a 9.056725
_cell_length_b 8.166347
_cell_length_c 16.244653
_cell_angle_alpha 90.000000
_cell_angle_beta 90.000000
_cell_angle_gamma 90.000000
_cell_volume 1201.460368
_symmetry_space_group_name_H-M "P 21 21 21"
_symmetry_group_IT_number 19
_symmetry_cell_setting 'orthorhombic'
loop_
_space_group_symop_operation_xyz
x,y,z
1/2-x,-y,1/2+z
1/2+x,1/2-y,-z
-x,1/2+y,1/2-z
loop_
_atom_site_type_symbol
_atom_site_label
_atom_site_fract_x
_atom_site_fract_y
_atom_site_fract_z
Si Si1 0.659209 0.773978 0.434976
Si Si2 0.137068 0.119967 0.749819
Si Si3 0.657438 0.040721 0.698142
Si Si4 0.864852 0.640776 0.291292
Si Si5 0.624371 0.059891 0.324688
Si Si6 0.845799 0.842517 0.591787
O O1 0.769974 0.713459 0.365293
O O2 0.741445 0.770250 0.521061
O O3 0.516424 0.652826 0.439055
O O4 0.609489 0.961994 0.411222
O O5 0.108350 0.242054 0.670992
O O6 0.162598 0.223823 0.831148
O O7 0.285012 0.018757 0.742315
O O8 0.996945 0.002043 0.758326
O O9 0.520188 0.924248 0.674436
O O10 0.716201 0.976194 0.785873
O O11 0.778156 0.017032 0.623798
O O12 0.617714 0.231367 0.714723
#
# Coordination Sequence:
#
# PCOD8156619 Si02
#       6
#     4   4   4   4   4   4
#     4  10  21  36  57  82 115 151 185 226 277 331
#     4  10  19  35  58  83 109 142 186 228 277 331
#     4  10  19  33  54  81 110 141 182 226 270 324
#     4  11  21  35  58  85 111 145 187 231 276 330
#     4   9  18  33  55  81 108 142 181 226 271 325
#     4  10  20  36  56  82 115 149 185 227 277 329
#
# _framework density 19.97569
#
# number of rings (size 3 to 8) (size 9 to 14) (size 15 to 20)
#    0.000    2.000    0.000    7.000    0.000    1.333 
#    0.000    1.667    0.000   18.000    0.000    0.000 
#    0.000    0.000    0.000    0.000    0.000    0.000 
#
# Total GULP energy -297344.401378 kJ/mol
# GULP energy per Si atom -12389.350057 kJ/mol
# Density = 1.993022 g / cm^3
# Si number density = 19.975690 Si / 1000 Ang^3
#
#
#
# Elastic Constant Matrix: (Units=GPa)
#
#
# Indices 1 2 3 4 5 6 
#
# 1 118.4200 40.8000 29.6282 0.0000 0.0000 0.0000
# 2 40.8000 95.5446 14.0715 0.0000 0.0000 0.0000
# 3 29.6282 14.0715 56.0744 0.0000 0.0000 0.0000
# 4 0.0000 0.0000 0.0000 10.4203 0.0000 0.0000
# 5 0.0000 0.0000 0.0000 0.0000 34.6905 0.0000
# 6 0.0000 0.0000 0.0000 0.0000 0.0000 33.6659
#
#
#
# Elastic Compliance Matrix: (Units=1/GPa)
#
#
# Indices 1 2 3 4 5 6 
#
# 1 0.011029 -0.003999 -0.004824 0.000000 0.000000 0.000000
# 2 -0.003999 0.012318 -0.000978 0.000000 0.000000 0.000000
# 3 -0.004824 -0.000978 0.020628 0.000000 0.000000 0.000000
# 4 0.000000 0.000000 0.000000 0.095966 0.000000 0.000000
# 5 0.000000 0.000000 0.000000 0.000000 0.028826 0.000000
# 6 0.000000 0.000000 0.000000 0.000000 0.000000 0.029704
#
#
# Mechanical properties :
#
#
# Convention : Reuss Voigt Hill
#
# Bulk Modulus (GPa) = 41.02980 48.78206 44.90593
# Shear Modulus (GPa) = 22.10446 28.12461 25.11453
#
# Velocity S-wave (km/s) = 3.33012 3.75633 3.54963
# Velocity P-wave (km/s) = 5.94733 6.57929 6.27127
#
# Compressibility (1/GPa) = 0.02437253
#
# Stress axis : x y z
#
# Youngs Moduli (GPa) = 90.66678 81.18071 48.47841
#
# Poissons Ratio (x) = 0.32467 0.23386
# Poissons Ratio (y) = 0.36261 0.04741
# Poissons Ratio (z) = 0.43738 0.07940
#
# Static dielectric constant tensor:
#      x y z
#    x 3.980820 0.000000 0.000000 
#    y 0.000000 4.003100 0.000000 
#    z 0.000000 0.000000 3.364180 
# 
# 
# High freq. dielectric constant tensor:
#      x y z
#    x 1.798100 0.000000 0.000000 
#    y 0.000000 1.772830 0.000000 
#    z 0.000000 0.000000 1.741510 
# 
# From -- ./inp_files/2819.got.cif
#   From: 2010.03.12/outbox.cif.g09.slc.cpg/sg19_2_cif.got.tgz:2819.got - 2010.04.10 18:59:41.
