data_PCOD8156964
_publ_section_title
;
Structure prediction by ZEFSAII (Michael W. Deem and Ramdas Pophale) SiO2 
 PCOD8156964
Probable space group: P 21 21 21
;
_chemical_formula_sum "Si O2"
_cell_formula_units_Z 20
_cell_length_a 5.091573
_cell_length_b 8.740062
_cell_length_c 18.998158
_cell_angle_alpha 90.000000
_cell_angle_beta 90.000000
_cell_angle_gamma 90.000000
_cell_volume 845.430640
_symmetry_space_group_name_H-M "P 21 21 21"
_symmetry_group_IT_number 19
_symmetry_cell_setting 'orthorhombic'
loop_
_space_group_symop_operation_xyz
x,y,z
1/2-x,-y,1/2+z
1/2+x,1/2-y,-z
-x,1/2+y,1/2-z
loop_
_atom_site_type_symbol
_atom_site_label
_atom_site_fract_x
_atom_site_fract_y
_atom_site_fract_z
Si Si1 0.254669 0.273101 0.953288
Si Si2 0.372232 0.611394 0.933214
Si Si3 0.628903 0.212790 0.408115
Si Si4 0.772765 0.320923 0.199077
Si Si5 0.782818 0.989843 0.777086
O O1 0.328048 0.434456 0.919220
O O2 0.241946 0.160213 0.885851
O O3 0.473817 0.216560 0.008354
O O4 0.653480 0.654692 0.901544
O O5 0.153719 0.712190 0.893134
O O6 0.356770 0.635651 0.016211
O O7 0.691585 0.079407 0.354452
O O8 0.757111 0.142714 0.219892
O O9 0.543764 0.412826 0.239379
O O10 0.044439 0.391231 0.225671
#
# Coordination Sequence:
#
# PCOD8156964 Si02
#       5
#     4   4   4   4   4
#     4  12  25  43  70 100 143 182 244 294 355 421
#     4  10  21  37  64  99 125 179 219 276 341 409
#     4  10  21  38  65  93 137 167 223 278 341 405
#     4  12  28  46  75 105 143 193 237 292 368 416
#     4  12  27  48  72 103 146 185 241 292 355 439
#
# _framework density 23.656582
#
# number of rings (size 3 to 8) (size 9 to 14) (size 15 to 20)
#    0.000    0.800    0.000    7.200    5.600    3.200 
#    0.000    0.000    0.000    0.000    0.000    0.000 
#    0.000    0.000    0.000    0.000    0.000    0.000 
#
# Total GULP energy -248136.052922 kJ/mol
# GULP energy per Si atom -12406.802646 kJ/mol
# Density = 2.360274 g / cm^3
# Si number density = 23.656582 Si / 1000 Ang^3
#
#
#
# Elastic Constant Matrix: (Units=GPa)
#
#
# Indices 1 2 3 4 5 6 
#
# 1 113.4802 7.9779 26.8088 0.0000 0.0000 0.0000
# 2 7.9779 82.4442 8.9164 0.0000 0.0000 0.0000
# 3 26.8088 8.9164 65.6473 0.0000 0.0000 0.0000
# 4 0.0000 0.0000 0.0000 39.9191 0.0000 0.0000
# 5 0.0000 0.0000 0.0000 0.0000 21.7964 0.0000
# 6 0.0000 0.0000 0.0000 0.0000 0.0000 44.3071
#
#
#
# Elastic Compliance Matrix: (Units=1/GPa)
#
#
# Indices 1 2 3 4 5 6 
#
# 1 0.009775 -0.000522 -0.003921 0.000000 0.000000 0.000000
# 2 -0.000522 0.012338 -0.001463 0.000000 0.000000 0.000000
# 3 -0.003921 -0.001463 0.017033 0.000000 0.000000 0.000000
# 4 0.000000 0.000000 0.000000 0.025051 0.000000 0.000000
# 5 0.000000 0.000000 0.000000 0.000000 0.045879 0.000000
# 6 0.000000 0.000000 0.000000 0.000000 0.000000 0.022570
#
#
# Mechanical properties :
#
#
# Convention : Reuss Voigt Hill
#
# Bulk Modulus (GPa) = 36.58326 38.77533 37.67929
# Shear Modulus (GPa) = 32.55876 35.72908 34.14392
#
# Velocity S-wave (km/s) = 3.71389 3.89050 3.80322
# Velocity P-wave (km/s) = 5.82138 6.05044 5.93702
#
# Compressibility (1/GPa) = 0.02733491
#
# Stress axis : x y z
#
# Youngs Moduli (GPa) = 102.30063 81.04971 58.71013
#
# Poissons Ratio (x) = 0.04230 0.23021
# Poissons Ratio (y) = 0.05339 0.08587
# Poissons Ratio (z) = 0.40113 0.11855
#
# Static dielectric constant tensor:
#      x y z
#    x 4.568260 0.000000 0.000000 
#    y 0.000000 4.219270 0.000000 
#    z 0.000000 0.000000 4.257320 
# 
# 
# High freq. dielectric constant tensor:
#      x y z
#    x 1.949250 0.000000 0.000000 
#    y 0.000000 1.942040 0.000000 
#    z 0.000000 0.000000 1.943760 
# 
# From -- ./inp_files/1674.got.cif
#   From: 2010.03.12/outbox.cif.g09.slc.cpg/sg19_1_cif.got.tgz:1674.got - 2010.04.10 18:59:41.
