data_PCOD8156402
_publ_section_title
;
Structure prediction by ZEFSAII (Michael W. Deem and Ramdas Pophale) SiO2 
 PCOD8156402
Probable space group: P 21 21 2
;
_chemical_formula_sum "Si O2"
_cell_formula_units_Z 18
_cell_length_a 18.643344
_cell_length_b 7.617267
_cell_length_c 5.195615
_cell_angle_alpha 90.000000
_cell_angle_beta 90.000000
_cell_angle_gamma 90.000000
_cell_volume 737.836191
_symmetry_space_group_name_H-M "P 21 21 2"
_symmetry_group_IT_number 18
_symmetry_cell_setting 'orthorhombic'
loop_
_space_group_symop_operation_xyz
x,y,z
-x,-y,z
1/2+x,1/2-y,-z
1/2-x,1/2+y,-z
loop_
_atom_site_type_symbol
_atom_site_label
_atom_site_fract_x
_atom_site_fract_y
_atom_site_fract_z
Si Si1 0.117606 0.302496 0.678313
Si Si2 0.261595 0.343076 0.938537
Si Si3 0.628580 0.896406 0.705869
Si Si4 0.000000 0.500000 0.958749
Si Si5 0.335578 0.436207 0.452664
O O1 0.175874 0.321027 0.909074
O O2 0.140856 0.418231 0.432944
O O3 0.112136 0.100472 0.591532
O O4 0.040144 0.358929 0.780158
O O5 0.302400 0.154047 0.886375
O O6 0.289224 0.475299 0.712233
O O7 0.280529 0.413909 0.218256
O O8 0.618501 0.742432 0.490567
O O9 0.556206 0.893029 0.870580
#
# Coordination Sequence:
#
# PCOD8156402 Si02
#       5
#     4   4   4   2   4
#     4  12  26  48  76 113 155 203 250 318 384 451
#     4  10  25  46  81 114 147 188 264 314 372 447
#     4  10  26  49  71 117 150 201 249 322 372 465
#     4  12  28  46  78 108 166 200 252 310 396 446
#     4  10  26  46  78 115 145 201 252 320 370 453
#
# _framework density 24.395658000000001
#
# number of rings (size 3 to 8) (size 9 to 14) (size 15 to 20)
#    1.333    0.000    0.000    3.333   12.444    0.000 
#    0.000   16.667    0.000    0.000    0.000    0.000 
#    0.000    0.000    0.000    0.000    0.000    0.000 
#
# Total GULP energy -223167.284321 kJ/mol
# GULP energy per Si atom -12398.182462 kJ/mol
# Density = 2.434013 g / cm^3
# Si number density = 24.395658 Si / 1000 Ang^3
#
#
#
# Elastic Constant Matrix: (Units=GPa)
#
#
# Indices 1 2 3 4 5 6 
#
# 1 114.3889 -2.3704 20.4006 0.0000 0.0000 0.0000
# 2 -2.3704 91.3600 6.6279 0.0000 0.0000 0.0000
# 3 20.4006 6.6279 112.2182 0.0000 0.0000 0.0000
# 4 0.0000 0.0000 0.0000 10.6999 0.0000 0.0000
# 5 0.0000 0.0000 0.0000 0.0000 45.1543 0.0000
# 6 0.0000 0.0000 0.0000 0.0000 0.0000 33.9614
#
#
#
# Elastic Compliance Matrix: (Units=1/GPa)
#
#
# Indices 1 2 3 4 5 6 
#
# 1 0.009047 0.000356 -0.001666 0.000000 0.000000 0.000000
# 2 0.000356 0.011007 -0.000715 0.000000 0.000000 0.000000
# 3 -0.001666 -0.000715 0.009256 0.000000 0.000000 0.000000
# 4 0.000000 0.000000 0.000000 0.093459 0.000000 0.000000
# 5 0.000000 0.000000 0.000000 0.000000 0.022146 0.000000
# 6 0.000000 0.000000 0.000000 0.000000 0.000000 0.029445
#
#
# Mechanical properties :
#
#
# Convention : Reuss Voigt Hill
#
# Bulk Modulus (GPa) = 39.58832 40.80925 40.19878
# Shear Modulus (GPa) = 26.76234 37.51705 32.13969
#
# Velocity S-wave (km/s) = 3.31571 3.92581 3.63359
# Velocity P-wave (km/s) = 5.56070 6.10849 5.84102
#
# Compressibility (1/GPa) = 0.02525998
#
# Stress axis : x y z
#
# Youngs Moduli (GPa) = 110.53962 90.85309 108.03541
#
# Poissons Ratio (x) = -0.03230 0.17994
# Poissons Ratio (y) = -0.03930 0.07722
# Poissons Ratio (z) = 0.18412 0.06494
#
# Static dielectric constant tensor:
#      x y z
#    x 4.060960 0.000000 0.000000 
#    y 0.000000 4.456280 0.000000 
#    z 0.000000 0.000000 4.395400 
# 
# 
# High freq. dielectric constant tensor:
#      x y z
#    x 1.951050 0.000000 0.000000 
#    y 0.000000 1.973920 0.000000 
#    z 0.000000 0.000000 1.982380 
# 
# From -- ./inp_files/1714.got.cif
#   From: 2010.03.12/outbox.cif.g09.slc.cpg/sg18_1_cif.got.tgz:1714.got - 2010.04.10 18:53:55.
