data_PCOD8156723
_publ_section_title
;
Structure prediction by ZEFSAII (Michael W. Deem and Ramdas Pophale) SiO2 
 PCOD8156723
Probable space group: P 21 21 21
;
_chemical_formula_sum "Si O2"
_cell_formula_units_Z 32
_cell_length_a 9.566576
_cell_length_b 13.345120
_cell_length_c 11.715534
_cell_angle_alpha 90.000000
_cell_angle_beta 90.000000
_cell_angle_gamma 90.000000
_cell_volume 1495.688306
_symmetry_space_group_name_H-M "P 21 21 21"
_symmetry_group_IT_number 19
_symmetry_cell_setting 'orthorhombic'
loop_
_space_group_symop_operation_xyz
x,y,z
1/2-x,-y,1/2+z
1/2+x,1/2-y,-z
-x,1/2+y,1/2-z
loop_
_atom_site_type_symbol
_atom_site_label
_atom_site_fract_x
_atom_site_fract_y
_atom_site_fract_z
Si Si1 0.482442 0.729797 0.278151
Si Si2 0.458820 0.437650 0.314554
Si Si3 0.257561 0.398509 0.766839
Si Si4 0.963124 0.528457 0.368068
Si Si5 0.664791 0.591041 0.413081
Si Si6 0.640104 0.471185 0.625609
Si Si7 0.598893 0.840074 0.954782
Si Si8 0.418659 0.130411 0.447435
O O1 0.494275 0.848949 0.270516
O O2 0.330317 0.693708 0.323510
O O3 0.601767 0.694976 0.367161
O O4 0.487958 0.676107 0.153502
O O5 0.339614 0.503775 0.256796
O O6 0.600570 0.499507 0.338060
O O7 0.380635 0.394657 0.425017
O O8 0.394197 0.410661 0.846422
O O9 0.288658 0.377468 0.635259
O O10 0.833257 0.598558 0.407288
O O11 0.907962 0.484113 0.247204
O O12 0.995236 0.445298 0.464555
O O13 0.617273 0.565887 0.541916
O O14 0.553299 0.371039 0.592652
O O15 0.796842 0.429539 0.617813
O O16 0.625730 0.721846 0.970603
#
# Coordination Sequence:
#
# PCOD8156723 Si02
#       8
#     4   4   4   4   4   4   4   4
#     4  10  20  36  59  84 112 155 206 238 295 361
#     4   9  20  37  58  84 115 156 195 244 295 363
#     4  10  22  35  55  89 120 150 190 257 300 346
#     4  10  20  35  53  86 123 149 187 249 301 346
#     4   9  18  36  57  78 114 157 192 233 300 359
#     4   9  18  35  53  79 117 150 184 241 300 343
#     4   9  20  33  57  86 116 146 198 245 296 342
#     4  10  20  31  60  86 113 155 198 241 289 362
#
# _framework density 21.394832000000001
#
# number of rings (size 3 to 8) (size 9 to 14) (size 15 to 20)
#    0.000    2.500    1.250    0.000    8.750    1.000 
#    0.000    0.000    2.750    1.500    0.000    0.000 
#    0.000    0.000    0.000    0.000    0.000    0.000 
#
# Total GULP energy -396478.908727 kJ/mol
# GULP energy per Si atom -12389.965898 kJ/mol
# Density = 2.134614 g / cm^3
# Si number density = 21.394832 Si / 1000 Ang^3
#
#
#
# Elastic Constant Matrix: (Units=GPa)
#
#
# Indices 1 2 3 4 5 6 
#
# 1 100.6308 15.2507 0.3115 0.0000 0.0000 0.0000
# 2 15.2507 28.6196 -19.8975 0.0000 0.0000 0.0000
# 3 0.3115 -19.8975 39.5412 0.0000 0.0000 0.0000
# 4 0.0000 0.0000 0.0000 33.0058 0.0000 0.0000
# 5 0.0000 0.0000 0.0000 0.0000 24.7346 0.0000
# 6 0.0000 0.0000 0.0000 0.0000 0.0000 17.5544
#
#
#
# Elastic Compliance Matrix: (Units=1/GPa)
#
#
# Indices 1 2 3 4 5 6 
#
# 1 0.011380 -0.009424 -0.004832 0.000000 0.000000 0.000000
# 2 -0.009424 0.061546 0.031045 0.000000 0.000000 0.000000
# 3 -0.004832 0.031045 0.040950 0.000000 0.000000 0.000000
# 4 0.000000 0.000000 0.000000 0.030298 0.000000 0.000000
# 5 0.000000 0.000000 0.000000 0.000000 0.040429 0.000000
# 6 0.000000 0.000000 0.000000 0.000000 0.000000 0.056966
#
#
# Mechanical properties :
#
#
# Convention : Reuss Voigt Hill
#
# Bulk Modulus (GPa) = 6.78165 17.79122 12.28644
# Shear Modulus (GPa) = 19.44446 26.60074 23.02260
#
# Velocity S-wave (km/s) = 3.01797 3.52991 3.28393
# Velocity P-wave (km/s) = 3.91418 4.99473 4.48710
#
# Compressibility (1/GPa) = 0.14745666
#
# Stress axis : x y z
#
# Youngs Moduli (GPa) = 87.87020 16.24788 24.41989
#
# Poissons Ratio (x) = 0.15311 0.11799
# Poissons Ratio (y) = 0.82805 -0.75811
# Poissons Ratio (z) = 0.42456 -0.50441
#
# Static dielectric constant tensor:
#      x y z
#    x 3.889900 0.000000 0.000000 
#    y 0.000000 3.758770 0.000000 
#    z 0.000000 0.000000 3.951330 
# 
# 
# High freq. dielectric constant tensor:
#      x y z
#    x 1.841780 0.000000 0.000000 
#    y 0.000000 1.812820 0.000000 
#    z 0.000000 0.000000 1.840000 
# 
# From -- ./inp_files/4678.got.cif
#   From: 2010.03.12/outbox.cif.g09.slc.cpg/sg19_3_cif.got.tgz:4678.got - 2010.04.10 18:59:41.
