data_PCOD8156447
_publ_section_title
;
Structure prediction by ZEFSAII (Michael W. Deem and Ramdas Pophale) SiO2 
 PCOD8156447
Probable space group: P 21 21 2
;
_chemical_formula_sum "Si O2"
_cell_formula_units_Z 32
_cell_length_a 9.193596
_cell_length_b 16.407127
_cell_length_c 11.072463
_cell_angle_alpha 90.000000
_cell_angle_beta 90.000000
_cell_angle_gamma 90.000000
_cell_volume 1670.175824
_symmetry_space_group_name_H-M "P 21 21 2"
_symmetry_group_IT_number 18
_symmetry_cell_setting 'orthorhombic'
loop_
_space_group_symop_operation_xyz
x,y,z
-x,-y,z
1/2+x,1/2-y,-z
1/2-x,1/2+y,-z
loop_
_atom_site_type_symbol
_atom_site_label
_atom_site_fract_x
_atom_site_fract_y
_atom_site_fract_z
Si Si1 0.387655 0.069706 0.254832
Si Si2 0.214055 0.808849 0.853866
Si Si3 0.781568 0.361256 0.981284
Si Si4 0.960790 0.123242 0.054192
Si Si5 0.036112 0.704299 0.181412
Si Si6 0.456820 0.239882 0.362918
Si Si7 0.205210 0.780407 0.395332
Si Si8 0.635080 0.543767 0.703841
O O1 0.384078 0.091949 0.113550
O O2 0.425266 0.145757 0.338376
O O3 0.500000 0.000000 0.277879
O O4 0.238154 0.033702 0.300434
O O5 0.240289 0.729935 0.934803
O O6 0.373056 0.832465 0.799669
O O7 0.093396 0.793838 0.750904
O O8 0.150847 0.879754 0.940910
O O9 0.622277 0.403351 0.990659
O O10 0.863455 0.361174 0.110340
O O11 0.971610 0.214133 0.104178
O O12 0.901777 0.063766 0.157002
O O13 0.107239 0.723462 0.310148
O O14 0.628516 0.250579 0.387656
O O15 0.357608 0.269941 0.472111
O O16 0.194963 0.876133 0.362233
O O17 0.500000 0.500000 0.637084
#
# Coordination Sequence:
#
# PCOD8156447 Si02
#       8
#     4   4   4   4   4   4   4   4
#     4  11  22  37  57  86 117 149 190 242 301 351
#     4   9  18  31  52  79 108 140 180 226 274 329
#     4   9  17  30  51  78 111 141 173 220 277 336
#     4   9  17  30  51  79 110 141 174 218 278 336
#     4   9  18  31  52  79 108 140 180 226 275 329
#     4  11  23  38  59  83 115 154 203 249 287 348
#     4  11  23  38  59  84 114 155 203 244 292 345
#     4  11  22  37  59  86 117 151 189 242 300 357
#
# _framework density 19.159658
#
# number of rings (size 3 to 8) (size 9 to 14) (size 15 to 20)
#    0.000    2.000    2.500    1.500    5.250    3.000 
#    0.000    0.000    0.000    3.000    0.000    0.000 
#    0.000    0.000    0.000    0.000    0.000    0.000 
#
# Total GULP energy -396602.222397 kJ/mol
# GULP energy per Si atom -12393.819450 kJ/mol
# Density = 1.911605 g / cm^3
# Si number density = 19.159658 Si / 1000 Ang^3
#
#
#
# Elastic Constant Matrix: (Units=GPa)
#
#
# Indices 1 2 3 4 5 6 
#
# 1 126.8601 10.2087 25.9747 0.0000 0.0000 0.0000
# 2 10.2087 39.8071 20.3593 0.0000 0.0000 0.0000
# 3 25.9747 20.3593 67.1861 0.0000 0.0000 0.0000
# 4 0.0000 0.0000 0.0000 13.0752 0.0000 0.0000
# 5 0.0000 0.0000 0.0000 0.0000 32.3274 0.0000
# 6 0.0000 0.0000 0.0000 0.0000 0.0000 25.2401
#
#
#
# Elastic Compliance Matrix: (Units=1/GPa)
#
#
# Indices 1 2 3 4 5 6 
#
# 1 0.008572 -0.000596 -0.003134 0.000000 0.000000 0.000000
# 2 -0.000596 0.029770 -0.008791 0.000000 0.000000 0.000000
# 3 -0.003134 -0.008791 0.018759 0.000000 0.000000 0.000000
# 4 0.000000 0.000000 0.000000 0.076481 0.000000 0.000000
# 5 0.000000 0.000000 0.000000 0.000000 0.030934 0.000000
# 6 0.000000 0.000000 0.000000 0.000000 0.000000 0.039619
#
#
# Mechanical properties :
#
#
# Convention : Reuss Voigt Hill
#
# Bulk Modulus (GPa) = 31.19025 38.54875 34.86950
# Shear Modulus (GPa) = 20.84527 25.94925 23.39726
#
# Velocity S-wave (km/s) = 3.30203 3.68417 3.49832
# Velocity P-wave (km/s) = 5.55449 6.18554 5.87849
#
# Compressibility (1/GPa) = 0.03206130
#
# Stress axis : x y z
#
# Youngs Moduli (GPa) = 116.65562 33.59090 53.30668
#
# Poissons Ratio (x) = 0.02001 0.16704
# Poissons Ratio (y) = 0.06950 0.46861
# Poissons Ratio (z) = 0.36555 0.29529
#
# Static dielectric constant tensor:
#      x y z
#    x 3.829310 0.000000 0.000000 
#    y 0.000000 3.315080 0.000000 
#    z 0.000000 0.000000 3.372100 
# 
# 
# High freq. dielectric constant tensor:
#      x y z
#    x 1.769080 0.000000 0.000000 
#    y 0.000000 1.715840 0.000000 
#    z 0.000000 0.000000 1.722640 
# 
# From -- ./inp_files/5655.got.cif
#   From: 2010.03.12/outbox.cif.g09.slc.cpg/sg18_3_cif.got.tgz:5655.got - 2010.04.10 18:53:55.
