data_PCOD8156516
_publ_section_title
;
Structure prediction by ZEFSAII (Michael W. Deem and Ramdas Pophale) SiO2 
 PCOD8156516
Probable space group: P 21 21 2
;
_chemical_formula_sum "Si O2"
_cell_formula_units_Z 18
_cell_length_a 9.019314
_cell_length_b 15.524011
_cell_length_c 5.245583
_cell_angle_alpha 90.000000
_cell_angle_beta 90.000000
_cell_angle_gamma 90.000000
_cell_volume 734.465181
_symmetry_space_group_name_H-M "P 21 21 2"
_symmetry_group_IT_number 18
_symmetry_cell_setting 'orthorhombic'
loop_
_space_group_symop_operation_xyz
x,y,z
-x,-y,z
1/2+x,1/2-y,-z
1/2-x,1/2+y,-z
loop_
_atom_site_type_symbol
_atom_site_label
_atom_site_fract_x
_atom_site_fract_y
_atom_site_fract_z
Si Si1 0.739320 0.569072 0.938057
Si Si2 0.168034 0.590667 0.193660
Si Si3 0.500000 0.500000 0.637862
Si Si4 0.993892 0.847983 0.738764
Si Si5 0.491681 0.151353 0.302720
O O1 0.829825 0.514079 0.152050
O O2 0.621563 0.638057 0.048434
O O3 0.647547 0.490974 0.806482
O O4 0.841367 0.615323 0.727154
O O5 0.329283 0.633357 0.165112
O O6 0.097396 0.603854 0.473447
O O7 0.074283 0.637476 0.977179
O O8 0.528098 0.586496 0.485480
O O9 0.004673 0.751910 0.630395
#
# Coordination Sequence:
#
# PCOD8156516 Si02
#       5
#     4   4   2   4   4
#     4  12  27  52  79 116 159 219 264 326 403 489
#     4  12  27  53  76 118 160 210 263 334 403 474
#     4  12  24  48  84 108 158 216 270 314 398 492
#     4  12  27  50  80 113 159 212 274 321 403 482
#     4  12  32  47  82 119 161 201 271 342 396 458
#
# _framework density 24.507629000000001
#
# number of rings (size 3 to 8) (size 9 to 14) (size 15 to 20)
#    0.000    0.000    4.444    3.333    9.333    3.556 
#    0.000    0.000    0.000    0.000    0.000    0.000 
#    0.000    0.000    0.000    0.000    0.000    0.000 
#
# Total GULP energy -223166.300874 kJ/mol
# GULP energy per Si atom -12398.127826 kJ/mol
# Density = 2.445185 g / cm^3
# Si number density = 24.507629 Si / 1000 Ang^3
#
#
#
# Elastic Constant Matrix: (Units=GPa)
#
#
# Indices 1 2 3 4 5 6 
#
# 1 130.2143 54.2106 51.5800 0.0000 0.0000 0.0000
# 2 54.2106 156.3323 41.4682 0.0000 0.0000 0.0000
# 3 51.5800 41.4682 118.2718 0.0000 0.0000 0.0000
# 4 0.0000 0.0000 0.0000 85.7687 0.0000 0.0000
# 5 0.0000 0.0000 0.0000 0.0000 47.9656 0.0000
# 6 0.0000 0.0000 0.0000 0.0000 0.0000 32.8876
#
#
#
# Elastic Compliance Matrix: (Units=1/GPa)
#
#
# Indices 1 2 3 4 5 6 
#
# 1 0.010151 -0.002586 -0.003520 0.000000 0.000000 0.000000
# 2 -0.002586 0.007711 -0.001576 0.000000 0.000000 0.000000
# 3 -0.003520 -0.001576 0.010543 0.000000 0.000000 0.000000
# 4 0.000000 0.000000 0.000000 0.011659 0.000000 0.000000
# 5 0.000000 0.000000 0.000000 0.000000 0.020848 0.000000
# 6 0.000000 0.000000 0.000000 0.000000 0.000000 0.030407
#
#
# Mechanical properties :
#
#
# Convention : Reuss Voigt Hill
#
# Bulk Modulus (GPa) = 76.68367 77.70400 77.19383
# Shear Modulus (GPa) = 45.03277 50.49503 47.76390
#
# Velocity S-wave (km/s) = 4.29126 4.54407 4.41947
# Velocity P-wave (km/s) = 7.47735 7.70105 7.59003
#
# Compressibility (1/GPa) = 0.01304059
#
# Stress axis : x y z
#
# Youngs Moduli (GPa) = 98.51554 129.67745 94.85147
#
# Poissons Ratio (x) = 0.33537 0.33389
# Poissons Ratio (y) = 0.25478 0.14948
# Poissons Ratio (z) = 0.34678 0.20436
#
# Static dielectric constant tensor:
#      x y z
#    x 4.580950 0.000000 0.000000 
#    y 0.000000 4.416600 0.000000 
#    z 0.000000 0.000000 4.372240 
# 
# 
# High freq. dielectric constant tensor:
#      x y z
#    x 2.001680 0.000000 0.000000 
#    y 0.000000 1.969360 0.000000 
#    z 0.000000 0.000000 1.977910 
# 
# From -- ./inp_files/517.got.cif
#   From: 2010.03.12/outbox.cif.g09.slc.cpg/sg18_1_cif.got.tgz:517.got - 2010.04.10 18:53:55.
