data_PCOD8156137
_publ_section_title
;
Structure prediction by ZEFSAII (Michael W. Deem and Ramdas Pophale) SiO2 
 PCOD8156137
Probable space group: P 21 21 2
;
_chemical_formula_sum "Si O2"
_cell_formula_units_Z 20
_cell_length_a 13.808398
_cell_length_b 7.552544
_cell_length_c 9.088483
_cell_angle_alpha 90.000000
_cell_angle_beta 90.000000
_cell_angle_gamma 90.000000
_cell_volume 947.824563
_symmetry_space_group_name_H-M "P 21 21 2"
_symmetry_group_IT_number 18
_symmetry_cell_setting 'orthorhombic'
loop_
_space_group_symop_operation_xyz
x,y,z
-x,-y,z
1/2+x,1/2-y,-z
1/2-x,1/2+y,-z
loop_
_atom_site_type_symbol
_atom_site_label
_atom_site_fract_x
_atom_site_fract_y
_atom_site_fract_z
Si Si1 0.615856 0.833983 0.909243
Si Si2 0.577586 0.201293 0.766217
Si Si3 0.949636 0.182218 0.490397
Si Si4 0.797875 0.049224 0.272476
Si Si5 0.099892 0.591884 0.761969
O O1 0.506502 0.759419 0.886516
O O2 0.692637 0.685287 0.862304
O O3 0.627828 0.015223 0.811727
O O4 0.640798 0.850235 0.080400
O O5 0.521660 0.192661 0.607030
O O6 0.655258 0.358590 0.766676
O O7 0.848775 0.145282 0.408769
O O8 0.923059 0.254153 0.649009
O O9 0.000000 0.000000 0.522965
O O10 0.684079 0.029732 0.309449
O O11 0.000000 0.500000 0.796803
#
# Coordination Sequence:
#
# PCOD8156137 Si02
#       5
#     4   4   4   4   4
#     4  10  21  41  67  97 126 172 212 276 326 384
#     4   9  19  44  70  88 126 176 222 252 332 404
#     4   9  22  45  67  94 129 181 216 272 333 395
#     4  10  24  43  67  94 126 179 222 255 336 402
#     4  12  26  41  62 106 136 162 227 282 324 383
#
# _framework density 21.100950000000001
#
# number of rings (size 3 to 8) (size 9 to 14) (size 15 to 20)
#    0.000    2.000    2.000    1.800    8.400    4.800 
#    3.600    0.000    0.000    0.000    0.000    0.000 
#    0.000    0.000    0.000    0.000    0.000    0.000 
#
# Total GULP energy -247844.026978 kJ/mol
# GULP energy per Si atom -12392.201349 kJ/mol
# Density = 2.105292 g / cm^3
# Si number density = 21.100950 Si / 1000 Ang^3
#
#
#
# Elastic Constant Matrix: (Units=GPa)
#
#
# Indices 1 2 3 4 5 6 
#
# 1 76.7740 20.3460 21.1927 0.0000 0.0000 0.0000
# 2 20.3460 82.6116 75.8419 0.0000 0.0000 0.0000
# 3 21.1927 75.8419 121.8287 0.0000 0.0000 0.0000
# 4 0.0000 0.0000 0.0000 34.2456 0.0000 0.0000
# 5 0.0000 0.0000 0.0000 0.0000 15.4783 0.0000
# 6 0.0000 0.0000 0.0000 0.0000 0.0000 18.3408
#
#
#
# Elastic Compliance Matrix: (Units=1/GPa)
#
#
# Indices 1 2 3 4 5 6 
#
# 1 0.013958 -0.002821 -0.000672 0.000000 0.000000 0.000000
# 2 -0.002821 0.028820 -0.017451 0.000000 0.000000 0.000000
# 3 -0.000672 -0.017451 0.019189 0.000000 0.000000 0.000000
# 4 0.000000 0.000000 0.000000 0.029201 0.000000 0.000000
# 5 0.000000 0.000000 0.000000 0.000000 0.064607 0.000000
# 6 0.000000 0.000000 0.000000 0.000000 0.000000 0.054523
#
#
# Mechanical properties :
#
#
# Convention : Reuss Voigt Hill
#
# Bulk Modulus (GPa) = 49.80040 57.33062 53.56551
# Shear Modulus (GPa) = 19.31409 24.53520 21.92464
#
# Velocity S-wave (km/s) = 3.02870 3.41362 3.22690
# Velocity P-wave (km/s) = 5.99024 6.53955 6.27091
#
# Compressibility (1/GPa) = 0.02008016
#
# Stress axis : x y z
#
# Youngs Moduli (GPa) = 71.64200 34.69783 52.11379
#
# Poissons Ratio (x) = 0.09787 0.03503
# Poissons Ratio (y) = 0.20207 0.90943
# Poissons Ratio (z) = 0.04816 0.60550
#
# Static dielectric constant tensor:
#      x y z
#    x 3.770120 0.000000 0.000000 
#    y 0.000000 4.165680 0.000000 
#    z 0.000000 0.000000 3.930410 
# 
# 
# High freq. dielectric constant tensor:
#      x y z
#    x 1.821310 0.000000 0.000000 
#    y 0.000000 1.825600 0.000000 
#    z 0.000000 0.000000 1.823370 
# 
# From -- ./inp_files/4117.got.cif
#   From: 2010.03.12/outbox.cif.g09.slc.cpg/sg18_3_cif.got.tgz:4117.got - 2010.04.10 18:53:55.
