data_PCOD8156721
_publ_section_title
;
Structure prediction by ZEFSAII (Michael W. Deem and Ramdas Pophale) SiO2 
 PCOD8156721
Probable space group: P 21 21 21
;
_chemical_formula_sum "Si O2"
_cell_formula_units_Z 28
_cell_length_a 8.869234
_cell_length_b 12.909938
_cell_length_c 11.836750
_cell_angle_alpha 90.000000
_cell_angle_beta 90.000000
_cell_angle_gamma 90.000000
_cell_volume 1355.322802
_symmetry_space_group_name_H-M "P 21 21 21"
_symmetry_group_IT_number 19
_symmetry_cell_setting 'orthorhombic'
loop_
_space_group_symop_operation_xyz
x,y,z
1/2-x,-y,1/2+z
1/2+x,1/2-y,-z
-x,1/2+y,1/2-z
loop_
_atom_site_type_symbol
_atom_site_label
_atom_site_fract_x
_atom_site_fract_y
_atom_site_fract_z
Si Si1 0.569785 0.355797 0.063067
Si Si2 0.889213 0.068707 0.568232
Si Si3 0.548110 0.542079 0.916296
Si Si4 0.196830 0.453701 0.242199
Si Si5 0.173209 0.368393 0.602451
Si Si6 0.164778 0.142055 0.682318
Si Si7 0.787855 0.854435 0.477669
O O1 0.620363 0.387222 0.189635
O O2 0.390519 0.346919 0.046430
O O3 0.628292 0.444882 0.977552
O O4 0.650915 0.249937 0.030304
O O5 0.837062 0.135549 0.459862
O O6 0.066284 0.078291 0.590390
O O7 0.803026 0.116173 0.677238
O O8 0.830760 0.949663 0.559344
O O9 0.440108 0.499865 0.816125
O O10 0.665496 0.615039 0.851048
O O11 0.456950 0.606285 0.011405
O O12 0.309801 0.541638 0.194447
O O13 0.132840 0.379943 0.142710
O O14 0.134804 0.263557 0.666431
#
# Coordination Sequence:
#
# PCOD8156721 Si02
#       7
#     4   4   4   4   4   4   4
#     4  12  26  44  65 101 133 172 225 278 325 410
#     4  10  20  42  65  89 132 177 213 274 334 390
#     4  11  25  43  66 101 139 169 231 277 326 404
#     4  10  19  43  67  86 131 184 204 267 342 384
#     4  10  21  42  68  92 132 180 220 267 336 398
#     4  12  25  40  70 100 133 172 228 276 334 391
#     4  11  24  42  69  93 134 172 223 269 341 389
#
# _framework density 20.659286000000002
#
# number of rings (size 3 to 8) (size 9 to 14) (size 15 to 20)
#    0.000    1.143    5.714    1.714    4.000    1.143 
#    0.000    1.429    0.000    0.000    0.000    0.000 
#    0.000    0.000    0.000    0.000    0.000    0.000 
#
# Total GULP energy -346999.222425 kJ/mol
# GULP energy per Si atom -12392.829372 kJ/mol
# Density = 2.061226 g / cm^3
# Si number density = 20.659286 Si / 1000 Ang^3
#
#
#
# Elastic Constant Matrix: (Units=GPa)
#
#
# Indices 1 2 3 4 5 6 
#
# 1 90.3512 28.3448 31.6064 0.0000 0.0000 0.0000
# 2 28.3448 71.3870 21.4132 0.0000 0.0000 0.0000
# 3 31.6064 21.4132 99.1843 0.0000 0.0000 0.0000
# 4 0.0000 0.0000 0.0000 31.0701 0.0000 0.0000
# 5 0.0000 0.0000 0.0000 0.0000 34.7750 0.0000
# 6 0.0000 0.0000 0.0000 0.0000 0.0000 32.4426
#
#
#
# Elastic Compliance Matrix: (Units=1/GPa)
#
#
# Indices 1 2 3 4 5 6 
#
# 1 0.013635 -0.004395 -0.003396 0.000000 0.000000 0.000000
# 2 -0.004395 0.016395 -0.002139 0.000000 0.000000 0.000000
# 3 -0.003396 -0.002139 0.011626 0.000000 0.000000 0.000000
# 4 0.000000 0.000000 0.000000 0.032185 0.000000 0.000000
# 5 0.000000 0.000000 0.000000 0.000000 0.028756 0.000000
# 6 0.000000 0.000000 0.000000 0.000000 0.000000 0.030824
#
#
# Mechanical properties :
#
#
# Convention : Reuss Voigt Hill
#
# Bulk Modulus (GPa) = 45.88080 47.07236 46.47658
# Shear Modulus (GPa) = 31.14362 31.62807 31.38584
#
# Velocity S-wave (km/s) = 3.88685 3.91696 3.90194
# Velocity P-wave (km/s) = 6.51153 6.57962 6.54566
#
# Compressibility (1/GPa) = 0.02179561
#
# Stress axis : x y z
#
# Youngs Moduli (GPa) = 73.34212 60.99467 86.01252
#
# Poissons Ratio (x) = 0.26808 0.29210
# Poissons Ratio (y) = 0.32235 0.18398
# Poissons Ratio (z) = 0.24907 0.13047
#
# Static dielectric constant tensor:
#      x y z
#    x 3.676350 0.000000 0.000000 
#    y 0.000000 3.551980 0.000000 
#    z 0.000000 0.000000 4.089410 
# 
# 
# High freq. dielectric constant tensor:
#      x y z
#    x 1.800740 0.000000 0.000000 
#    y 0.000000 1.787850 0.000000 
#    z 0.000000 0.000000 1.832390 
# 
# From -- ./inp_files/4581.got.cif
#   From: 2010.03.12/outbox.cif.g09.slc.cpg/sg19_3_cif.got.tgz:4581.got - 2010.04.10 18:59:41.
