data_PCOD8156559
_publ_section_title
;
Structure prediction by ZEFSAII (Michael W. Deem and Ramdas Pophale) SiO2 
 PCOD8156559
Probable space group: P 21 21 21
;
_chemical_formula_sum "Si O2"
_cell_formula_units_Z 32
_cell_length_a 17.353249
_cell_length_b 9.160023
_cell_length_c 11.363151
_cell_angle_alpha 90.000000
_cell_angle_beta 90.000000
_cell_angle_gamma 90.000000
_cell_volume 1806.242848
_symmetry_space_group_name_H-M "P 21 21 21"
_symmetry_group_IT_number 19
_symmetry_cell_setting 'orthorhombic'
loop_
_space_group_symop_operation_xyz
x,y,z
1/2-x,-y,1/2+z
1/2+x,1/2-y,-z
-x,1/2+y,1/2-z
loop_
_atom_site_type_symbol
_atom_site_label
_atom_site_fract_x
_atom_site_fract_y
_atom_site_fract_z
Si Si1 0.745756 0.126562 0.143646
Si Si2 0.865704 0.340765 0.109164
Si Si3 0.004859 0.354470 0.947257
Si Si4 0.687611 0.745983 0.848229
Si Si5 0.369658 0.395835 0.429117
Si Si6 0.368130 0.868318 0.421195
Si Si7 0.879752 0.360818 0.748528
Si Si8 0.763509 0.472731 0.931030
O O1 0.819200 0.190683 0.069037
O O2 0.773786 0.114384 0.280659
O O3 0.679883 0.250430 0.152615
O O4 0.712255 0.978936 0.089091
O O5 0.862836 0.347837 0.251899
O O6 0.816928 0.471862 0.048582
O O7 0.952822 0.349487 0.064656
O O8 0.060111 0.494296 0.946885
O O9 0.050599 0.203012 0.954445
O O10 0.954397 0.365353 0.830363
O O11 0.755043 0.641863 0.896912
O O12 0.633656 0.800435 0.952898
O O13 0.380878 0.294704 0.316037
O O14 0.321300 0.908359 0.540163
O O15 0.384923 0.011854 0.346409
O O16 0.802659 0.379176 0.826549
#
# Coordination Sequence:
#
# PCOD8156559 Si02
#       8
#     4   4   4   4   4   4   4   4
#     4   8  19  36  56  83 113 141 188 247 285 328
#     4   8  19  38  57  78 116 149 190 231 290 339
#     4  10  22  37  55  79 122 159 185 233 297 348
#     4  10  19  36  58  83 114 141 197 244 273 345
#     4  11  22  35  60  91 114 151 195 247 292 340
#     4  10  18  35  57  83 111 152 192 223 298 347
#     4  11  20  35  60  87 115 145 198 240 289 347
#     4  10  17  34  63  82 105 150 195 237 282 344
#
# _framework density 17.716332999999999
#
# number of rings (size 3 to 8) (size 9 to 14) (size 15 to 20)
#    0.750    1.500    2.500    0.750    0.000    4.000 
#    2.250    0.000    0.000    0.000    0.000    0.000 
#    0.000    0.000    0.000    0.000    0.000    0.000 
#
# Total GULP energy -396435.011095 kJ/mol
# GULP energy per Si atom -12388.594097 kJ/mol
# Density = 1.767601 g / cm^3
# Si number density = 17.716333 Si / 1000 Ang^3
#
#
#
# Elastic Constant Matrix: (Units=GPa)
#
#
# Indices 1 2 3 4 5 6 
#
# 1 103.8557 40.8870 52.7111 0.0000 0.0000 0.0000
# 2 40.8870 75.5252 44.4497 0.0000 0.0000 0.0000
# 3 52.7111 44.4497 113.2540 0.0000 0.0000 0.0000
# 4 0.0000 0.0000 0.0000 27.0524 0.0000 0.0000
# 5 0.0000 0.0000 0.0000 0.0000 27.8305 0.0000
# 6 0.0000 0.0000 0.0000 0.0000 0.0000 24.6477
#
#
#
# Elastic Compliance Matrix: (Units=1/GPa)
#
#
# Indices 1 2 3 4 5 6 
#
# 1 0.013832 -0.004810 -0.004550 0.000000 0.000000 0.000000
# 2 -0.004810 0.018891 -0.005175 0.000000 0.000000 0.000000
# 3 -0.004550 -0.005175 0.012978 0.000000 0.000000 0.000000
# 4 0.000000 0.000000 0.000000 0.036965 0.000000 0.000000
# 5 0.000000 0.000000 0.000000 0.000000 0.035932 0.000000
# 6 0.000000 0.000000 0.000000 0.000000 0.000000 0.040572
#
#
# Mechanical properties :
#
#
# Convention : Reuss Voigt Hill
#
# Bulk Modulus (GPa) = 60.13184 63.19229 61.66206
# Shear Modulus (GPa) = 25.80196 26.21191 26.00694
#
# Velocity S-wave (km/s) = 3.82041 3.85064 3.83556
# Velocity P-wave (km/s) = 7.31272 7.45093 7.38215
#
# Compressibility (1/GPa) = 0.01663013
#
# Stress axis : x y z
#
# Youngs Moduli (GPa) = 72.29778 52.93611 77.05113
#
# Poissons Ratio (x) = 0.25464 0.35055
# Poissons Ratio (y) = 0.34778 0.39876
# Poissons Ratio (z) = 0.32893 0.27396
#
# Static dielectric constant tensor:
#      x y z
#    x 3.284650 0.000000 0.000000 
#    y 0.000000 3.175420 0.000000 
#    z 0.000000 0.000000 3.297940 
# 
# 
# High freq. dielectric constant tensor:
#      x y z
#    x 1.676380 0.000000 0.000000 
#    y 0.000000 1.670370 0.000000 
#    z 0.000000 0.000000 1.685430 
# 
# From -- ./inp_files/5407.got.cif
#   From: 2010.03.12/outbox.cif.g09.slc.cpg/sg19_3_cif.got.tgz:5407.got - 2010.04.10 18:59:41.
