data_PCOD8156074
_publ_section_title
;
Structure prediction by ZEFSAII (Michael W. Deem and Ramdas Pophale) SiO2 
 PCOD8156074
Probable space group: P 21 21 2
;
_chemical_formula_sum "Si O2"
_cell_formula_units_Z 32
_cell_length_a 8.953782
_cell_length_b 14.051175
_cell_length_c 12.388873
_cell_angle_alpha 90.000000
_cell_angle_beta 90.000000
_cell_angle_gamma 90.000000
_cell_volume 1558.658456
_symmetry_space_group_name_H-M "P 21 21 2"
_symmetry_group_IT_number 18
_symmetry_cell_setting 'orthorhombic'
loop_
_space_group_symop_operation_xyz
x,y,z
-x,-y,z
1/2+x,1/2-y,-z
1/2-x,1/2+y,-z
loop_
_atom_site_type_symbol
_atom_site_label
_atom_site_fract_x
_atom_site_fract_y
_atom_site_fract_z
Si Si1 0.265492 0.690139 0.929673
Si Si2 0.349390 0.038215 0.337449
Si Si3 0.395039 0.283439 0.887193
Si Si4 0.668154 0.515432 0.848642
Si Si5 0.648444 0.635165 0.452543
Si Si6 0.690656 0.422551 0.454622
Si Si7 0.419822 0.235051 0.262628
Si Si8 0.242172 0.753972 0.334580
O O1 0.432055 0.730804 0.916067
O O2 0.268660 0.575678 0.912775
O O3 0.153530 0.755378 0.854895
O O4 0.206352 0.706214 0.051140
O O5 0.266364 0.962435 0.259502
O O6 0.241586 0.082766 0.423609
O O7 0.393674 0.123478 0.260702
O O8 0.500000 0.000000 0.393250
O O9 0.332635 0.388785 0.920731
O O10 0.380242 0.272858 0.757249
O O11 0.500000 0.500000 0.806996
O O12 0.711391 0.531856 0.415906
O O13 0.473393 0.620309 0.465668
O O14 0.674025 0.709373 0.355259
O O15 0.727010 0.671152 0.564281
O O16 0.788990 0.352504 0.380393
O O17 0.595932 0.250623 0.276924
#
# Coordination Sequence:
#
# PCOD8156074 Si02
#       8
#     4   4   4   4   4   4   4   4
#     4  10  23  41  65  90 120 155 203 253 305 368
#     4  11  20  34  56  90 120 152 200 256 295 348
#     4  11  22  41  64  90 119 157 202 253 308 358
#     4   9  21  38  64  89 114 157 203 247 303 364
#     4  10  21  37  60  86 124 168 202 245 296 374
#     4  10  22  36  56  88 123 165 202 241 306 361
#     4  10  21  38  58  86 121 156 200 248 303 353
#     4  11  22  38  63  89 122 160 206 254 298 360
#
# _framework density 20.530477000000001
#
# number of rings (size 3 to 8) (size 9 to 14) (size 15 to 20)
#    0.000    1.750    1.250    3.000    7.000    1.000 
#    4.500    0.000    0.000    0.000    0.000    0.000 
#    0.000    0.000    0.000    0.000    0.000    0.000 
#
# Total GULP energy -396447.633312 kJ/mol
# GULP energy per Si atom -12388.988541 kJ/mol
# Density = 2.048375 g / cm^3
# Si number density = 20.530477 Si / 1000 Ang^3
#
#
#
# Elastic Constant Matrix: (Units=GPa)
#
#
# Indices 1 2 3 4 5 6 
#
# 1 42.5616 31.6599 12.5160 0.0000 0.0000 0.0000
# 2 31.6599 91.2503 29.5569 0.0000 0.0000 0.0000
# 3 12.5160 29.5569 71.9464 0.0000 0.0000 0.0000
# 4 0.0000 0.0000 0.0000 28.7012 0.0000 0.0000
# 5 0.0000 0.0000 0.0000 0.0000 33.7095 0.0000
# 6 0.0000 0.0000 0.0000 0.0000 0.0000 20.1468
#
#
#
# Elastic Compliance Matrix: (Units=1/GPa)
#
#
# Indices 1 2 3 4 5 6 
#
# 1 0.031751 -0.010643 -0.001151 0.000000 0.000000 0.000000
# 2 -0.010643 0.016209 -0.004807 0.000000 0.000000 0.000000
# 3 -0.001151 -0.004807 0.016074 0.000000 0.000000 0.000000
# 4 0.000000 0.000000 0.000000 0.034842 0.000000 0.000000
# 5 0.000000 0.000000 0.000000 0.000000 0.029665 0.000000
# 6 0.000000 0.000000 0.000000 0.000000 0.000000 0.049636
#
#
# Mechanical properties :
#
#
# Convention : Reuss Voigt Hill
#
# Bulk Modulus (GPa) = 32.43508 39.24708 35.84108
# Shear Modulus (GPa) = 22.55735 25.31320 23.93528
#
# Velocity S-wave (km/s) = 3.31830 3.51516 3.41815
# Velocity P-wave (km/s) = 5.52397 5.96935 5.75097
#
# Compressibility (1/GPa) = 0.03083082
#
# Stress axis : x y z
#
# Youngs Moduli (GPa) = 31.49504 61.69491 62.21080
#
# Poissons Ratio (x) = 0.65664 0.07160
# Poissons Ratio (y) = 0.33521 0.29907
# Poissons Ratio (z) = 0.03625 0.29659
#
# Static dielectric constant tensor:
#      x y z
#    x 4.430690 0.000000 0.000000 
#    y 0.000000 4.022490 0.000000 
#    z 0.000000 0.000000 3.598680 
# 
# 
# High freq. dielectric constant tensor:
#      x y z
#    x 1.802320 0.000000 0.000000 
#    y 0.000000 1.808740 0.000000 
#    z 0.000000 0.000000 1.783080 
# 
# From -- ./inp_files/5672.got.cif
#   From: 2010.03.12/outbox.cif.g09.slc.cpg/sg18_3_cif.got.tgz:5672.got - 2010.04.10 18:53:55.
