data_PCOD8156342
_publ_section_title
;
Structure prediction by ZEFSAII (Michael W. Deem and Ramdas Pophale) SiO2 
 PCOD8156342
Probable space group: P 21 21 2
;
_chemical_formula_sum "Si O2"
_cell_formula_units_Z 32
_cell_length_a 11.502803
_cell_length_b 7.886526
_cell_length_c 15.085719
_cell_angle_alpha 90.000000
_cell_angle_beta 90.000000
_cell_angle_gamma 90.000000
_cell_volume 1368.533508
_symmetry_space_group_name_H-M "P 21 21 2"
_symmetry_group_IT_number 18
_symmetry_cell_setting 'orthorhombic'
loop_
_space_group_symop_operation_xyz
x,y,z
-x,-y,z
1/2+x,1/2-y,-z
1/2-x,1/2+y,-z
loop_
_atom_site_type_symbol
_atom_site_label
_atom_site_fract_x
_atom_site_fract_y
_atom_site_fract_z
Si Si1 0.719725 0.175617 0.615497
Si Si2 0.835813 0.114547 0.930485
Si Si3 0.973646 0.188214 0.371807
Si Si4 0.120714 0.573166 0.521716
Si Si5 0.054685 0.682373 0.071331
Si Si6 0.625230 0.465804 0.253892
Si Si7 0.840313 0.884229 0.098800
Si Si8 0.292726 0.309495 0.785585
O O1 0.595529 0.226779 0.656374
O O2 0.799699 0.341074 0.597269
O O3 0.697940 0.073960 0.523796
O O4 0.777725 0.060772 0.689697
O O5 0.714797 0.197948 0.901913
O O6 0.894733 0.039073 0.843934
O O7 0.916491 0.265305 0.970285
O O8 0.814904 0.972679 0.004842
O O9 0.913220 0.285739 0.451114
O O10 0.888664 0.194945 0.289601
O O11 0.000000 0.000000 0.405786
O O12 0.000000 0.500000 0.563331
O O13 0.168919 0.684325 0.133710
O O14 0.000000 0.500000 0.071009
O O15 0.976390 0.837603 0.111090
O O16 0.500000 0.500000 0.301268
O O17 0.668873 0.268014 0.248332
O O18 0.785677 0.997426 0.178315
#
# Coordination Sequence:
#
# PCOD8156342 Si02
#       8
#     4   4   4   4   4   4   4   4
#     4  11  25  46  73 106 140 184 233 287 363 426
#     4  11  23  40  62  92 136 181 236 287 346 416
#     4  11  23  42  75 107 137 176 228 300 347 420
#     4  10  23  46  73 107 142 181 232 286 357 440
#     4  11  23  38  68  99 135 185 236 298 351 411
#     4  12  27  45  65  95 143 191 229 292 355 427
#     4  11  22  42  66 101 135 187 241 298 353 416
#     4  11  24  42  68 101 137 177 243 296 353 416
#
# _framework density 23.382691999999999
#
# number of rings (size 3 to 8) (size 9 to 14) (size 15 to 20)
#    0.000    1.000    1.250    6.750    5.250    3.500 
#    2.250    0.625    0.000    0.000    0.000    0.000 
#    0.000    0.000    0.000    0.000    0.000    0.000 
#
# Total GULP energy -396757.145210 kJ/mol
# GULP energy per Si atom -12398.660788 kJ/mol
# Density = 2.332947 g / cm^3
# Si number density = 23.382692 Si / 1000 Ang^3
#
#
#
# Elastic Constant Matrix: (Units=GPa)
#
#
# Indices 1 2 3 4 5 6 
#
# 1 109.0421 25.5891 19.6995 0.0000 0.0000 0.0000
# 2 25.5891 79.7394 5.5528 0.0000 0.0000 0.0000
# 3 19.6995 5.5528 46.5127 0.0000 0.0000 0.0000
# 4 0.0000 0.0000 0.0000 28.6543 0.0000 0.0000
# 5 0.0000 0.0000 0.0000 0.0000 25.2355 0.0000
# 6 0.0000 0.0000 0.0000 0.0000 0.0000 46.4112
#
#
#
# Elastic Compliance Matrix: (Units=1/GPa)
#
#
# Indices 1 2 3 4 5 6 
#
# 1 0.010653 -0.003130 -0.004138 0.000000 0.000000 0.000000
# 2 -0.003130 0.013566 -0.000294 0.000000 0.000000 0.000000
# 3 -0.004138 -0.000294 0.023287 0.000000 0.000000 0.000000
# 4 0.000000 0.000000 0.000000 0.034899 0.000000 0.000000
# 5 0.000000 0.000000 0.000000 0.000000 0.039627 0.000000
# 6 0.000000 0.000000 0.000000 0.000000 0.000000 0.021547
#
#
# Mechanical properties :
#
#
# Convention : Reuss Voigt Hill
#
# Bulk Modulus (GPa) = 30.88181 37.44188 34.16184
# Shear Modulus (GPa) = 29.49912 32.35704 30.92808
#
# Velocity S-wave (km/s) = 3.55573 3.72399 3.64083
# Velocity P-wave (km/s) = 5.48574 5.87692 5.68470
#
# Compressibility (1/GPa) = 0.03238153
#
# Stress axis : x y z
#
# Youngs Moduli (GPa) = 93.87025 73.71416 42.94203
#
# Poissons Ratio (x) = 0.23076 0.17770
# Poissons Ratio (y) = 0.29386 0.01261
# Poissons Ratio (z) = 0.38845 0.02165
#
# Static dielectric constant tensor:
#      x y z
#    x 4.496560 0.000000 0.000000 
#    y 0.000000 4.443860 0.000000 
#    z 0.000000 0.000000 3.995200 
# 
# 
# High freq. dielectric constant tensor:
#      x y z
#    x 1.933250 0.000000 0.000000 
#    y 0.000000 1.937240 0.000000 
#    z 0.000000 0.000000 1.907020 
# 
# From -- ./inp_files/6906.got.cif
#   From: 2010.03.12/outbox.cif.g09.slc.cpg/sg18_4_cif.got.tgz:6906.got - 2010.04.10 18:53:55.
