data_PCOD8156743
_publ_section_title
;
Structure prediction by ZEFSAII (Michael W. Deem and Ramdas Pophale) SiO2 
 PCOD8156743
Probable space group: P 21 21 21
;
_chemical_formula_sum "Si O2"
_cell_formula_units_Z 32
_cell_length_a 9.060543
_cell_length_b 10.813895
_cell_length_c 15.466985
_cell_angle_alpha 90.000000
_cell_angle_beta 90.000000
_cell_angle_gamma 90.000000
_cell_volume 1515.451488
_symmetry_space_group_name_H-M "P 21 21 21"
_symmetry_group_IT_number 19
_symmetry_cell_setting 'orthorhombic'
loop_
_space_group_symop_operation_xyz
x,y,z
1/2-x,-y,1/2+z
1/2+x,1/2-y,-z
-x,1/2+y,1/2-z
loop_
_atom_site_type_symbol
_atom_site_label
_atom_site_fract_x
_atom_site_fract_y
_atom_site_fract_z
Si Si1 0.143043 0.993114 0.682891
Si Si2 0.819562 0.068783 0.629238
Si Si3 0.549011 0.463962 0.138246
Si Si4 0.274629 0.474269 0.698438
Si Si5 0.909067 0.272041 0.927698
Si Si6 0.941730 0.295617 0.550364
Si Si7 0.152545 0.403439 0.028388
Si Si8 0.235000 0.768783 0.111980
O O1 0.166557 0.012513 0.785375
O O2 0.257466 0.089362 0.641595
O O3 0.975860 0.018338 0.658224
O O4 0.167583 0.852974 0.649025
O O5 0.837698 0.216657 0.616885
O O6 0.700090 0.029458 0.704191
O O7 0.781028 0.007551 0.536472
O O8 0.392249 0.502862 0.173992
O O9 0.535448 0.321473 0.108795
O O10 0.593002 0.558451 0.061825
O O11 0.372473 0.543338 0.625285
O O12 0.299209 0.325534 0.691715
O O13 0.774859 0.203648 0.974018
O O14 0.992104 0.357013 0.997837
O O15 0.902171 0.257871 0.453038
O O16 0.113121 0.266077 0.563866
#
# Coordination Sequence:
#
# PCOD8156743 Si02
#       8
#     4   4   4   4   4   4   4   4
#     4   9  20  32  55  83 108 140 188 238 271 313
#     4   9  18  34  58  81 109 146 188 225 274 329
#     4   9  20  32  55  83 108 140 188 238 271 313
#     4   9  18  34  58  81 109 146 188 225 274 329
#     4  10  22  36  56  80 114 146 184 224 280 332
#     4  10  20  35  57  83 111 143 183 229 276 331
#     4  10  20  36  58  80 110 150 182 230 276 330
#     4  10  20  35  57  83 111 143 183 229 276 331
#
# _framework density 21.115819999999999
#
# number of rings (size 3 to 8) (size 9 to 14) (size 15 to 20)
#    0.000    2.500    1.250    0.000   14.000    0.000 
#    0.000    0.000    2.750    3.000    0.000    0.000 
#    0.000    0.000    0.000    0.000    0.000    0.000 
#
# Total GULP energy -396455.803513 kJ/mol
# GULP energy per Si atom -12389.243860 kJ/mol
# Density = 2.106776 g / cm^3
# Si number density = 21.115820 Si / 1000 Ang^3
#
#
#
# Elastic Constant Matrix: (Units=GPa)
#
#
# Indices 1 2 3 4 5 6 
#
# 1 18.8970 0.3996 -8.9863 0.0000 0.0000 0.0000
# 2 0.3996 114.1301 -1.4917 0.0000 0.0000 0.0000
# 3 -8.9863 -1.4917 30.4972 0.0000 0.0000 0.0000
# 4 0.0000 0.0000 0.0000 22.8491 0.0000 0.0000
# 5 0.0000 0.0000 0.0000 0.0000 17.6208 0.0000
# 6 0.0000 0.0000 0.0000 0.0000 0.0000 18.3153
#
#
#
# Elastic Compliance Matrix: (Units=1/GPa)
#
#
# Indices 1 2 3 4 5 6 
#
# 1 0.061542 0.000022 0.018135 0.000000 0.000000 0.000000
# 2 0.000022 0.008768 0.000435 0.000000 0.000000 0.000000
# 3 0.018135 0.000435 0.038155 0.000000 0.000000 0.000000
# 4 0.000000 0.000000 0.000000 0.043765 0.000000 0.000000
# 5 0.000000 0.000000 0.000000 0.000000 0.056751 0.000000
# 6 0.000000 0.000000 0.000000 0.000000 0.000000 0.054599
#
#
# Mechanical properties :
#
#
# Convention : Reuss Voigt Hill
#
# Bulk Modulus (GPa) = 6.86588 15.92973 11.39780
# Shear Modulus (GPa) = 18.18541 23.33056 20.75799
#
# Velocity S-wave (km/s) = 2.93784 3.32759 3.13877
# Velocity P-wave (km/s) = 3.84272 4.72484 4.30643
#
# Compressibility (1/GPa) = 0.14564770
#
# Stress axis : x y z
#
# Youngs Moduli (GPa) = 16.24911 114.05709 26.20901
#
# Poissons Ratio (x) = -0.00246 -0.47530
# Poissons Ratio (y) = -0.00035 -0.01141
# Poissons Ratio (z) = -0.29468 -0.04964
#
# Static dielectric constant tensor:
#      x y z
#    x 3.232520 0.000000 0.000000 
#    y 0.000000 4.286910 0.000000 
#    z 0.000000 0.000000 4.350680 
# 
# 
# High freq. dielectric constant tensor:
#      x y z
#    x 1.769940 0.000000 0.000000 
#    y 0.000000 1.842930 0.000000 
#    z 0.000000 0.000000 1.821750 
# 
# From -- ./inp_files/5118.got.cif
#   From: 2010.03.12/outbox.cif.g09.slc.cpg/sg19_3_cif.got.tgz:5118.got - 2010.04.10 18:59:41.
