data_PCOD8156406
_publ_section_title
;
Structure prediction by ZEFSAII (Michael W. Deem and Ramdas Pophale) SiO2 
 PCOD8156406
Probable space group: P 21 21 2
;
_chemical_formula_sum "Si O2"
_cell_formula_units_Z 20
_cell_length_a 8.799045
_cell_length_b 17.287332
_cell_length_c 5.271198
_cell_angle_alpha 90.000000
_cell_angle_beta 90.000000
_cell_angle_gamma 90.000000
_cell_volume 801.812534
_symmetry_space_group_name_H-M "P 21 21 2"
_symmetry_group_IT_number 18
_symmetry_cell_setting 'orthorhombic'
loop_
_space_group_symop_operation_xyz
x,y,z
-x,-y,z
1/2+x,1/2-y,-z
1/2-x,1/2+y,-z
loop_
_atom_site_type_symbol
_atom_site_label
_atom_site_fract_x
_atom_site_fract_y
_atom_site_fract_z
Si Si1 0.342308 0.472800 0.568240
Si Si2 0.336441 0.158756 0.262639
Si Si3 0.673675 0.394243 0.229753
Si Si4 0.900110 0.566985 0.923351
Si Si5 0.154807 0.841290 0.758557
O O1 0.500000 0.500000 0.697310
O O2 0.325767 0.513316 0.287812
O O3 0.206686 0.491498 0.759084
O O4 0.341884 0.380178 0.521780
O O5 0.223812 0.136895 0.490437
O O6 0.504302 0.120605 0.276559
O O7 0.340183 0.250587 0.264843
O O8 0.289727 0.131216 0.981833
O O9 0.509667 0.365314 0.130433
O O10 0.000000 0.500000 0.070288
O O11 0.801030 0.625349 0.092014
#
# Coordination Sequence:
#
# PCOD8156406 Si02
#       5
#     4   4   4   4   4
#     4  10  25  47  77 108 153 212 265 315 394 476
#     4  12  28  48  80 117 163 195 267 328 397 461
#     4  11  27  52  75 112 155 213 254 322 395 478
#     4  12  26  47  79 116 155 208 268 331 384 474
#     4  11  28  45  79 110 161 208 259 323 407 468
#
# _framework density 24.943487000000001
#
# number of rings (size 3 to 8) (size 9 to 14) (size 15 to 20)
#    0.000    0.800    2.000    2.400   14.000    1.600 
#    0.000    0.000    0.000    0.000    0.000    0.000 
#    0.000    0.000    0.000    0.000    0.000    0.000 
#
# Total GULP energy -247771.142449 kJ/mol
# GULP energy per Si atom -12388.557122 kJ/mol
# Density = 2.488671 g / cm^3
# Si number density = 24.943487 Si / 1000 Ang^3
#
#
#
# Elastic Constant Matrix: (Units=GPa)
#
#
# Indices 1 2 3 4 5 6 
#
# 1 148.6416 48.7259 32.3230 0.0000 0.0000 0.0000
# 2 48.7259 138.2319 20.1997 0.0000 0.0000 0.0000
# 3 32.3230 20.1997 81.0980 0.0000 0.0000 0.0000
# 4 0.0000 0.0000 0.0000 21.3439 0.0000 0.0000
# 5 0.0000 0.0000 0.0000 0.0000 38.0694 0.0000
# 6 0.0000 0.0000 0.0000 0.0000 0.0000 28.6747
#
#
#
# Elastic Compliance Matrix: (Units=1/GPa)
#
#
# Indices 1 2 3 4 5 6 
#
# 1 0.008108 -0.002476 -0.002615 0.000000 0.000000 0.000000
# 2 -0.002476 0.008264 -0.001071 0.000000 0.000000 0.000000
# 3 -0.002615 -0.001071 0.013640 0.000000 0.000000 0.000000
# 4 0.000000 0.000000 0.000000 0.046852 0.000000 0.000000
# 5 0.000000 0.000000 0.000000 0.000000 0.026268 0.000000
# 6 0.000000 0.000000 0.000000 0.000000 0.000000 0.034874
#
#
# Mechanical properties :
#
#
# Convention : Reuss Voigt Hill
#
# Bulk Modulus (GPa) = 56.53915 63.38540 59.96228
# Shear Modulus (GPa) = 32.00521 35.39913 33.70217
#
# Velocity S-wave (km/s) = 3.58594 3.77128 3.67977
# Velocity P-wave (km/s) = 6.31359 6.66560 6.49198
#
# Compressibility (1/GPa) = 0.01768686
#
# Stress axis : x y z
#
# Youngs Moduli (GPa) = 123.33795 121.01390 73.31479
#
# Poissons Ratio (x) = 0.29961 0.19171
# Poissons Ratio (y) = 0.30537 0.07855
# Poissons Ratio (z) = 0.32251 0.12966
#
# Static dielectric constant tensor:
#      x y z
#    x 4.949300 0.000000 0.000000 
#    y 0.000000 4.804510 0.000000 
#    z 0.000000 0.000000 4.079680 
# 
# 
# High freq. dielectric constant tensor:
#      x y z
#    x 2.020390 0.000000 0.000000 
#    y 0.000000 2.012160 0.000000 
#    z 0.000000 0.000000 1.969240 
# 
# From -- ./inp_files/528.got.cif
#   From: 2010.03.12/outbox.cif.g09.slc.cpg/sg18_1_cif.got.tgz:528.got - 2010.04.10 18:53:55.
