data_PCOD8156003
_publ_section_title
;
Structure prediction by ZEFSAII (Michael W. Deem and Ramdas Pophale) SiO2 
 PCOD8156003
Probable space group: P 21 21 2
;
_chemical_formula_sum "Si O2"
_cell_formula_units_Z 32
_cell_length_a 15.663169
_cell_length_b 15.359042
_cell_length_c 6.343874
_cell_angle_alpha 90.000000
_cell_angle_beta 90.000000
_cell_angle_gamma 90.000000
_cell_volume 1526.153828
_symmetry_space_group_name_H-M "P 21 21 2"
_symmetry_group_IT_number 18
_symmetry_cell_setting 'orthorhombic'
loop_
_space_group_symop_operation_xyz
x,y,z
-x,-y,z
1/2+x,1/2-y,-z
1/2-x,1/2+y,-z
loop_
_atom_site_type_symbol
_atom_site_label
_atom_site_fract_x
_atom_site_fract_y
_atom_site_fract_z
Si Si1 0.449657 0.246688 0.107620
Si Si2 0.904174 0.690933 0.164296
Si Si3 0.430645 0.692727 0.459102
Si Si4 0.300158 0.116828 0.072026
Si Si5 0.320438 0.539053 0.588637
Si Si6 0.785311 0.750277 0.819595
Si Si7 0.657764 0.614458 0.886484
Si Si8 0.713685 0.038031 0.792443
O O1 0.485632 0.297147 0.313892
O O2 0.372556 0.181220 0.165574
O O3 0.520083 0.181747 0.007225
O O4 0.422852 0.326251 0.952950
O O5 0.947730 0.757793 0.325135
O O6 0.867022 0.601169 0.263158
O O7 0.823307 0.732949 0.051117
O O8 0.399653 0.592449 0.485612
O O9 0.352913 0.746540 0.362981
O O10 0.232193 0.102952 0.258100
O O11 0.261187 0.158371 0.857887
O O12 0.329332 0.025401 0.969811
O O13 0.366472 0.463722 0.728012
O O14 0.251506 0.503872 0.420196
O O15 0.721627 0.674215 0.750372
O O16 0.704294 0.582739 0.099055
#
# Coordination Sequence:
#
# PCOD8156003 Si02
#       8
#     4   4   4   4   4   4   4   4
#     4  10  24  41  60  90 132 168 201 253 326 376
#     4  10  21  38  59  87 124 162 200 256 315 370
#     4  11  21  37  63  92 123 162 206 256 313 369
#     4  10  20  39  63  90 120 165 210 257 303 369
#     4  11  21  37  67  95 119 161 220 260 300 362
#     4   9  17  37  62  83 116 158 204 251 301 368
#     4   9  21  39  60  89 120 159 208 256 308 374
#     4  10  21  38  64  92 119 157 213 263 305 363
#
# _framework density 20.967741
#
# number of rings (size 3 to 8) (size 9 to 14) (size 15 to 20)
#    0.000    2.000    2.500    0.750    0.000    3.500 
#    0.000    3.750    0.000    0.000    0.000    0.000 
#    0.000    0.000    0.000    0.000    0.000    0.000 
#
# Total GULP energy -396443.656450 kJ/mol
# GULP energy per Si atom -12388.864264 kJ/mol
# Density = 2.092002 g / cm^3
# Si number density = 20.967741 Si / 1000 Ang^3
#
#
#
# Elastic Constant Matrix: (Units=GPa)
#
#
# Indices 1 2 3 4 5 6 
#
# 1 73.5219 36.6345 15.5693 0.0000 0.0000 0.0000
# 2 36.6345 96.5181 21.5028 0.0000 0.0000 0.0000
# 3 15.5693 21.5028 54.3416 0.0000 0.0000 0.0000
# 4 0.0000 0.0000 0.0000 30.2846 0.0000 0.0000
# 5 0.0000 0.0000 0.0000 0.0000 25.4845 0.0000
# 6 0.0000 0.0000 0.0000 0.0000 0.0000 37.4200
#
#
#
# Elastic Compliance Matrix: (Units=1/GPa)
#
#
# Indices 1 2 3 4 5 6 
#
# 1 0.017091 -0.005918 -0.002555 0.000000 0.000000 0.000000
# 2 -0.005918 0.013412 -0.003611 0.000000 0.000000 0.000000
# 3 -0.002555 -0.003611 0.020563 0.000000 0.000000 0.000000
# 4 0.000000 0.000000 0.000000 0.033020 0.000000 0.000000
# 5 0.000000 0.000000 0.000000 0.000000 0.039240 0.000000
# 6 0.000000 0.000000 0.000000 0.000000 0.000000 0.026724
#
#
# Mechanical properties :
#
#
# Convention : Reuss Voigt Hill
#
# Bulk Modulus (GPa) = 37.17861 41.31054 39.24457
# Shear Modulus (GPa) = 27.29502 28.68284 27.98893
#
# Velocity S-wave (km/s) = 3.61191 3.70259 3.65753
# Velocity P-wave (km/s) = 5.92995 6.16633 6.04930
#
# Compressibility (1/GPa) = 0.02689719
#
# Stress axis : x y z
#
# Youngs Moduli (GPa) = 58.50951 74.56280 48.63065
#
# Poissons Ratio (x) = 0.44126 0.12426
# Poissons Ratio (y) = 0.34625 0.17562
# Poissons Ratio (z) = 0.14950 0.26927
#
# Static dielectric constant tensor:
#      x y z
#    x 3.560900 0.000000 0.000000 
#    y 0.000000 3.941370 0.000000 
#    z 0.000000 0.000000 3.622300 
# 
# 
# High freq. dielectric constant tensor:
#      x y z
#    x 1.802910 0.000000 0.000000 
#    y 0.000000 1.828620 0.000000 
#    z 0.000000 0.000000 1.817930 
# 
# From -- ./inp_files/1874.got.cif
#   From: 2010.03.12/outbox.cif.g09.slc.cpg/sg18_1_cif.got.tgz:1874.got - 2010.04.10 18:53:55.
