data_PCOD8156708
_publ_section_title
;
Structure prediction by ZEFSAII (Michael W. Deem and Ramdas Pophale) SiO2 
 PCOD8156708
Probable space group: P 21 21 21
;
_chemical_formula_sum "Si O2"
_cell_formula_units_Z 32
_cell_length_a 13.053632
_cell_length_b 11.092553
_cell_length_c 9.357650
_cell_angle_alpha 90.000000
_cell_angle_beta 90.000000
_cell_angle_gamma 90.000000
_cell_volume 1354.969985
_symmetry_space_group_name_H-M "P 21 21 21"
_symmetry_group_IT_number 19
_symmetry_cell_setting 'orthorhombic'
loop_
_space_group_symop_operation_xyz
x,y,z
1/2-x,-y,1/2+z
1/2+x,1/2-y,-z
-x,1/2+y,1/2-z
loop_
_atom_site_type_symbol
_atom_site_label
_atom_site_fract_x
_atom_site_fract_y
_atom_site_fract_z
Si Si1 0.720939 0.370451 0.834675
Si Si2 0.137050 0.957666 0.406757
Si Si3 0.369045 0.616436 0.993393
Si Si4 0.929586 0.839085 0.398095
Si Si5 0.638699 0.084452 0.200920
Si Si6 0.665422 0.819050 0.143489
Si Si7 0.134118 0.562612 0.280156
Si Si8 0.995535 0.677784 0.070017
O O1 0.689673 0.486463 0.737215
O O2 0.617929 0.293805 0.869749
O O3 0.800962 0.286797 0.748993
O O4 0.776291 0.412842 0.981760
O O5 0.052805 0.853695 0.364383
O O6 0.070344 0.063246 0.482705
O O7 0.247851 0.638366 0.975985
O O8 0.400279 0.483660 0.937267
O O9 0.420964 0.713463 0.886967
O O10 0.408527 0.639187 0.153463
O O11 0.921951 0.864143 0.567939
O O12 0.860084 0.941710 0.320412
O O13 0.757043 0.126914 0.200941
O O14 0.633050 0.940518 0.224763
O O15 0.569121 0.773383 0.053217
O O16 0.052504 0.654415 0.218794
#
# Coordination Sequence:
#
# PCOD8156708 Si02
#       8
#     4   4   4   4   4   4   4   4
#     4  12  27  55  74 114 157 197 257 323 380 460
#     4  11  27  53  76 107 161 197 254 319 384 453
#     4  11  22  39  70 104 139 192 244 308 376 436
#     4  11  23  48  77 110 147 201 254 306 382 478
#     4  11  20  39  71 110 141 182 249 314 365 434
#     4  11  22  42  71 103 149 187 251 307 373 457
#     4  10  19  40  66  98 143 184 241 308 359 446
#     4  11  22  44  67 102 147 194 250 297 383 458
#
# _framework density 23.616759999999999
#
# number of rings (size 3 to 8) (size 9 to 14) (size 15 to 20)
#    0.000    1.000    7.500    0.750    1.750    1.000 
#   15.750    0.000    0.000    0.000    0.000    0.000 
#    0.000    0.000    0.000    0.000    0.000    0.000 
#
# Total GULP energy -396534.647442 kJ/mol
# GULP energy per Si atom -12391.707733 kJ/mol
# Density = 2.356301 g / cm^3
# Si number density = 23.616760 Si / 1000 Ang^3
#
#
#
# Elastic Constant Matrix: (Units=GPa)
#
#
# Indices 1 2 3 4 5 6 
#
# 1 106.8586 45.6603 29.3335 0.0000 0.0000 0.0000
# 2 45.6603 75.3320 33.1547 0.0000 0.0000 0.0000
# 3 29.3335 33.1547 104.0783 0.0000 0.0000 0.0000
# 4 0.0000 0.0000 0.0000 34.2492 0.0000 0.0000
# 5 0.0000 0.0000 0.0000 0.0000 38.8104 0.0000
# 6 0.0000 0.0000 0.0000 0.0000 0.0000 36.4212
#
#
#
# Elastic Compliance Matrix: (Units=1/GPa)
#
#
# Indices 1 2 3 4 5 6 
#
# 1 0.012783 -0.007167 -0.001320 0.000000 0.000000 0.000000
# 2 -0.007167 0.019458 -0.004178 0.000000 0.000000 0.000000
# 3 -0.001320 -0.004178 0.011311 0.000000 0.000000 0.000000
# 4 0.000000 0.000000 0.000000 0.029198 0.000000 0.000000
# 5 0.000000 0.000000 0.000000 0.000000 0.025766 0.000000
# 6 0.000000 0.000000 0.000000 0.000000 0.000000 0.027457
#
#
# Mechanical properties :
#
#
# Convention : Reuss Voigt Hill
#
# Bulk Modulus (GPa) = 54.88045 55.84066 55.36055
# Shear Modulus (GPa) = 31.77093 33.77085 32.77089
#
# Velocity S-wave (km/s) = 3.67177 3.78557 3.72911
# Velocity P-wave (km/s) = 6.42373 6.54242 6.48334
#
# Compressibility (1/GPa) = 0.01822143
#
# Stress axis : x y z
#
# Youngs Moduli (GPa) = 78.22932 51.39340 88.40874
#
# Poissons Ratio (x) = 0.36835 0.11666
# Poissons Ratio (y) = 0.56069 0.36940
# Poissons Ratio (z) = 0.10323 0.21474
#
# Static dielectric constant tensor:
#      x y z
#    x 4.284960 0.000000 0.000000 
#    y 0.000000 4.125390 0.000000 
#    z 0.000000 0.000000 4.267080 
# 
# 
# High freq. dielectric constant tensor:
#      x y z
#    x 1.932250 0.000000 0.000000 
#    y 0.000000 1.921580 0.000000 
#    z 0.000000 0.000000 1.940690 
# 
# From -- ./inp_files/3915.got.cif
#   From: 2010.03.12/outbox.cif.g09.slc.cpg/sg19_2_cif.got.tgz:3915.got - 2010.04.10 18:59:41.
