data_PCOD8156255
_publ_section_title
;
Structure prediction by ZEFSAII (Michael W. Deem and Ramdas Pophale) SiO2 
 PCOD8156255
Probable space group: P 21 21 2
;
_chemical_formula_sum "Si O2"
_cell_formula_units_Z 32
_cell_length_a 11.834948
_cell_length_b 9.174288
_cell_length_c 13.020168
_cell_angle_alpha 90.000000
_cell_angle_beta 90.000000
_cell_angle_gamma 90.000000
_cell_volume 1413.693664
_symmetry_space_group_name_H-M "P 21 21 2"
_symmetry_group_IT_number 18
_symmetry_cell_setting 'orthorhombic'
loop_
_space_group_symop_operation_xyz
x,y,z
-x,-y,z
1/2+x,1/2-y,-z
1/2-x,1/2+y,-z
loop_
_atom_site_type_symbol
_atom_site_label
_atom_site_fract_x
_atom_site_fract_y
_atom_site_fract_z
Si Si1 0.089351 0.887726 0.274782
Si Si2 0.069377 0.135822 0.632298
Si Si3 0.194768 0.408395 0.586473
Si Si4 0.874020 0.040507 0.047422
Si Si5 0.434783 0.870471 0.799812
Si Si6 0.737585 0.061010 0.641519
Si Si7 0.236053 0.715597 0.920082
Si Si8 0.624789 0.821018 0.288777
O O1 0.190925 0.861030 0.354290
O O2 0.025178 0.742220 0.243625
O O3 0.138329 0.958171 0.170696
O O4 0.000000 0.000000 0.325750
O O5 0.121656 0.262344 0.559530
O O6 0.991472 0.228126 0.710283
O O7 0.172511 0.054224 0.690831
O O8 0.000000 0.000000 0.577479
O O9 0.224131 0.481259 0.477876
O O10 0.121018 0.522560 0.653997
O O11 0.785791 0.916356 0.011937
O O12 0.000000 0.000000 0.012223
O O13 0.840596 0.191621 0.996322
O O14 0.378660 0.951484 0.702089
O O15 0.342906 0.803102 0.875293
O O16 0.500000 0.000000 0.860160
O O17 0.779960 0.227326 0.652669
O O18 0.155897 0.656210 0.829755
#
# Coordination Sequence:
#
# PCOD8156255 Si02
#       8
#     4   4   4   4   4   4   4   4
#     4  11  22  44  69  95 133 178 227 280 343 398
#     4  10  23  41  59  91 137 173 219 280 335 388
#     4  12  22  40  69  97 135 185 231 278 332 414
#     4  11  24  47  70 103 134 174 227 284 347 409
#     4  11  23  40  65  96 137 177 227 280 339 405
#     4  10  23  40  61  99 136 176 234 279 334 398
#     4  11  24  45  69 100 134 175 228 284 342 420
#     4  10  22  43  64  93 136 178 223 279 339 408
#
# _framework density 22.635739000000001
#
# number of rings (size 3 to 8) (size 9 to 14) (size 15 to 20)
#    0.000    1.250    3.750    2.625    1.750    7.000 
#    2.250    0.000    0.000    0.000    0.000    0.000 
#    0.000    0.000    0.000    0.000    0.000    0.000 
#
# Total GULP energy -396596.391043 kJ/mol
# GULP energy per Si atom -12393.637220 kJ/mol
# Density = 2.258422 g / cm^3
# Si number density = 22.635739 Si / 1000 Ang^3
#
#
#
# Elastic Constant Matrix: (Units=GPa)
#
#
# Indices 1 2 3 4 5 6 
#
# 1 98.6356 44.6366 17.7175 0.0000 0.0000 0.0000
# 2 44.6366 112.5653 7.4006 0.0000 0.0000 0.0000
# 3 17.7175 7.4006 54.3366 0.0000 0.0000 0.0000
# 4 0.0000 0.0000 0.0000 26.0149 0.0000 0.0000
# 5 0.0000 0.0000 0.0000 0.0000 8.7690 0.0000
# 6 0.0000 0.0000 0.0000 0.0000 0.0000 60.0578
#
#
#
# Elastic Compliance Matrix: (Units=1/GPa)
#
#
# Indices 1 2 3 4 5 6 
#
# 1 0.013008 -0.004923 -0.003571 0.000000 0.000000 0.000000
# 2 -0.004923 0.010827 0.000131 0.000000 0.000000 0.000000
# 3 -0.003571 0.000131 0.019550 0.000000 0.000000 0.000000
# 4 0.000000 0.000000 0.000000 0.038440 0.000000 0.000000
# 5 0.000000 0.000000 0.000000 0.000000 0.114038 0.000000
# 6 0.000000 0.000000 0.000000 0.000000 0.000000 0.016651
#
#
# Mechanical properties :
#
#
# Convention : Reuss Voigt Hill
#
# Bulk Modulus (GPa) = 37.51154 45.00522 41.25838
# Shear Modulus (GPa) = 20.99719 32.02051 26.50885
#
# Velocity S-wave (km/s) = 3.04898 3.76520 3.42586
# Velocity P-wave (km/s) = 5.38543 6.23120 5.82369
#
# Compressibility (1/GPa) = 0.02665846
#
# Stress axis : x y z
#
# Youngs Moduli (GPa) = 76.87724 92.35795 51.14993
#
# Poissons Ratio (x) = 0.45471 0.18265
# Poissons Ratio (y) = 0.37849 -0.00668
# Poissons Ratio (z) = 0.27452 -0.01207
#
# Static dielectric constant tensor:
#      x y z
#    x 4.322610 0.000000 0.000000 
#    y 0.000000 4.327820 0.000000 
#    z 0.000000 0.000000 3.583090 
# 
# 
# High freq. dielectric constant tensor:
#      x y z
#    x 1.908980 0.000000 0.000000 
#    y 0.000000 1.912970 0.000000 
#    z 0.000000 0.000000 1.846120 
# 
# From -- ./inp_files/6925.got.cif
#   From: 2010.03.12/outbox.cif.g09.slc.cpg/sg18_4_cif.got.tgz:6925.got - 2010.04.10 18:53:55.
