data_PCOD8156417
_publ_section_title
;
Structure prediction by ZEFSAII (Michael W. Deem and Ramdas Pophale) SiO2 
 PCOD8156417
Probable space group: P 21 21 2
;
_chemical_formula_sum "Si O2"
_cell_formula_units_Z 18
_cell_length_a 9.215500
_cell_length_b 8.049840
_cell_length_c 10.884965
_cell_angle_alpha 90.000000
_cell_angle_beta 90.000000
_cell_angle_gamma 90.000000
_cell_volume 807.482630
_symmetry_space_group_name_H-M "P 21 21 2"
_symmetry_group_IT_number 18
_symmetry_cell_setting 'orthorhombic'
loop_
_space_group_symop_operation_xyz
x,y,z
-x,-y,z
1/2+x,1/2-y,-z
1/2-x,1/2+y,-z
loop_
_atom_site_type_symbol
_atom_site_label
_atom_site_fract_x
_atom_site_fract_y
_atom_site_fract_z
Si Si1 0.828906 0.686927 0.634368
Si Si2 0.202009 0.109979 0.242843
Si Si3 0.516714 0.817102 0.604568
Si Si4 0.484755 0.198083 0.135712
Si Si5 0.000000 0.000000 0.048097
O O1 0.781894 0.495384 0.650877
O O2 0.687729 0.788156 0.595808
O O3 0.948774 0.703764 0.529656
O O4 0.898017 0.750319 0.761569
O O5 0.061396 0.198692 0.298306
O O6 0.323176 0.233815 0.188273
O O7 0.144168 0.992672 0.132523
O O8 0.500000 0.000000 0.657311
O O9 0.507532 0.326190 0.025094
O O10 0.500000 0.000000 0.099888
#
# Coordination Sequence:
#
# PCOD8156417 Si02
#       5
#     4   4   4   4   2
#     4  11  23  48  67 107 140 186 231 304 361 432
#     4  11  25  47  66 103 146 184 237 300 356 425
#     4  12  24  40  75 101 142 181 238 294 372 434
#     4  10  26  46  74 100 147 188 245 294 355 421
#     4  12  26  46  74 104 142 196 242 298 348 428
#
# _framework density 22.291499000000002
#
# number of rings (size 3 to 8) (size 9 to 14) (size 15 to 20)
#    0.000    0.889    2.222    4.667    9.333    0.889 
#    4.000    0.000    0.000    0.000    0.000    0.000 
#    0.000    0.000    0.000    0.000    0.000    0.000 
#
# Total GULP energy -223162.428147 kJ/mol
# GULP energy per Si atom -12397.912675 kJ/mol
# Density = 2.224076 g / cm^3
# Si number density = 22.291499 Si / 1000 Ang^3
#
#
#
# Elastic Constant Matrix: (Units=GPa)
#
#
# Indices 1 2 3 4 5 6 
#
# 1 147.7654 31.7731 59.8091 0.0000 0.0000 0.0000
# 2 31.7731 98.7807 63.3826 0.0000 0.0000 0.0000
# 3 59.8091 63.3826 120.5109 0.0000 0.0000 0.0000
# 4 0.0000 0.0000 0.0000 36.0156 0.0000 0.0000
# 5 0.0000 0.0000 0.0000 0.0000 38.9179 0.0000
# 6 0.0000 0.0000 0.0000 0.0000 0.0000 37.4529
#
#
#
# Elastic Compliance Matrix: (Units=1/GPa)
#
#
# Indices 1 2 3 4 5 6 
#
# 1 0.008469 -0.000041 -0.004181 0.000000 0.000000 0.000000
# 2 -0.000041 0.015280 -0.008016 0.000000 0.000000 0.000000
# 3 -0.004181 -0.008016 0.014589 0.000000 0.000000 0.000000
# 4 0.000000 0.000000 0.000000 0.027766 0.000000 0.000000
# 5 0.000000 0.000000 0.000000 0.000000 0.025695 0.000000
# 6 0.000000 0.000000 0.000000 0.000000 0.000000 0.026700
#
#
# Mechanical properties :
#
#
# Convention : Reuss Voigt Hill
#
# Bulk Modulus (GPa) = 72.14502 75.22071 73.68287
# Shear Modulus (GPa) = 33.87595 36.61678 35.24636
#
# Velocity S-wave (km/s) = 3.90254 4.05734 3.98069
# Velocity P-wave (km/s) = 7.26230 7.46771 7.36572
#
# Compressibility (1/GPa) = 0.01386097
#
# Stress axis : x y z
#
# Youngs Moduli (GPa) = 118.08086 65.44387 68.54276
#
# Poissons Ratio (x) = 0.00268 0.28661
# Poissons Ratio (y) = 0.00484 0.54946
# Poissons Ratio (z) = 0.49375 0.52462
#
# Static dielectric constant tensor:
#      x y z
#    x 4.522440 0.000000 0.000000 
#    y 0.000000 3.944810 0.000000 
#    z 0.000000 0.000000 3.938290 
# 
# 
# High freq. dielectric constant tensor:
#      x y z
#    x 1.906770 0.000000 0.000000 
#    y 0.000000 1.860950 0.000000 
#    z 0.000000 0.000000 1.878560 
# 
# From -- ./inp_files/5381.got.cif
#   From: 2010.03.12/outbox.cif.g09.slc.cpg/sg18_3_cif.got.tgz:5381.got - 2010.04.10 18:53:55.
