data_PCOD8156690
_publ_section_title
;
Structure prediction by ZEFSAII (Michael W. Deem and Ramdas Pophale) SiO2 
 PCOD8156690
Probable space group: P 21 21 21
;
_chemical_formula_sum "Si O2"
_cell_formula_units_Z 28
_cell_length_a 7.538443
_cell_length_b 17.162379
_cell_length_c 8.457256
_cell_angle_alpha 90.000000
_cell_angle_beta 90.000000
_cell_angle_gamma 90.000000
_cell_volume 1094.179618
_symmetry_space_group_name_H-M "P 21 21 21"
_symmetry_group_IT_number 19
_symmetry_cell_setting 'orthorhombic'
loop_
_space_group_symop_operation_xyz
x,y,z
1/2-x,-y,1/2+z
1/2+x,1/2-y,-z
-x,1/2+y,1/2-z
loop_
_atom_site_type_symbol
_atom_site_label
_atom_site_fract_x
_atom_site_fract_y
_atom_site_fract_z
Si Si1 0.591296 0.079240 0.497514
Si Si2 0.699760 0.834653 0.503290
Si Si3 0.346463 0.875439 0.687731
Si Si4 0.253870 0.960415 0.165693
Si Si5 0.625060 0.027062 0.139975
Si Si6 0.330315 0.713064 0.796081
Si Si7 0.174612 0.828927 0.394088
O O1 0.382461 0.064248 0.526695
O O2 0.633865 0.059033 0.318670
O O3 0.644866 0.170125 0.535635
O O4 0.708087 0.030172 0.620128
O O5 0.520349 0.868233 0.578977
O O6 0.851537 0.900330 0.522013
O O7 0.664596 0.814725 0.314957
O O8 0.767802 0.756296 0.593157
O O9 0.338303 0.807278 0.822621
O O10 0.176147 0.864848 0.571755
O O11 0.327213 0.962712 0.757000
O O12 0.281676 0.889297 0.285113
O O13 0.446953 0.980289 0.095555
O O14 0.480794 0.685412 0.672910
#
# Coordination Sequence:
#
# PCOD8156690 Si02
#       7
#     4   4   4   4   4   4   4
#     4  11  25  44  66  99 135 168 225 275 335 402
#     4  10  20  39  67  95 131 170 225 277 328 396
#     4  10  19  38  63  94 129 175 223 272 324 396
#     4  11  23  41  65  94 133 172 223 271 326 390
#     4  12  25  42  69  96 133 178 215 277 336 395
#     4   9  20  39  66  94 128 171 224 278 326 395
#     4   9  20  37  64  92 129 174 225 270 323 396
#
# _framework density 25.589948
#
# number of rings (size 3 to 8) (size 9 to 14) (size 15 to 20)
#    0.000    1.714    1.429    2.571    2.000    4.571 
#    0.000    5.714    0.000    0.000    0.000    0.000 
#    0.000    0.000    0.000    0.000    0.000    0.000 
#
# Total GULP energy -346910.498591 kJ/mol
# GULP energy per Si atom -12389.660664 kJ/mol
# Density = 2.553170 g / cm^3
# Si number density = 25.589948 Si / 1000 Ang^3
#
#
#
# Elastic Constant Matrix: (Units=GPa)
#
#
# Indices 1 2 3 4 5 6 
#
# 1 71.4092 0.0666 -7.6144 0.0000 0.0000 0.0000
# 2 0.0666 89.6378 -19.0118 0.0000 0.0000 0.0000
# 3 -7.6144 -19.0118 40.9338 0.0000 0.0000 0.0000
# 4 0.0000 0.0000 0.0000 32.4322 0.0000 0.0000
# 5 0.0000 0.0000 0.0000 0.0000 23.1353 0.0000
# 6 0.0000 0.0000 0.0000 0.0000 0.0000 27.0514
#
#
#
# Elastic Compliance Matrix: (Units=1/GPa)
#
#
# Indices 1 2 3 4 5 6 
#
# 1 0.014318 0.000615 0.002949 0.000000 0.000000 0.000000
# 2 0.000615 0.012401 0.005874 0.000000 0.000000 0.000000
# 3 0.002949 0.005874 0.027707 0.000000 0.000000 0.000000
# 4 0.000000 0.000000 0.000000 0.030834 0.000000 0.000000
# 5 0.000000 0.000000 0.000000 0.000000 0.043224 0.000000
# 6 0.000000 0.000000 0.000000 0.000000 0.000000 0.036967
#
#
# Mechanical properties :
#
#
# Convention : Reuss Voigt Hill
#
# Bulk Modulus (GPa) = 13.64226 16.54016 15.09121
# Shear Modulus (GPa) = 29.23842 31.75979 30.49910
#
# Velocity S-wave (km/s) = 3.38387 3.52675 3.45605
# Velocity P-wave (km/s) = 4.53983 4.80224 4.67288
#
# Compressibility (1/GPa) = 0.07330164
#
# Stress axis : x y z
#
# Youngs Moduli (GPa) = 69.84373 80.63571 36.09253
#
# Poissons Ratio (x) = -0.04958 -0.10643
# Poissons Ratio (y) = -0.04294 -0.21202
# Poissons Ratio (z) = -0.20596 -0.47367
#
# Static dielectric constant tensor:
#      x y z
#    x 4.659410 0.000000 0.000000 
#    y 0.000000 5.243200 0.000000 
#    z 0.000000 0.000000 4.084020 
# 
# 
# High freq. dielectric constant tensor:
#      x y z
#    x 2.022710 0.000000 0.000000 
#    y 0.000000 2.046970 0.000000 
#    z 0.000000 0.000000 1.981960 
# 
# From -- ./inp_files/2971.got.cif
#   From: 2010.03.12/outbox.cif.g09.slc.cpg/sg19_2_cif.got.tgz:2971.got - 2010.04.10 18:59:41.
