data_PCOD8156799
_publ_section_title
;
Structure prediction by ZEFSAII (Michael W. Deem and Ramdas Pophale) SiO2 
 PCOD8156799
Probable space group: P 21 21 21
;
_chemical_formula_sum "Si O2"
_cell_formula_units_Z 24
_cell_length_a 7.636690
_cell_length_b 13.330918
_cell_length_c 11.326555
_cell_angle_alpha 90.000000
_cell_angle_beta 90.000000
_cell_angle_gamma 90.000000
_cell_volume 1153.089604
_symmetry_space_group_name_H-M "P 21 21 21"
_symmetry_group_IT_number 19
_symmetry_cell_setting 'orthorhombic'
loop_
_space_group_symop_operation_xyz
x,y,z
1/2-x,-y,1/2+z
1/2+x,1/2-y,-z
-x,1/2+y,1/2-z
loop_
_atom_site_type_symbol
_atom_site_label
_atom_site_fract_x
_atom_site_fract_y
_atom_site_fract_z
Si Si1 0.618307 0.620594 0.750056
Si Si2 0.174816 0.100842 0.278255
Si Si3 0.190861 0.292309 0.116999
Si Si4 0.988879 0.820692 0.867508
Si Si5 0.379462 0.300952 0.571009
Si Si6 0.922290 0.718968 0.628118
O O1 0.639950 0.504681 0.786431
O O2 0.427343 0.632590 0.692458
O O3 0.637759 0.692915 0.862894
O O4 0.765895 0.640815 0.650248
O O5 0.187420 0.182021 0.174823
O O6 0.355462 0.097867 0.355134
O O7 0.016958 0.125917 0.367269
O O8 0.388903 0.335247 0.114918
O O9 0.116639 0.286057 0.985731
O O10 0.925565 0.794127 0.737292
O O11 0.810859 0.856617 0.934027
O O12 0.064298 0.722863 0.936774
#
# Coordination Sequence:
#
# PCOD8156799 Si02
#       6
#     4   4   4   4   4   4
#     4  10  22  38  60  88 117 159 207 247 299 360
#     4  10  22  38  60  88 117 159 207 247 299 360
#     4  10  20  39  62  85 122 159 195 254 305 349
#     4  10  20  37  62  85 116 159 198 243 302 354
#     4  10  20  39  62  85 122 159 195 254 305 349
#     4  10  20  37  62  85 116 159 198 243 302 354
#
# _framework density 20.813645999999999
#
# number of rings (size 3 to 8) (size 9 to 14) (size 15 to 20)
#    0.000    2.000    3.333    0.000    0.000    2.667 
#    0.000    0.000    0.000    0.000    0.000    0.000 
#    0.000    0.000    0.000    0.000    0.000    0.000 
#
# Total GULP energy -297488.122417 kJ/mol
# GULP energy per Si atom -12395.338434 kJ/mol
# Density = 2.076627 g / cm^3
# Si number density = 20.813646 Si / 1000 Ang^3
#
#
#
# Elastic Constant Matrix: (Units=GPa)
#
#
# Indices 1 2 3 4 5 6 
#
# 1 136.6719 -7.0530 -9.1077 0.0000 0.0000 0.0000
# 2 -7.0530 62.2129 -11.2108 0.0000 0.0000 0.0000
# 3 -9.1077 -11.2108 55.1237 0.0000 0.0000 0.0000
# 4 0.0000 0.0000 0.0000 15.4507 0.0000 0.0000
# 5 0.0000 0.0000 0.0000 0.0000 33.9454 0.0000
# 6 0.0000 0.0000 0.0000 0.0000 0.0000 18.9487
#
#
#
# Elastic Compliance Matrix: (Units=1/GPa)
#
#
# Indices 1 2 3 4 5 6 
#
# 1 0.007471 0.001110 0.001460 0.000000 0.000000 0.000000
# 2 0.001110 0.016850 0.003610 0.000000 0.000000 0.000000
# 3 0.001460 0.003610 0.019117 0.000000 0.000000 0.000000
# 4 0.000000 0.000000 0.000000 0.064722 0.000000 0.000000
# 5 0.000000 0.000000 0.000000 0.000000 0.029459 0.000000
# 6 0.000000 0.000000 0.000000 0.000000 0.000000 0.052774
#
#
# Mechanical properties :
#
#
# Convention : Reuss Voigt Hill
#
# Bulk Modulus (GPa) = 17.92127 22.14062 20.03094
# Shear Modulus (GPa) = 25.42826 32.42764 28.92795
#
# Velocity S-wave (km/s) = 3.49909 3.95143 3.73212
# Velocity P-wave (km/s) = 4.99539 5.61062 5.31192
#
# Compressibility (1/GPa) = 0.05579963
#
# Stress axis : x y z
#
# Youngs Moduli (GPa) = 133.84392 59.34616 52.31079
#
# Poissons Ratio (x) = -0.06588 -0.07639
# Poissons Ratio (y) = -0.14859 -0.18886
# Poissons Ratio (z) = -0.19544 -0.21426
#
# Static dielectric constant tensor:
#      x y z
#    x 4.497730 0.000000 0.000000 
#    y 0.000000 3.170680 0.000000 
#    z 0.000000 0.000000 3.718960 
# 
# 
# High freq. dielectric constant tensor:
#      x y z
#    x 1.849390 0.000000 0.000000 
#    y 0.000000 1.753440 0.000000 
#    z 0.000000 0.000000 1.816170 
# 
# From -- ./inp_files/3360.got.cif
#   From: 2010.03.12/outbox.cif.g09.slc.cpg/sg19_2_cif.got.tgz:3360.got - 2010.04.10 18:59:41.
