data_PCOD8156911
_publ_section_title
;
Structure prediction by ZEFSAII (Michael W. Deem and Ramdas Pophale) SiO2 
 PCOD8156911
Probable space group: P 21 21 21
;
_chemical_formula_sum "Si O2"
_cell_formula_units_Z 32
_cell_length_a 8.794819
_cell_length_b 9.657893
_cell_length_c 18.338450
_cell_angle_alpha 90.000000
_cell_angle_beta 90.000000
_cell_angle_gamma 90.000000
_cell_volume 1557.657322
_symmetry_space_group_name_H-M "P 21 21 21"
_symmetry_group_IT_number 19
_symmetry_cell_setting 'orthorhombic'
loop_
_space_group_symop_operation_xyz
x,y,z
1/2-x,-y,1/2+z
1/2+x,1/2-y,-z
-x,1/2+y,1/2-z
loop_
_atom_site_type_symbol
_atom_site_label
_atom_site_fract_x
_atom_site_fract_y
_atom_site_fract_z
Si Si1 0.642812 0.446903 0.172727
Si Si2 0.340214 0.218373 0.414422
Si Si3 0.899242 0.611868 0.971685
Si Si4 0.179125 0.721492 0.407766
Si Si5 0.194218 0.649632 0.669655
Si Si6 0.128574 0.961960 0.672346
Si Si7 0.281067 0.480007 0.322272
Si Si8 0.099325 0.370434 0.035238
O O1 0.639241 0.605983 0.148466
O O2 0.774071 0.363859 0.131590
O O3 0.481338 0.379943 0.154600
O O4 0.678792 0.443701 0.259120
O O5 0.505858 0.254339 0.446352
O O6 0.236953 0.161940 0.478664
O O7 0.267170 0.354268 0.378761
O O8 0.822347 0.536289 0.902370
O O9 0.009592 0.508818 0.014975
O O10 0.163040 0.598419 0.348127
O O11 0.302938 0.681270 0.467622
O O12 0.016709 0.746550 0.445089
O O13 0.257284 0.572456 0.741395
O O14 0.293180 0.592920 0.602990
O O15 0.211640 0.814620 0.676850
O O16 0.945986 0.947322 0.674987
#
# Coordination Sequence:
#
# PCOD8156911 Si02
#       8
#     4   4   4   4   4   4   4   4
#     4  11  22  39  73  94 129 174 219 263 332 386
#     4  11  23  42  66  94 134 170 208 274 328 388
#     4  11  24  43  63  99 132 168 221 270 326 398
#     4  12  23  45  67  98 129 179 219 281 324 398
#     4  11  23  41  67  99 128 178 220 271 331 396
#     4  10  20  42  67  94 129 169 225 268 312 402
#     4  10  22  43  65  95 134 168 223 270 324 399
#     4  12  25  43  68  95 137 166 229 275 331 395
#
# _framework density 20.543669999999999
#
# number of rings (size 3 to 8) (size 9 to 14) (size 15 to 20)
#    0.000    1.000    6.250    1.500    1.750    1.000 
#    4.500    0.000    0.000    0.000    0.000    0.000 
#    0.000    0.000    0.000    0.000    0.000    0.000 
#
# Total GULP energy -396946.286760 kJ/mol
# GULP energy per Si atom -12404.571461 kJ/mol
# Density = 2.049691 g / cm^3
# Si number density = 20.543670 Si / 1000 Ang^3
#
#
#
# Elastic Constant Matrix: (Units=GPa)
#
#
# Indices 1 2 3 4 5 6 
#
# 1 38.5019 21.4523 34.3966 0.0000 0.0000 0.0000
# 2 21.4523 95.3762 47.9474 0.0000 0.0000 0.0000
# 3 34.3966 47.9474 143.6980 0.0000 0.0000 0.0000
# 4 0.0000 0.0000 0.0000 38.9656 0.0000 0.0000
# 5 0.0000 0.0000 0.0000 0.0000 29.2812 0.0000
# 6 0.0000 0.0000 0.0000 0.0000 0.0000 26.7667
#
#
#
# Elastic Compliance Matrix: (Units=1/GPa)
#
#
# Indices 1 2 3 4 5 6 
#
# 1 0.034465 -0.004331 -0.006805 0.000000 0.000000 0.000000
# 2 -0.004331 0.013142 -0.003348 0.000000 0.000000 0.000000
# 3 -0.006805 -0.003348 0.009705 0.000000 0.000000 0.000000
# 4 0.000000 0.000000 0.000000 0.025664 0.000000 0.000000
# 5 0.000000 0.000000 0.000000 0.000000 0.034152 0.000000
# 6 0.000000 0.000000 0.000000 0.000000 0.000000 0.037360
#
#
# Mechanical properties :
#
#
# Convention : Reuss Voigt Hill
#
# Bulk Modulus (GPa) = 35.28083 53.90764 44.59424
# Shear Modulus (GPa) = 25.91963 30.58802 28.25382
#
# Velocity S-wave (km/s) = 3.55587 3.86285 3.71253
# Velocity P-wave (km/s) = 5.83694 6.79654 6.33493
#
# Compressibility (1/GPa) = 0.02834400
#
# Stress axis : x y z
#
# Youngs Moduli (GPa) = 29.01491 76.09028 103.03863
#
# Poissons Ratio (x) = 0.32956 0.70114
# Poissons Ratio (y) = 0.12567 0.34502
# Poissons Ratio (z) = 0.19744 0.25478
#
# Static dielectric constant tensor:
#      x y z
#    x 3.483380 0.000000 0.000000 
#    y 0.000000 3.835960 0.000000 
#    z 0.000000 0.000000 4.007640 
# 
# 
# High freq. dielectric constant tensor:
#      x y z
#    x 1.774370 0.000000 0.000000 
#    y 0.000000 1.811280 0.000000 
#    z 0.000000 0.000000 1.823730 
# 
# From -- ./inp_files/7045.got.cif
#   From: 2010.03.12/outbox.cif.g09.slc.cpg/sg19_4_cif.got.tgz:7045.got - 2010.04.10 18:59:41.
