data_PCOD8156449
_publ_section_title
;
Structure prediction by ZEFSAII (Michael W. Deem and Ramdas Pophale) SiO2 
 PCOD8156449
Probable space group: P 21 21 2
;
_chemical_formula_sum "Si O2"
_cell_formula_units_Z 16
_cell_length_a 5.285644
_cell_length_b 13.929238
_cell_length_c 10.178341
_cell_angle_alpha 90.000000
_cell_angle_beta 90.000000
_cell_angle_gamma 90.000000
_cell_volume 749.380288
_symmetry_space_group_name_H-M "P 21 21 2"
_symmetry_group_IT_number 18
_symmetry_cell_setting 'orthorhombic'
loop_
_space_group_symop_operation_xyz
x,y,z
-x,-y,z
1/2+x,1/2-y,-z
1/2-x,1/2+y,-z
loop_
_atom_site_type_symbol
_atom_site_label
_atom_site_fract_x
_atom_site_fract_y
_atom_site_fract_z
Si Si1 0.117778 0.099085 0.729718
Si Si2 0.081318 0.604523 0.010501
Si Si3 0.427541 0.227817 0.575654
Si Si4 0.221892 0.255207 0.183505
O O1 0.212138 0.086546 0.877783
O O2 0.337922 0.121203 0.622432
O O3 0.928863 0.190118 0.727290
O O4 0.000000 0.000000 0.680807
O O5 0.000000 0.500000 0.960506
O O6 0.858453 0.669906 0.070103
O O7 0.186422 0.657830 0.882909
O O8 0.182021 0.280394 0.512555
O O9 0.500897 0.278357 0.715445
#
# Coordination Sequence:
#
# PCOD8156449 Si02
#       4
#     4   4   4   4
#     4  11  22  40  71 105 138 181 239 286 352 424
#     4  11  22  37  67 109 146 180 231 291 363 431
#     4  11  24  45  71  96 137 189 236 291 344 409
#     4  11  22  39  70 101 144 187 225 295 356 415
#
# _framework density 21.350974999999998
#
# number of rings (size 3 to 8) (size 9 to 14) (size 15 to 20)
#    0.000    1.000    7.500    0.000    0.000    0.000 
#    0.000    0.000   11.000    0.000    0.000    0.000 
#    0.000    0.000    0.000    0.000    0.000    0.000 
#
# Total GULP energy -198236.059925 kJ/mol
# GULP energy per Si atom -12389.753745 kJ/mol
# Density = 2.130238 g / cm^3
# Si number density = 21.350975 Si / 1000 Ang^3
#
#
#
# Elastic Constant Matrix: (Units=GPa)
#
#
# Indices 1 2 3 4 5 6 
#
# 1 128.4586 70.8908 62.9169 0.0000 0.0000 0.0000
# 2 70.8908 150.3859 83.8819 0.0000 0.0000 0.0000
# 3 62.9169 83.8819 114.6706 0.0000 0.0000 0.0000
# 4 0.0000 0.0000 0.0000 18.3654 0.0000 0.0000
# 5 0.0000 0.0000 0.0000 0.0000 33.9952 0.0000
# 6 0.0000 0.0000 0.0000 0.0000 0.0000 40.5163
#
#
#
# Elastic Compliance Matrix: (Units=1/GPa)
#
#
# Indices 1 2 3 4 5 6 
#
# 1 0.011495 -0.003211 -0.003958 0.000000 0.000000 0.000000
# 2 -0.003211 0.012130 -0.007111 0.000000 0.000000 0.000000
# 3 -0.003958 -0.007111 0.016094 0.000000 0.000000 0.000000
# 4 0.000000 0.000000 0.000000 0.054450 0.000000 0.000000
# 5 0.000000 0.000000 0.000000 0.000000 0.029416 0.000000
# 6 0.000000 0.000000 0.000000 0.000000 0.000000 0.024681
#
#
# Mechanical properties :
#
#
# Convention : Reuss Voigt Hill
#
# Bulk Modulus (GPa) = 89.61855 92.09936 90.85896
# Shear Modulus (GPa) = 27.69361 30.29707 28.99534
#
# Velocity S-wave (km/s) = 3.60539 3.77105 3.68915
# Velocity P-wave (km/s) = 7.70694 7.88610 7.79703
#
# Compressibility (1/GPa) = 0.01115840
#
# Stress axis : x y z
#
# Youngs Moduli (GPa) = 86.99183 82.44332 62.13382
#
# Poissons Ratio (x) = 0.26472 0.24595
# Poissons Ratio (y) = 0.27932 0.44184
# Poissons Ratio (z) = 0.34435 0.58626
#
# Static dielectric constant tensor:
#      x y z
#    x 4.275670 0.000000 0.000000 
#    y 0.000000 3.649090 0.000000 
#    z 0.000000 0.000000 3.896110 
# 
# 
# High freq. dielectric constant tensor:
#      x y z
#    x 1.855390 0.000000 0.000000 
#    y 0.000000 1.806800 0.000000 
#    z 0.000000 0.000000 1.835100 
# 
# From -- ./inp_files/4078.got.cif
#   From: 2010.03.12/outbox.cif.g09.slc.cpg/sg18_3_cif.got.tgz:4078.got - 2010.04.10 18:53:55.
