data_PCOD8156032
_publ_section_title
;
Structure prediction by ZEFSAII (Michael W. Deem and Ramdas Pophale) SiO2 
 PCOD8156032
Probable space group: P 21 21 2
;
_chemical_formula_sum "Si O2"
_cell_formula_units_Z 30
_cell_length_a 4.958062
_cell_length_b 12.438662
_cell_length_c 22.094248
_cell_angle_alpha 90.000000
_cell_angle_beta 90.000000
_cell_angle_gamma 90.000000
_cell_volume 1362.588893
_symmetry_space_group_name_H-M "P 21 21 2"
_symmetry_group_IT_number 18
_symmetry_cell_setting 'orthorhombic'
loop_
_space_group_symop_operation_xyz
x,y,z
-x,-y,z
1/2+x,1/2-y,-z
1/2-x,1/2+y,-z
loop_
_atom_site_type_symbol
_atom_site_label
_atom_site_fract_x
_atom_site_fract_y
_atom_site_fract_z
Si Si1 0.597327 0.745283 0.789817
Si Si2 0.452554 0.185763 0.363128
Si Si3 0.465449 0.749884 0.920781
Si Si4 0.886731 0.678397 0.507834
Si Si5 0.106183 0.612228 0.762506
Si Si6 0.462657 0.874848 0.038975
Si Si7 0.000000 0.500000 0.419741
Si Si8 0.953052 0.318288 0.336367
O O1 0.541442 0.798810 0.855093
O O2 0.403971 0.639971 0.786124
O O3 0.523372 0.832180 0.736901
O O4 0.906043 0.707463 0.783308
O O5 0.476993 0.134771 0.430014
O O6 0.366143 0.102316 0.310991
O O7 0.750786 0.221366 0.345494
O O8 0.244516 0.286438 0.364332
O O9 0.665932 0.653705 0.938397
O O10 0.169811 0.696558 0.921584
O O11 0.495033 0.847902 0.967838
O O12 0.109811 0.758265 0.477764
O O13 0.823631 0.577176 0.463760
O O14 0.000000 0.500000 0.789522
O O15 0.500000 0.000000 0.049974
O O16 0.838583 0.422816 0.372576
#
# Coordination Sequence:
#
# PCOD8156032 Si02
#       8
#     4   4   4   4   4   4   2   4
#     4  10  21  38  56  83 118 154 189 244 280 345
#     4  10  20  41  53  78 115 144 179 243 294 337
#     4  10  21  37  59  86 122 156 197 235 296 334
#     4  12  24  40  61  88 115 148 195 248 290 358
#     4  10  21  34  57  80 113 151 193 239 297 346
#     4  10  21  37  59  89 121 158 190 247 282 339
#     4  12  24  40  66  88 114 158 198 236 304 352
#     4  10  22  39  60  79 114 148 188 235 288 337
#
# _framework density 22.016909999999999
#
# number of rings (size 3 to 8) (size 9 to 14) (size 15 to 20)
#    0.000    1.600    2.667    1.600    0.933    5.333 
#    1.200    0.000    0.000    0.000    0.000    0.000 
#    0.000    0.000    0.000    0.000    0.000    0.000 
#
# Total GULP energy -371788.606313 kJ/mol
# GULP energy per Si atom -12392.953544 kJ/mol
# Density = 2.196680 g / cm^3
# Si number density = 22.016910 Si / 1000 Ang^3
#
#
#
# Elastic Constant Matrix: (Units=GPa)
#
#
# Indices 1 2 3 4 5 6 
#
# 1 77.1535 0.1784 4.4119 0.0000 0.0000 0.0000
# 2 0.1784 57.4817 20.1730 0.0000 0.0000 0.0000
# 3 4.4119 20.1730 150.0810 0.0000 0.0000 0.0000
# 4 0.0000 0.0000 0.0000 16.5673 0.0000 0.0000
# 5 0.0000 0.0000 0.0000 0.0000 24.6951 0.0000
# 6 0.0000 0.0000 0.0000 0.0000 0.0000 14.9942
#
#
#
# Elastic Compliance Matrix: (Units=1/GPa)
#
#
# Indices 1 2 3 4 5 6 
#
# 1 0.012984 0.000098 -0.000395 0.000000 0.000000 0.000000
# 2 0.000098 0.018259 -0.002457 0.000000 0.000000 0.000000
# 3 -0.000395 -0.002457 0.007005 0.000000 0.000000 0.000000
# 4 0.000000 0.000000 0.000000 0.060360 0.000000 0.000000
# 5 0.000000 0.000000 0.000000 0.000000 0.040494 0.000000
# 6 0.000000 0.000000 0.000000 0.000000 0.000000 0.066692
#
#
# Mechanical properties :
#
#
# Convention : Reuss Voigt Hill
#
# Bulk Modulus (GPa) = 30.54382 37.13812 33.84097
# Shear Modulus (GPa) = 22.50080 28.58150 25.54115
#
# Velocity S-wave (km/s) = 3.20031 3.60691 3.40967
# Velocity P-wave (km/s) = 5.24966 5.85244 5.55923
#
# Compressibility (1/GPa) = 0.03273984
#
# Stress axis : x y z
#
# Youngs Moduli (GPa) = 77.02067 54.76794 142.75619
#
# Poissons Ratio (x) = -0.00538 0.05637
# Poissons Ratio (y) = -0.00757 0.35077
# Poissons Ratio (z) = 0.03041 0.13457
#
# Static dielectric constant tensor:
#      x y z
#    x 3.916190 0.000000 0.000000 
#    y 0.000000 3.460560 0.000000 
#    z 0.000000 0.000000 4.421910 
# 
# 
# High freq. dielectric constant tensor:
#      x y z
#    x 1.867690 0.000000 0.000000 
#    y 0.000000 1.812130 0.000000 
#    z 0.000000 0.000000 1.889930 
# 
# From -- ./inp_files/7510.got.cif
#   From: 2010.03.12/outbox.cif.g09.slc.cpg/sg18_4_cif.got.tgz:7510.got - 2010.04.10 18:53:55.
