data_PCOD8156081
_publ_section_title
;
Structure prediction by ZEFSAII (Michael W. Deem and Ramdas Pophale) SiO2 
 PCOD8156081
Probable space group: P 21 21 2
;
_chemical_formula_sum "Si O2"
_cell_formula_units_Z 30
_cell_length_a 15.674112
_cell_length_b 7.398827
_cell_length_c 12.167883
_cell_angle_alpha 90.000000
_cell_angle_beta 90.000000
_cell_angle_gamma 90.000000
_cell_volume 1411.109916
_symmetry_space_group_name_H-M "P 21 21 2"
_symmetry_group_IT_number 18
_symmetry_cell_setting 'orthorhombic'
loop_
_space_group_symop_operation_xyz
x,y,z
-x,-y,z
1/2+x,1/2-y,-z
1/2-x,1/2+y,-z
loop_
_atom_site_type_symbol
_atom_site_label
_atom_site_fract_x
_atom_site_fract_y
_atom_site_fract_z
Si Si1 0.511836 0.285302 0.016615
Si Si2 0.166574 0.745104 0.892885
Si Si3 0.303213 0.162695 0.724656
Si Si4 0.305585 0.656864 0.072509
Si Si5 0.500000 0.500000 0.621007
Si Si6 0.322202 0.435568 0.546476
Si Si7 0.250390 0.286801 0.333004
Si Si8 0.489386 0.197661 0.772709
O O1 0.500000 0.500000 0.012693
O O2 0.521072 0.204843 0.895837
O O3 0.432345 0.186772 0.080226
O O4 0.605945 0.230297 0.062401
O O5 0.189990 0.707254 0.764756
O O6 0.166234 0.953767 0.917084
O O7 0.238545 0.657131 0.971137
O O8 0.234479 0.225599 0.814207
O O9 0.281290 0.263356 0.610213
O O10 0.390035 0.250593 0.768796
O O11 0.312815 0.942010 0.717231
O O12 0.424613 0.424751 0.545909
O O13 0.539732 0.341409 0.697734
O O14 0.301597 0.413696 0.418511
O O15 0.292616 0.623132 0.601865
O O16 0.500000 0.000000 0.720930
#
# Coordination Sequence:
#
# PCOD8156081 Si02
#       8
#     4   4   4   4   2   4   4   4
#     4  10  21  38  56  87 129 166 201 248 310 386
#     4  10  23  39  60  91 125 166 204 251 317 378
#     4  10  22  41  61  92 123 162 211 260 312 376
#     4  10  22  36  61  90 122 165 204 249 311 378
#     4  10  24  40  62  90 120 166 208 268 316 354
#     4  11  23  43  67  89 123 163 216 264 316 367
#     4  11  23  42  67  89 123 168 210 262 314 374
#     4  11  21  35  61  91 124 157 207 263 308 367
#
# _framework density 21.259858999999999
#
# number of rings (size 3 to 8) (size 9 to 14) (size 15 to 20)
#    0.000    1.600    3.333    0.800    7.467    0.000 
#    6.000    0.000    0.000    1.600    0.000    0.000 
#    0.000    0.000    0.000    0.000    0.000    0.000 
#
# Total GULP energy -371738.725545 kJ/mol
# GULP energy per Si atom -12391.290851 kJ/mol
# Density = 2.121147 g / cm^3
# Si number density = 21.259859 Si / 1000 Ang^3
#
#
#
# Elastic Constant Matrix: (Units=GPa)
#
#
# Indices 1 2 3 4 5 6 
#
# 1 103.4134 -6.1215 29.6396 0.0000 0.0000 0.0000
# 2 -6.1215 55.3330 -1.0227 0.0000 0.0000 0.0000
# 3 29.6396 -1.0227 91.5146 0.0000 0.0000 0.0000
# 4 0.0000 0.0000 0.0000 39.3050 0.0000 0.0000
# 5 0.0000 0.0000 0.0000 0.0000 17.4003 0.0000
# 6 0.0000 0.0000 0.0000 0.0000 0.000019720.2046
#
#
#
# Elastic Compliance Matrix: (Units=1/GPa)
#
#
# Indices 1 2 3 4 5 6 
#
# 1 0.010729 0.001123 -0.003462 0.000000 0.000000 0.000000
# 2 0.001123 0.018194 -0.000160 0.000000 0.000000 0.000000
# 3 -0.003462 -0.000160 0.012047 0.000000 0.000000 0.000000
# 4 0.000000 0.000000 0.000000 0.025442 0.000000 0.000000
# 5 0.000000 0.000000 0.000000 0.000000 0.057470 0.000000
# 6 0.000000 0.000000 0.000000 0.000000 0.000000 0.000051
#
#
# Mechanical properties :
#
#
# Convention : Reuss Voigt Hill
#
# Bulk Modulus (GPa) = 27.80111 32.80574 30.30342
# Shear Modulus (GPa) = 35.48078 3970.56637 2003.02357
#
# Velocity S-wave (km/s) = 4.08966 43.26303 30.72796
# Velocity P-wave (km/s) = 5.95026 50.11039 35.68232
#
# Compressibility (1/GPa) = 0.03596979
#
# Stress axis : x y z
#
# Youngs Moduli (GPa) = 93.20775 54.96419 83.00983
#
# Poissons Ratio (x) = -0.06172 0.28740
# Poissons Ratio (y) = -0.10467 0.01331
# Poissons Ratio (z) = 0.32271 0.00881
#
# Static dielectric constant tensor:
#      x y z
#    x 0.000000 0.000000 0.000000 
#    y 0.000000 0.000000 0.000000 
#    z 0.000000 0.000000 0.000000 
# 
# 
# High freq. dielectric constant tensor:
#      x y z
#    x 1.833910 0.000000 0.000000 
#    y 0.000000 1.838330 0.000000 
#    z 0.000000 0.000000 1.821600 
# 
# From -- ./inp_files/5637.got.cif
#   From: 2010.03.12/outbox.cif.g09.slc.cpg/sg18_3_cif.got.tgz:5637.got - 2010.04.10 18:53:55.
