data_PCOD8156190
_publ_section_title
;
Structure prediction by ZEFSAII (Michael W. Deem and Ramdas Pophale) SiO2 
 PCOD8156190
Probable space group: P 21 21 2
;
_chemical_formula_sum "Si O2"
_cell_formula_units_Z 20
_cell_length_a 12.295755
_cell_length_b 12.621060
_cell_length_c 6.273153
_cell_angle_alpha 90.000000
_cell_angle_beta 90.000000
_cell_angle_gamma 90.000000
_cell_volume 973.502144
_symmetry_space_group_name_H-M "P 21 21 2"
_symmetry_group_IT_number 18
_symmetry_cell_setting 'orthorhombic'
loop_
_space_group_symop_operation_xyz
x,y,z
-x,-y,z
1/2+x,1/2-y,-z
1/2-x,1/2+y,-z
loop_
_atom_site_type_symbol
_atom_site_label
_atom_site_fract_x
_atom_site_fract_y
_atom_site_fract_z
Si Si1 0.126097 0.251549 0.410859
Si Si2 0.761340 0.118574 0.900207
Si Si3 0.517500 0.704186 0.965646
Si Si4 0.564538 0.105762 0.211221
Si Si5 0.104475 0.062134 0.710602
O O1 0.223731 0.285326 0.253748
O O2 0.017727 0.226325 0.275854
O O3 0.104633 0.350688 0.563109
O O4 0.154547 0.145922 0.543565
O O5 0.797729 0.017693 0.761561
O O6 0.665869 0.082773 0.056604
O O7 0.860871 0.159811 0.042931
O O8 0.517302 0.811365 0.102702
O O9 0.434530 0.620737 0.073914
O O10 0.500000 0.000000 0.258337
O O11 0.000000 0.000000 0.612339
#
# Coordination Sequence:
#
# PCOD8156190 Si02
#       5
#     4   4   4   4   4
#     4  10  22  39  61  90 119 155 201 247 295 355
#     4  10  22  40  63  88 118 159 198 243 301 351
#     4   9  21  41  59  82 118 154 199 248 286 348
#     4  10  23  39  57  88 124 155 191 243 303 356
#     4   9  20  39  62  88 117 155 202 245 292 350
#
# _framework density 20.544381000000001
#
# number of rings (size 3 to 8) (size 9 to 14) (size 15 to 20)
#    0.000    2.400    0.000    0.000    0.000   18.400 
#    0.000    4.000    0.000    0.000    0.000    0.000 
#    0.000    0.000    0.000    0.000    0.000    0.000 
#
# Total GULP energy -248042.527807 kJ/mol
# GULP energy per Si atom -12402.126390 kJ/mol
# Density = 2.049762 g / cm^3
# Si number density = 20.544381 Si / 1000 Ang^3
#
#
#
# Elastic Constant Matrix: (Units=GPa)
#
#
# Indices 1 2 3 4 5 6 
#
# 1 102.3077 57.9474 49.9335 0.0000 0.0000 0.0000
# 2 57.9474 128.6774 40.6764 0.0000 0.0000 0.0000
# 3 49.9335 40.6764 99.4156 0.0000 0.0000 0.0000
# 4 0.0000 0.0000 0.0000 18.2737 0.0000 0.0000
# 5 0.0000 0.0000 0.0000 0.0000 15.0791 0.0000
# 6 0.0000 0.0000 0.0000 0.0000 0.0000 34.3446
#
#
#
# Elastic Compliance Matrix: (Units=1/GPa)
#
#
# Indices 1 2 3 4 5 6 
#
# 1 0.015464 -0.005179 -0.005649 0.000000 0.000000 0.000000
# 2 -0.005179 0.010660 -0.001761 0.000000 0.000000 0.000000
# 3 -0.005649 -0.001761 0.013616 0.000000 0.000000 0.000000
# 4 0.000000 0.000000 0.000000 0.054723 0.000000 0.000000
# 5 0.000000 0.000000 0.000000 0.000000 0.066317 0.000000
# 6 0.000000 0.000000 0.000000 0.000000 0.000000 0.029117
#
#
# Mechanical properties :
#
#
# Convention : Reuss Voigt Hill
#
# Bulk Modulus (GPa) = 68.65586 69.72394 69.18990
# Shear Modulus (GPa) = 22.73467 25.66235 24.19851
#
# Velocity S-wave (km/s) = 3.33019 3.53812 3.43573
# Velocity P-wave (km/s) = 6.94822 7.12060 7.03494
#
# Compressibility (1/GPa) = 0.01456540
#
# Stress axis : x y z
#
# Youngs Moduli (GPa) = 64.66429 93.80884 73.44197
#
# Poissons Ratio (x) = 0.48580 0.41484
# Poissons Ratio (y) = 0.33487 0.12930
# Poissons Ratio (z) = 0.36526 0.16515
#
# Static dielectric constant tensor:
#      x y z
#    x 3.537990 0.000000 0.000000 
#    y 0.000000 3.881680 0.000000 
#    z 0.000000 0.000000 3.666330 
# 
# 
# High freq. dielectric constant tensor:
#      x y z
#    x 1.791410 0.000000 0.000000 
#    y 0.000000 1.815580 0.000000 
#    z 0.000000 0.000000 1.801740 
# 
# From -- ./inp_files/956.got.cif
#   From: 2010.03.12/outbox.cif.g09.slc.cpg/sg18_1_cif.got.tgz:956.got - 2010.04.10 18:53:55.
