data_PCOD8156484
_publ_section_title
;
Structure prediction by ZEFSAII (Michael W. Deem and Ramdas Pophale) SiO2 
 PCOD8156484
Probable space group: P 21 21 2
;
_chemical_formula_sum "Si O2"
_cell_formula_units_Z 18
_cell_length_a 5.621067
_cell_length_b 7.601930
_cell_length_c 16.842554
_cell_angle_alpha 90.000000
_cell_angle_beta 90.000000
_cell_angle_gamma 90.000000
_cell_volume 719.698465
_symmetry_space_group_name_H-M "P 21 21 2"
_symmetry_group_IT_number 18
_symmetry_cell_setting 'orthorhombic'
loop_
_space_group_symop_operation_xyz
x,y,z
-x,-y,z
1/2+x,1/2-y,-z
1/2-x,1/2+y,-z
loop_
_atom_site_type_symbol
_atom_site_label
_atom_site_fract_x
_atom_site_fract_y
_atom_site_fract_z
Si Si1 0.000000 0.000000 0.973772
Si Si2 0.000000 0.500000 0.642502
Si Si3 0.252331 0.649862 0.502934
Si Si4 0.172175 0.349831 0.894916
Si Si5 0.000000 0.500000 0.367186
Si Si6 0.371520 0.321328 0.731560
O O1 0.050609 0.167249 0.918728
O O2 0.780251 0.055087 0.028347
O O3 0.778582 0.448613 0.586153
O O4 0.897771 0.661578 0.695700
O O5 0.519034 0.723493 0.506137
O O6 0.229793 0.517228 0.426499
O O7 0.361147 0.296166 0.826913
O O8 0.000000 0.500000 0.858116
O O9 0.978034 0.666027 0.308650
O O10 0.500000 0.500000 0.710975
#
# Coordination Sequence:
#
# PCOD8156484 Si02
#       6
#     2   2   4   4   2   4
#     4  12  26  48  78 108 146 194 260 292 386 472
#     4  11  24  42  72  99 156 194 252 309 390 446
#     4  11  24  47  73 110 152 211 265 328 387 470
#     4  12  26  46  77 111 150 199 245 318 381 463
#     4  11  26  46  76 109 152 200 264 317 394 466
#     4  12  26  49  73 111 150 196 247 328 382 462
#
# _framework density 25.010473999999999
#
# number of rings (size 3 to 8) (size 9 to 14) (size 15 to 20)
#    0.000    0.444    6.667    1.333    0.000    6.222 
#    8.000    0.000    0.000    0.000    0.000    0.000 
#    0.000    0.000    0.000    0.000    0.000    0.000 
#
# Total GULP energy -223021.228676 kJ/mol
# GULP energy per Si atom -12390.068260 kJ/mol
# Density = 2.495355 g / cm^3
# Si number density = 25.010474 Si / 1000 Ang^3
#
#
#
# Elastic Constant Matrix: (Units=GPa)
#
#
# Indices 1 2 3 4 5 6 
#
# 1 102.2313 48.8581 28.6356 0.0000 0.0000 0.0000
# 2 48.8581 163.4385 68.0532 0.0000 0.0000 0.0000
# 3 28.6356 68.0532 140.8524 0.0000 0.0000 0.0000
# 4 0.0000 0.0000 0.0000 39.6297 0.0000 0.0000
# 5 0.0000 0.0000 0.0000 0.0000 28.6766 0.0000
# 6 0.0000 0.0000 0.0000 0.0000 0.0000 43.7194
#
#
#
# Elastic Compliance Matrix: (Units=1/GPa)
#
#
# Indices 1 2 3 4 5 6 
#
# 1 0.011492 -0.003083 -0.000847 0.000000 0.000000 0.000000
# 2 -0.003083 0.008486 -0.003473 0.000000 0.000000 0.000000
# 3 -0.000847 -0.003473 0.008950 0.000000 0.000000 0.000000
# 4 0.000000 0.000000 0.000000 0.025234 0.000000 0.000000
# 5 0.000000 0.000000 0.000000 0.000000 0.034872 0.000000
# 6 0.000000 0.000000 0.000000 0.000000 0.000000 0.022873
#
#
# Mechanical properties :
#
#
# Convention : Reuss Voigt Hill
#
# Bulk Modulus (GPa) = 70.81029 77.51288 74.16158
# Shear Modulus (GPa) = 38.04567 39.80350 38.92459
#
# Velocity S-wave (km/s) = 3.90447 3.99366 3.94932
# Velocity P-wave (km/s) = 6.97856 7.23361 7.10723
#
# Compressibility (1/GPa) = 0.01412224
#
# Stress axis : x y z
#
# Youngs Moduli (GPa) = 87.01472 117.83574 111.73149
#
# Poissons Ratio (x) = 0.36327 0.09463
# Poissons Ratio (y) = 0.26825 0.38810
# Poissons Ratio (z) = 0.07369 0.40930
#
# Static dielectric constant tensor:
#      x y z
#    x 4.526120 0.000000 0.000000 
#    y 0.000000 4.945610 0.000000 
#    z 0.000000 0.000000 4.682360 
# 
# 
# High freq. dielectric constant tensor:
#      x y z
#    x 1.987540 0.000000 0.000000 
#    y 0.000000 2.003700 0.000000 
#    z 0.000000 0.000000 2.012190 
# 
# From -- ./inp_files/7063.got.cif
#   From: 2010.03.12/outbox.cif.g09.slc.cpg/sg18_4_cif.got.tgz:7063.got - 2010.04.10 18:53:55.
