data_PCOD8156218
_publ_section_title
;
Structure prediction by ZEFSAII (Michael W. Deem and Ramdas Pophale) SiO2 
 PCOD8156218
Probable space group: P 21 21 2
;
_chemical_formula_sum "Si O2"
_cell_formula_units_Z 32
_cell_length_a 10.849078
_cell_length_b 12.122936
_cell_length_c 10.880295
_cell_angle_alpha 90.000000
_cell_angle_beta 90.000000
_cell_angle_gamma 90.000000
_cell_volume 1431.005539
_symmetry_space_group_name_H-M "P 21 21 2"
_symmetry_group_IT_number 18
_symmetry_cell_setting 'orthorhombic'
loop_
_space_group_symop_operation_xyz
x,y,z
-x,-y,z
1/2+x,1/2-y,-z
1/2-x,1/2+y,-z
loop_
_atom_site_type_symbol
_atom_site_label
_atom_site_fract_x
_atom_site_fract_y
_atom_site_fract_z
Si Si1 0.046738 0.674190 0.927858
Si Si2 0.696978 0.862750 0.834482
Si Si3 0.329840 0.033163 0.581048
Si Si4 0.428406 0.607698 0.020427
Si Si5 0.543976 0.160784 0.469982
Si Si6 0.593060 0.400532 0.546456
Si Si7 0.273738 0.603745 0.790646
Si Si8 0.316507 0.865493 0.214645
O O1 0.136867 0.651223 0.812545
O O2 0.029797 0.805307 0.935303
O O3 0.911899 0.622449 0.899727
O O4 0.098781 0.625967 0.055204
O O5 0.640641 0.928147 0.719354
O O6 0.827679 0.916001 0.873616
O O7 0.721917 0.735447 0.799880
O O8 0.409494 0.104395 0.482189
O O9 0.186095 0.052618 0.555821
O O10 0.365396 0.904145 0.565561
O O11 0.500000 0.500000 0.984135
O O12 0.358778 0.651064 0.899404
O O13 0.526583 0.290582 0.497158
O O14 0.601530 0.145863 0.336069
O O15 0.500000 0.500000 0.578628
O O16 0.668046 0.356992 0.663914
O O17 0.270618 0.471104 0.785631
#
# Coordination Sequence:
#
# PCOD8156218 Si02
#       8
#     4   4   4   4   4   4   4   4
#     4  10  23  41  66  95 132 182 227 283 353 417
#     4  10  23  42  65  96 136 173 221 289 345 411
#     4  11  25  47  66 104 142 183 234 286 365 416
#     4  10  22  41  64  97 130 173 222 280 352 414
#     4  11  26  45  72 102 142 190 235 297 356 438
#     4  12  27  43  74 107 138 188 239 296 358 427
#     4  11  23  41  68 101 131 178 233 286 343 428
#     4  11  21  43  69  95 135 182 231 287 342 427
#
# _framework density 22.361898
#
# number of rings (size 3 to 8) (size 9 to 14) (size 15 to 20)
#    0.000    1.250    2.500    2.250    7.000    1.500 
#    9.000    0.000    0.000    0.000    0.000    0.000 
#    0.000    0.000    0.000    0.000    0.000    0.000 
#
# Total GULP energy -396838.380103 kJ/mol
# GULP energy per Si atom -12401.199378 kJ/mol
# Density = 2.231100 g / cm^3
# Si number density = 22.361898 Si / 1000 Ang^3
#
#
#
# Elastic Constant Matrix: (Units=GPa)
#
#
# Indices 1 2 3 4 5 6 
#
# 1 54.4148 26.8181 15.3024 0.0000 0.0000 0.0000
# 2 26.8181 89.2596 16.6812 0.0000 0.0000 0.0000
# 3 15.3024 16.6812 106.8916 0.0000 0.0000 0.0000
# 4 0.0000 0.0000 0.0000 29.4916 0.0000 0.0000
# 5 0.0000 0.0000 0.0000 0.0000 27.3737 0.0000
# 6 0.0000 0.0000 0.0000 0.0000 0.0000 37.7534
#
#
#
# Elastic Compliance Matrix: (Units=1/GPa)
#
#
# Indices 1 2 3 4 5 6 
#
# 1 0.022057 -0.006218 -0.002187 0.000000 0.000000 0.000000
# 2 -0.006218 0.013293 -0.001184 0.000000 0.000000 0.000000
# 3 -0.002187 -0.001184 0.009853 0.000000 0.000000 0.000000
# 4 0.000000 0.000000 0.000000 0.033908 0.000000 0.000000
# 5 0.000000 0.000000 0.000000 0.000000 0.036531 0.000000
# 6 0.000000 0.000000 0.000000 0.000000 0.000000 0.026488
#
#
# Mechanical properties :
#
#
# Convention : Reuss Voigt Hill
#
# Bulk Modulus (GPa) = 38.42663 40.90769 39.66716
# Shear Modulus (GPa) = 29.41446 31.70802 30.56124
#
# Velocity S-wave (km/s) = 3.63076 3.76965 3.70085
# Velocity P-wave (km/s) = 5.89897 6.10575 6.00325
#
# Compressibility (1/GPa) = 0.02602362
#
# Stress axis : x y z
#
# Youngs Moduli (GPa) = 45.33682 75.22823 101.48979
#
# Poissons Ratio (x) = 0.46779 0.22198
# Poissons Ratio (y) = 0.28192 0.12019
# Poissons Ratio (z) = 0.09916 0.08909
#
# Static dielectric constant tensor:
#      x y z
#    x 4.083810 0.000000 0.000000 
#    y 0.000000 3.970920 0.000000 
#    z 0.000000 0.000000 3.992100 
# 
# 
# High freq. dielectric constant tensor:
#      x y z
#    x 1.884250 0.000000 0.000000 
#    y 0.000000 1.873410 0.000000 
#    z 0.000000 0.000000 1.882180 
# 
# From -- ./inp_files/5969.got.cif
#   From: 2010.03.12/outbox.cif.g09.slc.cpg/sg18_3_cif.got.tgz:5969.got - 2010.04.10 18:53:55.
