data_PCOD8156178
_publ_section_title
;
Structure prediction by ZEFSAII (Michael W. Deem and Ramdas Pophale) SiO2 
 PCOD8156178
Probable space group: P 21 21 2
;
_chemical_formula_sum "Si O2"
_cell_formula_units_Z 24
_cell_length_a 13.947288
_cell_length_b 8.175696
_cell_length_c 8.610183
_cell_angle_alpha 90.000000
_cell_angle_beta 90.000000
_cell_angle_gamma 90.000000
_cell_volume 981.808721
_symmetry_space_group_name_H-M "P 21 21 2"
_symmetry_group_IT_number 18
_symmetry_cell_setting 'orthorhombic'
loop_
_space_group_symop_operation_xyz
x,y,z
-x,-y,z
1/2+x,1/2-y,-z
1/2-x,1/2+y,-z
loop_
_atom_site_type_symbol
_atom_site_label
_atom_site_fract_x
_atom_site_fract_y
_atom_site_fract_z
Si Si1 0.770547 0.541593 0.936906
Si Si2 0.893469 0.823810 0.056233
Si Si3 0.725224 0.657439 0.592083
Si Si4 0.553869 0.830904 0.475469
Si Si5 0.059625 0.663251 0.881992
Si Si6 0.618953 0.336852 0.581845
O O1 0.664509 0.488694 0.999185
O O2 0.765664 0.619580 0.763759
O O3 0.834104 0.372275 0.949034
O O4 0.822400 0.671177 0.043499
O O5 0.908093 0.839355 0.238018
O O6 0.995958 0.805780 0.967134
O O7 0.649551 0.809321 0.581619
O O8 0.670140 0.500752 0.525062
O O9 0.814763 0.686959 0.477745
O O10 0.580993 0.808364 0.297279
O O11 0.483567 0.678984 0.502793
O O12 0.500000 0.000000 0.518298
O O13 0.000000 0.500000 0.906365
#
# Coordination Sequence:
#
# PCOD8156178 Si02
#       6
#     4   4   4   4   4   4
#     4  10  22  42  61  88 126 168 217 273 328 394
#     4  10  22  38  62  91 125 167 213 269 334 396
#     4  11  23  42  65  92 131 172 218 274 326 397
#     4  11  22  39  65  94 124 166 213 267 333 399
#     4   9  19  40  63  88 126 167 208 265 333 395
#     4  11  23  39  61  95 129 168 220 272 328 391
#
# _framework density 24.444679000000001
#
# number of rings (size 3 to 8) (size 9 to 14) (size 15 to 20)
#    0.000    1.667    0.000    6.500    0.000    7.333 
#    0.000    4.167    0.000    0.000    0.000    0.000 
#    0.000    0.000    0.000    0.000    0.000    0.000 
#
# Total GULP energy -297360.056172 kJ/mol
# GULP energy per Si atom -12390.002340 kJ/mol
# Density = 2.438904 g / cm^3
# Si number density = 24.444679 Si / 1000 Ang^3
#
#
#
# Elastic Constant Matrix: (Units=GPa)
#
#
# Indices 1 2 3 4 5 6 
#
# 1 125.1566 12.5341 24.8483 0.0000 0.0000 0.0000
# 2 12.5341 28.7930 12.1794 0.0000 0.0000 0.0000
# 3 24.8483 12.1794 27.8951 0.0000 0.0000 0.0000
# 4 0.0000 0.0000 0.0000 22.9654 0.0000 0.0000
# 5 0.0000 0.0000 0.0000 0.0000 13.2824 0.0000
# 6 0.0000 0.0000 0.0000 0.0000 0.0000 52.7421
#
#
#
# Elastic Compliance Matrix: (Units=1/GPa)
#
#
# Indices 1 2 3 4 5 6 
#
# 1 0.009718 -0.000698 -0.008352 0.000000 0.000000 0.000000
# 2 -0.000698 0.042648 -0.017999 0.000000 0.000000 0.000000
# 3 -0.008352 -0.017999 0.051147 0.000000 0.000000 0.000000
# 4 0.000000 0.000000 0.000000 0.043544 0.000000 0.000000
# 5 0.000000 0.000000 0.000000 0.000000 0.075288 0.000000
# 6 0.000000 0.000000 0.000000 0.000000 0.000000 0.018960
#
#
# Mechanical properties :
#
#
# Convention : Reuss Voigt Hill
#
# Bulk Modulus (GPa) = 20.23662 31.21869 25.72766
# Shear Modulus (GPa) = 16.03208 26.61684 21.32446
#
# Velocity S-wave (km/s) = 2.56374 3.30337 2.95677
# Velocity P-wave (km/s) = 4.13040 5.22958 4.71215
#
# Compressibility (1/GPa) = 0.04941537
#
# Stress axis : x y z
#
# Youngs Moduli (GPa) = 102.90131 23.44773 19.55139
#
# Poissons Ratio (x) = 0.01636 0.16329
# Poissons Ratio (y) = 0.07177 0.35191
# Poissons Ratio (z) = 0.85944 0.42204
#
# Static dielectric constant tensor:
#      x y z
#    x 5.032980 0.000000 0.000000 
#    y 0.000000 4.522370 0.000000 
#    z 0.000000 0.000000 3.994310 
# 
# 
# High freq. dielectric constant tensor:
#      x y z
#    x 2.001030 0.000000 0.000000 
#    y 0.000000 1.971390 0.000000 
#    z 0.000000 0.000000 1.943740 
# 
# From -- ./inp_files/4181.got.cif
#   From: 2010.03.12/outbox.cif.g09.slc.cpg/sg18_3_cif.got.tgz:4181.got - 2010.04.10 18:53:55.
