data_PCOD8156864
_publ_section_title
;
Structure prediction by ZEFSAII (Michael W. Deem and Ramdas Pophale) SiO2 
 PCOD8156864
Probable space group: P 21 21 21
;
_chemical_formula_sum "Si O2"
_cell_formula_units_Z 20
_cell_length_a 7.618761
_cell_length_b 13.724853
_cell_length_c 9.917039
_cell_angle_alpha 90.000000
_cell_angle_beta 90.000000
_cell_angle_gamma 90.000000
_cell_volume 1036.988817
_symmetry_space_group_name_H-M "P 21 21 21"
_symmetry_group_IT_number 19
_symmetry_cell_setting 'orthorhombic'
loop_
_space_group_symop_operation_xyz
x,y,z
1/2-x,-y,1/2+z
1/2+x,1/2-y,-z
-x,1/2+y,1/2-z
loop_
_atom_site_type_symbol
_atom_site_label
_atom_site_fract_x
_atom_site_fract_y
_atom_site_fract_z
Si Si1 0.704006 0.699382 0.897387
Si Si2 0.208163 0.315201 0.097425
Si Si3 0.087479 0.944634 0.304096
Si Si4 0.392259 0.816668 0.360257
Si Si5 0.396484 0.829617 0.832035
O O1 0.592690 0.605455 0.844441
O O2 0.872135 0.714308 0.797799
O O3 0.584088 0.795206 0.887287
O O4 0.754542 0.682139 0.050612
O O5 0.409886 0.348314 0.108090
O O6 0.164360 0.230065 0.202472
O O7 0.089477 0.410462 0.120302
O O8 0.168921 0.275400 0.948568
O O9 0.258587 0.907086 0.388710
O O10 0.087460 0.059310 0.287130
#
# Coordination Sequence:
#
# PCOD8156864 Si02
#       5
#     4   4   4   4   4
#     4   9  22  39  59  91 119 162 196 247 309 343
#     4  11  20  40  63  84 123 158 199 252 296 361
#     4   9  23  37  61  90 117 157 209 232 306 361
#     4  10  20  40  60  87 115 157 203 242 299 356
#     4  11  21  42  61  86 132 154 199 259 296 363
#
# _framework density 19.28661
#
# number of rings (size 3 to 8) (size 9 to 14) (size 15 to 20)
#    1.200    0.800    2.000    1.200    2.800    0.000 
#    7.200    4.000    0.000    0.000    0.000    0.000 
#    0.000    0.000    0.000    0.000    0.000    0.000 
#
# Total GULP energy -247885.578711 kJ/mol
# GULP energy per Si atom -12394.278936 kJ/mol
# Density = 1.924271 g / cm^3
# Si number density = 19.286610 Si / 1000 Ang^3
#
#
#
# Elastic Constant Matrix: (Units=GPa)
#
#
# Indices 1 2 3 4 5 6 
#
# 1 130.4744 37.9777 -8.3942 0.0000 0.0000 0.0000
# 2 37.9777 92.7272 24.2296 0.0000 0.0000 0.0000
# 3 -8.3942 24.2296 48.1422 0.0000 0.0000 0.0000
# 4 0.0000 0.0000 0.0000 18.3148 0.0000 0.0000
# 5 0.0000 0.0000 0.0000 0.0000 26.7181 0.0000
# 6 0.0000 0.0000 0.0000 0.0000 0.0000 24.5913
#
#
#
# Elastic Compliance Matrix: (Units=1/GPa)
#
#
# Indices 1 2 3 4 5 6 
#
# 1 0.009355 -0.004902 0.004099 0.000000 0.000000 0.000000
# 2 -0.004902 0.014986 -0.008397 0.000000 0.000000 0.000000
# 3 0.004099 -0.008397 0.025713 0.000000 0.000000 0.000000
# 4 0.000000 0.000000 0.000000 0.054601 0.000000 0.000000
# 5 0.000000 0.000000 0.000000 0.000000 0.037428 0.000000
# 6 0.000000 0.000000 0.000000 0.000000 0.000000 0.040665
#
#
# Mechanical properties :
#
#
# Convention : Reuss Voigt Hill
#
# Bulk Modulus (GPa) = 31.59392 42.10777 36.85084
# Shear Modulus (GPa) = 23.61829 28.42689 26.02259
#
# Velocity S-wave (km/s) = 3.50322 3.84333 3.67721
# Velocity P-wave (km/s) = 5.72540 6.44786 6.09734
#
# Compressibility (1/GPa) = 0.03165166
#
# Stress axis : x y z
#
# Youngs Moduli (GPa) = 106.89488 66.72716 38.89120
#
# Poissons Ratio (x) = 0.32712 -0.15940
# Poissons Ratio (y) = 0.52404 0.32658
# Poissons Ratio (z) = -0.43811 0.56033
#
# Static dielectric constant tensor:
#      x y z
#    x 3.610630 0.000000 0.000000 
#    y 0.000000 3.183070 0.000000 
#    z 0.000000 0.000000 3.459280 
# 
# 
# High freq. dielectric constant tensor:
#      x y z
#    x 1.754840 0.000000 0.000000 
#    y 0.000000 1.727710 0.000000 
#    z 0.000000 0.000000 1.750580 
# 
# From -- ./inp_files/2723.got.cif
#   From: 2010.03.12/outbox.cif.g09.slc.cpg/sg19_2_cif.got.tgz:2723.got - 2010.04.10 18:59:41.
