data_PCOD8156643
_publ_section_title
;
Structure prediction by ZEFSAII (Michael W. Deem and Ramdas Pophale) SiO2 
 PCOD8156643
Probable space group: P 21 21 21
;
_chemical_formula_sum "Si O2"
_cell_formula_units_Z 20
_cell_length_a 14.089029
_cell_length_b 14.638606
_cell_length_c 5.014649
_cell_angle_alpha 90.000000
_cell_angle_beta 90.000000
_cell_angle_gamma 90.000000
_cell_volume 1034.239987
_symmetry_space_group_name_H-M "P 21 21 21"
_symmetry_group_IT_number 19
_symmetry_cell_setting 'orthorhombic'
loop_
_space_group_symop_operation_xyz
x,y,z
1/2-x,-y,1/2+z
1/2+x,1/2-y,-z
-x,1/2+y,1/2-z
loop_
_atom_site_type_symbol
_atom_site_label
_atom_site_fract_x
_atom_site_fract_y
_atom_site_fract_z
Si Si1 0.340006 0.186097 0.955165
Si Si2 0.230659 0.619034 0.551159
Si Si3 0.794275 0.538988 0.440380
Si Si4 0.653558 0.077131 0.449112
Si Si5 0.435428 0.102097 0.455483
O O1 0.335275 0.293808 0.000289
O O2 0.232528 0.143989 0.988699
O O3 0.411520 0.137910 0.161315
O O4 0.380257 0.167278 0.661694
O O5 0.161580 0.532138 0.525753
O O6 0.316194 0.611630 0.341091
O O7 0.277408 0.626360 0.841247
O O8 0.724540 0.477370 0.627162
O O9 0.900742 0.504238 0.509499
O O10 0.546702 0.106983 0.505600
#
# Coordination Sequence:
#
# PCOD8156643 Si02
#       5
#     4   4   4   4   4
#     4  10  19  35  59  80 111 141 181 225 272 322
#     4  10  21  38  59  76 113 153 180 218 278 331
#     4   8  16  30  51  75 105 141 162 212 277 312
#     4  10  21  38  56  79 112 150 182 221 275 325
#     4  10  19  35  55  82 113 137 183 230 266 318
#
# _framework density 19.337872000000001
#
# number of rings (size 3 to 8) (size 9 to 14) (size 15 to 20)
#    0.000    2.400    0.000    2.400    0.000    0.000 
#    7.200    0.000    0.000    0.000    0.000    0.000 
#    0.000    0.000    0.000    0.000    0.000    0.000 
#
# Total GULP energy -247918.275831 kJ/mol
# GULP energy per Si atom -12395.913792 kJ/mol
# Density = 1.929386 g / cm^3
# Si number density = 19.337872 Si / 1000 Ang^3
#
#
#
# Elastic Constant Matrix: (Units=GPa)
#
#
# Indices 1 2 3 4 5 6 
#
# 1 73.5818 23.4255 2.0837 0.0000 0.0000 0.0000
# 2 23.4255 79.2623 8.4464 0.0000 0.0000 0.0000
# 3 2.0837 8.4464 75.8373 0.0000 0.0000 0.0000
# 4 0.0000 0.0000 0.0000 21.0710 0.0000 0.0000
# 5 0.0000 0.0000 0.0000 0.0000 16.9112 0.0000
# 6 0.0000 0.0000 0.0000 0.0000 0.0000 13.5087
#
#
#
# Elastic Compliance Matrix: (Units=1/GPa)
#
#
# Indices 1 2 3 4 5 6 
#
# 1 0.015002 -0.004443 0.000083 0.000000 0.000000 0.000000
# 2 -0.004443 0.014083 -0.001446 0.000000 0.000000 0.000000
# 3 0.000083 -0.001446 0.013345 0.000000 0.000000 0.000000
# 4 0.000000 0.000000 0.000000 0.047459 0.000000 0.000000
# 5 0.000000 0.000000 0.000000 0.000000 0.059132 0.000000
# 6 0.000000 0.000000 0.000000 0.000000 0.000000 0.074026
#
#
# Mechanical properties :
#
#
# Convention : Reuss Voigt Hill
#
# Bulk Modulus (GPa) = 32.44888 32.95473 32.70181
# Shear Modulus (GPa) = 20.41369 23.27991 21.84680
#
# Velocity S-wave (km/s) = 3.25257 3.47342 3.36481
# Velocity P-wave (km/s) = 5.56076 5.75888 5.66069
#
# Compressibility (1/GPa) = 0.03081770
#
# Stress axis : x y z
#
# Youngs Moduli (GPa) = 66.65629 71.00522 74.93468
#
# Poissons Ratio (x) = 0.31545 -0.00619
# Poissons Ratio (y) = 0.29613 0.10839
# Poissons Ratio (z) = -0.00551 0.10271
#
# Static dielectric constant tensor:
#      x y z
#    x 3.212110 0.000000 0.000000 
#    y 0.000000 3.446930 0.000000 
#    z 0.000000 0.000000 3.705440 
# 
# 
# High freq. dielectric constant tensor:
#      x y z
#    x 1.723610 0.000000 0.000000 
#    y 0.000000 1.736650 0.000000 
#    z 0.000000 0.000000 1.776860 
# 
# From -- ./inp_files/783.got.cif
#   From: 2010.03.12/outbox.cif.g09.slc.cpg/sg19_1_cif.got.tgz:783.got - 2010.04.10 18:59:41.
