data_PCOD8156554
_publ_section_title
;
Structure prediction by ZEFSAII (Michael W. Deem and Ramdas Pophale) SiO2 
 PCOD8156554
Probable space group: P 21 21 21
;
_chemical_formula_sum "Si O2"
_cell_formula_units_Z 28
_cell_length_a 15.114331
_cell_length_b 18.443894
_cell_length_c 5.313352
_cell_angle_alpha 90.000000
_cell_angle_beta 90.000000
_cell_angle_gamma 90.000000
_cell_volume 1481.187828
_symmetry_space_group_name_H-M "P 21 21 21"
_symmetry_group_IT_number 19
_symmetry_cell_setting 'orthorhombic'
loop_
_space_group_symop_operation_xyz
x,y,z
1/2-x,-y,1/2+z
1/2+x,1/2-y,-z
-x,1/2+y,1/2-z
loop_
_atom_site_type_symbol
_atom_site_label
_atom_site_fract_x
_atom_site_fract_y
_atom_site_fract_z
Si Si1 0.586977 0.849257 0.022913
Si Si2 0.109086 0.348421 0.501824
Si Si3 0.885262 0.674544 0.997969
Si Si4 0.367637 0.264476 0.977308
Si Si5 0.033535 0.326032 0.001702
Si Si6 0.766453 0.044607 0.474183
Si Si7 0.323726 0.800755 0.502086
O O1 0.609507 0.819130 0.298531
O O2 0.482303 0.859584 0.000676
O O3 0.620214 0.798035 0.798382
O O4 0.632794 0.927726 0.996374
O O5 0.117054 0.261979 0.501448
O O6 0.055112 0.372889 0.751481
O O7 0.205025 0.384590 0.502469
O O8 0.056363 0.373207 0.250415
O O9 0.833012 0.648916 0.248948
O O10 0.832110 0.649228 0.747919
O O11 0.266282 0.243397 0.007506
O O12 0.430177 0.194183 0.998858
O O13 0.092049 0.253047 0.001220
O O14 0.746134 0.989715 0.699548
#
# Coordination Sequence:
#
# PCOD8156554 Si02
#       7
#     4   4   4   4   4   4   4
#     4  12  20  36  55  77 114 151 202 242 273 365
#     4  10  18  35  52  72 114 142 186 253 266 344
#     4  10  18  33  50  78 102 146 182 239 311 315
#     4  12  19  31  55  82 111 154 183 231 316 357
#     4  10  17  31  48  80 106 143 185 226 305 351
#     4  12  26  40  55  83 120 173 209 222 282 360
#     4  10  18  28  43  72 113 133 173 221 283 370
#
# _framework density 18.903746999999999
#
# number of rings (size 3 to 8) (size 9 to 14) (size 15 to 20)
#    0.000    1.143    5.714    6.000    0.000    0.000 
#    0.000    0.000    0.000    0.000    0.000    0.000 
#    0.000   22.857    0.000    0.000    0.000    0.000 
#
# Total GULP energy -347046.482586 kJ/mol
# GULP energy per Si atom -12394.517235 kJ/mol
# Density = 1.886072 g / cm^3
# Si number density = 18.903747 Si / 1000 Ang^3
#
#
#
# Elastic Constant Matrix: (Units=GPa)
#
#
# Indices 1 2 3 4 5 6 
#
# 1 43.5241 9.0661 10.7828 0.0000 0.0000 0.0000
# 2 9.0661 23.9102 2.5327 0.0000 0.0000 0.0000
# 3 10.7828 2.5327 166.9302 0.0000 0.0000 0.0000
# 4 0.0000 0.0000 0.0000 21.6152 0.0000 0.0000
# 5 0.0000 0.0000 0.0000 0.0000 32.5902 0.0000
# 6 0.0000 0.0000 0.0000 0.0000 0.0000 23.8924
#
#
#
# Elastic Compliance Matrix: (Units=1/GPa)
#
#
# Indices 1 2 3 4 5 6 
#
# 1 0.025312 -0.009440 -0.001492 0.000000 0.000000 0.000000
# 2 -0.009440 0.045411 -0.000079 0.000000 0.000000 0.000000
# 3 -0.001492 -0.000079 0.006088 0.000000 0.000000 0.000000
# 4 0.000000 0.000000 0.000000 0.046264 0.000000 0.000000
# 5 0.000000 0.000000 0.000000 0.000000 0.030684 0.000000
# 6 0.000000 0.000000 0.000000 0.000000 0.000000 0.041854
#
#
# Mechanical properties :
#
#
# Convention : Reuss Voigt Hill
#
# Bulk Modulus (GPa) = 18.25169 31.01421 24.63295
# Shear Modulus (GPa) = 21.19570 29.75175 25.47372
#
# Velocity S-wave (km/s) = 3.35213 3.97149 3.67488
# Velocity P-wave (km/s) = 4.96572 6.12146 5.57363
#
# Compressibility (1/GPa) = 0.05478945
#
# Stress axis : x y z
#
# Youngs Moduli (GPa) = 39.50754 22.02118 164.25506
#
# Poissons Ratio (x) = 0.20787 0.24503
# Poissons Ratio (y) = 0.37293 0.01302
# Poissons Ratio (z) = 0.05894 0.00175
#
# Static dielectric constant tensor:
#      x y z
#    x 3.560040 0.000000 0.000000 
#    y 0.000000 2.792060 0.000000 
#    z 0.000000 0.000000 6.841160 
# 
# 
# High freq. dielectric constant tensor:
#      x y z
#    x 1.734780 0.000000 0.000000 
#    y 0.000000 1.645290 0.000000 
#    z 0.000000 0.000000 1.784430 
# 
# From -- ./inp_files/1535.got.cif
#   From: 2010.03.12/outbox.cif.g09.slc.cpg/sg19_1_cif.got.tgz:1535.got - 2010.04.10 18:59:41.
