data_PCOD8156100
_publ_section_title
;
Structure prediction by ZEFSAII (Michael W. Deem and Ramdas Pophale) SiO2 
 PCOD8156100
Probable space group: P 21 21 2
;
_chemical_formula_sum "Si O2"
_cell_formula_units_Z 26
_cell_length_a 9.475148
_cell_length_b 14.638166
_cell_length_c 9.359027
_cell_angle_alpha 90.000000
_cell_angle_beta 90.000000
_cell_angle_gamma 90.000000
_cell_volume 1298.085714
_symmetry_space_group_name_H-M "P 21 21 2"
_symmetry_group_IT_number 18
_symmetry_cell_setting 'orthorhombic'
loop_
_space_group_symop_operation_xyz
x,y,z
-x,-y,z
1/2+x,1/2-y,-z
1/2-x,1/2+y,-z
loop_
_atom_site_type_symbol
_atom_site_label
_atom_site_fract_x
_atom_site_fract_y
_atom_site_fract_z
Si Si1 0.078143 0.688243 0.919382
Si Si2 0.102738 0.171110 0.438010
Si Si3 0.790587 0.563729 0.255710
Si Si4 0.420627 0.186847 0.402809
Si Si5 0.500000 0.000000 0.968272
Si Si6 0.372345 0.737058 0.857644
Si Si7 0.000000 0.000000 0.620415
Si Si8 0.500000 0.000000 0.507596
O O1 0.055943 0.723807 0.757769
O O2 0.245382 0.693195 0.950112
O O3 0.015800 0.587098 0.931191
O O4 0.001880 0.752269 0.034503
O O5 0.264212 0.197311 0.465076
O O6 0.079161 0.165931 0.265971
O O7 0.016186 0.257065 0.491488
O O8 0.058086 0.078680 0.516410
O O9 0.858305 0.503972 0.128183
O O10 0.817570 0.669587 0.217611
O O11 0.624564 0.540122 0.277969
O O12 0.869257 0.536373 0.400301
O O13 0.453487 0.079971 0.402790
#
# Coordination Sequence:
#
# PCOD8156100 Si02
#       8
#     4   4   4   4   2   4   2   2
#     4  10  22  40  61  88 122 159 214 246 308 367
#     4  11  24  39  62  92 125 159 209 259 316 368
#     4  10  21  39  63  89 126 160 205 248 317 372
#     4  11  23  39  65  93 124 163 205 261 308 370
#     4   9  21  40  62  86 120 168 202 250 308 384
#     4  10  22  43  59  88 123 168 203 256 305 377
#     4  12  22  38  60  98 124 156 206 270 308 370
#     4  11  19  40  62  92 124 162 194 256 310 366
#
# _framework density 20.029494
#
# number of rings (size 3 to 8) (size 9 to 14) (size 15 to 20)
#    0.000    1.538    3.077    2.308    0.000    3.692 
#    0.000    3.077    0.000    0.923    0.000    0.000 
#    0.000    0.000    0.000    0.000    0.000    0.000 
#
# Total GULP energy -322317.028202 kJ/mol
# GULP energy per Si atom -12396.808777 kJ/mol
# Density = 1.998391 g / cm^3
# Si number density = 20.029494 Si / 1000 Ang^3
#
#
#
# Elastic Constant Matrix: (Units=GPa)
#
#
# Indices 1 2 3 4 5 6 
#
# 1 130.5808 37.6804 70.9502 0.0000 0.0000 0.0000
# 2 37.6804 62.7713 25.4289 0.0000 0.0000 0.0000
# 3 70.9502 25.4289 82.5645 0.0000 0.0000 0.0000
# 4 0.0000 0.0000 0.0000 -4.8538 0.0000 0.0000
# 5 0.0000 0.0000 0.0000 0.0000 33.2504 0.0000
# 6 0.0000 0.0000 0.0000 0.0000 0.0000 31.8055
#
#
#
# Elastic Compliance Matrix: (Units=1/GPa)
#
#
# Indices 1 2 3 4 5 6 
#
# 1 0.015373 -0.004429 -0.011846 0.000000 0.000000 0.000000
# 2 -0.004429 0.019478 -0.002193 0.000000 0.000000 0.000000
# 3 -0.011846 -0.002193 0.022967 0.000000 0.000000 0.000000
# 4 0.000000 0.000000 0.000000 -0.206025 0.000000 0.000000
# 5 0.000000 0.000000 0.000000 0.000000 0.030075 0.000000
# 6 0.000000 0.000000 0.000000 0.000000 0.000000 0.031441
#
#
# Mechanical properties :
#
#
# Convention : Reuss Voigt Hill
#
# Bulk Modulus (GPa) = 47.88994 60.44842 54.16918
# Shear Modulus (GPa) = -116.83477 21.49757 -47.66860
#
# Velocity S-wave (km/s) = -7.64578 3.27967 -4.88374
# Velocity P-wave (km/s) = 7.34727 6.67734 2.16743
#
# Compressibility (1/GPa) = 0.02088121
#
# Stress axis : x y z
#
# Youngs Moduli (GPa) = 65.05075 51.34033 43.54099
#
# Poissons Ratio (x) = 0.22739 0.51579
# Poissons Ratio (y) = 0.28811 0.09549
# Poissons Ratio (z) = 0.77060 0.11259
#
# Static dielectric constant tensor:
#      x y z
#    x 3.765780 0.000000 0.000000 
#    y 0.000000 3.665080 0.000000 
#    z 0.000000 0.000000 3.566960 
# 
# 
# High freq. dielectric constant tensor:
#      x y z
#    x 1.787170 0.000000 0.000000 
#    y 0.000000 1.782060 0.000000 
#    z 0.000000 0.000000 1.778800 
# 
# From -- ./inp_files/3355.got.cif
#   From: 2010.03.12/outbox.cif.g09.slc.cpg/sg18_2_cif.got.tgz:3355.got - 2010.04.10 18:53:55.
