data_PCOD8156684
_publ_section_title
;
Structure prediction by ZEFSAII (Michael W. Deem and Ramdas Pophale) SiO2 
 PCOD8156684
Probable space group: P 21 21 21
;
_chemical_formula_sum "Si O2"
_cell_formula_units_Z 28
_cell_length_a 24.407436
_cell_length_b 4.983620
_cell_length_c 10.459622
_cell_angle_alpha 90.000000
_cell_angle_beta 90.000000
_cell_angle_gamma 90.000000
_cell_volume 1272.281081
_symmetry_space_group_name_H-M "P 21 21 21"
_symmetry_group_IT_number 19
_symmetry_cell_setting 'orthorhombic'
loop_
_space_group_symop_operation_xyz
x,y,z
1/2-x,-y,1/2+z
1/2+x,1/2-y,-z
-x,1/2+y,1/2-z
loop_
_atom_site_type_symbol
_atom_site_label
_atom_site_fract_x
_atom_site_fract_y
_atom_site_fract_z
Si Si1 0.151655 0.327160 0.681464
Si Si2 0.529867 0.267130 0.300929
Si Si3 0.997844 0.102668 0.420425
Si Si4 0.257995 0.397938 0.820044
Si Si5 0.326247 0.176093 0.022052
Si Si6 0.437441 0.898278 0.662534
Si Si7 0.174859 0.066804 0.268656
O O1 0.092931 0.261818 0.743624
O O2 0.193592 0.431521 0.790483
O O3 0.141818 0.566705 0.578888
O O4 0.179382 0.058540 0.625327
O O5 0.501405 0.486602 0.211660
O O6 0.530167 0.359144 0.447919
O O7 0.949954 0.318197 0.400963
O O8 0.041116 0.127834 0.306954
O O9 0.966593 0.820577 0.426130
O O10 0.267307 0.289977 0.967074
O O11 0.287820 0.679727 0.801170
O O12 0.285513 0.177608 0.723136
O O13 0.356373 0.046741 0.897687
O O14 0.371630 0.861309 0.665322
#
# Coordination Sequence:
#
# PCOD8156684 Si02
#       7
#     4   4   4   4   4   4   4
#     4  12  23  43  69  91 125 183 210 271 324 371
#     4  12  27  47  66  93 130 181 235 265 309 403
#     4  10  22  37  63  95 125 169 221 263 330 372
#     4  10  22  38  61  98 131 154 220 262 316 405
#     4  10  21  38  66  97 126 165 223 255 318 403
#     4  10  20  37  64  98 130 159 209 283 330 379
#     4  10  19  38  59  94 133 159 200 271 327 395
#
# _framework density 22.007717
#
# number of rings (size 3 to 8) (size 9 to 14) (size 15 to 20)
#    0.857    0.571    1.429    4.286    0.000    2.286 
#    0.000    8.571    0.000    0.000    0.000    0.000 
#    0.000    0.000    0.000    0.000    0.000    0.000 
#
# Total GULP energy -346980.549619 kJ/mol
# GULP energy per Si atom -12392.162486 kJ/mol
# Density = 2.195763 g / cm^3
# Si number density = 22.007717 Si / 1000 Ang^3
#
#
#
# Elastic Constant Matrix: (Units=GPa)
#
#
# Indices 1 2 3 4 5 6 
#
# 1 127.4856 41.3277 19.2983 0.0000 0.0000 0.0000
# 2 41.3277 133.0240 12.7125 0.0000 0.0000 0.0000
# 3 19.2983 12.7125 33.2532 0.0000 0.0000 0.0000
# 4 0.0000 0.0000 0.0000 28.9306 0.0000 0.0000
# 5 0.0000 0.0000 0.0000 0.0000 18.2330 0.0000
# 6 0.0000 0.0000 0.0000 0.0000 0.0000 26.9810
#
#
#
# Elastic Compliance Matrix: (Units=1/GPa)
#
#
# Indices 1 2 3 4 5 6 
#
# 1 0.009320 -0.002469 -0.004465 0.000000 0.000000 0.000000
# 2 -0.002469 0.008457 -0.001800 0.000000 0.000000 0.000000
# 3 -0.004465 -0.001800 0.033352 0.000000 0.000000 0.000000
# 4 0.000000 0.000000 0.000000 0.034565 0.000000 0.000000
# 5 0.000000 0.000000 0.000000 0.000000 0.054846 0.000000
# 6 0.000000 0.000000 0.000000 0.000000 0.000000 0.037063
#
#
# Mechanical properties :
#
#
# Convention : Reuss Voigt Hill
#
# Bulk Modulus (GPa) = 29.70850 48.93774 39.32312
# Shear Modulus (GPa) = 24.23759 29.52388 26.88073
#
# Velocity S-wave (km/s) = 3.32222 3.66666 3.49868
# Velocity P-wave (km/s) = 5.31457 6.34119 5.85044
#
# Compressibility (1/GPa) = 0.03366040
#
# Stress axis : x y z
#
# Youngs Moduli (GPa) = 107.29277 118.25222 29.98342
#
# Poissons Ratio (x) = 0.29195 0.13388
# Poissons Ratio (y) = 0.26490 0.05397
# Poissons Ratio (z) = 0.47908 0.21286
#
# Static dielectric constant tensor:
#      x y z
#    x 3.637760 0.000000 0.000000 
#    y 0.000000 4.190260 0.000000 
#    z 0.000000 0.000000 3.652090 
# 
# 
# High freq. dielectric constant tensor:
#      x y z
#    x 1.849110 0.000000 0.000000 
#    y 0.000000 1.890220 0.000000 
#    z 0.000000 0.000000 1.833270 
# 
# From -- ./inp_files/5568.got.cif
#   From: 2010.03.12/outbox.cif.g09.slc.cpg/sg19_3_cif.got.tgz:5568.got - 2010.04.10 18:59:41.
