data_PCOD8156214
_publ_section_title
;
Structure prediction by ZEFSAII (Michael W. Deem and Ramdas Pophale) SiO2 
 PCOD8156214
Probable space group: P 21 21 2
;
_chemical_formula_sum "Si O2"
_cell_formula_units_Z 22
_cell_length_a 17.901738
_cell_length_b 8.633211
_cell_length_c 5.421687
_cell_angle_alpha 90.000000
_cell_angle_beta 90.000000
_cell_angle_gamma 90.000000
_cell_volume 837.918914
_symmetry_space_group_name_H-M "P 21 21 2"
_symmetry_group_IT_number 18
_symmetry_cell_setting 'orthorhombic'
loop_
_space_group_symop_operation_xyz
x,y,z
-x,-y,z
1/2+x,1/2-y,-z
1/2-x,1/2+y,-z
loop_
_atom_site_type_symbol
_atom_site_label
_atom_site_fract_x
_atom_site_fract_y
_atom_site_fract_z
Si Si1 0.598985 0.044271 0.909947
Si Si2 0.741449 0.625882 0.158914
Si Si3 0.381106 0.285906 0.800927
Si Si4 0.241690 0.152451 0.530045
Si Si5 0.411564 0.784764 0.386394
Si Si6 0.500000 0.500000 0.544963
O O1 0.687860 0.046355 0.970825
O O2 0.578474 0.129642 0.651626
O O3 0.572572 0.864278 0.899708
O O4 0.559546 0.115976 0.152558
O O5 0.762421 0.803713 0.238274
O O6 0.729515 0.529077 0.417107
O O7 0.666013 0.622192 0.006128
O O8 0.323882 0.211621 0.605497
O O9 0.437065 0.415760 0.706555
O O10 0.175168 0.244529 0.667338
O O11 0.460399 0.628631 0.377827
#
# Coordination Sequence:
#
# PCOD8156214 Si02
#       6
#     4   4   4   4   4   2
#     4  10  25  47  81 107 158 210 270 324 409 483
#     4  10  22  40  76 114 155 192 279 331 410 466
#     4  11  25  47  75 120 160 219 265 351 407 507
#     4  10  22  42  76 111 151 206 269 340 395 480
#     4  11  25  51  76 118 154 217 266 342 401 501
#     4  12  30  50  80 116 176 208 284 338 442 480
#
# _framework density 26.255526
#
# number of rings (size 3 to 8) (size 9 to 14) (size 15 to 20)
#    0.000    1.455    1.818    1.091   10.182    2.909 
#    3.273    1.818    4.000    0.000    0.000    0.000 
#    0.000    0.000    0.000    0.000    0.000    0.000 
#
# Total GULP energy -272566.744356 kJ/mol
# GULP energy per Si atom -12389.397471 kJ/mol
# Density = 2.619577 g / cm^3
# Si number density = 26.255526 Si / 1000 Ang^3
#
#
#
# Elastic Constant Matrix: (Units=GPa)
#
#
# Indices 1 2 3 4 5 6 
#
# 1 88.2586 48.2836 30.2607 0.0000 0.0000 0.0000
# 2 48.2836 142.4715 48.3113 0.0000 0.0000 0.0000
# 3 30.2607 48.3113 108.5179 0.0000 0.0000 0.0000
# 4 0.0000 0.0000 0.0000 42.8307 0.0000 0.0000
# 5 0.0000 0.0000 0.0000 0.0000 13.6831 0.0000
# 6 0.0000 0.0000 0.0000 0.0000 0.0000 42.8137
#
#
#
# Elastic Compliance Matrix: (Units=1/GPa)
#
#
# Indices 1 2 3 4 5 6 
#
# 1 0.014326 -0.004123 -0.002159 0.000000 0.000000 0.000000
# 2 -0.004123 0.009453 -0.003059 0.000000 0.000000 0.000000
# 3 -0.002159 -0.003059 0.011179 0.000000 0.000000 0.000000
# 4 0.000000 0.000000 0.000000 0.023348 0.000000 0.000000
# 5 0.000000 0.000000 0.000000 0.000000 0.073083 0.000000
# 6 0.000000 0.000000 0.000000 0.000000 0.000000 0.023357
#
#
# Mechanical properties :
#
#
# Convention : Reuss Voigt Hill
#
# Bulk Modulus (GPa) = 61.43936 65.88435 63.66185
# Shear Modulus (GPa) = 27.95569 34.02500 30.99035
#
# Velocity S-wave (km/s) = 3.26660 3.60379 3.43933
# Velocity P-wave (km/s) = 6.13831 6.51647 6.33022
#
# Compressibility (1/GPa) = 0.01627621
#
# Stress axis : x y z
#
# Youngs Moduli (GPa) = 69.80187 105.78142 89.45300
#
# Poissons Ratio (x) = 0.43613 0.19317
# Poissons Ratio (y) = 0.28779 0.27363
# Poissons Ratio (z) = 0.15073 0.32358
#
# Static dielectric constant tensor:
#      x y z
#    x 4.714920 0.000000 0.000000 
#    y 0.000000 5.127260 0.000000 
#    z 0.000000 0.000000 4.437290 
# 
# 
# High freq. dielectric constant tensor:
#      x y z
#    x 2.055990 0.000000 0.000000 
#    y 0.000000 2.069470 0.000000 
#    z 0.000000 0.000000 2.034170 
# 
# From -- ./inp_files/1756.got.cif
#   From: 2010.03.12/outbox.cif.g09.slc.cpg/sg18_1_cif.got.tgz:1756.got - 2010.04.10 18:53:55.
