data_PCOD8156682
_publ_section_title
;
Structure prediction by ZEFSAII (Michael W. Deem and Ramdas Pophale) SiO2 
 PCOD8156682
Probable space group: P 21 21 21
;
_chemical_formula_sum "Si O2"
_cell_formula_units_Z 32
_cell_length_a 9.167475
_cell_length_b 9.509992
_cell_length_c 18.710912
_cell_angle_alpha 90.000000
_cell_angle_beta 90.000000
_cell_angle_gamma 90.000000
_cell_volume 1631.266217
_symmetry_space_group_name_H-M "P 21 21 21"
_symmetry_group_IT_number 19
_symmetry_cell_setting 'orthorhombic'
loop_
_space_group_symop_operation_xyz
x,y,z
1/2-x,-y,1/2+z
1/2+x,1/2-y,-z
-x,1/2+y,1/2-z
loop_
_atom_site_type_symbol
_atom_site_label
_atom_site_fract_x
_atom_site_fract_y
_atom_site_fract_z
Si Si1 0.689196 0.992712 0.744289
Si Si2 0.688128 0.504022 0.367057
Si Si3 0.510227 0.926993 0.610650
Si Si4 0.308273 0.362504 0.019586
Si Si5 0.027312 0.922425 0.503495
Si Si6 0.378716 0.314165 0.173821
Si Si7 0.313767 0.813275 0.264545
Si Si8 0.456937 0.101474 0.849976
O O1 0.611944 0.006553 0.667779
O O2 0.767840 0.844616 0.752268
O O3 0.807878 0.115724 0.755576
O O4 0.570925 0.011215 0.806037
O O5 0.573275 0.473509 0.432121
O O6 0.667721 0.652868 0.328425
O O7 0.651508 0.383238 0.310912
O O8 0.855368 0.495496 0.393628
O O9 0.587232 0.949056 0.533806
O O10 0.490273 0.761365 0.631352
O O11 0.357407 0.201946 0.016675
O O12 0.328230 0.404094 0.103183
O O13 0.142029 0.376508 0.991989
O O14 0.061557 0.982891 0.424747
O O15 0.552013 0.318372 0.181123
O O16 0.189832 0.899500 0.305239
#
# Coordination Sequence:
#
# PCOD8156682 Si02
#       8
#     4   4   4   4   4   4   4   4
#     4  11  21  40  61  82 122 160 192 239 302 358
#     4  11  22  38  58  89 117 148 198 247 291 348
#     4  10  21  35  59  90 115 151 199 247 293 346
#     4  10  20  33  57  88 114 148 195 246 296 334
#     4  10  20  33  58  85 116 150 194 249 291 342
#     4  11  22  38  61  87 120 151 195 249 293 349
#     4  11  25  35  60  88 122 153 195 240 299 354
#     4  10  19  38  58  83 112 157 196 237 289 349
#
# _framework density 19.616665000000001
#
# number of rings (size 3 to 8) (size 9 to 14) (size 15 to 20)
#    0.000    1.500    3.750    3.000   14.000    0.000 
#    0.000    0.000    2.750    0.000    0.000    0.000 
#    0.000    0.000    0.000    0.000    0.000    0.000 
#
# Total GULP energy -396654.542226 kJ/mol
# GULP energy per Si atom -12395.454445 kJ/mol
# Density = 1.957202 g / cm^3
# Si number density = 19.616665 Si / 1000 Ang^3
#
#
#
# Elastic Constant Matrix: (Units=GPa)
#
#
# Indices 1 2 3 4 5 6 
#
# 1 114.6561 20.2487 25.9896 0.0000 0.0000 0.0000
# 2 20.2487 26.3471 6.3810 0.0000 0.0000 0.0000
# 3 25.9896 6.3810 49.3006 0.0000 0.0000 0.0000
# 4 0.0000 0.0000 0.0000 22.7670 0.0000 0.0000
# 5 0.0000 0.0000 0.0000 0.0000 45.5272 0.0000
# 6 0.0000 0.0000 0.0000 0.0000 0.0000 19.7428
#
#
#
# Elastic Compliance Matrix: (Units=1/GPa)
#
#
# Indices 1 2 3 4 5 6 
#
# 1 0.011138 -0.007369 -0.004918 0.000000 0.000000 0.000000
# 2 -0.007369 0.044058 -0.001818 0.000000 0.000000 0.000000
# 3 -0.004918 -0.001818 0.023111 0.000000 0.000000 0.000000
# 4 0.000000 0.000000 0.000000 0.043923 0.000000 0.000000
# 5 0.000000 0.000000 0.000000 0.000000 0.021965 0.000000
# 6 0.000000 0.000000 0.000000 0.000000 0.000000 0.050651
#
#
# Mechanical properties :
#
#
# Convention : Reuss Voigt Hill
#
# Bulk Modulus (GPa) = 19.96057 32.83803 26.39930
# Shear Modulus (GPa) = 20.85458 26.78637 23.82048
#
# Velocity S-wave (km/s) = 3.26407 3.69926 3.48846
# Velocity P-wave (km/s) = 4.93993 5.91796 5.45093
#
# Compressibility (1/GPa) = 0.05009878
#
# Stress axis : x y z
#
# Youngs Moduli (GPa) = 89.78426 22.69717 43.26858
#
# Poissons Ratio (x) = 0.16725 0.21278
# Poissons Ratio (y) = 0.66160 0.07866
# Poissons Ratio (z) = 0.44153 0.04126
#
# Static dielectric constant tensor:
#      x y z
#    x 3.794660 0.000000 0.000000 
#    y 0.000000 3.128990 0.000000 
#    z 0.000000 0.000000 4.283300 
# 
# 
# High freq. dielectric constant tensor:
#      x y z
#    x 1.786750 0.000000 0.000000 
#    y 0.000000 1.705440 0.000000 
#    z 0.000000 0.000000 1.780400 
# 
# From -- ./inp_files/6662.got.cif
#   From: 2010.03.12/outbox.cif.g09.slc.cpg/sg19_4_cif.got.tgz:6662.got - 2010.04.10 18:59:41.
