data_PCOD8156128
_publ_section_title
;
Structure prediction by ZEFSAII (Michael W. Deem and Ramdas Pophale) SiO2 
 PCOD8156128
Probable space group: P 21 21 2
;
_chemical_formula_sum "Si O2"
_cell_formula_units_Z 20
_cell_length_a 12.867766
_cell_length_b 4.941912
_cell_length_c 14.061195
_cell_angle_alpha 90.000000
_cell_angle_beta 90.000000
_cell_angle_gamma 90.000000
_cell_volume 894.170615
_symmetry_space_group_name_H-M "P 21 21 2"
_symmetry_group_IT_number 18
_symmetry_cell_setting 'orthorhombic'
loop_
_space_group_symop_operation_xyz
x,y,z
-x,-y,z
1/2+x,1/2-y,-z
1/2-x,1/2+y,-z
loop_
_atom_site_type_symbol
_atom_site_label
_atom_site_fract_x
_atom_site_fract_y
_atom_site_fract_z
Si Si1 0.183579 0.903057 0.890699
Si Si2 0.113045 0.409393 0.000144
Si Si3 0.887531 0.556718 0.590422
Si Si4 0.569301 0.231120 0.623665
Si Si5 0.211628 0.930655 0.675680
O O1 0.148261 0.602782 0.915120
O O2 0.160312 0.926831 0.779317
O O3 0.114967 0.110768 0.953831
O O4 0.306432 0.940728 0.912499
O O5 0.000000 0.500000 0.038298
O O6 0.902093 0.667265 0.484964
O O7 0.839918 0.257193 0.594750
O O8 0.000000 0.500000 0.639206
O O9 0.807245 0.760400 0.642591
O O10 0.500000 0.500000 0.634288
O O11 0.673261 0.196337 0.685438
O O12 0.500000 0.000000 0.668541
#
# Coordination Sequence:
#
# PCOD8156128 Si02
#       5
#     4   4   4   4   4
#     4  10  23  38  59  92 116 148 205 244 295 377
#     4  10  21  41  62  82 119 159 190 244 308 364
#     4  11  23  39  60  88 123 163 205 248 306 371
#     4  11  23  41  61  86 121 163 207 246 300 368
#     4  12  23  39  62  90 123 157 201 262 309 354
#
# _framework density 22.367094000000002
#
# number of rings (size 3 to 8) (size 9 to 14) (size 15 to 20)
#    0.000    1.200    0.000    7.200    0.000    5.600 
#    0.000    4.000    0.000    0.000    0.000    0.000 
#    0.000    0.000    0.000    0.000    0.000    0.000 
#
# Total GULP energy -247771.611139 kJ/mol
# GULP energy per Si atom -12388.580557 kJ/mol
# Density = 2.231619 g / cm^3
# Si number density = 22.367094 Si / 1000 Ang^3
#
#
#
# Elastic Constant Matrix: (Units=GPa)
#
#
# Indices 1 2 3 4 5 6 
#
# 1 116.3491 20.2217 -12.6045 0.0000 0.0000 0.0000
# 2 20.2217 108.3044 11.1360 0.0000 0.0000 0.0000
# 3 -12.6045 11.1360 42.0831 0.0000 0.0000 0.0000
# 4 0.0000 0.0000 0.0000 15.0102 0.0000 0.0000
# 5 0.0000 0.0000 0.0000 0.0000 16.0122 0.0000
# 6 0.0000 0.0000 0.0000 0.0000 0.0000 52.3021
#
#
#
# Elastic Compliance Matrix: (Units=1/GPa)
#
#
# Indices 1 2 3 4 5 6 
#
# 1 0.009319 -0.002084 0.003343 0.000000 0.000000 0.000000
# 2 -0.002084 0.009957 -0.003259 0.000000 0.000000 0.000000
# 3 0.003343 -0.003259 0.025626 0.000000 0.000000 0.000000
# 4 0.000000 0.000000 0.000000 0.066621 0.000000 0.000000
# 5 0.000000 0.000000 0.000000 0.000000 0.062452 0.000000
# 6 0.000000 0.000000 0.000000 0.000000 0.000000 0.019120
#
#
# Mechanical properties :
#
#
# Convention : Reuss Voigt Hill
#
# Bulk Modulus (GPa) = 24.44848 33.80477 29.12663
# Shear Modulus (GPa) = 23.72704 33.19714 28.46209
#
# Velocity S-wave (km/s) = 3.26053 3.85671 3.57108
# Velocity P-wave (km/s) = 5.01288 5.91428 5.48214
#
# Compressibility (1/GPa) = 0.04090233
#
# Stress axis : x y z
#
# Youngs Moduli (GPa) = 107.30669 100.42808 39.02276
#
# Poissons Ratio (x) = 0.20926 -0.13044
# Poissons Ratio (y) = 0.22359 0.12718
# Poissons Ratio (z) = -0.35868 0.32730
#
# Static dielectric constant tensor:
#      x y z
#    x 4.333170 0.000000 0.000000 
#    y 0.000000 4.220440 0.000000 
#    z 0.000000 0.000000 3.551380 
# 
# 
# High freq. dielectric constant tensor:
#      x y z
#    x 1.894260 0.000000 0.000000 
#    y 0.000000 1.898650 0.000000 
#    z 0.000000 0.000000 1.850150 
# 
# From -- ./inp_files/6417.got.cif
#   From: 2010.03.12/outbox.cif.g09.slc.cpg/sg18_4_cif.got.tgz:6417.got - 2010.04.10 18:53:55.
