data_PCOD8156655
_publ_section_title
;
Structure prediction by ZEFSAII (Michael W. Deem and Ramdas Pophale) SiO2 
 PCOD8156655
Probable space group: P 21 21 21
;
_chemical_formula_sum "Si O2"
_cell_formula_units_Z 20
_cell_length_a 4.962363
_cell_length_b 7.343030
_cell_length_c 25.725811
_cell_angle_alpha 90.000000
_cell_angle_beta 90.000000
_cell_angle_gamma 90.000000
_cell_volume 937.417177
_symmetry_space_group_name_H-M "P 21 21 21"
_symmetry_group_IT_number 19
_symmetry_cell_setting 'orthorhombic'
loop_
_space_group_symop_operation_xyz
x,y,z
1/2-x,-y,1/2+z
1/2+x,1/2-y,-z
-x,1/2+y,1/2-z
loop_
_atom_site_type_symbol
_atom_site_label
_atom_site_fract_x
_atom_site_fract_y
_atom_site_fract_z
Si Si1 0.201902 0.806053 0.115331
Si Si2 0.203851 0.189991 0.803653
Si Si3 0.204542 0.069529 0.210063
Si Si4 0.686798 0.365891 0.494239
Si Si5 0.701933 0.559481 0.103052
O O1 0.239558 0.935870 0.063922
O O2 0.402592 0.634578 0.112400
O O3 0.903157 0.724017 0.117920
O O4 0.265281 0.922894 0.165820
O O5 0.400754 0.358895 0.793753
O O6 0.901121 0.258673 0.795116
O O7 0.259899 0.021430 0.765910
O O8 0.245380 0.119186 0.862298
O O9 0.371883 0.314396 0.496183
O O10 0.754424 0.501631 0.542378
#
# Coordination Sequence:
#
# PCOD8156655 Si02
#       5
#     4   4   4   4   4
#     4  10  19  36  58  82 109 143 181 220 262 318
#     4  12  24  39  57  81 109 143 181 225 273 321
#     4  12  24  39  57  81 109 143 181 225 273 321
#     4   8  16  30  54  80 106 140 178 212 258 318
#     4  10  19  36  58  82 109 143 181 220 262 318
#
# _framework density 21.335218000000001
#
# number of rings (size 3 to 8) (size 9 to 14) (size 15 to 20)
#    0.000    1.600    0.000    6.000    0.000    0.000 
#    0.000    2.000    0.000    0.000    0.000    0.000 
#    0.000    0.000    0.000    0.000    0.000    0.000 
#
# Total GULP energy -247986.723459 kJ/mol
# GULP energy per Si atom -12399.336173 kJ/mol
# Density = 2.128666 g / cm^3
# Si number density = 21.335218 Si / 1000 Ang^3
#
#
#
# Elastic Constant Matrix: (Units=GPa)
#
#
# Indices 1 2 3 4 5 6 
#
# 1 79.2850 3.7561 5.7862 0.0000 0.0000 0.0000
# 2 3.7561 32.7031 1.4403 0.0000 0.0000 0.0000
# 3 5.7862 1.4403 66.0144 0.0000 0.0000 0.0000
# 4 0.0000 0.0000 0.0000 32.0289 0.0000 0.0000
# 5 0.0000 0.0000 0.0000 0.0000 28.7677 0.0000
# 6 0.0000 0.0000 0.0000 0.0000 0.0000 37.4352
#
#
#
# Elastic Compliance Matrix: (Units=1/GPa)
#
#
# Indices 1 2 3 4 5 6 
#
# 1 0.012759 -0.001418 -0.001087 0.000000 0.000000 0.000000
# 2 -0.001418 0.030765 -0.000547 0.000000 0.000000 0.000000
# 3 -0.001087 -0.000547 0.015255 0.000000 0.000000 0.000000
# 4 0.000000 0.000000 0.000000 0.031222 0.000000 0.000000
# 5 0.000000 0.000000 0.000000 0.000000 0.034761 0.000000
# 6 0.000000 0.000000 0.000000 0.000000 0.000000 0.026713
#
#
# Mechanical properties :
#
#
# Convention : Reuss Voigt Hill
#
# Bulk Modulus (GPa) = 18.98407 22.21865 20.60136
# Shear Modulus (GPa) = 28.54889 30.78101 29.66495
#
# Velocity S-wave (km/s) = 3.66199 3.80245 3.73288
# Velocity P-wave (km/s) = 5.17663 5.45113 5.31566
#
# Compressibility (1/GPa) = 0.05267576
#
# Stress axis : x y z
#
# Youngs Moduli (GPa) = 78.37456 32.50445 65.55033
#
# Poissons Ratio (x) = 0.04608 0.07128
# Poissons Ratio (y) = 0.11110 0.03586
# Poissons Ratio (z) = 0.08523 0.01778
#
# Static dielectric constant tensor:
#      x y z
#    x 3.952890 0.000000 0.000000 
#    y 0.000000 3.207200 0.000000 
#    z 0.000000 0.000000 4.352330 
# 
# 
# High freq. dielectric constant tensor:
#      x y z
#    x 1.858690 0.000000 0.000000 
#    y 0.000000 1.776310 0.000000 
#    z 0.000000 0.000000 1.864500 
# 
# From -- ./inp_files/145.got.cif
#   From: 2010.03.12/outbox.cif.g09.slc.cpg/sg19_1_cif.got.tgz:145.got - 2010.04.10 18:59:41.
