data_PCOD8156351
_publ_section_title
;
Structure prediction by ZEFSAII (Michael W. Deem and Ramdas Pophale) SiO2 
 PCOD8156351
Probable space group: P 21 21 2
;
_chemical_formula_sum "Si O2"
_cell_formula_units_Z 24
_cell_length_a 18.664751
_cell_length_b 5.421453
_cell_length_c 10.278022
_cell_angle_alpha 90.000000
_cell_angle_beta 90.000000
_cell_angle_gamma 90.000000
_cell_volume 1040.033769
_symmetry_space_group_name_H-M "P 21 21 2"
_symmetry_group_IT_number 18
_symmetry_cell_setting 'orthorhombic'
loop_
_space_group_symop_operation_xyz
x,y,z
-x,-y,z
1/2+x,1/2-y,-z
1/2-x,1/2+y,-z
loop_
_atom_site_type_symbol
_atom_site_label
_atom_site_fract_x
_atom_site_fract_y
_atom_site_fract_z
Si Si1 0.823322 0.220564 0.876949
Si Si2 0.177913 0.055356 0.133703
Si Si3 0.428137 0.611630 0.257322
Si Si4 0.658571 0.177369 0.470773
Si Si5 0.322012 0.321278 0.609362
Si Si6 0.573063 0.115745 0.996564
O O1 0.749524 0.311279 0.811290
O O2 0.869750 0.425226 0.948419
O O3 0.866722 0.097229 0.758465
O O4 0.802109 0.025201 0.987877
O O5 0.161568 0.834446 0.235123
O O6 0.108983 0.233963 0.122327
O O7 0.500000 0.500000 0.321069
O O8 0.396825 0.826665 0.349581
O O9 0.450300 0.710579 0.115798
O O10 0.643182 0.430049 0.549588
O O11 0.737819 0.179141 0.414487
O O12 0.643202 0.931553 0.555587
O O13 0.500000 0.000000 0.940165
#
# Coordination Sequence:
#
# PCOD8156351 Si02
#       6
#     4   4   4   4   4   4
#     4  11  23  39  66 107 138 180 237 296 369 430
#     4  11  24  38  69 104 141 186 241 299 359 441
#     4  11  24  41  69 103 141 183 235 305 364 432
#     4  10  24  41  70 102 136 186 239 288 361 416
#     4  10  24  43  67 102 141 183 234 301 348 416
#     4  11  23  41  66 103 143 184 228 297 379 433
#
# _framework density 23.076174000000002
#
# number of rings (size 3 to 8) (size 9 to 14) (size 15 to 20)
#    0.000    1.333    3.333    1.000   14.000    0.000 
#    0.000    0.000    3.667    1.000    0.000    0.000 
#    0.000    0.000    0.000    0.000    0.000    0.000 
#
# Total GULP energy -297629.185439 kJ/mol
# GULP energy per Si atom -12401.216060 kJ/mol
# Density = 2.302365 g / cm^3
# Si number density = 23.076174 Si / 1000 Ang^3
#
#
#
# Elastic Constant Matrix: (Units=GPa)
#
#
# Indices 1 2 3 4 5 6 
#
# 1 121.6216 54.6167 41.3192 0.0000 0.0000 0.0000
# 2 54.6167 139.2455 45.9275 0.0000 0.0000 0.0000
# 3 41.3192 45.9275 94.8486 0.0000 0.0000 0.0000
# 4 0.0000 0.0000 0.0000 43.5469 0.0000 0.0000
# 5 0.0000 0.0000 0.0000 0.0000 14.1376 0.0000
# 6 0.0000 0.0000 0.0000 0.0000 0.0000 34.9587
#
#
#
# Elastic Compliance Matrix: (Units=1/GPa)
#
#
# Indices 1 2 3 4 5 6 
#
# 1 0.010708 -0.003167 -0.003131 0.000000 0.000000 0.000000
# 2 -0.003167 0.009483 -0.003212 0.000000 0.000000 0.000000
# 3 -0.003131 -0.003212 0.013463 0.000000 0.000000 0.000000
# 4 0.000000 0.000000 0.000000 0.022964 0.000000 0.000000
# 5 0.000000 0.000000 0.000000 0.000000 0.070733 0.000000
# 6 0.000000 0.000000 0.000000 0.000000 0.000000 0.028605
#
#
# Mechanical properties :
#
#
# Convention : Reuss Voigt Hill
#
# Bulk Modulus (GPa) = 68.34000 71.04917 69.69459
# Shear Modulus (GPa) = 27.80003 32.78545 30.29274
#
# Velocity S-wave (km/s) = 3.47465 3.77337 3.62709
# Velocity P-wave (km/s) = 6.76586 7.05976 6.91437
#
# Compressibility (1/GPa) = 0.01463272
#
# Stress axis : x y z
#
# Youngs Moduli (GPa) = 93.38455 105.44721 74.27984
#
# Poissons Ratio (x) = 0.33400 0.23259
# Poissons Ratio (y) = 0.29579 0.23860
# Poissons Ratio (z) = 0.29241 0.33872
#
# Static dielectric constant tensor:
#      x y z
#    x 3.949460 0.000000 0.000000 
#    y 0.000000 4.442170 0.000000 
#    z 0.000000 0.000000 4.051980 
# 
# 
# High freq. dielectric constant tensor:
#      x y z
#    x 1.894520 0.000000 0.000000 
#    y 0.000000 1.920840 0.000000 
#    z 0.000000 0.000000 1.895590 
# 
# From -- ./inp_files/6175.got.cif
#   From: 2010.03.12/outbox.cif.g09.slc.cpg/sg18_4_cif.got.tgz:6175.got - 2010.04.10 18:53:55.
