data_PCOD8156481
_publ_section_title
;
Structure prediction by ZEFSAII (Michael W. Deem and Ramdas Pophale) SiO2 
 PCOD8156481
Probable space group: P 21 21 2
;
_chemical_formula_sum "Si O2"
_cell_formula_units_Z 18
_cell_length_a 8.015983
_cell_length_b 7.806311
_cell_length_c 11.893687
_cell_angle_alpha 90.000000
_cell_angle_beta 90.000000
_cell_angle_gamma 90.000000
_cell_volume 744.250512
_symmetry_space_group_name_H-M "P 21 21 2"
_symmetry_group_IT_number 18
_symmetry_cell_setting 'orthorhombic'
loop_
_space_group_symop_operation_xyz
x,y,z
-x,-y,z
1/2+x,1/2-y,-z
1/2-x,1/2+y,-z
loop_
_atom_site_type_symbol
_atom_site_label
_atom_site_fract_x
_atom_site_fract_y
_atom_site_fract_z
Si Si1 0.770571 0.423381 0.614731
Si Si2 0.037652 0.725786 0.806684
Si Si3 0.759554 0.452904 0.208881
Si Si4 0.000000 0.500000 0.012074
Si Si5 0.425672 0.230141 0.598607
O O1 0.880788 0.423015 0.729344
O O2 0.613646 0.294369 0.616166
O O3 0.705308 0.614470 0.598256
O O4 0.900980 0.368904 0.518358
O O5 0.045167 0.664872 0.935925
O O6 0.844405 0.775679 0.793747
O O7 0.140507 0.889769 0.764497
O O8 0.894894 0.410912 0.304252
O O9 0.839474 0.513155 0.091355
#
# Coordination Sequence:
#
# PCOD8156481 Si02
#       5
#     4   4   4   2   4
#     4  11  24  42  67 102 143 186 232 285 349 419
#     4  11  24  42  66  96 131 176 229 285 350 419
#     4  11  24  42  66  96 131 176 229 285 350 419
#     4  12  24  44  66  92 128 172 224 290 352 412
#     4  11  24  42  67 102 143 186 232 285 349 419
#
# _framework density 24.185403000000001
#
# number of rings (size 3 to 8) (size 9 to 14) (size 15 to 20)
#    0.000    0.889    0.000    6.667    0.000    8.000 
#    0.000    4.444    0.000    0.000    0.000    0.000 
#    0.000    0.000    0.000    0.000    0.000    0.000 
#
# Total GULP energy -223045.877319 kJ/mol
# GULP energy per Si atom -12391.437629 kJ/mol
# Density = 2.413036 g / cm^3
# Si number density = 24.185403 Si / 1000 Ang^3
#
#
#
# Elastic Constant Matrix: (Units=GPa)
#
#
# Indices 1 2 3 4 5 6 
#
# 1 118.1206 24.0832 43.4163 0.0000 0.0000 0.0000
# 2 24.0832 85.7965 11.9124 0.0000 0.0000 0.0000
# 3 43.4163 11.9124 148.1683 0.0000 0.0000 0.0000
# 4 0.0000 0.0000 0.0000 40.3693 0.0000 0.0000
# 5 0.0000 0.0000 0.0000 0.0000 46.3475 0.0000
# 6 0.0000 0.0000 0.0000 0.0000 0.0000 51.3054
#
#
#
# Elastic Compliance Matrix: (Units=1/GPa)
#
#
# Indices 1 2 3 4 5 6 
#
# 1 0.009960 -0.002418 -0.002724 0.000000 0.000000 0.000000
# 2 -0.002418 0.012374 -0.000286 0.000000 0.000000 0.000000
# 3 -0.002724 -0.000286 0.007570 0.000000 0.000000 0.000000
# 4 0.000000 0.000000 0.000000 0.024771 0.000000 0.000000
# 5 0.000000 0.000000 0.000000 0.000000 0.021576 0.000000
# 6 0.000000 0.000000 0.000000 0.000000 0.000000 0.019491
#
#
# Mechanical properties :
#
#
# Convention : Reuss Voigt Hill
#
# Bulk Modulus (GPa) = 52.49894 56.76770 54.63332
# Shear Modulus (GPa) = 44.26794 45.78267 45.02530
#
# Velocity S-wave (km/s) = 4.28291 4.35557 4.31939
# Velocity P-wave (km/s) = 6.79792 6.98695 6.89308
#
# Compressibility (1/GPa) = 0.01904800
#
# Stress axis : x y z
#
# Youngs Moduli (GPa) = 100.40045 80.81545 132.09451
#
# Poissons Ratio (x) = 0.19538 0.35984
# Poissons Ratio (y) = 0.24273 0.03784
# Poissons Ratio (z) = 0.27351 0.02315
#
# Static dielectric constant tensor:
#      x y z
#    x 4.570090 0.000000 0.000000 
#    y 0.000000 4.761440 0.000000 
#    z 0.000000 0.000000 4.186570 
# 
# 
# High freq. dielectric constant tensor:
#      x y z
#    x 1.985660 0.000000 0.000000 
#    y 0.000000 1.983510 0.000000 
#    z 0.000000 0.000000 1.951130 
# 
# From -- ./inp_files/5398.got.cif
#   From: 2010.03.12/outbox.cif.g09.slc.cpg/sg18_3_cif.got.tgz:5398.got - 2010.04.10 18:53:55.
