data_PCOD8156269
_publ_section_title
;
Structure prediction by ZEFSAII (Michael W. Deem and Ramdas Pophale) SiO2 
 PCOD8156269
Probable space group: P 21 21 2
;
_chemical_formula_sum "Si O2"
_cell_formula_units_Z 28
_cell_length_a 12.530420
_cell_length_b 12.752945
_cell_length_c 8.250637
_cell_angle_alpha 90.000000
_cell_angle_beta 90.000000
_cell_angle_gamma 90.000000
_cell_volume 1318.449788
_symmetry_space_group_name_H-M "P 21 21 2"
_symmetry_group_IT_number 18
_symmetry_cell_setting 'orthorhombic'
loop_
_space_group_symop_operation_xyz
x,y,z
-x,-y,z
1/2+x,1/2-y,-z
1/2-x,1/2+y,-z
loop_
_atom_site_type_symbol
_atom_site_label
_atom_site_fract_x
_atom_site_fract_y
_atom_site_fract_z
Si Si1 0.025347 0.334805 0.312650
Si Si2 0.967179 0.741861 0.771806
Si Si3 0.847076 0.425757 0.823587
Si Si4 0.000000 0.000000 0.257541
Si Si5 0.130082 0.166952 0.100840
Si Si6 0.500000 0.000000 0.942953
Si Si7 0.592738 0.669562 0.505733
Si Si8 0.322803 0.898884 0.431102
O O1 0.104739 0.244359 0.249156
O O2 0.091250 0.415724 0.425601
O O3 0.979097 0.396467 0.160941
O O4 0.927347 0.283950 0.413020
O O5 0.050667 0.647510 0.793726
O O6 0.026495 0.831758 0.663574
O O7 0.863574 0.695573 0.682337
O O8 0.923246 0.792452 0.935926
O O9 0.757420 0.351110 0.903041
O O10 0.808176 0.490256 0.664201
O O11 0.891379 0.512660 0.950931
O O12 0.054923 0.916123 0.369458
O O13 0.914570 0.948129 0.138440
O O14 0.716693 0.644217 0.480575
#
# Coordination Sequence:
#
# PCOD8156269 Si02
#       8
#     4   4   4   2   4   2   4   4
#     4  10  24  42  66  99 139 171 223 281 337 410
#     4  11  24  42  69 100 140 175 234 291 340 424
#     4  12  23  43  71  99 138 182 230 284 350 410
#     4  10  22  44  64  94 138 172 226 282 332 418
#     4  11  23  44  67  99 139 186 222 284 353 403
#     4  12  24  44  62 102 134 170 228 282 332 426
#     4  10  23  43  67  96 132 178 226 276 345 407
#     4  11  22  43  70 100 134 182 227 286 350 409
#
# _framework density 21.237062999999999
#
# number of rings (size 3 to 8) (size 9 to 14) (size 15 to 20)
#    0.000    1.143    4.286    0.857    6.000    0.571 
#    7.714    0.000    0.000    0.000    0.000    0.000 
#    0.000    0.000    0.000    0.000    0.000    0.000 
#
# Total GULP energy -347074.973100 kJ/mol
# GULP energy per Si atom -12395.534754 kJ/mol
# Density = 2.118873 g / cm^3
# Si number density = 21.237063 Si / 1000 Ang^3
#
#
#
# Elastic Constant Matrix: (Units=GPa)
#
#
# Indices 1 2 3 4 5 6 
#
# 1 93.0391 21.9709 23.5252 0.0000 0.0000 0.0000
# 2 21.9709 63.3036 24.6219 0.0000 0.0000 0.0000
# 3 23.5252 24.6219 101.1104 0.0000 0.0000 0.0000
# 4 0.0000 0.0000 0.0000 58.7332 0.0000 0.0000
# 5 0.0000 0.0000 0.0000 0.0000 36.3917 0.0000
# 6 0.0000 0.0000 0.0000 0.0000 0.0000 32.6194
#
#
#
# Elastic Compliance Matrix: (Units=1/GPa)
#
#
# Indices 1 2 3 4 5 6 
#
# 1 0.012054 -0.003416 -0.001973 0.000000 0.000000 0.000000
# 2 -0.003416 0.018418 -0.003690 0.000000 0.000000 0.000000
# 3 -0.001973 -0.003690 0.011248 0.000000 0.000000 0.000000
# 4 0.000000 0.000000 0.000000 0.017026 0.000000 0.000000
# 5 0.000000 0.000000 0.000000 0.000000 0.027479 0.000000
# 6 0.000000 0.000000 0.000000 0.000000 0.000000 0.030657
#
#
# Mechanical properties :
#
#
# Convention : Reuss Voigt Hill
#
# Bulk Modulus (GPa) = 42.44258 44.18768 43.31513
# Shear Modulus (GPa) = 34.99130 38.03787 36.51458
#
# Velocity S-wave (km/s) = 4.06353 4.23674 4.15104
# Velocity P-wave (km/s) = 6.48421 6.69218 6.58902
#
# Compressibility (1/GPa) = 0.02356124
#
# Stress axis : x y z
#
# Youngs Moduli (GPa) = 82.96215 54.29511 88.90661
#
# Poissons Ratio (x) = 0.18549 0.17538
# Poissons Ratio (y) = 0.28342 0.32808
# Poissons Ratio (z) = 0.16365 0.20036
#
# Static dielectric constant tensor:
#      x y z
#    x 3.858860 0.000000 0.000000 
#    y 0.000000 3.695490 0.000000 
#    z 0.000000 0.000000 4.046990 
# 
# 
# High freq. dielectric constant tensor:
#      x y z
#    x 1.828070 0.000000 0.000000 
#    y 0.000000 1.830380 0.000000 
#    z 0.000000 0.000000 1.840630 
# 
# From -- ./inp_files/3886.got.cif
#   From: 2010.03.12/outbox.cif.g09.slc.cpg/sg18_2_cif.got.tgz:3886.got - 2010.04.10 18:53:55.
