data_PCOD8156548
_publ_section_title
;
Structure prediction by ZEFSAII (Michael W. Deem and Ramdas Pophale) SiO2 
 PCOD8156548
Probable space group: P 21 21 21
;
_chemical_formula_sum "Si O2"
_cell_formula_units_Z 32
_cell_length_a 8.789528
_cell_length_b 20.863676
_cell_length_c 8.142686
_cell_angle_alpha 90.000000
_cell_angle_beta 90.000000
_cell_angle_gamma 90.000000
_cell_volume 1493.220940
_symmetry_space_group_name_H-M "P 21 21 21"
_symmetry_group_IT_number 19
_symmetry_cell_setting 'orthorhombic'
loop_
_space_group_symop_operation_xyz
x,y,z
1/2-x,-y,1/2+z
1/2+x,1/2-y,-z
-x,1/2+y,1/2-z
loop_
_atom_site_type_symbol
_atom_site_label
_atom_site_fract_x
_atom_site_fract_y
_atom_site_fract_z
Si Si1 0.347875 0.381940 0.935238
Si Si2 0.656480 0.682052 0.134450
Si Si3 0.448041 0.618599 0.891817
Si Si4 0.658828 0.010476 0.408578
Si Si5 0.015207 0.416020 0.852929
Si Si6 0.350725 0.327483 0.284834
Si Si7 0.508253 0.514079 0.657436
Si Si8 0.521319 0.371141 0.609885
O O1 0.167203 0.377365 0.906030
O O2 0.423316 0.351861 0.771598
O O3 0.398917 0.457069 0.960316
O O4 0.406821 0.347038 0.102038
O O5 0.602778 0.631288 0.268453
O O6 0.618638 0.752742 0.195035
O O7 0.834941 0.675609 0.100556
O O8 0.565488 0.669640 0.965683
O O9 0.329958 0.656776 0.778049
O O10 0.544117 0.559364 0.813561
O O11 0.341836 0.583896 0.027800
O O12 0.553309 0.017930 0.247564
O O13 0.825478 0.991307 0.351159
O O14 0.926785 0.443088 0.009502
O O15 0.432698 0.364828 0.435853
O O16 0.581152 0.443695 0.645199
#
# Coordination Sequence:
#
# PCOD8156548 Si02
#       8
#     4   4   4   4   4   4   4   4
#     4  11  22  39  74 100 116 169 224 281 318 377
#     4  11  28  43  56  94 141 186 208 257 348 404
#     4  11  20  40  69  91 130 170 217 277 327 385
#     4  10  16  34  66 101 121 146 219 281 320 372
#     4  10  20  39  64  95 127 165 217 270 327 386
#     4  12  24  45  69  92 127 181 236 270 308 393
#     4  11  18  35  70  99 121 157 220 277 333 371
#     4  12  24  43  66 102 135 164 219 281 333 402
#
# _framework density 21.430184000000001
#
# number of rings (size 3 to 8) (size 9 to 14) (size 15 to 20)
#    0.000    1.000    6.250    3.000    0.000    2.000 
#    4.500    0.000    0.000    0.000    0.000    0.000 
#    0.000    0.000    0.000    0.000    0.000    0.000 
#
# Total GULP energy -396489.176537 kJ/mol
# GULP energy per Si atom -12390.286767 kJ/mol
# Density = 2.138141 g / cm^3
# Si number density = 21.430184 Si / 1000 Ang^3
#
#
#
# Elastic Constant Matrix: (Units=GPa)
#
#
# Indices 1 2 3 4 5 6 
#
# 1 50.4142 13.2344 20.8406 0.0000 0.0000 0.0000
# 2 13.2344 71.5285 8.7404 0.0000 0.0000 0.0000
# 3 20.8406 8.7404 111.6903 0.0000 0.0000 0.0000
# 4 0.0000 0.0000 0.0000 23.2115 0.0000 0.0000
# 5 0.0000 0.0000 0.0000 0.0000 19.3385 0.0000
# 6 0.0000 0.0000 0.0000 0.0000 0.0000 24.7524
#
#
#
# Elastic Compliance Matrix: (Units=1/GPa)
#
#
# Indices 1 2 3 4 5 6 
#
# 1 0.022409 -0.003670 -0.003894 0.000000 0.000000 0.000000
# 2 -0.003670 0.014717 -0.000467 0.000000 0.000000 0.000000
# 3 -0.003894 -0.000467 0.009716 0.000000 0.000000 0.000000
# 4 0.000000 0.000000 0.000000 0.043082 0.000000 0.000000
# 5 0.000000 0.000000 0.000000 0.000000 0.051710 0.000000
# 6 0.000000 0.000000 0.000000 0.000000 0.000000 0.040400
#
#
# Mechanical properties :
#
#
# Convention : Reuss Voigt Hill
#
# Bulk Modulus (GPa) = 32.48915 35.47377 33.98146
# Shear Modulus (GPa) = 23.99729 26.18166 25.08947
#
# Velocity S-wave (km/s) = 3.34996 3.49910 3.42534
# Velocity P-wave (km/s) = 5.49148 5.73708 5.61562
#
# Compressibility (1/GPa) = 0.03077950
#
# Stress axis : x y z
#
# Youngs Moduli (GPa) = 44.62499 67.95060 102.91798
#
# Poissons Ratio (x) = 0.24940 0.40078
# Poissons Ratio (y) = 0.16379 0.04804
# Poissons Ratio (z) = 0.17378 0.03172
#
# Static dielectric constant tensor:
#      x y z
#    x 3.393450 0.000000 0.000000 
#    y 0.000000 3.838220 0.000000 
#    z 0.000000 0.000000 4.232500 
# 
# 
# High freq. dielectric constant tensor:
#      x y z
#    x 1.797820 0.000000 0.000000 
#    y 0.000000 1.831080 0.000000 
#    z 0.000000 0.000000 1.861100 
# 
# From -- ./inp_files/3171.got.cif
#   From: 2010.03.12/outbox.cif.g09.slc.cpg/sg19_2_cif.got.tgz:3171.got - 2010.04.10 18:59:41.
