data_PCOD8156463
_publ_section_title
;
Structure prediction by ZEFSAII (Michael W. Deem and Ramdas Pophale) SiO2 
 PCOD8156463
Probable space group: P 21 21 2
;
_chemical_formula_sum "Si O2"
_cell_formula_units_Z 32
_cell_length_a 13.757040
_cell_length_b 9.161951
_cell_length_c 11.873147
_cell_angle_alpha 90.000000
_cell_angle_beta 90.000000
_cell_angle_gamma 90.000000
_cell_volume 1496.507196
_symmetry_space_group_name_H-M "P 21 21 2"
_symmetry_group_IT_number 18
_symmetry_cell_setting 'orthorhombic'
loop_
_space_group_symop_operation_xyz
x,y,z
-x,-y,z
1/2+x,1/2-y,-z
1/2-x,1/2+y,-z
loop_
_atom_site_type_symbol
_atom_site_label
_atom_site_fract_x
_atom_site_fract_y
_atom_site_fract_z
Si Si1 0.405176 0.086826 0.752742
Si Si2 0.463111 0.660870 0.739297
Si Si3 0.629125 0.287010 0.504112
Si Si4 0.044818 0.660351 0.622280
Si Si5 0.196231 0.525216 0.472915
Si Si6 0.378031 0.731080 0.977036
Si Si7 0.794871 0.454197 0.025634
Si Si8 0.544901 0.840607 0.124083
O O1 0.438102 0.248841 0.719074
O O2 0.362280 0.010705 0.643165
O O3 0.325171 0.090111 0.848968
O O4 0.500000 0.000000 0.797034
O O5 0.500000 0.500000 0.761420
O O6 0.390714 0.676240 0.634304
O O7 0.406315 0.723493 0.846721
O O8 0.526582 0.275725 0.438690
O O9 0.693033 0.421186 0.454664
O O10 0.691480 0.139716 0.480659
O O11 0.147065 0.644609 0.556803
O O12 0.061714 0.717514 0.749195
O O13 0.000000 0.500000 0.619197
O O14 0.312479 0.875181 0.998171
O O15 0.318184 0.586333 0.011338
O O16 0.473723 0.733361 0.055255
O O17 0.852093 0.350713 0.937923
O O18 0.500000 0.000000 0.126670
#
# Coordination Sequence:
#
# PCOD8156463 Si02
#       8
#     4   4   4   4   4   4   4   4
#     4  12  20  46  70  87 124 183 221 274 333 394
#     4  12  26  44  70  95 130 171 234 285 323 386
#     4  11  24  41  64  98 130 169 216 273 329 390
#     4   9  19  39  61  88 126 168 209 258 319 386
#     4  11  23  39  66  93 129 171 218 267 333 391
#     4  11  24  41  64  98 130 169 216 273 329 390
#     4  11  23  39  66  93 129 171 218 267 333 391
#     4   9  19  39  61  88 126 168 209 258 319 386
#
# _framework density 21.383126000000001
#
# number of rings (size 3 to 8) (size 9 to 14) (size 15 to 20)
#    0.000    1.250    5.000    0.750    7.000    0.000 
#    0.000    0.000    0.000    2.250    0.000    0.000 
#    0.000    0.000    0.000    0.000    0.000    0.000 
#
# Total GULP energy -396857.479697 kJ/mol
# GULP energy per Si atom -12401.796241 kJ/mol
# Density = 2.133446 g / cm^3
# Si number density = 21.383126 Si / 1000 Ang^3
#
#
#
# Elastic Constant Matrix: (Units=GPa)
#
#
# Indices 1 2 3 4 5 6 
#
# 1 53.3060 15.6858 24.3699 0.0000 0.0000 0.0000
# 2 15.6858 58.9830 2.0755 0.0000 0.0000 0.0000
# 3 24.3699 2.0755 126.4744 0.0000 0.0000 0.0000
# 4 0.0000 0.0000 0.0000 17.1013 0.0000 0.0000
# 5 0.0000 0.0000 0.0000 0.0000 24.6917 0.0000
# 6 0.0000 0.0000 0.0000 0.0000 0.0000 40.4345
#
#
#
# Elastic Compliance Matrix: (Units=1/GPa)
#
#
# Indices 1 2 3 4 5 6 
#
# 1 0.022398 -0.005808 -0.004221 0.000000 0.000000 0.000000
# 2 -0.005808 0.018470 0.000816 0.000000 0.000000 0.000000
# 3 -0.004221 0.000816 0.008707 0.000000 0.000000 0.000000
# 4 0.000000 0.000000 0.000000 0.058475 0.000000 0.000000
# 5 0.000000 0.000000 0.000000 0.000000 0.040499 0.000000
# 6 0.000000 0.000000 0.000000 0.000000 0.000000 0.024731
#
#
# Mechanical properties :
#
#
# Convention : Reuss Voigt Hill
#
# Bulk Modulus (GPa) = 32.10309 35.89177 33.99743
# Shear Modulus (GPa) = 24.74162 29.55431 27.14796
#
# Velocity S-wave (km/s) = 3.40525 3.72174 3.56701
# Velocity P-wave (km/s) = 5.52330 5.94054 5.73571
#
# Compressibility (1/GPa) = 0.03114965
#
# Stress axis : x y z
#
# Youngs Moduli (GPa) = 44.64652 54.14214 114.85561
#
# Poissons Ratio (x) = 0.31446 0.48475
# Poissons Ratio (y) = 0.25931 -0.09372
# Poissons Ratio (z) = 0.18843 -0.04418
#
# Static dielectric constant tensor:
#      x y z
#    x 3.709150 0.000000 0.000000 
#    y 0.000000 3.697650 0.000000 
#    z 0.000000 0.000000 3.944480 
# 
# 
# High freq. dielectric constant tensor:
#      x y z
#    x 1.828320 0.000000 0.000000 
#    y 0.000000 1.824590 0.000000 
#    z 0.000000 0.000000 1.844300 
# 
# From -- ./inp_files/6138.got.cif
#   From: 2010.03.12/outbox.cif.g09.slc.cpg/sg18_4_cif.got.tgz:6138.got - 2010.04.10 18:53:55.
