data_PCOD8156662
_publ_section_title
;
Structure prediction by ZEFSAII (Michael W. Deem and Ramdas Pophale) SiO2 
 PCOD8156662
Probable space group: P 21 21 21
;
_chemical_formula_sum "Si O2"
_cell_formula_units_Z 32
_cell_length_a 6.177123
_cell_length_b 15.968488
_cell_length_c 16.258049
_cell_angle_alpha 90.000000
_cell_angle_beta 90.000000
_cell_angle_gamma 90.000000
_cell_volume 1603.682808
_symmetry_space_group_name_H-M "P 21 21 21"
_symmetry_group_IT_number 19
_symmetry_cell_setting 'orthorhombic'
loop_
_space_group_symop_operation_xyz
x,y,z
1/2-x,-y,1/2+z
1/2+x,1/2-y,-z
-x,1/2+y,1/2-z
loop_
_atom_site_type_symbol
_atom_site_label
_atom_site_fract_x
_atom_site_fract_y
_atom_site_fract_z
Si Si1 0.421771 0.428129 0.593082
Si Si2 0.570053 0.283656 0.198529
Si Si3 0.184460 0.920982 0.384367
Si Si4 0.837847 0.171398 0.085644
Si Si5 0.634139 0.217047 0.374760
Si Si6 0.544397 0.988033 0.505067
Si Si7 0.797207 0.350913 0.496368
Si Si8 0.179881 0.295678 0.088973
O O1 0.586774 0.488418 0.644689
O O2 0.293709 0.360578 0.648871
O O3 0.248560 0.486923 0.549133
O O4 0.558816 0.378469 0.524431
O O5 0.731911 0.363581 0.191033
O O6 0.649221 0.201332 0.147715
O O7 0.544474 0.260086 0.293260
O O8 0.341362 0.315219 0.163971
O O9 0.377011 0.934676 0.449656
O O10 0.989815 0.870512 0.426640
O O11 0.064453 0.209712 0.116325
O O12 0.865222 0.070745 0.079071
O O13 0.806020 0.213962 0.996374
O O14 0.778113 0.282371 0.425780
O O15 0.428534 0.185650 0.426166
O O16 0.427200 0.069988 0.541712
#
# Coordination Sequence:
#
# PCOD8156662 Si02
#       8
#     4   4   4   4   4   4   4   4
#     4  10  20  39  69  89 118 164 212 261 310 373
#     4  11  24  35  60  96 129 164 205 262 301 374
#     4  10  19  36  62  93 123 167 200 248 308 363
#     4  11  19  34  59  90 129 166 198 238 304 373
#     4  11  23  44  62  91 120 157 221 263 317 362
#     4  10  20  36  65  95 119 160 213 248 307 384
#     4  10  22  40  70  83 113 166 209 269 317 367
#     4  11  19  34  59  89 127 168 198 231 302 376
#
# _framework density 19.954070999999999
#
# number of rings (size 3 to 8) (size 9 to 14) (size 15 to 20)
#    0.000    1.500    5.000    0.750    0.000    2.000 
#    2.250    0.000   11.000    0.000    0.000    0.000 
#    0.000    0.000    0.000    0.000    0.000    0.000 
#
# Total GULP energy -396628.819238 kJ/mol
# GULP energy per Si atom -12394.650601 kJ/mol
# Density = 1.990865 g / cm^3
# Si number density = 19.954071 Si / 1000 Ang^3
#
#
#
# Elastic Constant Matrix: (Units=GPa)
#
#
# Indices 1 2 3 4 5 6 
#
# 1 98.4119 47.2074 29.7202 0.0000 0.0000 0.0000
# 2 47.2074 119.6742 38.2066 0.0000 0.0000 0.0000
# 3 29.7202 38.2066 79.3428 0.0000 0.0000 0.0000
# 4 0.0000 0.0000 0.0000 18.8466 0.0000 0.0000
# 5 0.0000 0.0000 0.0000 0.0000 18.4149 0.0000
# 6 0.0000 0.0000 0.0000 0.0000 0.0000 39.6077
#
#
#
# Elastic Compliance Matrix: (Units=1/GPa)
#
#
# Indices 1 2 3 4 5 6 
#
# 1 0.013056 -0.004241 -0.002848 0.000000 0.000000 0.000000
# 2 -0.004241 0.011251 -0.003830 0.000000 0.000000 0.000000
# 3 -0.002848 -0.003830 0.015515 0.000000 0.000000 0.000000
# 4 0.000000 0.000000 0.000000 0.053060 0.000000 0.000000
# 5 0.000000 0.000000 0.000000 0.000000 0.054304 0.000000
# 6 0.000000 0.000000 0.000000 0.000000 0.000000 0.025248
#
#
# Mechanical properties :
#
#
# Convention : Reuss Voigt Hill
#
# Bulk Modulus (GPa) = 55.60319 58.63304 57.11811
# Shear Modulus (GPa) = 24.96688 27.52681 26.24684
#
# Velocity S-wave (km/s) = 3.54109 3.71820 3.63073
# Velocity P-wave (km/s) = 6.68171 6.91962 6.80170
#
# Compressibility (1/GPa) = 0.01798458
#
# Stress axis : x y z
#
# Youngs Moduli (GPa) = 76.59416 88.87755 64.45564
#
# Poissons Ratio (x) = 0.37691 0.18359
# Poissons Ratio (y) = 0.32481 0.24683
# Poissons Ratio (z) = 0.21817 0.34036
#
# Static dielectric constant tensor:
#      x y z
#    x 3.867820 0.000000 0.000000 
#    y 0.000000 3.960110 0.000000 
#    z 0.000000 0.000000 3.014180 
# 
# 
# High freq. dielectric constant tensor:
#      x y z
#    x 1.800850 0.000000 0.000000 
#    y 0.000000 1.796480 0.000000 
#    z 0.000000 0.000000 1.713550 
# 
# From -- ./inp_files/1885.got.cif
#   From: 2010.03.12/outbox.cif.g09.slc.cpg/sg19_1_cif.got.tgz:1885.got - 2010.04.10 18:59:41.
