data_PCOD8156735
_publ_section_title
;
Structure prediction by ZEFSAII (Michael W. Deem and Ramdas Pophale) SiO2 
 PCOD8156735
Probable space group: P 21 21 21
;
_chemical_formula_sum "Si O2"
_cell_formula_units_Z 32
_cell_length_a 11.079181
_cell_length_b 13.752158
_cell_length_c 11.223163
_cell_angle_alpha 90.000000
_cell_angle_beta 90.000000
_cell_angle_gamma 90.000000
_cell_volume 1709.990829
_symmetry_space_group_name_H-M "P 21 21 21"
_symmetry_group_IT_number 19
_symmetry_cell_setting 'orthorhombic'
loop_
_space_group_symop_operation_xyz
x,y,z
1/2-x,-y,1/2+z
1/2+x,1/2-y,-z
-x,1/2+y,1/2-z
loop_
_atom_site_type_symbol
_atom_site_label
_atom_site_fract_x
_atom_site_fract_y
_atom_site_fract_z
Si Si1 0.970110 0.179019 0.207324
Si Si2 0.082952 0.005769 0.073559
Si Si3 0.235244 0.678385 0.481053
Si Si4 0.121281 0.559291 0.094605
Si Si5 0.552900 0.049817 0.120686
Si Si6 0.481203 0.105329 0.791632
Si Si7 0.124994 0.506456 0.614346
Si Si8 0.315385 0.105317 0.014782
O O1 0.845681 0.176653 0.136189
O O2 0.937269 0.153775 0.344535
O O3 0.031815 0.284843 0.203829
O O4 0.061113 0.102805 0.150457
O O5 0.217045 0.019404 0.022600
O O6 0.075565 0.914056 0.161735
O O7 0.990262 0.985653 0.967153
O O8 0.362702 0.633629 0.438081
O O9 0.173462 0.615412 0.586927
O O10 0.248280 0.789008 0.526650
O O11 0.266449 0.568085 0.083040
O O12 0.092788 0.466371 0.181257
O O13 0.062473 0.544815 0.964750
O O14 0.416809 0.092133 0.118197
O O15 0.588075 0.011494 0.249780
O O16 0.375641 0.090376 0.886871
#
# Coordination Sequence:
#
# PCOD8156735 Si02
#       8
#     4   4   4   4   4   4   4   4
#     4   9  17  36  58  80 107 147 185 226 276 339
#     4  10  22  35  58  82 114 150 186 231 287 339
#     4   9  19  34  57  85 106 142 190 233 275 330
#     4   9  18  34  57  82 107 143 184 231 281 326
#     4  10  20  35  57  82 116 142 186 236 283 331
#     4   9  20  37  58  79 113 149 183 228 286 335
#     4  10  20  34  58  84 111 139 189 237 280 328
#     4  10  22  35  57  82 114 148 191 228 282 348
#
# _framework density 18.713550999999999
#
# number of rings (size 3 to 8) (size 9 to 14) (size 15 to 20)
#    0.000    2.500    1.250    0.000   12.250    0.000 
#    0.000    1.250    8.250    0.000    0.000    0.000 
#    0.000    0.000    0.000    0.000    0.000    0.000 
#
# Total GULP energy -396645.010624 kJ/mol
# GULP energy per Si atom -12395.156582 kJ/mol
# Density = 1.867096 g / cm^3
# Si number density = 18.713551 Si / 1000 Ang^3
#
#
#
# Elastic Constant Matrix: (Units=GPa)
#
#
# Indices 1 2 3 4 5 6 
#
# 1 92.5975 18.1415 25.6931 0.0000 0.0000 0.0000
# 2 18.1415 52.9991 33.5815 0.0000 0.0000 0.0000
# 3 25.6931 33.5815 108.8595 0.0000 0.0000 0.0000
# 4 0.0000 0.0000 0.0000 25.2170 0.0000 0.0000
# 5 0.0000 0.0000 0.0000 0.0000 20.4186 0.0000
# 6 0.0000 0.0000 0.0000 0.0000 0.0000 22.1944
#
#
#
# Elastic Compliance Matrix: (Units=1/GPa)
#
#
# Indices 1 2 3 4 5 6 
#
# 1 0.011893 -0.002849 -0.001928 0.000000 0.000000 0.000000
# 2 -0.002849 0.024135 -0.006773 0.000000 0.000000 0.000000
# 3 -0.001928 -0.006773 0.011730 0.000000 0.000000 0.000000
# 4 0.000000 0.000000 0.000000 0.039656 0.000000 0.000000
# 5 0.000000 0.000000 0.000000 0.000000 0.048975 0.000000
# 6 0.000000 0.000000 0.000000 0.000000 0.000000 0.045056
#
#
# Mechanical properties :
#
#
# Convention : Reuss Voigt Hill
#
# Bulk Modulus (GPa) = 40.55460 45.47645 43.01552
# Shear Modulus (GPa) = 23.50018 25.36868 24.43443
#
# Velocity S-wave (km/s) = 3.54755 3.68588 3.61738
# Velocity P-wave (km/s) = 6.20471 6.51678 6.36266
#
# Compressibility (1/GPa) = 0.02465812
#
# Stress axis : x y z
#
# Youngs Moduli (GPa) = 84.08596 41.43373 85.24795
#
# Poissons Ratio (x) = 0.11805 0.16435
# Poissons Ratio (y) = 0.23958 0.57737
# Poissons Ratio (z) = 0.16211 0.28062
#
# Static dielectric constant tensor:
#      x y z
#    x 3.414400 0.000000 0.000000 
#    y 0.000000 3.406940 0.000000 
#    z 0.000000 0.000000 3.449050 
# 
# 
# High freq. dielectric constant tensor:
#      x y z
#    x 1.727640 0.000000 0.000000 
#    y 0.000000 1.702990 0.000000 
#    z 0.000000 0.000000 1.721970 
# 
# From -- ./inp_files/5114.got.cif
#   From: 2010.03.12/outbox.cif.g09.slc.cpg/sg19_3_cif.got.tgz:5114.got - 2010.04.10 18:59:41.
