data_PCOD8156418
_publ_section_title
;
Structure prediction by ZEFSAII (Michael W. Deem and Ramdas Pophale) SiO2 
 PCOD8156418
Probable space group: P 21 21 2
;
_chemical_formula_sum "Si O2"
_cell_formula_units_Z 18
_cell_length_a 28.428467
_cell_length_b 4.941738
_cell_length_c 4.951081
_cell_angle_alpha 90.000000
_cell_angle_beta 90.000000
_cell_angle_gamma 90.000000
_cell_volume 695.557742
_symmetry_space_group_name_H-M "P 21 21 2"
_symmetry_group_IT_number 18
_symmetry_cell_setting 'orthorhombic'
loop_
_space_group_symop_operation_xyz
x,y,z
-x,-y,z
1/2+x,1/2-y,-z
1/2-x,1/2+y,-z
loop_
_atom_site_type_symbol
_atom_site_label
_atom_site_fract_x
_atom_site_fract_y
_atom_site_fract_z
Si Si1 0.920343 0.224789 0.179855
Si Si2 0.917080 0.733594 0.816952
Si Si3 0.343833 0.458353 0.479260
Si Si4 0.500000 0.500000 0.497579
Si Si5 0.281342 0.433973 0.981787
O O1 0.879843 0.274744 0.406772
O O2 0.971385 0.215528 0.319454
O O3 0.919485 0.429745 0.929553
O O4 0.907993 0.927061 0.070904
O O5 0.874209 0.775687 0.606240
O O6 0.966509 0.812661 0.682203
O O7 0.306921 0.538258 0.711319
O O8 0.317687 0.340962 0.214871
O O9 0.250404 0.678699 0.097739
#
# Coordination Sequence:
#
# PCOD8156418 Si02
#       5
#     4   4   4   2   4
#     4  11  26  47  78 111 158 208 263 323 388 468
#     4  11  26  47  78 111 158 208 263 323 388 468
#     4  11  26  51  78 118 156 206 260 321 396 469
#     4  10  26  46  76 116 160 216 268 328 388 462
#     4  12  28  48  80 115 156 201 258 326 394 472
#
# _framework density 25.878518
#
# number of rings (size 3 to 8) (size 9 to 14) (size 15 to 20)
#    0.000    0.889    2.222    2.000    3.111   16.000 
#    0.000    0.000    4.889    0.000    0.000    0.000 
#    0.000    0.000    0.000    0.000    0.000    0.000 
#
# Total GULP energy -223230.975174 kJ/mol
# GULP energy per Si atom -12401.720843 kJ/mol
# Density = 2.581962 g / cm^3
# Si number density = 25.878518 Si / 1000 Ang^3
#
#
#
# Elastic Constant Matrix: (Units=GPa)
#
#
# Indices 1 2 3 4 5 6 
#
# 1 137.9276 23.4534 48.1930 0.0000 0.0000 0.0000
# 2 23.4534 71.6510 14.2984 0.0000 0.0000 0.0000
# 3 48.1930 14.2984 145.6929 0.0000 0.0000 0.0000
# 4 0.0000 0.0000 0.0000 49.2003 0.0000 0.0000
# 5 0.0000 0.0000 0.0000 0.0000 47.4615 0.0000
# 6 0.0000 0.0000 0.0000 0.0000 0.0000 9.1113
#
#
#
# Elastic Compliance Matrix: (Units=1/GPa)
#
#
# Indices 1 2 3 4 5 6 
#
# 1 0.008547 -0.002278 -0.002604 0.000000 0.000000 0.000000
# 2 -0.002278 0.014843 -0.000703 0.000000 0.000000 0.000000
# 3 -0.002604 -0.000703 0.007794 0.000000 0.000000 0.000000
# 4 0.000000 0.000000 0.000000 0.020325 0.000000 0.000000
# 5 0.000000 0.000000 0.000000 0.000000 0.021070 0.000000
# 6 0.000000 0.000000 0.000000 0.000000 0.000000 0.109754
#
#
# Mechanical properties :
#
#
# Convention : Reuss Voigt Hill
#
# Bulk Modulus (GPa) = 49.96524 58.57347 54.26936
# Shear Modulus (GPa) = 24.97823 39.10972 32.04397
#
# Velocity S-wave (km/s) = 3.11015 3.89174 3.52269
# Velocity P-wave (km/s) = 5.67864 6.54808 6.12880
#
# Compressibility (1/GPa) = 0.02001391
#
# Stress axis : x y z
#
# Youngs Moduli (GPa) = 116.99551 67.37380 128.30332
#
# Poissons Ratio (x) = 0.15349 0.33407
# Poissons Ratio (y) = 0.26654 0.09021
# Poissons Ratio (z) = 0.30463 0.04737
#
# Static dielectric constant tensor:
#      x y z
#    x 5.047750 0.000000 0.000000 
#    y 0.000000 4.221590 0.000000 
#    z 0.000000 0.000000 4.914220 
# 
# 
# High freq. dielectric constant tensor:
#      x y z
#    x 2.053010 0.000000 0.000000 
#    y 0.000000 2.004080 0.000000 
#    z 0.000000 0.000000 2.061920 
# 
# From -- ./inp_files/2158.got.cif
#   From: 2010.03.12/outbox.cif.g09.slc.cpg/sg18_2_cif.got.tgz:2158.got - 2010.04.10 18:53:55.
