data_PCOD8156103
_publ_section_title
;
Structure prediction by ZEFSAII (Michael W. Deem and Ramdas Pophale) SiO2 
 PCOD8156103
Probable space group: P 21 21 2
;
_chemical_formula_sum "Si O2"
_cell_formula_units_Z 32
_cell_length_a 12.171987
_cell_length_b 9.062129
_cell_length_c 13.657286
_cell_angle_alpha 90.000000
_cell_angle_beta 90.000000
_cell_angle_gamma 90.000000
_cell_volume 1506.454864
_symmetry_space_group_name_H-M "P 21 21 2"
_symmetry_group_IT_number 18
_symmetry_cell_setting 'orthorhombic'
loop_
_space_group_symop_operation_xyz
x,y,z
-x,-y,z
1/2+x,1/2-y,-z
1/2-x,1/2+y,-z
loop_
_atom_site_type_symbol
_atom_site_label
_atom_site_fract_x
_atom_site_fract_y
_atom_site_fract_z
Si Si1 0.812395 0.145932 0.213644
Si Si2 0.330185 0.697464 0.814155
Si Si3 0.371232 0.296136 0.564636
Si Si4 0.882168 0.854163 0.765058
Si Si5 0.224068 0.029773 0.569166
Si Si6 0.017653 0.827611 0.055023
Si Si7 0.568153 0.141962 0.636669
Si Si8 0.399156 0.342827 0.154567
O O1 0.858551 0.180716 0.320080
O O2 0.692335 0.217785 0.203132
O O3 0.890579 0.222323 0.133548
O O4 0.802818 0.973726 0.195124
O O5 0.399234 0.739620 0.912578
O O6 0.405600 0.746850 0.724105
O O7 0.215307 0.777715 0.813427
O O8 0.357326 0.451700 0.508841
O O9 0.494735 0.228596 0.554128
O O10 0.280555 0.177670 0.525790
O O11 0.009697 0.800801 0.762199
O O12 0.846987 0.929971 0.664010
O O13 0.880981 0.979693 0.850547
O O14 0.318322 0.910978 0.590396
O O15 0.057989 0.776861 0.948469
O O16 0.000000 0.000000 0.062416
O O17 0.500000 0.000000 0.675975
#
# Coordination Sequence:
#
# PCOD8156103 Si02
#       8
#     4   4   4   4   4   4   4   4
#     4  10  23  40  66  94 130 165 215 279 331 384
#     4  11  23  40  67  97 130 172 221 281 330 393
#     4  10  22  42  65  94 130 166 222 275 327 399
#     4  10  22  44  64  91 132 177 218 266 338 402
#     4  10  22  42  66  95 128 174 218 275 335 394
#     4  10  21  39  64  97 127 166 216 273 330 382
#     4  10  21  42  66  96 132 172 225 279 333 402
#     4  11  23  40  68  90 131 178 219 271 326 412
#
# _framework density 21.241924000000001
#
# number of rings (size 3 to 8) (size 9 to 14) (size 15 to 20)
#    0.000    1.750    3.750    0.000    3.500    0.500 
#    9.000    0.000    8.250    0.000    0.000    0.000 
#    0.000    0.000    0.000    0.000    0.000    0.000 
#
# Total GULP energy -396638.465367 kJ/mol
# GULP energy per Si atom -12394.952043 kJ/mol
# Density = 2.119358 g / cm^3
# Si number density = 21.241924 Si / 1000 Ang^3
#
#
#
# Elastic Constant Matrix: (Units=GPa)
#
#
# Indices 1 2 3 4 5 6 
#
# 1 149.9815 39.9498 49.4707 0.0000 0.0000 0.0000
# 2 39.9498 71.6995 34.4074 0.0000 0.0000 0.0000
# 3 49.4707 34.4074 84.8552 0.0000 0.0000 0.0000
# 4 0.0000 0.0000 0.0000 27.1955 0.0000 0.0000
# 5 0.0000 0.0000 0.0000 0.0000 27.4760 0.0000
# 6 0.0000 0.0000 0.0000 0.0000 0.0000 32.1239
#
#
#
# Elastic Compliance Matrix: (Units=1/GPa)
#
#
# Indices 1 2 3 4 5 6 
#
# 1 0.008750 -0.003014 -0.003879 0.000000 0.000000 0.000000
# 2 -0.003014 0.018355 -0.005686 0.000000 0.000000 0.000000
# 3 -0.003879 -0.005686 0.016352 0.000000 0.000000 0.000000
# 4 0.000000 0.000000 0.000000 0.036771 0.000000 0.000000
# 5 0.000000 0.000000 0.000000 0.000000 0.036395 0.000000
# 6 0.000000 0.000000 0.000000 0.000000 0.000000 0.031129
#
#
# Mechanical properties :
#
#
# Convention : Reuss Voigt Hill
#
# Bulk Modulus (GPa) = 54.64649 61.57691 58.11170
# Shear Modulus (GPa) = 27.93167 29.53963 28.73565
#
# Velocity S-wave (km/s) = 3.63013 3.73316 3.68201
# Velocity P-wave (km/s) = 6.58423 6.90169 6.74483
#
# Compressibility (1/GPa) = 0.01829944
#
# Stress axis : x y z
#
# Youngs Moduli (GPa) = 114.28920 54.48207 61.15575
#
# Poissons Ratio (x) = 0.16419 0.23723
# Poissons Ratio (y) = 0.34443 0.34770
# Poissons Ratio (z) = 0.44334 0.30976
#
# Static dielectric constant tensor:
#      x y z
#    x 4.222300 0.000000 0.000000 
#    y 0.000000 3.861270 0.000000 
#    z 0.000000 0.000000 3.739200 
# 
# 
# High freq. dielectric constant tensor:
#      x y z
#    x 1.853600 0.000000 0.000000 
#    y 0.000000 1.821740 0.000000 
#    z 0.000000 0.000000 1.813390 
# 
# From -- ./inp_files/6934.got.cif
#   From: 2010.03.12/outbox.cif.g09.slc.cpg/sg18_4_cif.got.tgz:6934.got - 2010.04.10 18:53:55.
