data_PCOD8156936
_publ_section_title
;
Structure prediction by ZEFSAII (Michael W. Deem and Ramdas Pophale) SiO2 
 PCOD8156936
Probable space group: P 21 21 21
;
_chemical_formula_sum "Si O2"
_cell_formula_units_Z 32
_cell_length_a 13.737194
_cell_length_b 5.044626
_cell_length_c 25.475645
_cell_angle_alpha 90.000000
_cell_angle_beta 90.000000
_cell_angle_gamma 90.000000
_cell_volume 1765.436876
_symmetry_space_group_name_H-M "P 21 21 21"
_symmetry_group_IT_number 19
_symmetry_cell_setting 'orthorhombic'
loop_
_space_group_symop_operation_xyz
x,y,z
1/2-x,-y,1/2+z
1/2+x,1/2-y,-z
-x,1/2+y,1/2-z
loop_
_atom_site_type_symbol
_atom_site_label
_atom_site_fract_x
_atom_site_fract_y
_atom_site_fract_z
Si Si1 0.012203 0.709533 0.456575
Si Si2 0.707076 0.712499 0.607223
Si Si3 0.611228 0.208041 0.784733
Si Si4 0.197139 0.711894 0.937665
Si Si5 0.223498 0.295838 0.555302
Si Si6 0.815914 0.705479 0.396400
Si Si7 0.011695 0.208331 0.525635
Si Si8 0.112692 0.791651 0.283417
O O1 0.110293 0.768270 0.426442
O O2 0.013408 0.407771 0.476326
O O3 0.923011 0.757966 0.418102
O O4 0.003402 0.907946 0.505443
O O5 0.752249 0.423066 0.600170
O O6 0.683922 0.760205 0.668050
O O7 0.784854 0.924198 0.586735
O O8 0.681666 0.255039 0.833999
O O9 0.498862 0.233680 0.802601
O O10 0.634441 0.419214 0.739482
O O11 0.634606 0.919380 0.762062
O O12 0.081782 0.766321 0.938280
O O13 0.241015 0.735792 0.995816
O O14 0.242057 0.591165 0.576116
O O15 0.108535 0.243085 0.560082
O O16 0.281230 0.091184 0.591797
#
# Coordination Sequence:
#
# PCOD8156936 Si02
#       8
#     4   4   4   4   4   4   4   4
#     4  12  20  34  56  81 116 151 186 220 274 328
#     4  12  22  37  57  84 114 156 184 222 281 340
#     4  10  21  36  56  84 114 143 182 231 281 337
#     4  12  23  37  55  83 114 153 195 222 273 332
#     4  12  23  37  55  83 114 153 195 222 273 332
#     4  12  22  37  57  84 114 156 184 222 281 340
#     4  12  24  36  54  79 118 153 190 234 258 320
#     4  10  21  36  56  84 114 143 182 231 281 337
#
# _framework density 18.125827000000001
#
# number of rings (size 3 to 8) (size 9 to 14) (size 15 to 20)
#    0.000    0.500    6.250    3.750    0.000    0.000 
#    0.000    0.000    0.000    0.000    0.000   17.500 
#    0.000    0.000    0.000    0.000    0.000    0.000 
#
# Total GULP energy -397034.066437 kJ/mol
# GULP energy per Si atom -12407.314576 kJ/mol
# Density = 1.808457 g / cm^3
# Si number density = 18.125827 Si / 1000 Ang^3
#
#
#
# Elastic Constant Matrix: (Units=GPa)
#
#
# Indices 1 2 3 4 5 6 
#
# 1 79.3650 11.8664 15.4487 0.0000 0.0000 0.0000
# 2 11.8664 68.5838 10.8922 0.0000 0.0000 0.0000
# 3 15.4487 10.8922 72.7858 0.0000 0.0000 0.0000
# 4 0.0000 0.0000 0.0000 19.9915 0.0000 0.0000
# 5 0.0000 0.0000 0.0000 0.0000 10.4205 0.0000
# 6 0.0000 0.0000 0.0000 0.0000 0.0000 19.9137
#
#
#
# Elastic Compliance Matrix: (Units=1/GPa)
#
#
# Indices 1 2 3 4 5 6 
#
# 1 0.013383 -0.001910 -0.002555 0.000000 0.000000 0.000000
# 2 -0.001910 0.015208 -0.001871 0.000000 0.000000 0.000000
# 3 -0.002555 -0.001871 0.014561 0.000000 0.000000 0.000000
# 4 0.000000 0.000000 0.000000 0.050021 0.000000 0.000000
# 5 0.000000 0.000000 0.000000 0.000000 0.095965 0.000000
# 6 0.000000 0.000000 0.000000 0.000000 0.000000 0.050217
#
#
# Mechanical properties :
#
#
# Convention : Reuss Voigt Hill
#
# Bulk Modulus (GPa) = 32.80608 33.01657 32.91132
# Shear Modulus (GPa) = 19.07046 22.23362 20.65204
#
# Velocity S-wave (km/s) = 3.24715 3.50612 3.37912
# Velocity P-wave (km/s) = 5.67424 5.88602 5.78110
#
# Compressibility (1/GPa) = 0.03048215
#
# Stress axis : x y z
#
# Youngs Moduli (GPa) = 74.72256 65.75405 68.67613
#
# Poissons Ratio (x) = 0.12558 0.17545
# Poissons Ratio (y) = 0.14270 0.12846
# Poissons Ratio (z) = 0.19089 0.12299
#
# Static dielectric constant tensor:
#      x y z
#    x 3.379960 0.000000 0.000000 
#    y 0.000000 3.848960 0.000000 
#    z 0.000000 0.000000 3.136120 
# 
# 
# High freq. dielectric constant tensor:
#      x y z
#    x 1.691350 0.000000 0.000000 
#    y 0.000000 1.724290 0.000000 
#    z 0.000000 0.000000 1.680910 
# 
# From -- ./inp_files/7140.got.cif
#   From: 2010.03.12/outbox.cif.g09.slc.cpg/sg19_4_cif.got.tgz:7140.got - 2010.04.10 18:59:41.
