data_PCOD8156563
_publ_section_title
;
Structure prediction by ZEFSAII (Michael W. Deem and Ramdas Pophale) SiO2 
 PCOD8156563
Probable space group: P 21 21 21
;
_chemical_formula_sum "Si O2"
_cell_formula_units_Z 32
_cell_length_a 18.237714
_cell_length_b 13.157780
_cell_length_c 7.520947
_cell_angle_alpha 90.000000
_cell_angle_beta 90.000000
_cell_angle_gamma 90.000000
_cell_volume 1804.785320
_symmetry_space_group_name_H-M "P 21 21 21"
_symmetry_group_IT_number 19
_symmetry_cell_setting 'orthorhombic'
loop_
_space_group_symop_operation_xyz
x,y,z
1/2-x,-y,1/2+z
1/2+x,1/2-y,-z
-x,1/2+y,1/2-z
loop_
_atom_site_type_symbol
_atom_site_label
_atom_site_fract_x
_atom_site_fract_y
_atom_site_fract_z
Si Si1 0.089161 0.414456 0.060924
Si Si2 0.473537 0.622853 0.186288
Si Si3 0.750001 0.169983 0.564374
Si Si4 0.526456 0.877161 0.813724
Si Si5 0.595825 0.759859 0.122622
Si Si6 0.089163 0.585536 0.560924
Si Si7 0.595829 0.240145 0.622622
Si Si8 0.250001 0.521009 0.614934
O O1 0.041254 0.513415 0.104304
O O2 0.076432 0.340702 0.225599
O O3 0.174512 0.440448 0.022531
O O4 0.056834 0.364510 0.884452
O O5 0.560751 0.651055 0.178886
O O6 0.458733 0.513424 0.104351
O O7 0.433973 0.708117 0.069141
O O8 0.816813 0.245989 0.599170
O O9 0.683191 0.245990 0.599176
O O10 0.750002 0.068018 0.688129
O O11 0.750001 0.104770 0.378830
O O12 0.556829 0.864543 0.615560
O O13 0.439243 0.848949 0.821105
O O14 0.566023 0.791896 0.930862
O O15 0.576431 0.840693 0.274424
O O16 0.174516 0.559554 0.522525
#
# Coordination Sequence:
#
# PCOD8156563 Si02
#       8
#     4   4   4   4   4   4   4   4
#     4  11  19  34  52  76 107 131 163 209 253 307
#     4  11  20  33  51  76 102 134 169 200 255 305
#     4  10  18  32  48  72 104 127 163 210 253 305
#     4  11  20  33  51  76 102 134 169 200 255 305
#     4  10  22  33  50  77 102 134 168 206 252 306
#     4  11  19  34  52  76 107 131 163 209 253 307
#     4  10  22  33  50  77 102 134 168 206 252 306
#     4  10  18  28  50  78  98 127 155 202 271 303
#
# _framework density 17.730640999999999
#
# number of rings (size 3 to 8) (size 9 to 14) (size 15 to 20)
#    0.000    1.500    5.000    2.250    0.000    0.000 
#    0.000    0.000    0.000    1.500    0.000    0.000 
#    0.000    0.000    0.000    0.000    0.000    0.000 
#
# Total GULP energy -396528.168409 kJ/mol
# GULP energy per Si atom -12391.505263 kJ/mol
# Density = 1.769029 g / cm^3
# Si number density = 17.730641 Si / 1000 Ang^3
#
#
#
# Elastic Constant Matrix: (Units=GPa)
#
#
# Indices 1 2 3 4 5 6 
#
# 1 143.0937 59.5844 25.4274 0.0000 0.0000 0.0000
# 2 59.5844 61.6675 10.4990 0.0000 0.0000 0.0000
# 3 25.4274 10.4990 56.0218 0.0000 0.0000 0.0000
# 4 0.0000 0.0000 0.0000 20.8807 0.0000 0.0000
# 5 0.0000 0.0000 0.0000 0.0000 17.4516 0.0000
# 6 0.0000 0.0000 0.0000 0.0000 0.0000 30.5127
#
#
#
# Elastic Compliance Matrix: (Units=1/GPa)
#
#
# Indices 1 2 3 4 5 6 
#
# 1 0.012313 -0.011306 -0.003470 0.000000 0.000000 0.000000
# 2 -0.011306 0.027132 0.000047 0.000000 0.000000 0.000000
# 3 -0.003470 0.000047 0.019416 0.000000 0.000000 0.000000
# 4 0.000000 0.000000 0.000000 0.047891 0.000000 0.000000
# 5 0.000000 0.000000 0.000000 0.000000 0.057301 0.000000
# 6 0.000000 0.000000 0.000000 0.000000 0.000000 0.032773
#
#
# Mechanical properties :
#
#
# Convention : Reuss Voigt Hill
#
# Bulk Modulus (GPa) = 34.00980 50.20053 42.10517
# Shear Modulus (GPa) = 21.17864 24.78713 22.98288
#
# Velocity S-wave (km/s) = 3.45985 3.74302 3.60422
# Velocity P-wave (km/s) = 5.93159 6.85963 6.41242
#
# Compressibility (1/GPa) = 0.02940329
#
# Stress axis : x y z
#
# Youngs Moduli (GPa) = 81.21526 36.85630 51.50317
#
# Poissons Ratio (x) = 0.41671 0.17870
# Poissons Ratio (y) = 0.91824 -0.00241
# Poissons Ratio (z) = 0.28180 -0.00173
#
# Static dielectric constant tensor:
#      x y z
#    x 3.597240 0.000000 0.000000 
#    y 0.000000 3.125330 0.000000 
#    z 0.000000 0.000000 3.473860 
# 
# 
# High freq. dielectric constant tensor:
#      x y z
#    x 1.688350 0.000000 0.000000 
#    y 0.000000 1.644410 0.000000 
#    z 0.000000 0.000000 1.703140 
# 
# From -- ./inp_files/3710.got.cif
#   From: 2010.03.12/outbox.cif.g09.slc.cpg/sg19_2_cif.got.tgz:3710.got - 2010.04.10 18:59:41.
