data_PCOD8156357
_publ_section_title
;
Structure prediction by ZEFSAII (Michael W. Deem and Ramdas Pophale) SiO2 
 PCOD8156357
Probable space group: P 21 21 2
;
_chemical_formula_sum "Si O2"
_cell_formula_units_Z 20
_cell_length_a 8.338049
_cell_length_b 8.709252
_cell_length_c 13.151595
_cell_angle_alpha 90.000000
_cell_angle_beta 90.000000
_cell_angle_gamma 90.000000
_cell_volume 955.044761
_symmetry_space_group_name_H-M "P 21 21 2"
_symmetry_group_IT_number 18
_symmetry_cell_setting 'orthorhombic'
loop_
_space_group_symop_operation_xyz
x,y,z
-x,-y,z
1/2+x,1/2-y,-z
1/2-x,1/2+y,-z
loop_
_atom_site_type_symbol
_atom_site_label
_atom_site_fract_x
_atom_site_fract_y
_atom_site_fract_z
Si Si1 0.500000 0.500000 0.330508
Si Si2 0.990946 0.246916 0.836026
Si Si3 0.500000 0.500000 0.997396
Si Si4 0.338338 0.422037 0.607720
Si Si5 0.751921 0.506981 0.829493
Si Si6 0.171079 0.563810 0.438538
O O1 0.532724 0.351336 0.262484
O O2 0.330672 0.482806 0.390364
O O3 0.844074 0.352129 0.802370
O O4 0.139481 0.352846 0.867115
O O5 0.950089 0.143570 0.933287
O O6 0.645242 0.458161 0.924367
O O7 0.500000 0.500000 0.564423
O O8 0.340978 0.437249 0.729336
O O9 0.187770 0.513478 0.557371
O O10 0.329200 0.245248 0.574851
O O11 0.000000 0.500000 0.395489
#
# Coordination Sequence:
#
# PCOD8156357 Si02
#       6
#     2   4   2   4   4   4
#     4  11  24  47  66 100 148 181 240 283 348 420
#     4  10  24  42  68  95 137 181 221 291 349 414
#     4  11  22  43  68  98 132 171 234 289 346 420
#     4  12  26  46  69 102 142 188 234 293 348 425
#     4  11  23  41  69  97 133 180 232 277 354 413
#     4  12  28  44  72 104 144 189 238 289 352 420
#
# _framework density 20.941427000000001
#
# number of rings (size 3 to 8) (size 9 to 14) (size 15 to 20)
#    0.000    0.800    4.000    2.400    8.400    0.000 
#    0.000    0.000    0.000    0.000    0.000    0.000 
#    0.000    0.000    0.000    0.000    0.000    0.000 
#
# Total GULP energy -247934.064555 kJ/mol
# GULP energy per Si atom -12396.703228 kJ/mol
# Density = 2.089376 g / cm^3
# Si number density = 20.941427 Si / 1000 Ang^3
#
#
#
# Elastic Constant Matrix: (Units=GPa)
#
#
# Indices 1 2 3 4 5 6 
#
# 1 121.0555 31.5405 29.1303 0.0000 0.0000 0.0000
# 2 31.5405 130.7016 37.4078 0.0000 0.0000 0.0000
# 3 29.1303 37.4078 91.8339 0.0000 0.0000 0.0000
# 4 0.0000 0.0000 0.0000 25.7384 0.0000 0.0000
# 5 0.0000 0.0000 0.0000 0.0000 31.4723 0.0000
# 6 0.0000 0.0000 0.0000 0.0000 0.0000 23.2352
#
#
#
# Elastic Compliance Matrix: (Units=1/GPa)
#
#
# Indices 1 2 3 4 5 6 
#
# 1 0.009220 -0.001571 -0.002285 0.000000 0.000000 0.000000
# 2 -0.001571 0.008928 -0.003139 0.000000 0.000000 0.000000
# 3 -0.002285 -0.003139 0.012892 0.000000 0.000000 0.000000
# 4 0.000000 0.000000 0.000000 0.038853 0.000000 0.000000
# 5 0.000000 0.000000 0.000000 0.000000 0.031774 0.000000
# 6 0.000000 0.000000 0.000000 0.000000 0.000000 0.043038
#
#
# Mechanical properties :
#
#
# Convention : Reuss Voigt Hill
#
# Bulk Modulus (GPa) = 58.64370 59.97203 59.30787
# Shear Modulus (GPa) = 30.41776 32.45667 31.43721
#
# Velocity S-wave (km/s) = 3.81532 3.94112 3.87873
# Velocity P-wave (km/s) = 6.89009 7.02923 6.96001
#
# Compressibility (1/GPa) = 0.01705213
#
# Stress axis : x y z
#
# Youngs Moduli (GPa) = 108.46269 112.00205 77.56507
#
# Poissons Ratio (x) = 0.17596 0.17721
# Poissons Ratio (y) = 0.17039 0.24344
# Poissons Ratio (z) = 0.24780 0.35153
#
# Static dielectric constant tensor:
#      x y z
#    x 3.905150 0.000000 0.000000 
#    y 0.000000 3.763880 0.000000 
#    z 0.000000 0.000000 3.764730 
# 
# 
# High freq. dielectric constant tensor:
#      x y z
#    x 1.823620 0.000000 0.000000 
#    y 0.000000 1.830740 0.000000 
#    z 0.000000 0.000000 1.824830 
# 
# From -- ./inp_files/5442.got.cif
#   From: 2010.03.12/outbox.cif.g09.slc.cpg/sg18_3_cif.got.tgz:5442.got - 2010.04.10 18:53:55.
