data_PCOD8156478
_publ_section_title
;
Structure prediction by ZEFSAII (Michael W. Deem and Ramdas Pophale) SiO2 
 PCOD8156478
Probable space group: P 21 21 2
;
_chemical_formula_sum "Si O2"
_cell_formula_units_Z 30
_cell_length_a 11.355069
_cell_length_b 18.095263
_cell_length_c 6.444667
_cell_angle_alpha 90.000000
_cell_angle_beta 90.000000
_cell_angle_gamma 90.000000
_cell_volume 1324.204804
_symmetry_space_group_name_H-M "P 21 21 2"
_symmetry_group_IT_number 18
_symmetry_cell_setting 'orthorhombic'
loop_
_space_group_symop_operation_xyz
x,y,z
-x,-y,z
1/2+x,1/2-y,-z
1/2-x,1/2+y,-z
loop_
_atom_site_type_symbol
_atom_site_label
_atom_site_fract_x
_atom_site_fract_y
_atom_site_fract_z
Si Si1 0.587228 0.123220 0.809896
Si Si2 0.784829 0.074794 0.098794
Si Si3 0.282613 0.057637 0.346699
Si Si4 0.744958 0.680829 0.522618
Si Si5 0.000000 0.500000 0.445599
Si Si6 0.702448 0.337874 0.310655
Si Si7 0.121420 0.676237 0.950496
Si Si8 0.933352 0.165274 0.810554
O O1 0.645796 0.173705 0.634422
O O2 0.492082 0.071710 0.697989
O O3 0.682849 0.072708 0.925880
O O4 0.513212 0.171952 0.970877
O O5 0.743620 0.133670 0.269699
O O6 0.800176 0.991919 0.194047
O O7 0.904570 0.100745 0.979373
O O8 0.204255 0.091822 0.532968
O O9 0.356977 0.123777 0.245406
O O10 0.379863 0.998231 0.422680
O O11 0.743519 0.766998 0.575654
O O12 0.624965 0.651447 0.414399
O O13 0.571603 0.325591 0.222429
O O14 0.783822 0.352528 0.114431
O O15 0.135437 0.761687 0.891394
#
# Coordination Sequence:
#
# PCOD8156478 Si02
#       8
#     4   4   4   4   2   4   4   4
#     4  11  24  40  74 107 143 176 237 295 365 440
#     4  11  24  47  72 101 147 192 234 294 375 431
#     4  12  26  45  72 109 148 191 237 310 371 430
#     4  11  24  46  71 103 140 188 238 296 359 437
#     4  12  22  42  72 110 142 178 234 310 372 430
#     4  12  27  45  73 109 145 188 255 295 363 445
#     4  12  25  44  72 110 144 186 238 305 363 430
#     4  11  27  45  74 105 142 197 247 296 360 443
#
# _framework density 22.655106
#
# number of rings (size 3 to 8) (size 9 to 14) (size 15 to 20)
#    0.000    0.533    5.333    2.400    5.600    1.067 
#    0.000    4.000    0.000    0.000    0.000    0.000 
#    0.000    0.000    0.000    0.000    0.000    0.000 
#
# Total GULP energy -372025.588246 kJ/mol
# GULP energy per Si atom -12400.852942 kJ/mol
# Density = 2.260354 g / cm^3
# Si number density = 22.655106 Si / 1000 Ang^3
#
#
#
# Elastic Constant Matrix: (Units=GPa)
#
#
# Indices 1 2 3 4 5 6 
#
# 1 93.3480 11.7676 30.9636 0.0000 0.0000 0.0000
# 2 11.7676 87.1687 26.5078 0.0000 0.0000 0.0000
# 3 30.9636 26.5078 94.8823 0.0000 0.0000 0.0000
# 4 0.0000 0.0000 0.0000 45.7851 0.0000 0.0000
# 5 0.0000 0.0000 0.0000 0.0000 27.0601 0.0000
# 6 0.0000 0.0000 0.0000 0.0000 0.0000 29.9423
#
#
#
# Elastic Compliance Matrix: (Units=1/GPa)
#
#
# Indices 1 2 3 4 5 6 
#
# 1 0.012031 -0.000470 -0.003795 0.000000 0.000000 0.000000
# 2 -0.000470 0.012556 -0.003354 0.000000 0.000000 0.000000
# 3 -0.003795 -0.003354 0.012715 0.000000 0.000000 0.000000
# 4 0.000000 0.000000 0.000000 0.021841 0.000000 0.000000
# 5 0.000000 0.000000 0.000000 0.000000 0.036955 0.000000
# 6 0.000000 0.000000 0.000000 0.000000 0.000000 0.033398
#
#
# Mechanical properties :
#
#
# Convention : Reuss Voigt Hill
#
# Bulk Modulus (GPa) = 45.32540 45.98635 45.65587
# Shear Modulus (GPa) = 32.87597 34.30150 33.58873
#
# Velocity S-wave (km/s) = 3.81353 3.89533 3.85465
# Velocity P-wave (km/s) = 6.28019 6.36977 6.32514
#
# Compressibility (1/GPa) = 0.02206269
#
# Stress axis : x y z
#
# Youngs Moduli (GPa) = 83.12164 79.64634 78.64837
#
# Poissons Ratio (x) = 0.03745 0.29844
# Poissons Ratio (y) = 0.03908 0.26381
# Poissons Ratio (z) = 0.31542 0.26716
#
# Static dielectric constant tensor:
#      x y z
#    x 3.797950 0.000000 0.000000 
#    y 0.000000 3.929140 0.000000 
#    z 0.000000 0.000000 4.300280 
# 
# 
# High freq. dielectric constant tensor:
#      x y z
#    x 1.878650 0.000000 0.000000 
#    y 0.000000 1.890630 0.000000 
#    z 0.000000 0.000000 1.913170 
# 
# From -- ./inp_files/1277.got.cif
#   From: 2010.03.12/outbox.cif.g09.slc.cpg/sg18_1_cif.got.tgz:1277.got - 2010.04.10 18:53:55.
