data_PCOD8156851
_publ_section_title
;
Structure prediction by ZEFSAII (Michael W. Deem and Ramdas Pophale) SiO2 
 PCOD8156851
Probable space group: P 21 21 21
;
_chemical_formula_sum "Si O2"
_cell_formula_units_Z 32
_cell_length_a 20.247695
_cell_length_b 10.976111
_cell_length_c 6.893653
_cell_angle_alpha 90.000000
_cell_angle_beta 90.000000
_cell_angle_gamma 90.000000
_cell_volume 1532.051977
_symmetry_space_group_name_H-M "P 21 21 21"
_symmetry_group_IT_number 19
_symmetry_cell_setting 'orthorhombic'
loop_
_space_group_symop_operation_xyz
x,y,z
1/2-x,-y,1/2+z
1/2+x,1/2-y,-z
-x,1/2+y,1/2-z
loop_
_atom_site_type_symbol
_atom_site_label
_atom_site_fract_x
_atom_site_fract_y
_atom_site_fract_z
Si Si1 0.422497 0.255176 0.085169
Si Si2 0.682505 0.770276 0.731497
Si Si3 0.529440 0.008079 0.527120
Si Si4 0.716382 0.249309 0.892931
Si Si5 0.556921 0.165748 0.177519
Si Si6 0.609037 0.408882 0.052797
Si Si7 0.368486 0.529548 0.642845
Si Si8 0.828307 0.349338 0.627372
O O1 0.375257 0.221210 0.906935
O O2 0.435284 0.398421 0.084763
O O3 0.488615 0.175588 0.056263
O O4 0.389482 0.230600 0.294346
O O5 0.749713 0.777559 0.603904
O O6 0.664787 0.897389 0.838769
O O7 0.687919 0.671510 0.901642
O O8 0.539428 0.125551 0.393598
O O9 0.565724 0.037185 0.727531
O O10 0.452139 0.975561 0.556978
O O11 0.654327 0.339853 0.898338
O O12 0.689974 0.123294 0.798616
O O13 0.764549 0.315766 0.747791
O O14 0.585400 0.303139 0.201066
O O15 0.607017 0.071409 0.071881
O O16 0.652957 0.509316 0.163720
#
# Coordination Sequence:
#
# PCOD8156851 Si02
#       8
#     4   4   4   4   4   4   4   4
#     4   9  20  38  61  96 122 156 213 261 307 384
#     4  10  23  40  65  88 124 165 211 260 314 378
#     4  10  20  41  67  90 126 162 204 268 328 375
#     4  10  25  43  60  96 127 161 221 265 303 385
#     4  10  20  39  63  92 130 158 205 267 313 376
#     4  10  23  41  60  94 128 161 217 254 310 393
#     4  10  23  41  63  97 122 160 214 270 318 375
#     4  11  22  41  65  87 125 177 203 253 323 374
#
# _framework density 20.88702
#
# number of rings (size 3 to 8) (size 9 to 14) (size 15 to 20)
#    0.000    2.000    1.250    0.750    5.250    2.000 
#    2.250    2.500    0.000    0.000    0.000    0.000 
#    0.000    0.000    0.000    0.000    0.000    0.000 
#
# Total GULP energy -396623.073416 kJ/mol
# GULP energy per Si atom -12394.471044 kJ/mol
# Density = 2.083948 g / cm^3
# Si number density = 20.887020 Si / 1000 Ang^3
#
#
#
# Elastic Constant Matrix: (Units=GPa)
#
#
# Indices 1 2 3 4 5 6 
#
# 1 105.4108 42.0046 28.7183 0.0000 0.0000 0.0000
# 2 42.0046 88.1083 35.5899 0.0000 0.0000 0.0000
# 3 28.7183 35.5899 70.2555 0.0000 0.0000 0.0000
# 4 0.0000 0.0000 0.0000 20.9325 0.0000 0.0000
# 5 0.0000 0.0000 0.0000 0.0000 22.1069 0.0000
# 6 0.0000 0.0000 0.0000 0.0000 0.0000 41.6793
#
#
#
# Elastic Compliance Matrix: (Units=1/GPa)
#
#
# Indices 1 2 3 4 5 6 
#
# 1 0.012061 -0.004725 -0.002536 0.000000 0.000000 0.000000
# 2 -0.004725 0.016121 -0.006235 0.000000 0.000000 0.000000
# 3 -0.002536 -0.006235 0.018429 0.000000 0.000000 0.000000
# 4 0.000000 0.000000 0.000000 0.047773 0.000000 0.000000
# 5 0.000000 0.000000 0.000000 0.000000 0.045235 0.000000
# 6 0.000000 0.000000 0.000000 0.000000 0.000000 0.023993
#
#
# Mechanical properties :
#
#
# Convention : Reuss Voigt Hill
#
# Bulk Modulus (GPa) = 50.97487 52.93334 51.95411
# Shear Modulus (GPa) = 25.36232 27.44119 26.40176
#
# Velocity S-wave (km/s) = 3.48841 3.62856 3.55917
# Velocity P-wave (km/s) = 6.37835 6.55385 6.46670
#
# Compressibility (1/GPa) = 0.01961751
#
# Stress axis : x y z
#
# Youngs Moduli (GPa) = 82.91433 62.03130 54.26232
#
# Poissons Ratio (x) = 0.29312 0.13763
# Poissons Ratio (y) = 0.39179 0.33832
# Poissons Ratio (z) = 0.21030 0.38676
#
# Static dielectric constant tensor:
#      x y z
#    x 4.103820 0.000000 0.000000 
#    y 0.000000 3.854330 0.000000 
#    z 0.000000 0.000000 3.458590 
# 
# 
# High freq. dielectric constant tensor:
#      x y z
#    x 1.835270 0.000000 0.000000 
#    y 0.000000 1.822740 0.000000 
#    z 0.000000 0.000000 1.788010 
# 
# From -- ./inp_files/2038.got.cif
#   From: 2010.03.12/outbox.cif.g09.slc.cpg/sg19_2_cif.got.tgz:2038.got - 2010.04.10 18:59:41.
