data_PCOD8156374
_publ_section_title
;
Structure prediction by ZEFSAII (Michael W. Deem and Ramdas Pophale) SiO2 
 PCOD8156374
Probable space group: P 21 21 2
;
_chemical_formula_sum "Si O2"
_cell_formula_units_Z 24
_cell_length_a 8.840516
_cell_length_b 14.570734
_cell_length_c 8.324670
_cell_angle_alpha 90.000000
_cell_angle_beta 90.000000
_cell_angle_gamma 90.000000
_cell_volume 1072.324111
_symmetry_space_group_name_H-M "P 21 21 2"
_symmetry_group_IT_number 18
_symmetry_cell_setting 'orthorhombic'
loop_
_space_group_symop_operation_xyz
x,y,z
-x,-y,z
1/2+x,1/2-y,-z
1/2-x,1/2+y,-z
loop_
_atom_site_type_symbol
_atom_site_label
_atom_site_fract_x
_atom_site_fract_y
_atom_site_fract_z
Si Si1 0.500000 0.500000 0.383818
Si Si2 0.700856 0.837871 0.683008
Si Si3 0.242723 0.986603 0.373333
Si Si4 0.773036 0.319082 0.683842
Si Si5 0.555591 0.668451 0.812066
Si Si6 0.467999 0.342562 0.181414
Si Si7 0.500000 0.000000 0.590665
O O1 0.630020 0.458780 0.502362
O O2 0.396711 0.428042 0.279356
O O3 0.696472 0.797168 0.502882
O O4 0.652097 0.760146 0.808557
O O5 0.866351 0.858612 0.745879
O O6 0.589141 0.925966 0.698652
O O7 0.148981 0.912964 0.273612
O O8 0.382349 0.943944 0.473879
O O9 0.307266 0.073550 0.270547
O O10 0.599486 0.301754 0.728193
O O11 0.885917 0.253585 0.783851
O O12 0.529861 0.636797 0.993559
#
# Coordination Sequence:
#
# PCOD8156374 Si02
#       7
#     2   4   4   4   4   4   2
#     4  12  22  46  74 102 132 198 256 294 364 442
#     4  11  24  46  73 103 143 197 251 301 363 453
#     4  11  23  46  74 107 136 197 258 299 363 444
#     4  11  23  45  70 103 139 193 248 298 355 454
#     4  12  26  43  73 106 151 191 240 317 382 430
#     4  12  27  44  69 110 150 190 242 315 381 434
#     4  10  24  44  76 110 138 188 262 306 344 446
#
# _framework density 22.381291000000001
#
# number of rings (size 3 to 8) (size 9 to 14) (size 15 to 20)
#    0.000    0.667    5.000    3.000   11.667    0.000 
#    0.000    0.000    0.000    2.000    0.000    0.000 
#    0.000    0.000    0.000    0.000    0.000    0.000 
#
# Total GULP energy -297338.464954 kJ/mol
# GULP energy per Si atom -12389.102706 kJ/mol
# Density = 2.233035 g / cm^3
# Si number density = 22.381291 Si / 1000 Ang^3
#
#
#
# Elastic Constant Matrix: (Units=GPa)
#
#
# Indices 1 2 3 4 5 6 
#
# 1 105.2563 51.2911 39.7133 0.0000 0.0000 0.0000
# 2 51.2911 143.9661 47.5995 0.0000 0.0000 0.0000
# 3 39.7133 47.5995 103.0745 0.0000 0.0000 0.0000
# 4 0.0000 0.0000 0.0000 24.2454 0.0000 0.0000
# 5 0.0000 0.0000 0.0000 0.0000 23.4304 0.0000
# 6 0.0000 0.0000 0.0000 0.0000 0.0000 43.6922
#
#
#
# Elastic Compliance Matrix: (Units=1/GPa)
#
#
# Indices 1 2 3 4 5 6 
#
# 1 0.012337 -0.003333 -0.003214 0.000000 0.000000 0.000000
# 2 -0.003333 0.009098 -0.002917 0.000000 0.000000 0.000000
# 3 -0.003214 -0.002917 0.012287 0.000000 0.000000 0.000000
# 4 0.000000 0.000000 0.000000 0.041245 0.000000 0.000000
# 5 0.000000 0.000000 0.000000 0.000000 0.042680 0.000000
# 6 0.000000 0.000000 0.000000 0.000000 0.000000 0.022887
#
#
# Mechanical properties :
#
#
# Convention : Reuss Voigt Hill
#
# Bulk Modulus (GPa) = 67.59561 69.94497 68.77029
# Shear Modulus (GPa) = 30.41454 32.51980 31.46717
#
# Velocity S-wave (km/s) = 3.69036 3.81595 3.75368
# Velocity P-wave (km/s) = 6.95886 7.12283 7.04132
#
# Compressibility (1/GPa) = 0.01479386
#
# Stress axis : x y z
#
# Youngs Moduli (GPa) = 81.05406 109.91418 81.38396
#
# Poissons Ratio (x) = 0.36631 0.26160
# Poissons Ratio (y) = 0.27013 0.23743
# Poissons Ratio (z) = 0.26054 0.32066
#
# Static dielectric constant tensor:
#      x y z
#    x 4.261010 0.000000 0.000000 
#    y 0.000000 4.069130 0.000000 
#    z 0.000000 0.000000 3.890530 
# 
# 
# High freq. dielectric constant tensor:
#      x y z
#    x 1.895750 0.000000 0.000000 
#    y 0.000000 1.889970 0.000000 
#    z 0.000000 0.000000 1.862880 
# 
# From -- ./inp_files/3205.got.cif
#   From: 2010.03.12/outbox.cif.g09.slc.cpg/sg18_2_cif.got.tgz:3205.got - 2010.04.10 18:53:55.
