data_PCOD8156830
_publ_section_title
;
Structure prediction by ZEFSAII (Michael W. Deem and Ramdas Pophale) SiO2 
 PCOD8156830
Probable space group: P 21 21 21
;
_chemical_formula_sum "Si O2"
_cell_formula_units_Z 28
_cell_length_a 16.212243
_cell_length_b 15.405738
_cell_length_c 4.890624
_cell_angle_alpha 90.000000
_cell_angle_beta 90.000000
_cell_angle_gamma 90.000000
_cell_volume 1221.489919
_symmetry_space_group_name_H-M "P 21 21 21"
_symmetry_group_IT_number 19
_symmetry_cell_setting 'orthorhombic'
loop_
_space_group_symop_operation_xyz
x,y,z
1/2-x,-y,1/2+z
1/2+x,1/2-y,-z
-x,1/2+y,1/2-z
loop_
_atom_site_type_symbol
_atom_site_label
_atom_site_fract_x
_atom_site_fract_y
_atom_site_fract_z
Si Si1 0.567457 0.468492 0.168857
Si Si2 0.530559 0.219115 0.559856
Si Si3 0.305108 0.399185 0.009087
Si Si4 0.915930 0.413518 0.165032
Si Si5 0.472973 0.311733 0.037093
Si Si6 0.757777 0.554589 0.591750
Si Si7 0.809386 0.901362 0.991198
O O1 0.555500 0.548201 0.374822
O O2 0.495061 0.400009 0.198591
O O3 0.653363 0.413031 0.201830
O O4 0.566677 0.509632 0.871963
O O5 0.465286 0.171182 0.758393
O O6 0.491283 0.236098 0.261969
O O7 0.614779 0.165040 0.537832
O O8 0.532433 0.303144 0.764519
O O9 0.376625 0.327078 0.962858
O O10 0.339995 0.498395 0.979544
O O11 0.265503 0.383046 0.303906
O O12 0.229075 0.383517 0.804254
O O13 0.819565 0.382625 0.154124
O O14 0.759908 0.533538 0.269003
#
# Coordination Sequence:
#
# PCOD8156830 Si02
#       7
#     4   4   4   4   4   4   4
#     4  10  20  38  63  88 120 167 216 257 305 378
#     4  12  25  41  61  99 136 168 214 271 344 394
#     4  10  22  43  70  95 126 175 232 279 320 387
#     4  10  20  38  63  88 120 167 216 257 305 378
#     4  12  25  41  61  99 136 168 214 271 344 394
#     4   8  16  32  56  84 110 144 200 248 290 358
#     4  10  22  43  70  95 126 175 232 279 320 387
#
# _framework density 22.922826000000001
#
# number of rings (size 3 to 8) (size 9 to 14) (size 15 to 20)
#    0.000    1.714    0.000    4.286    0.000    3.429 
#    7.714    0.000    0.000    0.000    0.000    0.000 
#    0.000    0.000    0.000    0.000    0.000    0.000 
#
# Total GULP energy -346879.221199 kJ/mol
# GULP energy per Si atom -12388.543614 kJ/mol
# Density = 2.287065 g / cm^3
# Si number density = 22.922826 Si / 1000 Ang^3
#
#
#
# Elastic Constant Matrix: (Units=GPa)
#
#
# Indices 1 2 3 4 5 6 
#
# 1 81.3549 28.1278 23.6069 0.0000 0.0000 0.0000
# 2 28.1278 55.6769 20.2138 0.0000 0.0000 0.0000
# 3 23.6069 20.2138 79.0951 0.0000 0.0000 0.0000
# 4 0.0000 0.0000 0.0000 29.2866 0.0000 0.0000
# 5 0.0000 0.0000 0.0000 0.0000 30.7386 0.0000
# 6 0.0000 0.0000 0.0000 0.0000 0.0000 46.7864
#
#
#
# Elastic Compliance Matrix: (Units=1/GPa)
#
#
# Indices 1 2 3 4 5 6 
#
# 1 0.015469 -0.006767 -0.002888 0.000000 0.000000 0.000000
# 2 -0.006767 0.022758 -0.003796 0.000000 0.000000 0.000000
# 3 -0.002888 -0.003796 0.014475 0.000000 0.000000 0.000000
# 4 0.000000 0.000000 0.000000 0.034145 0.000000 0.000000
# 5 0.000000 0.000000 0.000000 0.000000 0.032532 0.000000
# 6 0.000000 0.000000 0.000000 0.000000 0.000000 0.021374
#
#
# Mechanical properties :
#
#
# Convention : Reuss Voigt Hill
#
# Bulk Modulus (GPa) = 38.75902 40.00267 39.38084
# Shear Modulus (GPa) = 28.36798 30.97420 29.67109
#
# Velocity S-wave (km/s) = 3.52169 3.67991 3.60167
# Velocity P-wave (km/s) = 5.78633 5.96192 5.87478
#
# Compressibility (1/GPa) = 0.02580045
#
# Stress axis : x y z
#
# Youngs Moduli (GPa) = 64.64436 43.94137 69.08421
#
# Poissons Ratio (x) = 0.29734 0.19949
# Poissons Ratio (y) = 0.43743 0.26227
# Poissons Ratio (z) = 0.18667 0.16682
#
# Static dielectric constant tensor:
#      x y z
#    x 4.240900 0.000000 0.000000 
#    y 0.000000 3.913120 0.000000 
#    z 0.000000 0.000000 4.373320 
# 
# 
# High freq. dielectric constant tensor:
#      x y z
#    x 1.908430 0.000000 0.000000 
#    y 0.000000 1.875240 0.000000 
#    z 0.000000 0.000000 1.926670 
# 
# From -- ./inp_files/1474.got.cif
#   From: 2010.03.12/outbox.cif.g09.slc.cpg/sg19_1_cif.got.tgz:1474.got - 2010.04.10 18:59:41.
