data_PCOD8156341
_publ_section_title
;
Structure prediction by ZEFSAII (Michael W. Deem and Ramdas Pophale) SiO2 
 PCOD8156341
Probable space group: P 21 21 2
;
_chemical_formula_sum "Si O2"
_cell_formula_units_Z 14
_cell_length_a 8.438367
_cell_length_b 12.911819
_cell_length_c 5.295627
_cell_angle_alpha 90.000000
_cell_angle_beta 90.000000
_cell_angle_gamma 90.000000
_cell_volume 576.983278
_symmetry_space_group_name_H-M "P 21 21 2"
_symmetry_group_IT_number 18
_symmetry_cell_setting 'orthorhombic'
loop_
_space_group_symop_operation_xyz
x,y,z
-x,-y,z
1/2+x,1/2-y,-z
1/2-x,1/2+y,-z
loop_
_atom_site_type_symbol
_atom_site_label
_atom_site_fract_x
_atom_site_fract_y
_atom_site_fract_z
Si Si1 0.961323 0.859298 0.413385
Si Si2 0.000000 0.500000 0.925858
Si Si3 0.798556 0.887129 0.902642
Si Si4 0.813105 0.678912 0.663860
O O1 0.894481 0.923801 0.653746
O O2 0.903423 0.739399 0.436161
O O3 0.149681 0.869800 0.429800
O O4 0.896038 0.911255 0.157661
O O5 0.135019 0.549529 0.101370
O O6 0.068817 0.409916 0.751237
O O7 0.770962 0.762280 0.885913
#
# Coordination Sequence:
#
# PCOD8156341 Si02
#       4
#     4   2   4   4
#     4  10  23  46  72 104 152 190 237 320 365 427
#     4  12  24  50  80 112 142 210 250 298 378 450
#     4  10  25  46  74 110 148 194 247 308 367 439
#     4  10  24  45  80 107 153 192 253 303 378 435
#
# _framework density 24.264135
#
# number of rings (size 3 to 8) (size 9 to 14) (size 15 to 20)
#    1.714    0.000    0.000    3.429    4.000    2.286 
#    5.143    2.857    6.286    0.000    0.000    0.000 
#    0.000    0.000    0.000    0.000    0.000    0.000 
#
# Total GULP energy -173529.198201 kJ/mol
# GULP energy per Si atom -12394.942729 kJ/mol
# Density = 2.420891 g / cm^3
# Si number density = 24.264135 Si / 1000 Ang^3
#
#
#
# Elastic Constant Matrix: (Units=GPa)
#
#
# Indices 1 2 3 4 5 6 
#
# 1 95.6837 11.2718 9.9934 0.0000 0.0000 0.0000
# 2 11.2718 94.7641 1.6879 0.0000 0.0000 0.0000
# 3 9.9934 1.6879 131.5753 0.0000 0.0000 0.0000
# 4 0.0000 0.0000 0.0000 -30.2838 0.0000 0.0000
# 5 0.0000 0.0000 0.0000 0.0000 1987.7851 0.0000
# 6 0.0000 0.0000 0.0000 0.0000 0.0000 62.0086
#
#
#
# Elastic Compliance Matrix: (Units=1/GPa)
#
#
# Indices 1 2 3 4 5 6 
#
# 1 0.010682 -0.001256 -0.000795 0.000000 0.000000 0.000000
# 2 -0.001256 0.010703 -0.000042 0.000000 0.000000 0.000000
# 3 -0.000795 -0.000042 0.007661 0.000000 0.000000 0.000000
# 4 0.000000 0.000000 0.000000 -0.033021 0.000000 0.000000
# 5 0.000000 0.000000 0.000000 0.000000 0.000503 0.000000
# 6 0.000000 0.000000 0.000000 0.000000 0.000000 0.016127
#
#
# Mechanical properties :
#
#
# Convention : Reuss Voigt Hill
#
# Bulk Modulus (GPa) = 40.22691 40.88104 40.55397
# Shear Modulus (GPa) = 198.97860 423.83999 311.40930
#
# Velocity S-wave (km/s) = 9.06550 13.23090 11.34108
# Velocity P-wave (km/s) = 11.23354 15.82068 13.72017
#
# Compressibility (1/GPa) = 0.02485898
#
# Stress axis : x y z
#
# Youngs Moduli (GPa) = 93.61399 93.43424 130.52882
#
# Poissons Ratio (x) = 0.11739 0.10380
# Poissons Ratio (y) = 0.11762 0.00547
# Poissons Ratio (z) = 0.07444 0.00391
#
# Static dielectric constant tensor:
#      x y z
#    x 4.255320 0.000000 0.000000 
#    y 0.000000 4.147670 0.000000 
#    z 0.000000 0.000000 4.035310 
# 
# 
# High freq. dielectric constant tensor:
#      x y z
#    x 1.970800 0.000000 0.000000 
#    y 0.000000 1.968070 0.000000 
#    z 0.000000 0.000000 1.948040 
# 
# From -- ./inp_files/398.got.cif
#   From: 2010.03.12/outbox.cif.g09.slc.cpg/sg18_1_cif.got.tgz:398.got - 2010.04.10 18:53:55.
