data_PCOD8156200
_publ_section_title
;
Structure prediction by ZEFSAII (Michael W. Deem and Ramdas Pophale) SiO2 
 PCOD8156200
Probable space group: P 21 21 2
;
_chemical_formula_sum "Si O2"
_cell_formula_units_Z 30
_cell_length_a 14.277782
_cell_length_b 9.401719
_cell_length_c 10.666755
_cell_angle_alpha 90.000000
_cell_angle_beta 90.000000
_cell_angle_gamma 90.000000
_cell_volume 1431.859263
_symmetry_space_group_name_H-M "P 21 21 2"
_symmetry_group_IT_number 18
_symmetry_cell_setting 'orthorhombic'
loop_
_space_group_symop_operation_xyz
x,y,z
-x,-y,z
1/2+x,1/2-y,-z
1/2-x,1/2+y,-z
loop_
_atom_site_type_symbol
_atom_site_label
_atom_site_fract_x
_atom_site_fract_y
_atom_site_fract_z
Si Si1 0.347187 0.672454 0.686272
Si Si2 0.000000 0.000000 0.180947
Si Si3 0.979392 0.153756 0.747470
Si Si4 0.565110 0.888987 0.079545
Si Si5 0.797000 0.557960 0.766936
Si Si6 0.660484 0.314588 0.392898
Si Si7 0.167524 0.853376 0.031366
Si Si8 0.280486 0.419012 0.244837
O O1 0.451454 0.624078 0.731662
O O2 0.277571 0.563931 0.749093
O O3 0.330406 0.661288 0.538979
O O4 0.315867 0.831354 0.731098
O O5 0.922169 0.072568 0.094224
O O6 0.999071 0.266371 0.857763
O O7 0.871620 0.165100 0.698456
O O8 0.049742 0.175000 0.632920
O O9 0.000000 0.000000 0.808739
O O10 0.642959 0.813544 0.993857
O O11 0.500000 0.000000 0.000957
O O12 0.606957 0.983386 0.193090
O O13 0.807159 0.655801 0.644185
O O14 0.757969 0.654255 0.880709
O O15 0.722980 0.428030 0.314091
O O16 0.197669 0.934060 0.903548
#
# Coordination Sequence:
#
# PCOD8156200 Si02
#       8
#     4   2   4   4   4   4   4   4
#     4  11  23  45  62  95 134 176 224 274 333 401
#     4  10  26  42  68  94 134 178 218 284 348 390
#     4   9  19  36  60  96 121 164 220 263 319 388
#     4  11  21  39  64  94 128 164 215 277 327 390
#     4  11  23  41  64  97 126 172 219 274 335 392
#     4  11  23  37  68  95 130 175 222 271 335 400
#     4  10  24  41  63  96 134 167 222 276 335 409
#     4  10  22  39  66  94 126 175 224 272 325 400
#
# _framework density 20.951781
#
# number of rings (size 3 to 8) (size 9 to 14) (size 15 to 20)
#    0.000    1.600    4.000    0.800   12.133    1.067 
#    0.000    0.000    0.000    0.000    0.000    0.000 
#    0.000    0.000    0.000    0.000    0.000    0.000 
#
# Total GULP energy -371724.990606 kJ/mol
# GULP energy per Si atom -12390.833020 kJ/mol
# Density = 2.090409 g / cm^3
# Si number density = 20.951781 Si / 1000 Ang^3
#
#
#
# Elastic Constant Matrix: (Units=GPa)
#
#
# Indices 1 2 3 4 5 6 
#
# 1 68.5363 24.3661 19.4879 0.0000 0.0000 0.0000
# 2 24.3661 96.9031 24.2576 0.0000 0.0000 0.0000
# 3 19.4879 24.2576 100.6534 0.0000 0.0000 0.0000
# 4 0.0000 0.0000 0.0000 26.0526 0.0000 0.0000
# 5 0.0000 0.0000 0.0000 0.0000 23.6783 0.0000
# 6 0.0000 0.0000 0.0000 0.0000 0.0000 36.4440
#
#
#
# Elastic Compliance Matrix: (Units=1/GPa)
#
#
# Indices 1 2 3 4 5 6 
#
# 1 0.016525 -0.003570 -0.002339 0.000000 0.000000 0.000000
# 2 -0.003570 0.011753 -0.002141 0.000000 0.000000 0.000000
# 3 -0.002339 -0.002141 0.010904 0.000000 0.000000 0.000000
# 4 0.000000 0.000000 0.000000 0.038384 0.000000 0.000000
# 5 0.000000 0.000000 0.000000 0.000000 0.042233 0.000000
# 6 0.000000 0.000000 0.000000 0.000000 0.000000 0.027439
#
#
# Mechanical properties :
#
#
# Convention : Reuss Voigt Hill
#
# Bulk Modulus (GPa) = 43.32407 44.70177 44.01292
# Shear Modulus (GPa) = 29.23420 30.43375 29.83397
#
# Velocity S-wave (km/s) = 3.73944 3.81538 3.77760
# Velocity P-wave (km/s) = 6.27434 6.38681 6.33083
#
# Compressibility (1/GPa) = 0.02308186
#
# Stress axis : x y z
#
# Youngs Moduli (GPa) = 60.51434 85.08306 91.70889
#
# Poissons Ratio (x) = 0.30371 0.21452
# Poissons Ratio (y) = 0.21601 0.19639
# Poissons Ratio (z) = 0.14155 0.18220
#
# Static dielectric constant tensor:
#      x y z
#    x 4.221420 0.000000 0.000000 
#    y 0.000000 4.017190 0.000000 
#    z 0.000000 0.000000 3.586420 
# 
# 
# High freq. dielectric constant tensor:
#      x y z
#    x 1.817640 0.000000 0.000000 
#    y 0.000000 1.828690 0.000000 
#    z 0.000000 0.000000 1.796710 
# 
# From -- ./inp_files/6077.got.cif
#   From: 2010.03.12/outbox.cif.g09.slc.cpg/sg18_4_cif.got.tgz:6077.got - 2010.04.10 18:53:55.
