data_PCOD8156541
_publ_section_title
;
Structure prediction by ZEFSAII (Michael W. Deem and Ramdas Pophale) SiO2 
 PCOD8156541
Probable space group: P 21 21 21
;
_chemical_formula_sum "Si O2"
_cell_formula_units_Z 32
_cell_length_a 12.798226
_cell_length_b 5.137200
_cell_length_c 30.574002
_cell_angle_alpha 90.000000
_cell_angle_beta 90.000000
_cell_angle_gamma 90.000000
_cell_volume 2010.150334
_symmetry_space_group_name_H-M "P 21 21 21"
_symmetry_group_IT_number 19
_symmetry_cell_setting 'orthorhombic'
loop_
_space_group_symop_operation_xyz
x,y,z
1/2-x,-y,1/2+z
1/2+x,1/2-y,-z
-x,1/2+y,1/2-z
loop_
_atom_site_type_symbol
_atom_site_label
_atom_site_fract_x
_atom_site_fract_y
_atom_site_fract_z
Si Si1 0.994034 0.928237 0.502795
Si Si2 0.805458 0.423549 0.050955
Si Si3 0.688445 0.842449 0.186997
Si Si4 0.734059 0.928200 0.002855
Si Si5 0.441242 0.463070 0.236385
Si Si6 0.012867 0.954619 0.854510
Si Si7 0.729944 0.350529 0.145020
Si Si8 0.565348 0.077255 0.449144
O O1 0.073053 0.948652 0.462004
O O2 0.999027 0.647013 0.526237
O O3 0.879831 0.998980 0.484221
O O4 0.021928 0.141827 0.538700
O O5 0.737788 0.648584 0.027072
O O6 0.797062 0.435206 0.103074
O O7 0.762772 0.141559 0.038757
O O8 0.667095 0.895401 0.238552
O O9 0.575089 0.806201 0.162128
O O10 0.752837 0.573648 0.181548
O O11 0.757945 0.069851 0.164957
O O12 0.812892 0.944408 0.962043
O O13 0.470498 0.753512 0.251322
O O14 0.432887 0.453107 0.183657
O O15 0.941544 0.928157 0.897027
O O16 0.105290 0.161076 0.865643
#
# Coordination Sequence:
#
# PCOD8156541 Si02
#       8
#     4   4   4   4   4   4   4   4
#     4  10  20  33  45  60  90 114 143 184 222 243
#     4  10  20  30  45  65  81 115 147 179 215 259
#     4   9  18  26  39  61  82 116 131 177 202 256
#     4  10  19  33  44  61  88 111 144 184 217 253
#     4  10  16  28  38  57  86 115 139 159 218 256
#     4   9  19  25  44  58  87 112 140 173 203 256
#     4  10  17  26  41  59  83 104 146 167 208 244
#     4  10  21  29  46  67  81 115 154 173 211 261
#
# _framework density 15.919207
#
# number of rings (size 3 to 8) (size 9 to 14) (size 15 to 20)
#    0.750    1.500    1.250    3.000    3.500    0.000 
#    0.000    0.000    0.000    0.000    0.000    0.000 
#    0.000    2.000    0.000    0.000    0.000    7.500 
#
# Total GULP energy -396441.096075 kJ/mol
# GULP energy per Si atom -12388.784252 kJ/mol
# Density = 1.588297 g / cm^3
# Si number density = 15.919207 Si / 1000 Ang^3
#
#
#
# Elastic Constant Matrix: (Units=GPa)
#
#
# Indices 1 2 3 4 5 6 
#
# 1 53.2691 2.8752 11.4512 0.0000 0.0000 0.0000
# 2 2.8752 76.2673 7.1637 0.0000 0.0000 0.0000
# 3 11.4512 7.1637 57.9824 0.0000 0.0000 0.0000
# 4 0.0000 0.0000 0.0000 18.6388 0.0000 0.0000
# 5 0.0000 0.0000 0.0000 0.0000 21.1417 0.0000
# 6 0.0000 0.0000 0.0000 0.0000 0.0000 13.6762
#
#
#
# Elastic Compliance Matrix: (Units=1/GPa)
#
#
# Indices 1 2 3 4 5 6 
#
# 1 0.019616 -0.000380 -0.003827 0.000000 0.000000 0.000000
# 2 -0.000380 0.013273 -0.001565 0.000000 0.000000 0.000000
# 3 -0.003827 -0.001565 0.018196 0.000000 0.000000 0.000000
# 4 0.000000 0.000000 0.000000 0.053651 0.000000 0.000000
# 5 0.000000 0.000000 0.000000 0.000000 0.047300 0.000000
# 6 0.000000 0.000000 0.000000 0.000000 0.000000 0.073120
#
#
# Mechanical properties :
#
#
# Convention : Reuss Voigt Hill
#
# Bulk Modulus (GPa) = 25.29029 25.61098 25.45064
# Shear Modulus (GPa) = 20.00964 21.75994 20.88479
#
# Velocity S-wave (km/s) = 3.54919 3.70117 3.62598
# Velocity P-wave (km/s) = 5.71986 5.86412 5.79244
#
# Compressibility (1/GPa) = 0.03954086
#
# Stress axis : x y z
#
# Youngs Moduli (GPa) = 50.97922 75.34037 54.95783
#
# Poissons Ratio (x) = 0.02863 0.21033
# Poissons Ratio (y) = 0.01937 0.08600
# Poissons Ratio (z) = 0.19510 0.11790
#
# Static dielectric constant tensor:
#      x y z
#    x 2.776390 0.000000 0.000000 
#    y 0.000000 3.224630 0.000000 
#    z 0.000000 0.000000 2.897510 
# 
# 
# High freq. dielectric constant tensor:
#      x y z
#    x 1.557390 0.000000 0.000000 
#    y 0.000000 1.634570 0.000000 
#    z 0.000000 0.000000 1.595510 
# 
# From -- ./inp_files/7503.got.cif
#   From: 2010.03.12/outbox.cif.g09.slc.cpg/sg19_4_cif.got.tgz:7503.got - 2010.04.10 18:59:41.
