data_PCOD8156873
_publ_section_title
;
Structure prediction by ZEFSAII (Michael W. Deem and Ramdas Pophale) SiO2 
 PCOD8156873
Probable space group: P 21 21 21
;
_chemical_formula_sum "Si O2"
_cell_formula_units_Z 32
_cell_length_a 13.735840
_cell_length_b 11.877420
_cell_length_c 8.276911
_cell_angle_alpha 90.000000
_cell_angle_beta 90.000000
_cell_angle_gamma 90.000000
_cell_volume 1350.347742
_symmetry_space_group_name_H-M "P 21 21 21"
_symmetry_group_IT_number 19
_symmetry_cell_setting 'orthorhombic'
loop_
_space_group_symop_operation_xyz
x,y,z
1/2-x,-y,1/2+z
1/2+x,1/2-y,-z
-x,1/2+y,1/2-z
loop_
_atom_site_type_symbol
_atom_site_label
_atom_site_fract_x
_atom_site_fract_y
_atom_site_fract_z
Si Si1 0.650181 0.330569 0.282098
Si Si2 0.714690 0.461741 0.699758
Si Si3 0.052127 0.720688 0.266766
Si Si4 0.808938 0.271091 0.491234
Si Si5 0.858246 0.729094 0.421947
Si Si6 0.653433 0.963422 0.156017
Si Si7 0.025338 0.049589 0.476174
Si Si8 0.193566 0.609341 0.511381
O O1 0.721288 0.437748 0.264793
O O2 0.713140 0.239164 0.383689
O O3 0.555239 0.358986 0.386633
O O4 0.618305 0.281031 0.111603
O O5 0.785474 0.379012 0.599821
O O6 0.669632 0.393003 0.850372
O O7 0.625130 0.510499 0.586453
O O8 0.105450 0.802713 0.138280
O O9 0.120521 0.690434 0.417524
O O10 0.954189 0.779409 0.333568
O O11 0.024660 0.604852 0.178699
O O12 0.841151 0.164834 0.594826
O O13 0.771165 0.815007 0.390323
O O14 0.559024 0.023483 0.068212
O O15 0.638827 0.962862 0.349988
O O16 0.752009 0.028951 0.115020
#
# Coordination Sequence:
#
# PCOD8156873 Si02
#       8
#     4   4   4   4   4   4   4   4
#     4  11  21  39  68  93 131 173 217 272 340 391
#     4  10  21  40  66  96 131 175 218 275 334 396
#     4  10  22  42  66  93 134 172 218 278 326 398
#     4  10  20  40  64  90 132 176 212 274 334 386
#     4  11  22  40  65 100 130 167 223 274 331 393
#     4  11  23  42  65  93 133 176 221 268 336 397
#     4   9  21  40  64  94 133 170 217 274 320 400
#     4  12  24  43  70  95 132 177 220 277 331 403
#
# _framework density 23.697599
#
# number of rings (size 3 to 8) (size 9 to 14) (size 15 to 20)
#    0.000    1.500    2.500    3.750    0.000    1.000 
#    2.250    3.750    0.000    0.000    0.000    0.000 
#    0.000    0.000    0.000    0.000    0.000    0.000 
#
# Total GULP energy -396625.163375 kJ/mol
# GULP energy per Si atom -12394.536355 kJ/mol
# Density = 2.364366 g / cm^3
# Si number density = 23.697599 Si / 1000 Ang^3
#
#
#
# Elastic Constant Matrix: (Units=GPa)
#
#
# Indices 1 2 3 4 5 6 
#
# 1 111.3024 10.0941 25.5305 0.0000 0.0000 0.0000
# 2 10.0941 25.2408 0.6231 0.0000 0.0000 0.0000
# 3 25.5305 0.6231 108.2414 0.0000 0.0000 0.0000
# 4 0.0000 0.0000 0.0000 22.7313 0.0000 0.0000
# 5 0.0000 0.0000 0.0000 0.0000 44.7547 0.0000
# 6 0.0000 0.0000 0.0000 0.0000 0.0000 25.1905
#
#
#
# Elastic Compliance Matrix: (Units=1/GPa)
#
#
# Indices 1 2 3 4 5 6 
#
# 1 0.009866 -0.003889 -0.002305 0.000000 0.000000 0.000000
# 2 -0.003889 0.041157 0.000680 0.000000 0.000000 0.000000
# 3 -0.002305 0.000680 0.009778 0.000000 0.000000 0.000000
# 4 0.000000 0.000000 0.000000 0.043992 0.000000 0.000000
# 5 0.000000 0.000000 0.000000 0.000000 0.022344 0.000000
# 6 0.000000 0.000000 0.000000 0.000000 0.000000 0.039698
#
#
# Mechanical properties :
#
#
# Convention : Reuss Voigt Hill
#
# Bulk Modulus (GPa) = 20.09043 35.25333 27.67188
# Shear Modulus (GPa) = 25.71327 32.43775 29.07551
#
# Velocity S-wave (km/s) = 3.29760 3.70377 3.50657
# Velocity P-wave (km/s) = 4.79532 5.76187 5.30067
#
# Compressibility (1/GPa) = 0.04977495
#
# Stress axis : x y z
#
# Youngs Moduli (GPa) = 101.36000 24.29736 102.26744
#
# Poissons Ratio (x) = 0.09448 0.23569
# Poissons Ratio (y) = 0.39414 -0.06957
# Poissons Ratio (z) = 0.23360 -0.01653
#
# Static dielectric constant tensor:
#      x y z
#    x 4.600610 0.000000 0.000000 
#    y 0.000000 3.711030 0.000000 
#    z 0.000000 0.000000 4.534130 
# 
# 
# High freq. dielectric constant tensor:
#      x y z
#    x 1.947710 0.000000 0.000000 
#    y 0.000000 1.894540 0.000000 
#    z 0.000000 0.000000 1.962820 
# 
# From -- ./inp_files/3594.got.cif
#   From: 2010.03.12/outbox.cif.g09.slc.cpg/sg19_2_cif.got.tgz:3594.got - 2010.04.10 18:59:41.
