data_PCOD8156476
_publ_section_title
;
Structure prediction by ZEFSAII (Michael W. Deem and Ramdas Pophale) SiO2 
 PCOD8156476
Probable space group: P 21 21 2
;
_chemical_formula_sum "Si O2"
_cell_formula_units_Z 18
_cell_length_a 12.387947
_cell_length_b 5.651616
_cell_length_c 10.040659
_cell_angle_alpha 90.000000
_cell_angle_beta 90.000000
_cell_angle_gamma 90.000000
_cell_volume 702.965809
_symmetry_space_group_name_H-M "P 21 21 2"
_symmetry_group_IT_number 18
_symmetry_cell_setting 'orthorhombic'
loop_
_space_group_symop_operation_xyz
x,y,z
-x,-y,z
1/2+x,1/2-y,-z
1/2-x,1/2+y,-z
loop_
_atom_site_type_symbol
_atom_site_label
_atom_site_fract_x
_atom_site_fract_y
_atom_site_fract_z
Si Si1 0.723821 0.497763 0.318893
Si Si2 0.500000 0.500000 0.687955
Si Si3 0.394424 0.159841 0.875649
Si Si4 0.896465 0.648600 0.517012
Si Si5 0.562222 0.753146 0.168729
O O1 0.787704 0.465391 0.180860
O O2 0.798905 0.502480 0.449997
O O3 0.641657 0.280895 0.348962
O O4 0.649552 0.730701 0.290353
O O5 0.409753 0.385819 0.781787
O O6 0.432789 0.676286 0.598380
O O7 0.500000 0.000000 0.858714
O O8 0.375222 0.229065 0.028057
O O9 0.000000 0.500000 0.561768
O O10 0.500000 0.500000 0.163579
O O11 0.500000 0.000000 0.190994
#
# Coordination Sequence:
#
# PCOD8156476 Si02
#       5
#     4   2   4   4   4
#     4  12  27  50  81 116 154 219 268 320 409 489
#     4  12  20  46  82 102 162 206 256 324 408 470
#     4  11  23  49  81 114 160 209 264 334 401 478
#     4  12  28  50  75 118 160 206 265 335 399 477
#     4  11  29  52  79 118 165 210 271 345 398 468
#
# _framework density 25.605796999999999
#
# number of rings (size 3 to 8) (size 9 to 14) (size 15 to 20)
#    0.000    0.444    5.556    1.333    1.556    9.778 
#    0.000    0.000    0.000    0.000    0.000    0.000 
#    0.000    0.000    0.000    0.000    0.000    0.000 
#
# Total GULP energy -223143.899248 kJ/mol
# GULP energy per Si atom -12396.883292 kJ/mol
# Density = 2.554752 g / cm^3
# Si number density = 25.605797 Si / 1000 Ang^3
#
#
#
# Elastic Constant Matrix: (Units=GPa)
#
#
# Indices 1 2 3 4 5 6 
#
# 1 146.6587 71.4664 69.2472 0.0000 0.0000 0.0000
# 2 71.4664 128.2424 33.6093 0.0000 0.0000 0.0000
# 3 69.2472 33.6093 132.2059 0.0000 0.0000 0.0000
# 4 0.0000 0.0000 0.0000 50.4639 0.0000 0.0000
# 5 0.0000 0.0000 0.0000 0.0000 38.4518 0.0000
# 6 0.0000 0.0000 0.0000 0.0000 0.0000 48.8895
#
#
#
# Elastic Compliance Matrix: (Units=1/GPa)
#
#
# Indices 1 2 3 4 5 6 
#
# 1 0.011608 -0.005223 -0.004752 0.000000 0.000000 0.000000
# 2 -0.005223 0.010705 0.000014 0.000000 0.000000 0.000000
# 3 -0.004752 0.000014 0.010049 0.000000 0.000000 0.000000
# 4 0.000000 0.000000 0.000000 0.019816 0.000000 0.000000
# 5 0.000000 0.000000 0.000000 0.000000 0.026007 0.000000
# 6 0.000000 0.000000 0.000000 0.000000 0.000000 0.020454
#
#
# Mechanical properties :
#
#
# Convention : Reuss Voigt Hill
#
# Bulk Modulus (GPa) = 80.38520 83.97253 82.17887
# Shear Modulus (GPa) = 40.74757 43.07998 41.91377
#
# Velocity S-wave (km/s) = 3.99349 4.10619 4.05023
# Velocity P-wave (km/s) = 7.26123 7.43953 7.35092
#
# Compressibility (1/GPa) = 0.01244010
#
# Stress axis : x y z
#
# Youngs Moduli (GPa) = 86.15088 93.41674 99.50954
#
# Poissons Ratio (x) = 0.48794 0.47287
# Poissons Ratio (y) = 0.44999 -0.00144
# Poissons Ratio (z) = 0.40939 -0.00135
#
# Static dielectric constant tensor:
#      x y z
#    x 4.969710 0.000000 0.000000 
#    y 0.000000 3.220920 0.000000 
#    z 0.000000 0.000000 4.824170 
# 
# 
# High freq. dielectric constant tensor:
#      x y z
#    x 2.028580 0.000000 0.000000 
#    y 0.000000 2.027490 0.000000 
#    z 0.000000 0.000000 2.044380 
# 
# From -- ./inp_files/5809.got.cif
#   From: 2010.03.12/outbox.cif.g09.slc.cpg/sg18_3_cif.got.tgz:5809.got - 2010.04.10 18:53:55.
