data_PCOD8156698
_publ_section_title
;
Structure prediction by ZEFSAII (Michael W. Deem and Ramdas Pophale) SiO2 
 PCOD8156698
Probable space group: P 21 21 21
;
_chemical_formula_sum "Si O2"
_cell_formula_units_Z 28
_cell_length_a 18.893488
_cell_length_b 8.587869
_cell_length_c 8.851460
_cell_angle_alpha 90.000000
_cell_angle_beta 90.000000
_cell_angle_gamma 90.000000
_cell_volume 1436.191871
_symmetry_space_group_name_H-M "P 21 21 21"
_symmetry_group_IT_number 19
_symmetry_cell_setting 'orthorhombic'
loop_
_space_group_symop_operation_xyz
x,y,z
1/2-x,-y,1/2+z
1/2+x,1/2-y,-z
-x,1/2+y,1/2-z
loop_
_atom_site_type_symbol
_atom_site_label
_atom_site_fract_x
_atom_site_fract_y
_atom_site_fract_z
Si Si1 0.707007 0.559453 0.290741
Si Si2 0.319142 0.525888 0.596896
Si Si3 0.563347 0.512031 0.836185
Si Si4 0.966392 0.135036 0.385261
Si Si5 0.677246 0.364939 0.015579
Si Si6 0.387060 0.940191 0.971653
Si Si7 0.274788 0.682435 0.895619
O O1 0.698770 0.408854 0.184757
O O2 0.774216 0.538075 0.399074
O O3 0.638195 0.562219 0.400412
O O4 0.714350 0.714951 0.189691
O O5 0.396917 0.458116 0.568367
O O6 0.312273 0.681828 0.499146
O O7 0.307069 0.560946 0.774075
O O8 0.260565 0.406868 0.535177
O O9 0.546983 0.683012 0.891611
O O10 0.492310 0.420942 0.781927
O O11 0.618166 0.519959 0.694076
O O12 0.597025 0.414926 0.974707
O O13 0.030659 0.103489 0.504057
O O14 0.337081 0.787372 0.966075
#
# Coordination Sequence:
#
# PCOD8156698 Si02
#       7
#     4   4   4   4   4   4   4
#     4  11  20  39  61  89 127 163 219 254 326 368
#     4  11  24  39  63  94 132 161 217 267 323 381
#     4  10  19  39  65  88 123 162 217 259 325 381
#     4  10  21  39  65  91 125 171 208 265 320 397
#     4  11  21  37  63  94 121 174 210 275 311 391
#     4  10  22  39  63  94 126 162 219 262 309 398
#     4  11  23  40  64  98 126 165 218 264 322 376
#
# _framework density 19.496001
#
# number of rings (size 3 to 8) (size 9 to 14) (size 15 to 20)
#    0.857    0.571    4.286    2.571    2.000    2.286 
#    0.000    2.857    3.143    0.000    0.000    0.000 
#    0.000    0.000    0.000    0.000    0.000    0.000 
#
# Total GULP energy -347029.690202 kJ/mol
# GULP energy per Si atom -12393.917507 kJ/mol
# Density = 1.945163 g / cm^3
# Si number density = 19.496001 Si / 1000 Ang^3
#
#
#
# Elastic Constant Matrix: (Units=GPa)
#
#
# Indices 1 2 3 4 5 6 
#
# 1 104.8265 32.6910 14.5275 0.0000 0.0000 0.0000
# 2 32.6910 49.3963 2.7406 0.0000 0.0000 0.0000
# 3 14.5275 2.7406 35.3566 0.0000 0.0000 0.0000
# 4 0.0000 0.0000 0.0000 33.7085 0.0000 0.0000
# 5 0.0000 0.0000 0.0000 0.0000 27.8734 0.0000
# 6 0.0000 0.0000 0.0000 0.0000 0.0000 38.0624
#
#
#
# Elastic Compliance Matrix: (Units=1/GPa)
#
#
# Indices 1 2 3 4 5 6 
#
# 1 0.012723 -0.008165 -0.004595 0.000000 0.000000 0.000000
# 2 -0.008165 0.025572 0.001373 0.000000 0.000000 0.000000
# 3 -0.004595 0.001373 0.030065 0.000000 0.000000 0.000000
# 4 0.000000 0.000000 0.000000 0.029666 0.000000 0.000000
# 5 0.000000 0.000000 0.000000 0.000000 0.035876 0.000000
# 6 0.000000 0.000000 0.000000 0.000000 0.000000 0.026273
#
#
# Mechanical properties :
#
#
# Convention : Reuss Voigt Hill
#
# Bulk Modulus (GPa) = 21.93687 32.16642 27.05164
# Shear Modulus (GPa) = 25.23422 29.23690 27.23556
#
# Velocity S-wave (km/s) = 3.60158 3.87671 3.74168
# Velocity P-wave (km/s) = 5.34524 6.04759 5.70723
#
# Compressibility (1/GPa) = 0.04558536
#
# Stress axis : x y z
#
# Youngs Moduli (GPa) = 78.59991 39.10528 33.26159
#
# Poissons Ratio (x) = 0.31930 0.15283
# Poissons Ratio (y) = 0.64177 -0.04566
# Poissons Ratio (z) = 0.36114 -0.05368
#
# Static dielectric constant tensor:
#      x y z
#    x 3.698120 0.000000 0.000000 
#    y 0.000000 3.430700 0.000000 
#    z 0.000000 0.000000 3.458110 
# 
# 
# High freq. dielectric constant tensor:
#      x y z
#    x 1.757070 0.000000 0.000000 
#    y 0.000000 1.755100 0.000000 
#    z 0.000000 0.000000 1.741620 
# 
# From -- ./inp_files/4184.got.cif
#   From: 2010.03.12/outbox.cif.g09.slc.cpg/sg19_3_cif.got.tgz:4184.got - 2010.04.10 18:59:41.
