data_PCOD8156703
_publ_section_title
;
Structure prediction by ZEFSAII (Michael W. Deem and Ramdas Pophale) SiO2 
 PCOD8156703
Probable space group: P 21 21 21
;
_chemical_formula_sum "Si O2"
_cell_formula_units_Z 28
_cell_length_a 9.995820
_cell_length_b 21.225310
_cell_length_c 6.218907
_cell_angle_alpha 90.000000
_cell_angle_beta 90.000000
_cell_angle_gamma 90.000000
_cell_volume 1319.430537
_symmetry_space_group_name_H-M "P 21 21 21"
_symmetry_group_IT_number 19
_symmetry_cell_setting 'orthorhombic'
loop_
_space_group_symop_operation_xyz
x,y,z
1/2-x,-y,1/2+z
1/2+x,1/2-y,-z
-x,1/2+y,1/2-z
loop_
_atom_site_type_symbol
_atom_site_label
_atom_site_fract_x
_atom_site_fract_y
_atom_site_fract_z
Si Si1 0.788180 0.790456 0.946024
Si Si2 0.839911 0.417130 0.478570
Si Si3 0.858656 0.638118 0.294646
Si Si4 0.602672 0.456071 0.168034
Si Si5 0.057982 0.639293 0.912575
Si Si6 0.944946 0.741960 0.587149
Si Si7 0.051906 0.796146 0.188184
O O1 0.856124 0.794904 0.709811
O O2 0.674822 0.735996 0.938357
O O3 0.716014 0.854691 0.027756
O O4 0.907032 0.771617 0.107526
O O5 0.772419 0.371370 0.652728
O O6 0.732911 0.448519 0.318283
O O7 0.921189 0.470732 0.609098
O O8 0.938785 0.371843 0.343163
O O9 0.879528 0.577030 0.440595
O O10 0.843972 0.698784 0.447525
O O11 0.986452 0.646708 0.141385
O O12 0.475553 0.427422 0.298567
O O13 0.018263 0.696299 0.755186
O O14 0.054196 0.778123 0.440773
#
# Coordination Sequence:
#
# PCOD8156703 Si02
#       7
#     4   4   4   4   4   4   4
#     4  12  24  44  63 103 141 181 225 287 344 431
#     4  11  22  41  64 108 129 178 234 291 333 411
#     4  10  19  40  64  92 134 174 224 280 338 401
#     4  10  21  39  71  95 134 177 233 288 340 392
#     4  10  22  41  62  94 132 179 223 277 341 409
#     4  11  22  39  63  97 137 182 213 278 350 416
#     4  12  26  40  69 101 145 175 232 281 356 414
#
# _framework density 21.221274999999999
#
# number of rings (size 3 to 8) (size 9 to 14) (size 15 to 20)
#    0.000    1.143    4.286    3.429    2.000    2.286 
#    2.571    0.000    3.143    0.000    0.000    0.000 
#    0.000    0.000    0.000    0.000    0.000    0.000 
#
# Total GULP energy -346995.052272 kJ/mol
# GULP energy per Si atom -12392.680438 kJ/mol
# Density = 2.117297 g / cm^3
# Si number density = 21.221275 Si / 1000 Ang^3
#
#
#
# Elastic Constant Matrix: (Units=GPa)
#
#
# Indices 1 2 3 4 5 6 
#
# 1 73.5218 27.4315 16.8051 0.0000 0.0000 0.0000
# 2 27.4315 75.3641 28.6673 0.0000 0.0000 0.0000
# 3 16.8051 28.6673 98.2078 0.0000 0.0000 0.0000
# 4 0.0000 0.0000 0.0000 40.7886 0.0000 0.0000
# 5 0.0000 0.0000 0.0000 0.0000 29.1545 0.0000
# 6 0.0000 0.0000 0.0000 0.0000 0.0000 27.3229
#
#
#
# Elastic Compliance Matrix: (Units=1/GPa)
#
#
# Indices 1 2 3 4 5 6 
#
# 1 0.015855 -0.005331 -0.001157 0.000000 0.000000 0.000000
# 2 -0.005331 0.016719 -0.003968 0.000000 0.000000 0.000000
# 3 -0.001157 -0.003968 0.011539 0.000000 0.000000 0.000000
# 4 0.000000 0.000000 0.000000 0.024517 0.000000 0.000000
# 5 0.000000 0.000000 0.000000 0.000000 0.034300 0.000000
# 6 0.000000 0.000000 0.000000 0.000000 0.000000 0.036599
#
#
# Mechanical properties :
#
#
# Convention : Reuss Voigt Hill
#
# Bulk Modulus (GPa) = 43.10242 43.65572 43.37907
# Shear Modulus (GPa) = 29.73122 31.06586 30.39854
#
# Velocity S-wave (km/s) = 3.74707 3.83025 3.78889
# Velocity P-wave (km/s) = 6.25106 6.33856 6.29496
#
# Compressibility (1/GPa) = 0.02320055
#
# Stress axis : x y z
#
# Youngs Moduli (GPa) = 63.07227 59.81348 86.66452
#
# Poissons Ratio (x) = 0.31886 0.10027
# Poissons Ratio (y) = 0.33623 0.34389
# Poissons Ratio (z) = 0.07297 0.23734
#
# Static dielectric constant tensor:
#      x y z
#    x 3.680460 0.000000 0.000000 
#    y 0.000000 3.766790 0.000000 
#    z 0.000000 0.000000 4.226420 
# 
# 
# High freq. dielectric constant tensor:
#      x y z
#    x 1.800490 0.000000 0.000000 
#    y 0.000000 1.810060 0.000000 
#    z 0.000000 0.000000 1.858020 
# 
# From -- ./inp_files/552.got.cif
#   From: 2010.03.12/outbox.cif.g09.slc.cpg/sg19_1_cif.got.tgz:552.got - 2010.04.10 18:59:41.
