data_PCOD8156206
_publ_section_title
;
Structure prediction by ZEFSAII (Michael W. Deem and Ramdas Pophale) SiO2 
 PCOD8156206
Probable space group: P 21 21 2
;
_chemical_formula_sum "Si O2"
_cell_formula_units_Z 20
_cell_length_a 9.142355
_cell_length_b 9.142363
_cell_length_c 11.534289
_cell_angle_alpha 90.000000
_cell_angle_beta 90.000000
_cell_angle_gamma 90.000000
_cell_volume 964.067341
_symmetry_space_group_name_H-M "P 21 21 2"
_symmetry_group_IT_number 18
_symmetry_cell_setting 'orthorhombic'
loop_
_space_group_symop_operation_xyz
x,y,z
-x,-y,z
1/2+x,1/2-y,-z
1/2-x,1/2+y,-z
loop_
_atom_site_type_symbol
_atom_site_label
_atom_site_fract_x
_atom_site_fract_y
_atom_site_fract_z
Si Si1 0.340283 0.950669 0.939227
Si Si2 0.049331 0.659717 0.560773
Si Si3 0.850600 0.149400 0.750000
Si Si4 0.345910 0.714910 0.129975
Si Si5 0.785090 0.845910 0.629975
O O1 0.286873 0.843905 0.836264
O O2 0.500000 0.000000 0.902319
O O3 0.231354 0.089529 0.947937
O O4 0.348624 0.866360 0.061039
O O5 0.156095 0.713127 0.663736
O O6 0.133640 0.651376 0.438961
O O7 0.000000 0.500000 0.597681
O O8 0.910471 0.768646 0.552063
O O9 0.994437 0.156989 0.831777
O O10 0.843011 0.005563 0.668223
O O11 0.256893 0.743107 0.250000
#
# Coordination Sequence:
#
# PCOD8156206 Si02
#       5
#     4   4   4   4   4
#     4  11  22  37  64  91 115 155 204 243 286 355
#     4  11  22  37  64  91 115 155 204 243 286 355
#     4  10  23  44  60  82 127 164 185 240 314 346
#     4  10  22  40  61  86 122 159 192 242 303 349
#     4  10  22  40  61  86 122 159 192 242 303 349
#
# _framework density 20.745439000000001
#
# number of rings (size 3 to 8) (size 9 to 14) (size 15 to 20)
#    0.000    1.600    0.000    7.800    0.000   12.800 
#    0.000    0.000    0.000   19.200    0.000    0.000 
#    0.000    0.000    0.000    0.000    0.000    0.000 
#
# Total GULP energy -247847.981896 kJ/mol
# GULP energy per Si atom -12392.399095 kJ/mol
# Density = 2.069822 g / cm^3
# Si number density = 20.745439 Si / 1000 Ang^3
#
#
#
# Elastic Constant Matrix: (Units=GPa)
#
#
# Indices 1 2 3 4 5 6 
#
# 1 100.0808 69.0743 76.7997 0.0000 0.0000 0.0000
# 2 69.0743 100.0811 76.7995 0.0000 0.0000 0.0000
# 3 76.7997 76.7995 126.7661 0.0000 0.0000 0.0000
# 4 0.0000 0.0000 0.0000 40.5493 0.0000 0.0000
# 5 0.0000 0.0000 0.0000 0.0000 40.5492 0.0000
# 6 0.0000 0.0000 0.0000 0.0000 0.0000 32.2128
#
#
#
# Elastic Compliance Matrix: (Units=1/GPa)
#
#
# Indices 1 2 3 4 5 6 
#
# 1 0.022696 -0.009555 -0.007961 0.000000 0.000000 0.000000
# 2 -0.009555 0.022696 -0.007961 0.000000 0.000000 0.000000
# 3 -0.007961 -0.007961 0.017535 0.000000 0.000000 0.000000
# 4 0.000000 0.000000 0.000000 0.024661 0.000000 0.000000
# 5 0.000000 0.000000 0.000000 0.000000 0.024661 0.000000
# 6 0.000000 0.000000 0.000000 0.000000 0.000000 0.031044
#
#
# Mechanical properties :
#
#
# Convention : Reuss Voigt Hill
#
# Bulk Modulus (GPa) = 83.52996 85.80834 84.66915
# Shear Modulus (GPa) = 25.22211 29.61254 27.41733
#
# Velocity S-wave (km/s) = 3.49060 3.78223 3.63934
# Velocity P-wave (km/s) = 7.52312 7.77984 7.65256
#
# Compressibility (1/GPa) = 0.01197175
#
# Stress axis : x y z
#
# Youngs Moduli (GPa) = 44.06050 44.06092 57.02923
#
# Poissons Ratio (x) = 0.42101 0.45402
# Poissons Ratio (y) = 0.42101 0.45401
# Poissons Ratio (z) = 0.35078 0.35077
#
# Static dielectric constant tensor:
#      x y z
#    x 3.787160 0.000000 0.000000 
#    y 0.000000 3.787170 0.000000 
#    z 0.000000 0.000000 3.951850 
# 
# 
# High freq. dielectric constant tensor:
#      x y z
#    x 1.808370 0.000000 0.000000 
#    y 0.000000 1.808370 0.000000 
#    z 0.000000 0.000000 1.812260 
# 
# From -- ./inp_files/5427.got.cif
#   From: 2010.03.12/outbox.cif.g09.slc.cpg/sg18_3_cif.got.tgz:5427.got - 2010.04.10 18:53:55.
