data_PCOD8156946
_publ_section_title
;
Structure prediction by ZEFSAII (Michael W. Deem and Ramdas Pophale) SiO2 
 PCOD8156946
Probable space group: P 21 21 21
;
_chemical_formula_sum "Si O2"
_cell_formula_units_Z 32
_cell_length_a 14.712999
_cell_length_b 6.868036
_cell_length_c 13.531294
_cell_angle_alpha 90.000000
_cell_angle_beta 90.000000
_cell_angle_gamma 90.000000
_cell_volume 1367.329232
_symmetry_space_group_name_H-M "P 21 21 21"
_symmetry_group_IT_number 19
_symmetry_cell_setting 'orthorhombic'
loop_
_space_group_symop_operation_xyz
x,y,z
1/2-x,-y,1/2+z
1/2+x,1/2-y,-z
-x,1/2+y,1/2-z
loop_
_atom_site_type_symbol
_atom_site_label
_atom_site_fract_x
_atom_site_fract_y
_atom_site_fract_z
Si Si1 0.744818 0.033438 0.294231
Si Si2 0.360801 0.615068 0.014601
Si Si3 0.067569 0.287842 0.801649
Si Si4 0.589413 0.677031 0.744321
Si Si5 0.296860 0.817352 0.830682
Si Si6 0.497427 0.348561 0.393691
Si Si7 0.487541 0.932693 0.594740
Si Si8 0.129382 0.970052 0.936057
O O1 0.717393 0.036788 0.411210
O O2 0.663176 0.120699 0.231007
O O3 0.835575 0.162517 0.275493
O O4 0.756477 0.806640 0.261594
O O5 0.403468 0.816705 0.057074
O O6 0.330649 0.645800 0.902162
O O7 0.443597 0.462975 0.998666
O O8 0.997499 0.254925 0.713400
O O9 0.082375 0.076866 0.845260
O O10 0.021902 0.423358 0.885310
O O11 0.631356 0.470144 0.711483
O O12 0.522149 0.748760 0.657326
O O13 0.522748 0.624047 0.835217
O O14 0.232739 0.942659 0.903941
O O15 0.416294 0.242747 0.453029
O O16 0.388491 0.907854 0.538877
#
# Coordination Sequence:
#
# PCOD8156946 Si02
#       8
#     4   4   4   4   4   4   4   4
#     4  11  24  46  72 104 147 186 234 302 367 428
#     4  10  24  46  70 104 138 188 242 290 354 430
#     4  11  20  39  63  99 138 181 222 284 354 419
#     4  12  26  50  71 102 144 193 243 293 369 425
#     4  12  24  47  71 105 147 188 238 302 357 435
#     4  10  21  36  65  96 141 178 222 284 348 419
#     4  11  26  48  71 102 139 189 243 295 353 433
#     4  11  23  40  65 102 136 177 236 286 356 421
#
# _framework density 23.403288
#
# number of rings (size 3 to 8) (size 9 to 14) (size 15 to 20)
#    0.000    1.000    5.000    1.500    1.750    0.000 
#    6.750    0.000    0.000    0.000    0.000    0.000 
#    0.000    0.000    0.000    0.000    0.000    0.000 
#
# Total GULP energy -396454.853250 kJ/mol
# GULP energy per Si atom -12389.214164 kJ/mol
# Density = 2.335002 g / cm^3
# Si number density = 23.403288 Si / 1000 Ang^3
#
#
#
# Elastic Constant Matrix: (Units=GPa)
#
#
# Indices 1 2 3 4 5 6 
#
# 1 59.7632 27.2824 26.3027 0.0000 0.0000 0.0000
# 2 27.2824 82.2692 20.6382 0.0000 0.0000 0.0000
# 3 26.3027 20.6382 94.4256 0.0000 0.0000 0.0000
# 4 0.0000 0.0000 0.0000 35.4145 0.0000 0.0000
# 5 0.0000 0.0000 0.0000 0.0000 42.7300 0.0000
# 6 0.0000 0.0000 0.0000 0.0000 0.0000 41.2130
#
#
#
# Elastic Compliance Matrix: (Units=1/GPa)
#
#
# Indices 1 2 3 4 5 6 
#
# 1 0.021518 -0.005959 -0.004691 0.000000 0.000000 0.000000
# 2 -0.005959 0.014511 -0.001512 0.000000 0.000000 0.000000
# 3 -0.004691 -0.001512 0.012228 0.000000 0.000000 0.000000
# 4 0.000000 0.000000 0.000000 0.028237 0.000000 0.000000
# 5 0.000000 0.000000 0.000000 0.000000 0.023403 0.000000
# 6 0.000000 0.000000 0.000000 0.000000 0.000000 0.024264
#
#
# Mechanical properties :
#
#
# Convention : Reuss Voigt Hill
#
# Bulk Modulus (GPa) = 41.78522 42.76718 42.27620
# Shear Modulus (GPa) = 31.95685 34.68717 33.32201
#
# Velocity S-wave (km/s) = 3.69926 3.85405 3.77744
# Velocity P-wave (km/s) = 6.01159 6.17402 6.09335
#
# Compressibility (1/GPa) = 0.02393191
#
# Stress axis : x y z
#
# Youngs Moduli (GPa) = 46.47327 68.91552 81.78245
#
# Poissons Ratio (x) = 0.41066 0.38368
# Poissons Ratio (y) = 0.27693 0.12363
# Poissons Ratio (z) = 0.21803 0.10418
#
# Static dielectric constant tensor:
#      x y z
#    x 4.330320 0.000000 0.000000 
#    y 0.000000 4.020730 0.000000 
#    z 0.000000 0.000000 4.377400 
# 
# 
# High freq. dielectric constant tensor:
#      x y z
#    x 1.922360 0.000000 0.000000 
#    y 0.000000 1.911770 0.000000 
#    z 0.000000 0.000000 1.932850 
# 
# From -- ./inp_files/6295.got.cif
#   From: 2010.03.12/outbox.cif.g09.slc.cpg/sg19_4_cif.got.tgz:6295.got - 2010.04.10 18:59:41.
