data_PCOD8156177
_publ_section_title
;
Structure prediction by ZEFSAII (Michael W. Deem and Ramdas Pophale) SiO2 
 PCOD8156177
Probable space group: P 21 21 2
;
_chemical_formula_sum "Si O2"
_cell_formula_units_Z 18
_cell_length_a 20.368474
_cell_length_b 6.091879
_cell_length_c 7.002917
_cell_angle_alpha 90.000000
_cell_angle_beta 90.000000
_cell_angle_gamma 90.000000
_cell_volume 868.937901
_symmetry_space_group_name_H-M "P 21 21 2"
_symmetry_group_IT_number 18
_symmetry_cell_setting 'orthorhombic'
loop_
_space_group_symop_operation_xyz
x,y,z
-x,-y,z
1/2+x,1/2-y,-z
1/2-x,1/2+y,-z
loop_
_atom_site_type_symbol
_atom_site_label
_atom_site_fract_x
_atom_site_fract_y
_atom_site_fract_z
Si Si1 0.500000 0.500000 0.285902
Si Si2 0.610687 0.794105 0.450727
Si Si3 0.841047 0.379911 0.137529
Si Si4 0.102799 0.325939 0.827766
Si Si5 0.298747 0.446780 0.176210
O O1 0.551277 0.625997 0.419133
O O2 0.539398 0.331215 0.149622
O O3 0.620811 0.806114 0.675372
O O4 0.676943 0.706013 0.349677
O O5 0.593830 0.032865 0.365458
O O6 0.779385 0.532375 0.193058
O O7 0.892888 0.515264 0.009956
O O8 0.817439 0.163955 0.025278
O O9 0.169357 0.186627 0.811340
#
# Coordination Sequence:
#
# PCOD8156177 Si02
#       5
#     2   4   4   4   4
#     4  10  22  48  62  90 132 172 220 264 312 380
#     4  10  24  40  67  92 127 174 211 265 316 378
#     4  11  22  40  64 102 127 170 210 263 328 386
#     4  10  22  43  65  92 131 170 212 264 317 380
#     4  10  22  38  61  97 136 159 207 262 325 386
#
# _framework density 20.714945
#
# number of rings (size 3 to 8) (size 9 to 14) (size 15 to 20)
#    0.000    1.778    2.222    0.667    3.111    3.556 
#    0.000   26.667    0.000    0.000    0.000    0.000 
#    0.000    0.000    0.000    0.000    0.000    0.000 
#
# Total GULP energy -223286.392248 kJ/mol
# GULP energy per Si atom -12404.799569 kJ/mol
# Density = 2.066780 g / cm^3
# Si number density = 20.714945 Si / 1000 Ang^3
#
#
#
# Elastic Constant Matrix: (Units=GPa)
#
#
# Indices 1 2 3 4 5 6 
#
# 1 117.3840 44.2044 48.0218 0.0000 0.0000 0.0000
# 2 44.2044 108.0297 40.3883 0.0000 0.0000 0.0000
# 3 48.0218 40.3883 123.7536 0.0000 0.0000 0.0000
# 4 0.0000 0.0000 0.0000 18.5232 0.0000 0.0000
# 5 0.0000 0.0000 0.0000 0.0000 22.3427 0.0000
# 6 0.0000 0.0000 0.0000 0.0000 0.0000 40.5457
#
#
#
# Elastic Compliance Matrix: (Units=1/GPa)
#
#
# Indices 1 2 3 4 5 6 
#
# 1 0.011091 -0.003336 -0.003215 0.000000 0.000000 0.000000
# 2 -0.003336 0.011547 -0.002474 0.000000 0.000000 0.000000
# 3 -0.003215 -0.002474 0.010135 0.000000 0.000000 0.000000
# 4 0.000000 0.000000 0.000000 0.053986 0.000000 0.000000
# 5 0.000000 0.000000 0.000000 0.000000 0.044757 0.000000
# 6 0.000000 0.000000 0.000000 0.000000 0.000000 0.024664
#
#
# Mechanical properties :
#
#
# Convention : Reuss Voigt Hill
#
# Bulk Modulus (GPa) = 67.92077 68.26626 68.09351
# Shear Modulus (GPa) = 27.91152 30.71915 29.31533
#
# Velocity S-wave (km/s) = 3.67469 3.85508 3.76597
# Velocity P-wave (km/s) = 7.13190 7.26926 7.20091
#
# Compressibility (1/GPa) = 0.01472304
#
# Stress axis : x y z
#
# Youngs Moduli (GPa) = 90.16656 86.60467 98.66399
#
# Poissons Ratio (x) = 0.28893 0.31719
# Poissons Ratio (y) = 0.30082 0.24407
# Poissons Ratio (z) = 0.28987 0.21424
#
# Static dielectric constant tensor:
#      x y z
#    x 3.774480 0.000000 0.000000 
#    y 0.000000 3.977230 0.000000 
#    z 0.000000 0.000000 3.475920 
# 
# 
# High freq. dielectric constant tensor:
#      x y z
#    x 1.811700 0.000000 0.000000 
#    y 0.000000 1.827800 0.000000 
#    z 0.000000 0.000000 1.790460 
# 
# From -- ./inp_files/214.got.cif
#   From: 2010.03.12/outbox.cif.g09.slc.cpg/sg18_1_cif.got.tgz:214.got - 2010.04.10 18:53:55.
