data_PCOD8156383
_publ_section_title
;
Structure prediction by ZEFSAII (Michael W. Deem and Ramdas Pophale) SiO2 
 PCOD8156383
Probable space group: P 21 21 2
;
_chemical_formula_sum "Si O2"
_cell_formula_units_Z 24
_cell_length_a 11.770928
_cell_length_b 4.937803
_cell_length_c 17.606525
_cell_angle_alpha 90.000000
_cell_angle_beta 90.000000
_cell_angle_gamma 90.000000
_cell_volume 1023.335665
_symmetry_space_group_name_H-M "P 21 21 2"
_symmetry_group_IT_number 18
_symmetry_cell_setting 'orthorhombic'
loop_
_space_group_symop_operation_xyz
x,y,z
-x,-y,z
1/2+x,1/2-y,-z
1/2-x,1/2+y,-z
loop_
_atom_site_type_symbol
_atom_site_label
_atom_site_fract_x
_atom_site_fract_y
_atom_site_fract_z
Si Si1 0.637303 0.763344 0.743976
Si Si2 0.719561 0.756360 0.286215
Si Si3 0.000000 0.000000 0.134767
Si Si4 0.500000 0.000000 0.610215
Si Si5 0.500000 0.500000 0.112659
Si Si6 0.500000 0.000000 0.211677
Si Si7 0.284553 0.754694 0.545702
Si Si8 0.677207 0.452806 0.992688
O O1 0.684571 0.462784 0.739026
O O2 0.546676 0.750599 0.813349
O O3 0.574712 0.809053 0.664201
O O4 0.740717 0.977710 0.755369
O O5 0.715261 0.714049 0.376279
O O6 0.596912 0.863570 0.262694
O O7 0.103174 0.107518 0.082507
O O8 0.417612 0.823466 0.556673
O O9 0.545514 0.246203 0.160971
O O10 0.603735 0.592632 0.059371
O O11 0.274774 0.448877 0.515958
O O12 0.776409 0.667386 0.976118
#
# Coordination Sequence:
#
# PCOD8156383 Si02
#       8
#     4   4   2   2   2   2   4   4
#     4  11  24  44  73 105 134 180 233 305 351 393
#     4  11  26  45  70 106 142 178 240 291 341 424
#     4  11  26  44  74 106 133 186 244 288 359 418
#     4  10  24  47  67 104 144 170 232 292 344 400
#     4  11  26  46  70 102 135 202 222 286 365 412
#     4  12  26  47  71 100 146 188 236 282 354 418
#     4  11  24  43  70 101 139 188 227 279 355 413
#     4  11  27  46  69 102 146 177 240 288 348 434
#
# _framework density 23.452715000000001
#
# number of rings (size 3 to 8) (size 9 to 14) (size 15 to 20)
#    0.000    1.000    0.000    6.000    7.000    8.667 
#    0.000    3.333    0.000    0.000    0.000    0.000 
#    0.000    0.000    0.000    0.000    0.000    0.000 
#
# Total GULP energy -297637.875947 kJ/mol
# GULP energy per Si atom -12401.578164 kJ/mol
# Density = 2.339934 g / cm^3
# Si number density = 23.452715 Si / 1000 Ang^3
#
#
#
# Elastic Constant Matrix: (Units=GPa)
#
#
# Indices 1 2 3 4 5 6 
#
# 1 124.5359 24.6695 56.1476 0.0000 0.0000 0.0000
# 2 24.6695 102.4612 40.2085 0.0000 0.0000 0.0000
# 3 56.1476 40.2085 113.0126 0.0000 0.0000 0.0000
# 4 0.0000 0.0000 0.0000 37.6923 0.0000 0.0000
# 5 0.0000 0.0000 0.0000 0.0000 33.6350 0.0000
# 6 0.0000 0.0000 0.0000 0.0000 0.0000 41.7172
#
#
#
# Elastic Compliance Matrix: (Units=1/GPa)
#
#
# Indices 1 2 3 4 5 6 
#
# 1 0.010374 -0.000552 -0.004958 0.000000 0.000000 0.000000
# 2 -0.000552 0.011373 -0.003772 0.000000 0.000000 0.000000
# 3 -0.004958 -0.003772 0.012654 0.000000 0.000000 0.000000
# 4 0.000000 0.000000 0.000000 0.026531 0.000000 0.000000
# 5 0.000000 0.000000 0.000000 0.000000 0.029731 0.000000
# 6 0.000000 0.000000 0.000000 0.000000 0.000000 0.023971
#
#
# Mechanical properties :
#
#
# Convention : Reuss Voigt Hill
#
# Bulk Modulus (GPa) = 63.14294 64.67342 63.90818
# Shear Modulus (GPa) = 36.10712 37.20785 36.65748
#
# Velocity S-wave (km/s) = 3.92799 3.98742 3.95782
# Velocity P-wave (km/s) = 6.89595 6.98822 6.94224
#
# Compressibility (1/GPa) = 0.01583708
#
# Stress axis : x y z
#
# Youngs Moduli (GPa) = 96.39047 87.92759 79.02786
#
# Poissons Ratio (x) = 0.04856 0.39181
# Poissons Ratio (y) = 0.05323 0.29809
# Poissons Ratio (z) = 0.47789 0.33166
#
# Static dielectric constant tensor:
#      x y z
#    x 4.258320 0.000000 0.000000 
#    y 0.000000 4.185600 0.000000 
#    z 0.000000 0.000000 4.274280 
# 
# 
# High freq. dielectric constant tensor:
#      x y z
#    x 1.932210 0.000000 0.000000 
#    y 0.000000 1.933650 0.000000 
#    z 0.000000 0.000000 1.929670 
# 
# From -- ./inp_files/7377.got.cif
#   From: 2010.03.12/outbox.cif.g09.slc.cpg/sg18_4_cif.got.tgz:7377.got - 2010.04.10 18:53:55.
