data_PCOD8156046
_publ_section_title
;
Structure prediction by ZEFSAII (Michael W. Deem and Ramdas Pophale) SiO2 
 PCOD8156046
Probable space group: P 21 21 2
;
_chemical_formula_sum "Si O2"
_cell_formula_units_Z 20
_cell_length_a 7.201446
_cell_length_b 15.864529
_cell_length_c 9.026280
_cell_angle_alpha 90.000000
_cell_angle_beta 90.000000
_cell_angle_gamma 90.000000
_cell_volume 1031.230366
_symmetry_space_group_name_H-M "P 21 21 2"
_symmetry_group_IT_number 18
_symmetry_cell_setting 'orthorhombic'
loop_
_space_group_symop_operation_xyz
x,y,z
-x,-y,z
1/2+x,1/2-y,-z
1/2-x,1/2+y,-z
loop_
_atom_site_type_symbol
_atom_site_label
_atom_site_fract_x
_atom_site_fract_y
_atom_site_fract_z
Si Si1 0.799512 0.310411 0.874298
Si Si2 0.704885 0.468962 0.713123
Si Si3 0.155025 0.352875 0.701263
Si Si4 0.065807 0.722932 0.199583
Si Si5 0.059426 0.590962 0.445168
O O1 0.711835 0.403504 0.849750
O O2 0.654466 0.238811 0.818998
O O3 0.993516 0.302511 0.787414
O O4 0.833721 0.295949 0.046162
O O5 0.500000 0.500000 0.678397
O O6 0.831899 0.549740 0.756139
O O7 0.777061 0.420460 0.566234
O O8 0.349183 0.306469 0.725169
O O9 0.108635 0.358423 0.526072
O O10 0.117434 0.644353 0.303209
O O11 0.000000 0.500000 0.384228
#
# Coordination Sequence:
#
# PCOD8156046 Si02
#       5
#     4   4   4   4   4
#     4  11  23  40  61  92 129 167 205 256 312 377
#     4  10  20  42  67  90 124 171 213 253 323 382
#     4  10  22  40  64  91 123 164 214 254 311 376
#     4  12  23  40  63  95 127 163 213 256 310 370
#     4   9  23  41  60  93 127 162 203 266 310 366
#
# _framework density 19.394307999999999
#
# number of rings (size 3 to 8) (size 9 to 14) (size 15 to 20)
#    0.000    1.600    4.000    1.800    5.600    1.600 
#    3.600    1.000    0.000    0.000    0.000    0.000 
#    0.000    0.000    0.000    0.000    0.000    0.000 
#
# Total GULP energy -247953.946169 kJ/mol
# GULP energy per Si atom -12397.697308 kJ/mol
# Density = 1.935017 g / cm^3
# Si number density = 19.394308 Si / 1000 Ang^3
#
#
#
# Elastic Constant Matrix: (Units=GPa)
#
#
# Indices 1 2 3 4 5 6 
#
# 1 91.5907 27.5406 30.9466 0.0000 0.0000 0.0000
# 2 27.5406 95.5859 52.5309 0.0000 0.0000 0.0000
# 3 30.9466 52.5309 85.3578 0.0000 0.0000 0.0000
# 4 0.0000 0.0000 0.0000 25.6036 0.0000 0.0000
# 5 0.0000 0.0000 0.0000 0.0000 23.3220 0.0000
# 6 0.0000 0.0000 0.0000 0.0000 0.0000 39.5355
#
#
#
# Elastic Compliance Matrix: (Units=1/GPa)
#
#
# Indices 1 2 3 4 5 6 
#
# 1 0.012621 -0.001695 -0.003533 0.000000 0.000000 0.000000
# 2 -0.001695 0.016036 -0.009254 0.000000 0.000000 0.000000
# 3 -0.003533 -0.009254 0.018692 0.000000 0.000000 0.000000
# 4 0.000000 0.000000 0.000000 0.039057 0.000000 0.000000
# 5 0.000000 0.000000 0.000000 0.000000 0.042878 0.000000
# 6 0.000000 0.000000 0.000000 0.000000 0.000000 0.025294
#
#
# Mechanical properties :
#
#
# Convention : Reuss Voigt Hill
#
# Bulk Modulus (GPa) = 54.39310 54.95229 54.67270
# Shear Modulus (GPa) = 26.36152 28.45997 27.41075
#
# Velocity S-wave (km/s) = 3.69079 3.83487 3.76352
# Velocity P-wave (km/s) = 6.80216 6.92850 6.86562
#
# Compressibility (1/GPa) = 0.01838468
#
# Stress axis : x y z
#
# Youngs Moduli (GPa) = 79.23003 62.35937 53.50020
#
# Poissons Ratio (x) = 0.10570 0.18900
# Poissons Ratio (y) = 0.13430 0.49511
# Poissons Ratio (z) = 0.27990 0.57710
#
# Static dielectric constant tensor:
#      x y z
#    x 3.654430 0.000000 0.000000 
#    y 0.000000 3.604840 0.000000 
#    z 0.000000 0.000000 3.332410 
# 
# 
# High freq. dielectric constant tensor:
#      x y z
#    x 1.762070 0.000000 0.000000 
#    y 0.000000 1.758390 0.000000 
#    z 0.000000 0.000000 1.735560 
# 
# From -- ./inp_files/3066.got.cif
#   From: 2010.03.12/outbox.cif.g09.slc.cpg/sg18_2_cif.got.tgz:3066.got - 2010.04.10 18:53:55.
