data_PCOD8156758
_publ_section_title
;
Structure prediction by ZEFSAII (Michael W. Deem and Ramdas Pophale) SiO2 
 PCOD8156758
Probable space group: P 21 21 21
;
_chemical_formula_sum "Si O2"
_cell_formula_units_Z 28
_cell_length_a 20.665447
_cell_length_b 12.597534
_cell_length_c 4.961152
_cell_angle_alpha 90.000000
_cell_angle_beta 90.000000
_cell_angle_gamma 90.000000
_cell_volume 1291.554914
_symmetry_space_group_name_H-M "P 21 21 21"
_symmetry_group_IT_number 19
_symmetry_cell_setting 'orthorhombic'
loop_
_space_group_symop_operation_xyz
x,y,z
1/2-x,-y,1/2+z
1/2+x,1/2-y,-z
-x,1/2+y,1/2-z
loop_
_atom_site_type_symbol
_atom_site_label
_atom_site_fract_x
_atom_site_fract_y
_atom_site_fract_z
Si Si1 0.704730 0.240093 0.716062
Si Si2 0.918079 0.643569 0.105979
Si Si3 0.274305 0.055821 0.204245
Si Si4 0.224042 0.553969 0.034588
Si Si5 0.467820 0.636687 0.964255
Si Si6 0.387564 0.581843 0.479764
Si Si7 0.585869 0.500371 0.119623
O O1 0.651249 0.302375 0.536803
O O2 0.751470 0.324777 0.862693
O O3 0.752095 0.172793 0.522499
O O4 0.666540 0.168675 0.933122
O O5 0.914299 0.593355 0.401964
O O6 0.972011 0.736986 0.093165
O O7 0.937519 0.553047 0.896063
O O8 0.224029 0.005704 0.420426
O O9 0.344301 0.053044 0.343435
O O10 0.235256 0.527824 0.347804
O O11 0.147902 0.533361 0.968139
O O12 0.413686 0.611597 0.187445
O O13 0.538078 0.595908 0.046455
O O14 0.446156 0.576871 0.691826
#
# Coordination Sequence:
#
# PCOD8156758 Si02
#       7
#     4   4   4   4   4   4   4
#     4  10  21  39  67  92 127 163 207 257 316 382
#     4  11  22  41  69  87 122 172 212 249 319 384
#     4  12  24  41  64  96 127 166 212 259 322 365
#     4  10  20  35  61  96 127 157 204 261 311 367
#     4  11  24  42  67  92 126 170 219 254 317 383
#     4  10  21  40  66  96 126 167 212 259 318 384
#     4  12  24  44  64  93 129 163 212 271 303 377
#
# _framework density 21.679296999999998
#
# number of rings (size 3 to 8) (size 9 to 14) (size 15 to 20)
#    0.000    1.143    2.857    5.143    0.000    3.429 
#    5.143    0.000    0.000    0.000    0.000    0.000 
#    0.000    0.000    0.000    0.000    0.000    0.000 
#
# Total GULP energy -347177.804163 kJ/mol
# GULP energy per Si atom -12399.207292 kJ/mol
# Density = 2.162995 g / cm^3
# Si number density = 21.679297 Si / 1000 Ang^3
#
#
#
# Elastic Constant Matrix: (Units=GPa)
#
#
# Indices 1 2 3 4 5 6 
#
# 1 79.0542 37.6620 -2.7215 0.0000 0.0000 0.0000
# 2 37.6620 83.9240 2.5726 0.0000 0.0000 0.0000
# 3 -2.7215 2.5726 70.3678 0.0000 0.0000 0.0000
# 4 0.0000 0.0000 0.0000 26.3700 0.0000 0.0000
# 5 0.0000 0.0000 0.0000 0.0000 28.6928 0.0000
# 6 0.0000 0.0000 0.0000 0.0000 0.0000 45.1695
#
#
#
# Elastic Compliance Matrix: (Units=1/GPa)
#
#
# Indices 1 2 3 4 5 6 
#
# 1 0.016145 -0.007273 0.000890 0.000000 0.000000 0.000000
# 2 -0.007273 0.015205 -0.000837 0.000000 0.000000 0.000000
# 3 0.000890 -0.000837 0.014276 0.000000 0.000000 0.000000
# 4 0.000000 0.000000 0.000000 0.037922 0.000000 0.000000
# 5 0.000000 0.000000 0.000000 0.000000 0.034852 0.000000
# 6 0.000000 0.000000 0.000000 0.000000 0.000000 0.022139
#
#
# Mechanical properties :
#
#
# Convention : Reuss Voigt Hill
#
# Bulk Modulus (GPa) = 32.06460 34.26358 33.16409
# Shear Modulus (GPa) = 30.23470 33.10199 31.66835
#
# Velocity S-wave (km/s) = 3.73853 3.91179 3.82614
# Velocity P-wave (km/s) = 5.78429 6.02012 5.90338
#
# Compressibility (1/GPa) = 0.03118704
#
# Stress axis : x y z
#
# Youngs Moduli (GPa) = 61.93915 65.76855 70.04727
#
# Poissons Ratio (x) = 0.47830 -0.06236
# Poissons Ratio (y) = 0.45045 0.05864
# Poissons Ratio (z) = -0.05514 0.05506
#
# Static dielectric constant tensor:
#      x y z
#    x 3.832340 0.000000 0.000000 
#    y 0.000000 4.029190 0.000000 
#    z 0.000000 0.000000 3.854960 
# 
# 
# High freq. dielectric constant tensor:
#      x y z
#    x 1.836850 0.000000 0.000000 
#    y 0.000000 1.844530 0.000000 
#    z 0.000000 0.000000 1.859520 
# 
# From -- ./inp_files/1944.got.cif
#   From: 2010.03.12/outbox.cif.g09.slc.cpg/sg19_1_cif.got.tgz:1944.got - 2010.04.10 18:59:41.
