data_PCOD8156787
_publ_section_title
;
Structure prediction by ZEFSAII (Michael W. Deem and Ramdas Pophale) SiO2 
 PCOD8156787
Probable space group: P 21 21 21
;
_chemical_formula_sum "Si O2"
_cell_formula_units_Z 32
_cell_length_a 14.141554
_cell_length_b 8.257325
_cell_length_c 13.646021
_cell_angle_alpha 90.000000
_cell_angle_beta 90.000000
_cell_angle_gamma 90.000000
_cell_volume 1593.465077
_symmetry_space_group_name_H-M "P 21 21 21"
_symmetry_group_IT_number 19
_symmetry_cell_setting 'orthorhombic'
loop_
_space_group_symop_operation_xyz
x,y,z
1/2-x,-y,1/2+z
1/2+x,1/2-y,-z
-x,1/2+y,1/2-z
loop_
_atom_site_type_symbol
_atom_site_label
_atom_site_fract_x
_atom_site_fract_y
_atom_site_fract_z
Si Si1 0.253800 0.362151 0.930182
Si Si2 0.140053 0.658361 0.982244
Si Si3 0.245180 0.753373 0.643345
Si Si4 0.209063 0.877878 0.150982
Si Si5 0.072311 0.443561 0.148644
Si Si6 0.923593 0.313810 0.713368
Si Si7 0.077731 0.704890 0.297563
Si Si8 0.379518 0.813197 0.281323
O O1 0.224757 0.548295 0.942547
O O2 0.349247 0.373382 0.870925
O O3 0.170754 0.260748 0.877092
O O4 0.282446 0.276696 0.031320
O O5 0.080226 0.727574 0.892026
O O6 0.186149 0.803924 0.044668
O O7 0.071539 0.543946 0.047322
O O8 0.321970 0.618004 0.674637
O O9 0.154395 0.736729 0.713691
O O10 0.290515 0.929899 0.648557
O O11 0.127060 0.833446 0.226598
O O12 0.309138 0.805393 0.188124
O O13 0.034148 0.558634 0.234712
O O14 0.003288 0.291132 0.138894
O O15 0.906631 0.502624 0.696260
O O16 0.027408 0.290876 0.758433
#
# Coordination Sequence:
#
# PCOD8156787 Si02
#       8
#     4   4   4   4   4   4   4   4
#     4  10  21  37  58  83 113 149 189 236 288 344
#     4  10  21  38  58  84 117 151 191 239 290 347
#     4  10  21  37  58  83 113 150 192 238 289 340
#     4   9  20  39  58  82 115 150 192 240 288 344
#     4  10  21  36  58  85 114 150 191 240 289 344
#     4  11  22  38  60  86 117 155 194 240 292 350
#     4  10  20  37  58  82 113 150 190 235 287 342
#     4  10  22  38  60  85 116 153 193 240 291 345
#
# _framework density 20.082021999999998
#
# number of rings (size 3 to 8) (size 9 to 14) (size 15 to 20)
#    0.000    2.000    0.000    3.000    0.000    8.000 
#    0.000   10.000    0.000    0.000    0.000    0.000 
#    0.000    0.000    0.000    0.000    0.000    0.000 
#
# Total GULP energy -396839.522103 kJ/mol
# GULP energy per Si atom -12401.235066 kJ/mol
# Density = 2.003631 g / cm^3
# Si number density = 20.082022 Si / 1000 Ang^3
#
#
#
# Elastic Constant Matrix: (Units=GPa)
#
#
# Indices 1 2 3 4 5 6 
#
# 1 89.0360 16.6115 39.5614 0.0000 0.0000 0.0000
# 2 16.6115 60.5544 32.5038 0.0000 0.0000 0.0000
# 3 39.5614 32.5038 113.4014 0.0000 0.0000 0.0000
# 4 0.0000 0.0000 0.0000 32.3463 0.0000 0.0000
# 5 0.0000 0.0000 0.0000 0.0000 15.3240 0.0000
# 6 0.0000 0.0000 0.0000 0.0000 0.0000 30.6221
#
#
#
# Elastic Compliance Matrix: (Units=1/GPa)
#
#
# Indices 1 2 3 4 5 6 
#
# 1 0.013388 -0.001378 -0.004276 0.000000 0.000000 0.000000
# 2 -0.001378 0.019659 -0.005154 0.000000 0.000000 0.000000
# 3 -0.004276 -0.005154 0.011787 0.000000 0.000000 0.000000
# 4 0.000000 0.000000 0.000000 0.030915 0.000000 0.000000
# 5 0.000000 0.000000 0.000000 0.000000 0.065257 0.000000
# 6 0.000000 0.000000 0.000000 0.000000 0.000000 0.032656
#
#
# Mechanical properties :
#
#
# Convention : Reuss Voigt Hill
#
# Bulk Modulus (GPa) = 43.06800 48.92724 45.99762
# Shear Modulus (GPa) = 24.62842 27.27949 25.95395
#
# Velocity S-wave (km/s) = 3.50579 3.68965 3.59889
# Velocity P-wave (km/s) = 6.15467 6.52441 6.34224
#
# Compressibility (1/GPa) = 0.02321909
#
# Stress axis : x y z
#
# Youngs Moduli (GPa) = 74.69213 50.86847 84.83790
#
# Poissons Ratio (x) = 0.07008 0.36275
# Poissons Ratio (y) = 0.10290 0.43726
# Poissons Ratio (z) = 0.31937 0.26218
#
# Static dielectric constant tensor:
#      x y z
#    x 3.523120 0.000000 0.000000 
#    y 0.000000 3.720340 0.000000 
#    z 0.000000 0.000000 3.740420 
# 
# 
# High freq. dielectric constant tensor:
#      x y z
#    x 1.775870 0.000000 0.000000 
#    y 0.000000 1.797380 0.000000 
#    z 0.000000 0.000000 1.787400 
# 
# From -- ./inp_files/3622.got.cif
#   From: 2010.03.12/outbox.cif.g09.slc.cpg/sg19_2_cif.got.tgz:3622.got - 2010.04.10 18:59:41.
