data_PCOD8156791
_publ_section_title
;
Structure prediction by ZEFSAII (Michael W. Deem and Ramdas Pophale) SiO2 
 PCOD8156791
Probable space group: P 21 21 21
;
_chemical_formula_sum "Si O2"
_cell_formula_units_Z 28
_cell_length_a 12.804327
_cell_length_b 13.432631
_cell_length_c 7.826779
_cell_angle_alpha 90.000000
_cell_angle_beta 90.000000
_cell_angle_gamma 90.000000
_cell_volume 1346.173114
_symmetry_space_group_name_H-M "P 21 21 21"
_symmetry_group_IT_number 19
_symmetry_cell_setting 'orthorhombic'
loop_
_space_group_symop_operation_xyz
x,y,z
1/2-x,-y,1/2+z
1/2+x,1/2-y,-z
-x,1/2+y,1/2-z
loop_
_atom_site_type_symbol
_atom_site_label
_atom_site_fract_x
_atom_site_fract_y
_atom_site_fract_z
Si Si1 0.208988 0.114540 0.502542
Si Si2 0.610945 0.495192 0.185256
Si Si3 0.546118 0.291239 0.067610
Si Si4 0.375015 0.714629 0.776910
Si Si5 0.825152 0.155513 0.926075
Si Si6 0.728116 0.215780 0.263449
Si Si7 0.897101 0.935856 0.939609
O O1 0.291593 0.056883 0.386709
O O2 0.135323 0.182131 0.381609
O O3 0.271221 0.192786 0.623359
O O4 0.138476 0.040092 0.620265
O O5 0.501017 0.556548 0.181364
O O6 0.595389 0.402269 0.056577
O O7 0.551348 0.238060 0.883517
O O8 0.429321 0.291825 0.142107
O O9 0.607884 0.232450 0.210582
O O10 0.263305 0.671421 0.714561
O O11 0.427574 0.627374 0.890545
O O12 0.851484 0.043733 0.980657
O O13 0.800988 0.211194 0.101501
O O14 0.709329 0.113351 0.363467
#
# Coordination Sequence:
#
# PCOD8156791 Si02
#       7
#     4   4   4   4   4   4   4
#     4  10  21  38  59  85 117 157 200 250 295 356
#     4  10  21  38  58  85 120 156 201 250 301 351
#     4   9  20  37  56  85 118 152 200 240 298 355
#     4  10  21  38  61  87 120 157 204 244 297 371
#     4  10  20  37  59  82 120 156 190 255 293 352
#     4   9  20  37  55  85 117 150 201 241 292 362
#     4  10  21  37  58  87 118 154 198 242 302 359
#
# _framework density 20.799703999999998
#
# number of rings (size 3 to 8) (size 9 to 14) (size 15 to 20)
#    0.000    2.286    0.000    1.714    4.000    0.000 
#    0.000    7.143    0.000    0.000    0.000    0.000 
#    0.000    0.000    0.000    0.000    0.000    0.000 
#
# Total GULP energy -346913.915421 kJ/mol
# GULP energy per Si atom -12389.782694 kJ/mol
# Density = 2.075236 g / cm^3
# Si number density = 20.799704 Si / 1000 Ang^3
#
#
#
# Elastic Constant Matrix: (Units=GPa)
#
#
# Indices 1 2 3 4 5 6 
#
# 1 68.6600 29.8507 10.7196 0.0000 0.0000 0.0000
# 2 29.8507 63.9542 11.9774 0.0000 0.0000 0.0000
# 3 10.7196 11.9774 61.6118 0.0000 0.0000 0.0000
# 4 0.0000 0.0000 0.0000 40.9224 0.0000 0.0000
# 5 0.0000 0.0000 0.0000 0.0000 13.2709 0.0000
# 6 0.0000 0.0000 0.0000 0.0000 0.0000 23.0044
#
#
#
# Elastic Compliance Matrix: (Units=1/GPa)
#
#
# Indices 1 2 3 4 5 6 
#
# 1 0.018422 -0.008300 -0.001592 0.000000 0.000000 0.000000
# 2 -0.008300 0.019967 -0.002437 0.000000 0.000000 0.000000
# 3 -0.001592 -0.002437 0.016981 0.000000 0.000000 0.000000
# 4 0.000000 0.000000 0.000000 0.024436 0.000000 0.000000
# 5 0.000000 0.000000 0.000000 0.000000 0.075353 0.000000
# 6 0.000000 0.000000 0.000000 0.000000 0.000000 0.043470
#
#
# Mechanical properties :
#
#
# Convention : Reuss Voigt Hill
#
# Bulk Modulus (GPa) = 32.56119 33.25793 32.90956
# Shear Modulus (GPa) = 21.41101 24.88477 23.14789
#
# Velocity S-wave (km/s) = 3.21189 3.46265 3.33963
# Velocity P-wave (km/s) = 5.42620 5.65782 5.54322
#
# Compressibility (1/GPa) = 0.03071141
#
# Stress axis : x y z
#
# Youngs Moduli (GPa) = 54.28402 50.08306 58.88800
#
# Poissons Ratio (x) = 0.41570 0.09372
# Poissons Ratio (y) = 0.45057 0.14354
# Poissons Ratio (z) = 0.08639 0.12207
#
# Static dielectric constant tensor:
#      x y z
#    x 3.617200 0.000000 0.000000 
#    y 0.000000 3.964640 0.000000 
#    z 0.000000 0.000000 3.684330 
# 
# 
# High freq. dielectric constant tensor:
#      x y z
#    x 1.798690 0.000000 0.000000 
#    y 0.000000 1.827200 0.000000 
#    z 0.000000 0.000000 1.809800 
# 
# From -- ./inp_files/3889.got.cif
#   From: 2010.03.12/outbox.cif.g09.slc.cpg/sg19_2_cif.got.tgz:3889.got - 2010.04.10 18:59:41.
