data_PCOD8156479
_publ_section_title
;
Structure prediction by ZEFSAII (Michael W. Deem and Ramdas Pophale) SiO2 
 PCOD8156479
Probable space group: P 21 21 2
;
_chemical_formula_sum "Si O2"
_cell_formula_units_Z 24
_cell_length_a 8.423070
_cell_length_b 4.957370
_cell_length_c 26.408754
_cell_angle_alpha 90.000000
_cell_angle_beta 90.000000
_cell_angle_gamma 90.000000
_cell_volume 1102.731182
_symmetry_space_group_name_H-M "P 21 21 2"
_symmetry_group_IT_number 18
_symmetry_cell_setting 'orthorhombic'
loop_
_space_group_symop_operation_xyz
x,y,z
-x,-y,z
1/2+x,1/2-y,-z
1/2-x,1/2+y,-z
loop_
_atom_site_type_symbol
_atom_site_label
_atom_site_fract_x
_atom_site_fract_y
_atom_site_fract_z
Si Si1 0.320753 0.920586 0.857503
Si Si2 0.682198 0.077170 0.638105
Si Si3 0.178924 0.420572 0.808128
Si Si4 0.188652 0.005628 0.527871
Si Si5 0.179307 0.420983 0.024771
Si Si6 0.819695 0.574230 0.690093
O O1 0.204144 0.115203 0.826336
O O2 0.500000 0.000000 0.845651
O O3 0.296126 0.615332 0.839086
O O4 0.279772 0.944439 0.916362
O O5 0.790620 0.875697 0.670647
O O6 0.500000 0.000000 0.642357
O O7 0.736538 0.085196 0.580431
O O8 0.702102 0.374753 0.660766
O O9 0.218126 0.443334 0.749192
O O10 0.000000 0.500000 0.820493
O O11 0.251389 0.805695 0.484404
O O12 0.000000 0.000000 0.530895
O O13 0.000000 0.500000 0.012945
O O14 0.295816 0.615758 0.993592
O O15 0.000000 0.500000 0.677582
#
# Coordination Sequence:
#
# PCOD8156479 Si02
#       6
#     4   4   4   4   4   4
#     4  11  24  41  62  90 125 160 201 252 309 364
#     4  12  25  42  65  95 126 163 209 254 305 367
#     4  11  24  41  64  92 123 161 207 252 303 365
#     4  12  25  44  67  94 128 166 207 256 309 364
#     4  11  24  41  62  90 122 160 203 252 305 364
#     4  11  24  43  64  91 126 164 205 254 307 362
#
# _framework density 21.764143000000001
#
# number of rings (size 3 to 8) (size 9 to 14) (size 15 to 20)
#    0.000    0.667    0.000    8.000    0.000   13.333 
#    0.000    0.000    0.000    0.000    0.000    0.000 
#    0.000    0.000    0.000    0.000    0.000    0.000 
#
# Total GULP energy -297868.088216 kJ/mol
# GULP energy per Si atom -12411.170342 kJ/mol
# Density = 2.171461 g / cm^3
# Si number density = 21.764143 Si / 1000 Ang^3
#
#
#
# Elastic Constant Matrix: (Units=GPa)
#
#
# Indices 1 2 3 4 5 6 
#
# 1 51.1663 0.8732 43.2969 0.0000 0.0000 0.0000
# 2 0.8732 75.0915 5.3625 0.0000 0.0000 0.0000
# 3 43.2969 5.3625 92.2429 0.0000 0.0000 0.0000
# 4 0.0000 0.0000 0.0000 3.9686 0.0000 0.0000
# 5 0.0000 0.0000 0.0000 0.0000 45.0849 0.0000
# 6 0.0000 0.0000 0.0000 0.0000 0.0000 8.9617
#
#
#
# Elastic Compliance Matrix: (Units=1/GPa)
#
#
# Indices 1 2 3 4 5 6 
#
# 1 0.032460 0.000714 -0.015277 0.000000 0.000000 0.000000
# 2 0.000714 0.013388 -0.001113 0.000000 0.000000 0.000000
# 3 -0.015277 -0.001113 0.018077 0.000000 0.000000 0.000000
# 4 0.000000 0.000000 0.000000 0.251979 0.000000 0.000000
# 5 0.000000 0.000000 0.000000 0.000000 0.022180 0.000000
# 6 0.000000 0.000000 0.000000 0.000000 0.000000 0.111585
#
#
# Mechanical properties :
#
#
# Convention : Reuss Voigt Hill
#
# Bulk Modulus (GPa) = 30.70276 35.28507 32.99392
# Shear Modulus (GPa) = 10.16509 22.86759 16.51634
#
# Velocity S-wave (km/s) = 2.16349 3.24497 2.75776
# Velocity P-wave (km/s) = 4.51427 5.50340 5.03319
#
# Compressibility (1/GPa) = 0.03257036
#
# Stress axis : x y z
#
# Youngs Moduli (GPa) = 30.80751 74.69213 55.32036
#
# Poissons Ratio (x) = -0.05330 0.84515
# Poissons Ratio (y) = -0.02198 0.06158
# Poissons Ratio (z) = 0.47066 0.08315
#
# Static dielectric constant tensor:
#      x y z
#    x 3.937250 0.000000 0.000000 
#    y 0.000000 3.836460 0.000000 
#    z 0.000000 0.000000 3.983250 
# 
# 
# High freq. dielectric constant tensor:
#      x y z
#    x 1.866660 0.000000 0.000000 
#    y 0.000000 1.871010 0.000000 
#    z 0.000000 0.000000 1.867460 
# 
# From -- ./inp_files/7631.got.cif
#   From: 2010.03.12/outbox.cif.g09.slc.cpg/sg18_4_cif.got.tgz:7631.got - 2010.04.10 18:53:55.
