data_PCOD8156829
_publ_section_title
;
Structure prediction by ZEFSAII (Michael W. Deem and Ramdas Pophale) SiO2 
 PCOD8156829
Probable space group: P 21 21 21
;
_chemical_formula_sum "Si O2"
_cell_formula_units_Z 20
_cell_length_a 6.397674
_cell_length_b 17.818813
_cell_length_c 9.070890
_cell_angle_alpha 90.000000
_cell_angle_beta 90.000000
_cell_angle_gamma 90.000000
_cell_volume 1034.071996
_symmetry_space_group_name_H-M "P 21 21 21"
_symmetry_group_IT_number 19
_symmetry_cell_setting 'orthorhombic'
loop_
_space_group_symop_operation_xyz
x,y,z
1/2-x,-y,1/2+z
1/2+x,1/2-y,-z
-x,1/2+y,1/2-z
loop_
_atom_site_type_symbol
_atom_site_label
_atom_site_fract_x
_atom_site_fract_y
_atom_site_fract_z
Si Si1 0.253197 0.579666 0.120596
Si Si2 0.471365 0.850590 0.112541
Si Si3 0.133090 0.812157 0.882150
Si Si4 0.131646 0.078598 0.196948
Si Si5 0.404107 0.959401 0.367925
O O1 0.406367 0.650507 0.120855
O O2 0.375795 0.501582 0.110599
O O3 0.116482 0.579855 0.270650
O O4 0.097362 0.587639 0.982077
O O5 0.611360 0.776695 0.132095
O O6 0.430256 0.884401 0.272952
O O7 0.250677 0.832478 0.034587
O O8 0.269437 0.841565 0.744090
O O9 0.234991 0.013099 0.293820
O O10 0.180877 0.065324 0.026653
#
# Coordination Sequence:
#
# PCOD8156829 Si02
#       5
#     4   4   4   4   4
#     4  10  20  38  63  87 118 155 201 247 301 361
#     4  11  21  39  65  88 121 164 204 243 307 357
#     4  10  21  39  61  87 121 162 200 246 297 369
#     4  10  22  39  58  90 121 150 202 247 302 352
#     4  11  22  39  63  90 119 159 199 255 295 359
#
# _framework density 19.341014999999999
#
# number of rings (size 3 to 8) (size 9 to 14) (size 15 to 20)
#    0.000    1.600    2.000    4.800    0.000    1.600 
#    3.600    0.000    0.000    0.000    0.000    0.000 
#    0.000    0.000    0.000    0.000    0.000    0.000 
#
# Total GULP energy -248068.285599 kJ/mol
# GULP energy per Si atom -12403.414280 kJ/mol
# Density = 1.929699 g / cm^3
# Si number density = 19.341015 Si / 1000 Ang^3
#
#
#
# Elastic Constant Matrix: (Units=GPa)
#
#
# Indices 1 2 3 4 5 6 
#
# 1 105.8830 43.0822 47.8329 0.0000 0.0000 0.0000
# 2 43.0822 109.1151 69.1349 0.0000 0.0000 0.0000
# 3 47.8329 69.1349 154.1199 0.0000 0.0000 0.0000
# 4 0.0000 0.0000 0.0000 31.1783 0.0000 0.0000
# 5 0.0000 0.0000 0.0000 0.0000 21.1286 0.0000
# 6 0.0000 0.0000 0.0000 0.0000 0.0000 33.6310
#
#
#
# Elastic Compliance Matrix: (Units=1/GPa)
#
#
# Indices 1 2 3 4 5 6 
#
# 1 0.011758 -0.003256 -0.002189 0.000000 0.000000 0.000000
# 2 -0.003256 0.013705 -0.005137 0.000000 0.000000 0.000000
# 3 -0.002189 -0.005137 0.009472 0.000000 0.000000 0.000000
# 4 0.000000 0.000000 0.000000 0.032074 0.000000 0.000000
# 5 0.000000 0.000000 0.000000 0.000000 0.047329 0.000000
# 6 0.000000 0.000000 0.000000 0.000000 0.000000 0.029734
#
#
# Mechanical properties :
#
#
# Convention : Reuss Voigt Hill
#
# Bulk Modulus (GPa) = 72.61281 76.57979 74.59630
# Shear Modulus (GPa) = 29.44180 31.12545 30.28363
#
# Velocity S-wave (km/s) = 3.90583 4.01596 3.96128
# Velocity P-wave (km/s) = 7.61352 7.82204 7.71848
#
# Compressibility (1/GPa) = 0.01377167
#
# Stress axis : x y z
#
# Youngs Moduli (GPa) = 85.04976 72.96566 105.57085
#
# Poissons Ratio (x) = 0.23754 0.23107
# Poissons Ratio (y) = 0.27688 0.54236
# Poissons Ratio (z) = 0.18616 0.37485
#
# Static dielectric constant tensor:
#      x y z
#    x 3.647710 0.000000 0.000000 
#    y 0.000000 3.515000 0.000000 
#    z 0.000000 0.000000 3.451840 
# 
# 
# High freq. dielectric constant tensor:
#      x y z
#    x 1.764850 0.000000 0.000000 
#    y 0.000000 1.749760 0.000000 
#    z 0.000000 0.000000 1.740770 
# 
# From -- ./inp_files/306.got.cif
#   From: 2010.03.12/outbox.cif.g09.slc.cpg/sg19_1_cif.got.tgz:306.got - 2010.04.10 18:59:41.
