data_PCOD8156001
_publ_section_title
;
Structure prediction by ZEFSAII (Michael W. Deem and Ramdas Pophale) SiO2 
 PCOD8156001
Probable space group: P 21 21 2
;
_chemical_formula_sum "Si O2"
_cell_formula_units_Z 32
_cell_length_a 14.111391
_cell_length_b 9.698704
_cell_length_c 11.268755
_cell_angle_alpha 90.000000
_cell_angle_beta 90.000000
_cell_angle_gamma 90.000000
_cell_volume 1542.266649
_symmetry_space_group_name_H-M "P 21 21 2"
_symmetry_group_IT_number 18
_symmetry_cell_setting 'orthorhombic'
loop_
_space_group_symop_operation_xyz
x,y,z
-x,-y,z
1/2+x,1/2-y,-z
1/2-x,1/2+y,-z
loop_
_atom_site_type_symbol
_atom_site_label
_atom_site_fract_x
_atom_site_fract_y
_atom_site_fract_z
Si Si1 0.100031 0.076522 0.697075
Si Si2 0.726097 0.542951 0.917746
Si Si3 0.472136 0.349377 0.887222
Si Si4 0.306345 0.486483 0.648775
Si Si5 0.906745 0.778235 0.456208
Si Si6 0.218381 0.469692 0.408876
Si Si7 0.588828 0.790338 0.659526
Si Si8 0.647006 0.297816 0.051826
O O1 0.099163 0.191927 0.595481
O O2 0.126527 0.157291 0.814986
O O3 0.182033 0.966664 0.662468
O O4 0.000000 0.000000 0.709909
O O5 0.631036 0.630465 0.946250
O O6 0.734548 0.494245 0.780573
O O7 0.813416 0.641855 0.951792
O O8 0.723858 0.403895 0.996124
O O9 0.500000 0.500000 0.834422
O O10 0.463416 0.235338 0.784923
O O11 0.548037 0.297137 0.981875
O O12 0.397819 0.584184 0.624993
O O13 0.230730 0.523030 0.545171
O O14 0.336141 0.328596 0.631214
O O15 0.820871 0.683820 0.411256
O O16 0.007636 0.705190 0.439566
O O17 0.144206 0.566338 0.339790
#
# Coordination Sequence:
#
# PCOD8156001 Si02
#       8
#     4   4   4   4   4   4   4   4
#     4  11  23  38  61  89 121 162 207 247 291 362
#     4  10  21  39  62  84 115 156 198 249 298 349
#     4   9  19  38  62  85 113 157 204 240 286 359
#     4  10  20  39  60  82 115 158 200 235 292 363
#     4  11  21  36  59  89 122 158 195 243 303 359
#     4  11  23  37  58  92 125 148 190 252 306 349
#     4  11  20  37  61  87 118 153 195 241 295 357
#     4  11  22  40  63  88 118 156 204 249 297 354
#
# _framework density 20.748681999999999
#
# number of rings (size 3 to 8) (size 9 to 14) (size 15 to 20)
#    0.000    1.500    0.000    9.375    0.000    2.000 
#    0.000    4.375    0.000    0.000    0.000    0.000 
#    0.000    0.000    0.000    0.000    0.000    0.000 
#
# Total GULP energy -396756.936919 kJ/mol
# GULP energy per Si atom -12398.654279 kJ/mol
# Density = 2.070146 g / cm^3
# Si number density = 20.748682 Si / 1000 Ang^3
#
#
#
# Elastic Constant Matrix: (Units=GPa)
#
#
# Indices 1 2 3 4 5 6 
#
# 1 38.1364 -1.0711 34.5886 0.0000 0.0000 0.0000
# 2 -1.0711 50.0862 32.7206 0.0000 0.0000 0.0000
# 3 34.5886 32.7206 125.1593 0.0000 0.0000 0.0000
# 4 0.0000 0.0000 0.0000 16.6000 0.0000 0.0000
# 5 0.0000 0.0000 0.0000 0.0000 26.1557 0.0000
# 6 0.0000 0.0000 0.0000 0.0000 0.0000 32.5849
#
#
#
# Elastic Compliance Matrix: (Units=1/GPa)
#
#
# Indices 1 2 3 4 5 6 
#
# 1 0.038293 0.009325 -0.013020 0.000000 0.000000 0.000000
# 2 0.009325 0.026349 -0.009465 0.000000 0.000000 0.000000
# 3 -0.013020 -0.009465 0.014063 0.000000 0.000000 0.000000
# 4 0.000000 0.000000 0.000000 0.060241 0.000000 0.000000
# 5 0.000000 0.000000 0.000000 0.000000 0.038233 0.000000
# 6 0.000000 0.000000 0.000000 0.000000 0.000000 0.030689
#
#
# Mechanical properties :
#
#
# Convention : Reuss Voigt Hill
#
# Bulk Modulus (GPa) = 19.09041 38.42868 28.75954
# Shear Modulus (GPa) = 19.86899 24.87772 22.37336
#
# Velocity S-wave (km/s) = 3.09787 3.46642 3.28731
# Velocity P-wave (km/s) = 4.69218 5.88070 5.31973
#
# Compressibility (1/GPa) = 0.05238233
#
# Stress axis : x y z
#
# Youngs Moduli (GPa) = 26.11471 37.95272 71.11069
#
# Poissons Ratio (x) = -0.35390 0.92588
# Poissons Ratio (y) = -0.24352 0.67309
# Poissons Ratio (z) = 0.34002 0.35924
#
# Static dielectric constant tensor:
#      x y z
#    x 3.842290 0.000000 0.000000 
#    y 0.000000 3.597220 0.000000 
#    z 0.000000 0.000000 3.797200 
# 
# 
# High freq. dielectric constant tensor:
#      x y z
#    x 1.811950 0.000000 0.000000 
#    y 0.000000 1.798540 0.000000 
#    z 0.000000 0.000000 1.814500 
# 
# From -- ./inp_files/6130.got.cif
#   From: 2010.03.12/outbox.cif.g09.slc.cpg/sg18_4_cif.got.tgz:6130.got - 2010.04.10 18:53:55.
