data_PCOD8156625
_publ_section_title
;
Structure prediction by ZEFSAII (Michael W. Deem and Ramdas Pophale) SiO2 
 PCOD8156625
Probable space group: P 21 21 21
;
_chemical_formula_sum "Si O2"
_cell_formula_units_Z 28
_cell_length_a 27.324867
_cell_length_b 9.805574
_cell_length_c 5.085154
_cell_angle_alpha 90.000000
_cell_angle_beta 90.000000
_cell_angle_gamma 90.000000
_cell_volume 1362.495850
_symmetry_space_group_name_H-M "P 21 21 21"
_symmetry_group_IT_number 19
_symmetry_cell_setting 'orthorhombic'
loop_
_space_group_symop_operation_xyz
x,y,z
1/2-x,-y,1/2+z
1/2+x,1/2-y,-z
-x,1/2+y,1/2-z
loop_
_atom_site_type_symbol
_atom_site_label
_atom_site_fract_x
_atom_site_fract_y
_atom_site_fract_z
Si Si1 0.582663 0.642959 0.268532
Si Si2 0.938950 0.850799 0.773275
Si Si3 0.189353 0.946385 0.681391
Si Si4 0.117073 0.284132 0.222460
Si Si5 0.941654 0.519827 0.263951
Si Si6 0.013065 0.624205 0.637202
Si Si7 0.204472 0.123722 0.182492
O O1 0.641273 0.646794 0.289859
O O2 0.557180 0.536691 0.469338
O O3 0.563468 0.792094 0.352199
O O4 0.566696 0.601955 0.974554
O O5 0.901447 0.861250 0.533812
O O6 0.976631 0.975622 0.739194
O O7 0.970068 0.709620 0.786845
O O8 0.905746 0.863397 0.031745
O O9 0.237252 0.849985 0.709067
O O10 0.187881 0.012494 0.395138
O O11 0.190669 0.066764 0.895152
O O12 0.176352 0.269020 0.227635
O O13 0.102302 0.125513 0.211388
O O14 0.992933 0.597229 0.338582
#
# Coordination Sequence:
#
# PCOD8156625 Si02
#       7
#     4   4   4   4   4   4   4
#     4  12  22  39  61  83 126 150 202 243 297 343
#     4  11  26  38  61  83 120 155 207 235 301 346
#     4  10  19  34  56  93 115 155 190 251 300 345
#     4  11  21  38  59  84 120 153 194 245 299 352
#     4  11  23  36  57  85 116 159 188 241 297 340
#     4  11  26  42  59  88 120 165 200 246 288 363
#     4  10  19  33  59  86 123 145 197 245 306 349
#
# _framework density 20.550521
#
# number of rings (size 3 to 8) (size 9 to 14) (size 15 to 20)
#    0.000    1.143    4.286    2.571    4.000    3.429 
#    0.000    0.000    0.000    1.714    0.000    0.000 
#    0.000    0.000    0.000    0.000    0.000    0.000 
#
# Total GULP energy -347084.158401 kJ/mol
# GULP energy per Si atom -12395.862800 kJ/mol
# Density = 2.050375 g / cm^3
# Si number density = 20.550521 Si / 1000 Ang^3
#
#
#
# Elastic Constant Matrix: (Units=GPa)
#
#
# Indices 1 2 3 4 5 6 
#
# 1 135.2542 21.0411 25.4062 0.0000 0.0000 0.0000
# 2 21.0411 62.1922 7.6169 0.0000 0.0000 0.0000
# 3 25.4062 7.6169 85.5293 0.0000 0.0000 0.0000
# 4 0.0000 0.0000 0.0000 16.0511 0.0000 0.0000
# 5 0.0000 0.0000 0.0000 0.0000 24.5696 0.0000
# 6 0.0000 0.0000 0.0000 0.0000 0.0000 33.8105
#
#
#
# Elastic Compliance Matrix: (Units=1/GPa)
#
#
# Indices 1 2 3 4 5 6 
#
# 1 0.008198 -0.002503 -0.002212 0.000000 0.000000 0.000000
# 2 -0.002503 0.017021 -0.000772 0.000000 0.000000 0.000000
# 3 -0.002212 -0.000772 0.012418 0.000000 0.000000 0.000000
# 4 0.000000 0.000000 0.000000 0.062301 0.000000 0.000000
# 5 0.000000 0.000000 0.000000 0.000000 0.040701 0.000000
# 6 0.000000 0.000000 0.000000 0.000000 0.000000 0.029577
#
#
# Mechanical properties :
#
#
# Convention : Reuss Voigt Hill
#
# Bulk Modulus (GPa) = 37.50691 43.45602 40.48146
# Shear Modulus (GPa) = 26.30505 30.14701 28.22603
#
# Velocity S-wave (km/s) = 3.58162 3.83426 3.71009
# Velocity P-wave (km/s) = 5.94934 6.38701 6.17206
#
# Compressibility (1/GPa) = 0.02666176
#
# Stress axis : x y z
#
# Youngs Moduli (GPa) = 121.97482 58.75258 80.52909
#
# Poissons Ratio (x) = 0.14704 0.17816
# Poissons Ratio (y) = 0.30527 0.06220
# Poissons Ratio (z) = 0.26986 0.04538
#
# Static dielectric constant tensor:
#      x y z
#    x 4.088020 0.000000 0.000000 
#    y 0.000000 3.344090 0.000000 
#    z 0.000000 0.000000 3.810570 
# 
# 
# High freq. dielectric constant tensor:
#      x y z
#    x 1.810190 0.000000 0.000000 
#    y 0.000000 1.752000 0.000000 
#    z 0.000000 0.000000 1.818990 
# 
# From -- ./inp_files/2300.got.cif
#   From: 2010.03.12/outbox.cif.g09.slc.cpg/sg19_2_cif.got.tgz:2300.got - 2010.04.10 18:59:41.
