data_PCOD8156988
_publ_section_title
;
Structure prediction by ZEFSAII (Michael W. Deem and Ramdas Pophale) SiO2 
 PCOD8156988
Probable space group: P 21 21 21
;
_chemical_formula_sum "Si O2"
_cell_formula_units_Z 28
_cell_length_a 6.858893
_cell_length_b 9.933440
_cell_length_c 19.474729
_cell_angle_alpha 90.000000
_cell_angle_beta 90.000000
_cell_angle_gamma 90.000000
_cell_volume 1326.860067
_symmetry_space_group_name_H-M "P 21 21 21"
_symmetry_group_IT_number 19
_symmetry_cell_setting 'orthorhombic'
loop_
_space_group_symop_operation_xyz
x,y,z
1/2-x,-y,1/2+z
1/2+x,1/2-y,-z
-x,1/2+y,1/2-z
loop_
_atom_site_type_symbol
_atom_site_label
_atom_site_fract_x
_atom_site_fract_y
_atom_site_fract_z
Si Si1 0.205425 0.244925 0.939067
Si Si2 0.079170 0.742720 0.679021
Si Si3 0.959024 0.047310 0.696879
Si Si4 0.615491 0.168498 0.917805
Si Si5 0.764761 0.622616 0.923144
Si Si6 0.354254 0.534109 0.905393
Si Si7 0.383949 0.388265 0.522131
O O1 0.382963 0.156684 0.911409
O O2 0.243146 0.400997 0.928191
O O3 0.020895 0.203967 0.893506
O O4 0.162027 0.225690 0.020022
O O5 0.020400 0.628388 0.732863
O O6 0.304276 0.726597 0.654928
O O7 0.024641 0.891140 0.706973
O O8 0.733595 0.062865 0.670929
O O9 0.098906 0.121427 0.642959
O O10 0.683545 0.016584 0.933244
O O11 0.588177 0.516206 0.909526
O O12 0.642242 0.761333 0.927649
O O13 0.896361 0.592563 0.990628
O O14 0.272503 0.641195 0.961046
#
# Coordination Sequence:
#
# PCOD8156988 Si02
#       7
#     4   4   4   4   4   4   4
#     4  10  21  38  65  95 123 164 206 273 330 377
#     4  11  24  46  65  95 134 169 224 271 321 403
#     4  10  25  42  66  91 129 183 215 263 336 389
#     4  11  22  37  63  98 125 163 220 271 328 388
#     4  11  20  40  61  91 132 169 212 274 325 390
#     4   9  20  39  62  89 129 165 208 263 321 386
#     4  10  22  34  60  97 126 165 215 263 331 381
#
# _framework density 21.102450999999999
#
# number of rings (size 3 to 8) (size 9 to 14) (size 15 to 20)
#    0.000    1.714    2.857    1.714    4.000    1.143 
#    2.571    0.000    0.000    0.000    0.000    0.000 
#    0.000    0.000    0.000    0.000    0.000    0.000 
#
# Total GULP energy -346961.180199 kJ/mol
# GULP energy per Si atom -12391.470721 kJ/mol
# Density = 2.105442 g / cm^3
# Si number density = 21.102451 Si / 1000 Ang^3
#
#
#
# Elastic Constant Matrix: (Units=GPa)
#
#
# Indices 1 2 3 4 5 6 
#
# 1 93.0318 18.6114 16.6409 0.0000 0.0000 0.0000
# 2 18.6114 80.3037 44.0254 0.0000 0.0000 0.0000
# 3 16.6409 44.0254 79.6391 0.0000 0.0000 0.0000
# 4 0.0000 0.0000 0.0000 28.3230 0.0000 0.0000
# 5 0.0000 0.0000 0.0000 0.0000 25.6951 0.0000
# 6 0.0000 0.0000 0.0000 0.0000 0.0000 26.8542
#
#
#
# Elastic Compliance Matrix: (Units=1/GPa)
#
#
# Indices 1 2 3 4 5 6 
#
# 1 0.011367 -0.001912 -0.001318 0.000000 0.000000 0.000000
# 2 -0.001912 0.018190 -0.009656 0.000000 0.000000 0.000000
# 3 -0.001318 -0.009656 0.018170 0.000000 0.000000 0.000000
# 4 0.000000 0.000000 0.000000 0.035307 0.000000 0.000000
# 5 0.000000 0.000000 0.000000 0.000000 0.038918 0.000000
# 6 0.000000 0.000000 0.000000 0.000000 0.000000 0.037238
#
#
# Mechanical properties :
#
#
# Convention : Reuss Voigt Hill
#
# Bulk Modulus (GPa) = 45.54822 45.72555 45.63689
# Shear Modulus (GPa) = 26.00371 27.75424 26.87897
#
# Velocity S-wave (km/s) = 3.51416 3.63052 3.57282
# Velocity P-wave (km/s) = 6.17228 6.26815 6.22040
#
# Compressibility (1/GPa) = 0.02195475
#
# Stress axis : x y z
#
# Youngs Moduli (GPa) = 87.97176 54.97675 55.03571
#
# Poissons Ratio (x) = 0.10510 0.07256
# Poissons Ratio (y) = 0.16818 0.53142
# Poissons Ratio (z) = 0.11598 0.53085
#
# Static dielectric constant tensor:
#      x y z
#    x 3.930790 0.000000 0.000000 
#    y 0.000000 3.659900 0.000000 
#    z 0.000000 0.000000 3.628540 
# 
# 
# High freq. dielectric constant tensor:
#      x y z
#    x 1.835910 0.000000 0.000000 
#    y 0.000000 1.821620 0.000000 
#    z 0.000000 0.000000 1.797740 
# 
# From -- ./inp_files/1924.got.cif
#   From: 2010.03.12/outbox.cif.g09.slc.cpg/sg19_1_cif.got.tgz:1924.got - 2010.04.10 18:59:41.
