data_PCOD8156850
_publ_section_title
;
Structure prediction by ZEFSAII (Michael W. Deem and Ramdas Pophale) SiO2 
 PCOD8156850
Probable space group: P 21 21 21
;
_chemical_formula_sum "Si O2"
_cell_formula_units_Z 28
_cell_length_a 6.646343
_cell_length_b 8.970273
_cell_length_c 23.224187
_cell_angle_alpha 90.000000
_cell_angle_beta 90.000000
_cell_angle_gamma 90.000000
_cell_volume 1384.614676
_symmetry_space_group_name_H-M "P 21 21 21"
_symmetry_group_IT_number 19
_symmetry_cell_setting 'orthorhombic'
loop_
_space_group_symop_operation_xyz
x,y,z
1/2-x,-y,1/2+z
1/2+x,1/2-y,-z
-x,1/2+y,1/2-z
loop_
_atom_site_type_symbol
_atom_site_label
_atom_site_fract_x
_atom_site_fract_y
_atom_site_fract_z
Si Si1 0.641914 0.946916 0.367205
Si Si2 0.509522 0.373226 0.620356
Si Si3 0.878162 0.386795 0.838280
Si Si4 0.588170 0.287462 0.741878
Si Si5 0.725273 0.365138 0.426019
Si Si6 0.892486 0.361776 0.547419
Si Si7 0.781993 0.967805 0.745143
O O1 0.580755 0.775370 0.363946
O O2 0.593749 0.025465 0.305331
O O3 0.509322 0.008885 0.419314
O O4 0.882015 0.971185 0.380574
O O5 0.635883 0.355662 0.679066
O O6 0.337882 0.246865 0.616977
O O7 0.663229 0.355767 0.568541
O O8 0.712211 0.379291 0.788775
O O9 0.809206 0.483073 0.892252
O O10 0.075546 0.460939 0.810164
O O11 0.638428 0.112837 0.742543
O O12 0.352670 0.317679 0.755198
O O13 0.871314 0.399357 0.479997
O O14 0.510752 0.294327 0.445059
#
# Coordination Sequence:
#
# PCOD8156850 Si02
#       7
#     4   4   4   4   4   4   4
#     4   9  23  39  59  90 126 162 199 247 311 369
#     4  10  20  39  63  88 121 160 204 250 308 368
#     4  11  23  40  60  97 125 159 205 256 313 372
#     4  10  21  37  62  92 124 163 199 256 309 374
#     4  11  23  39  65  92 117 161 219 254 306 372
#     4  11  21  42  62  86 119 165 206 261 300 361
#     4  10  21  38  61  91 126 160 204 246 311 370
#
# _framework density 20.222232999999999
#
# number of rings (size 3 to 8) (size 9 to 14) (size 15 to 20)
#    0.000    1.714    1.429    2.571    0.000   11.429 
#    2.571    0.000    0.000    0.000    0.000    0.000 
#    0.000    0.000    0.000    0.000    0.000    0.000 
#
# Total GULP energy -347129.654213 kJ/mol
# GULP energy per Si atom -12397.487650 kJ/mol
# Density = 2.017621 g / cm^3
# Si number density = 20.222233 Si / 1000 Ang^3
#
#
#
# Elastic Constant Matrix: (Units=GPa)
#
#
# Indices 1 2 3 4 5 6 
#
# 1 80.1877 49.2250 43.9525 0.0000 0.0000 0.0000
# 2 49.2250 109.9207 60.7423 0.0000 0.0000 0.0000
# 3 43.9525 60.7423 126.4613 0.0000 0.0000 0.0000
# 4 0.0000 0.0000 0.0000 31.6148 0.0000 0.0000
# 5 0.0000 0.0000 0.0000 0.0000 48.3116 0.0000
# 6 0.0000 0.0000 0.0000 0.0000 0.0000 27.1221
#
#
#
# Elastic Compliance Matrix: (Units=1/GPa)
#
#
# Indices 1 2 3 4 5 6 
#
# 1 0.018141 -0.006316 -0.003271 0.000000 0.000000 0.000000
# 2 -0.006316 0.014584 -0.004810 0.000000 0.000000 0.000000
# 3 -0.003271 -0.004810 0.011355 0.000000 0.000000 0.000000
# 4 0.000000 0.000000 0.000000 0.031631 0.000000 0.000000
# 5 0.000000 0.000000 0.000000 0.000000 0.020699 0.000000
# 6 0.000000 0.000000 0.000000 0.000000 0.000000 0.036870
#
#
# Mechanical properties :
#
#
# Convention : Reuss Voigt Hill
#
# Bulk Modulus (GPa) = 65.42245 69.37882 67.40063
# Shear Modulus (GPa) = 29.90976 32.25302 31.08139
#
# Velocity S-wave (km/s) = 3.85002 3.99799 3.92470
# Velocity P-wave (km/s) = 7.22395 7.46288 7.34439
#
# Compressibility (1/GPa) = 0.01528527
#
# Stress axis : x y z
#
# Youngs Moduli (GPa) = 55.12318 68.56858 88.06919
#
# Poissons Ratio (x) = 0.43310 0.28809
# Poissons Ratio (y) = 0.34818 0.42359
# Poissons Ratio (z) = 0.18032 0.32979
#
# Static dielectric constant tensor:
#      x y z
#    x 3.653930 0.000000 0.000000 
#    y 0.000000 3.460540 0.000000 
#    z 0.000000 0.000000 3.731720 
# 
# 
# High freq. dielectric constant tensor:
#      x y z
#    x 1.789380 0.000000 0.000000 
#    y 0.000000 1.773870 0.000000 
#    z 0.000000 0.000000 1.798420 
# 
# From -- ./inp_files/549.got.cif
#   From: 2010.03.12/outbox.cif.g09.slc.cpg/sg19_1_cif.got.tgz:549.got - 2010.04.10 18:59:41.
