data_PCOD8156122
_publ_section_title
;
Structure prediction by ZEFSAII (Michael W. Deem and Ramdas Pophale) SiO2 
 PCOD8156122
Probable space group: P 21 21 2
;
_chemical_formula_sum "Si O2"
_cell_formula_units_Z 26
_cell_length_a 11.044275
_cell_length_b 8.263289
_cell_length_c 12.100437
_cell_angle_alpha 90.000000
_cell_angle_beta 90.000000
_cell_angle_gamma 90.000000
_cell_volume 1104.310519
_symmetry_space_group_name_H-M "P 21 21 2"
_symmetry_group_IT_number 18
_symmetry_cell_setting 'orthorhombic'
loop_
_space_group_symop_operation_xyz
x,y,z
-x,-y,z
1/2+x,1/2-y,-z
1/2-x,1/2+y,-z
loop_
_atom_site_type_symbol
_atom_site_label
_atom_site_fract_x
_atom_site_fract_y
_atom_site_fract_z
Si Si1 0.977580 0.830093 0.609680
Si Si2 0.000000 0.500000 0.484120
Si Si3 0.257864 0.837583 0.143458
Si Si4 0.139769 0.968775 0.365460
Si Si5 0.986039 0.176655 0.846607
Si Si6 0.226485 0.650251 0.454739
Si Si7 0.373036 0.085045 0.993603
O O1 0.057722 0.849176 0.720013
O O2 0.832664 0.833499 0.635868
O O3 0.011558 0.660513 0.556694
O O4 0.000000 0.000000 0.538043
O O5 0.128566 0.507916 0.419311
O O6 0.203653 0.929630 0.248960
O O7 0.392429 0.778640 0.165982
O O8 0.271297 0.960960 0.038824
O O9 0.174933 0.682398 0.113157
O O10 0.153089 0.820018 0.453169
O O11 0.209255 0.119477 0.425246
O O12 0.000000 0.000000 0.335979
O O13 0.888998 0.281510 0.910906
O O14 0.000000 0.000000 0.904051
O O15 0.500000 0.000000 0.960792
#
# Coordination Sequence:
#
# PCOD8156122 Si02
#       7
#     4   2   4   4   4   4   4
#     4  11  24  42  69 101 139 184 246 295 358 441
#     4  12  24  38  72  92 140 190 234 302 360 416
#     4  11  23  48  69 106 146 186 241 308 368 441
#     4  12  28  47  70 105 146 193 241 300 375 437
#     4  10  21  40  68 102 135 182 238 298 363 436
#     4  12  23  47  66 102 141 189 240 297 354 445
#     4  10  24  42  75 104 140 186 244 299 371 436
#
# _framework density 23.544103
#
# number of rings (size 3 to 8) (size 9 to 14) (size 15 to 20)
#    0.000    0.923    3.077    3.231    5.385    3.077 
#    1.385    0.000    0.000    0.000    0.000    0.000 
#    0.000    0.000    0.000    0.000    0.000    0.000 
#
# Total GULP energy -322123.795092 kJ/mol
# GULP energy per Si atom -12389.376734 kJ/mol
# Density = 2.349052 g / cm^3
# Si number density = 23.544103 Si / 1000 Ang^3
#
#
#
# Elastic Constant Matrix: (Units=GPa)
#
#
# Indices 1 2 3 4 5 6 
#
# 1 102.6348 25.9124 5.8926 0.0000 0.0000 0.0000
# 2 25.9124 130.8964 19.7570 0.0000 0.0000 0.0000
# 3 5.8926 19.7570 61.8600 0.0000 0.0000 0.0000
# 4 0.0000 0.0000 0.0000 37.8558 0.0000 0.0000
# 5 0.0000 0.0000 0.0000 0.0000 13.6994 0.0000
# 6 0.0000 0.0000 0.0000 0.0000 0.0000 50.3631
#
#
#
# Elastic Compliance Matrix: (Units=1/GPa)
#
#
# Indices 1 2 3 4 5 6 
#
# 1 0.010263 -0.001980 -0.000345 0.000000 0.000000 0.000000
# 2 -0.001980 0.008408 -0.002497 0.000000 0.000000 0.000000
# 3 -0.000345 -0.002497 0.016996 0.000000 0.000000 0.000000
# 4 0.000000 0.000000 0.000000 0.026416 0.000000 0.000000
# 5 0.000000 0.000000 0.000000 0.000000 0.072996 0.000000
# 6 0.000000 0.000000 0.000000 0.000000 0.000000 0.019856
#
#
# Mechanical properties :
#
#
# Convention : Reuss Voigt Hill
#
# Bulk Modulus (GPa) = 38.42678 44.27947 41.35312
# Shear Modulus (GPa) = 28.85949 36.63894 32.74922
#
# Velocity S-wave (km/s) = 3.50489 3.94913 3.73362
# Velocity P-wave (km/s) = 5.72150 6.29619 6.01571
#
# Compressibility (1/GPa) = 0.02602352
#
# Stress axis : x y z
#
# Youngs Moduli (GPa) = 97.43852 118.92909 58.83765
#
# Poissons Ratio (x) = 0.23542 0.02032
# Poissons Ratio (y) = 0.19288 0.14691
# Poissons Ratio (z) = 0.03365 0.29696
#
# Static dielectric constant tensor:
#      x y z
#    x 4.606570 0.000000 0.000000 
#    y 0.000000 4.635840 0.000000 
#    z 0.000000 0.000000 3.959680 
# 
# 
# High freq. dielectric constant tensor:
#      x y z
#    x 1.946370 0.000000 0.000000 
#    y 0.000000 1.953840 0.000000 
#    z 0.000000 0.000000 1.898900 
# 
# From -- ./inp_files/5866.got.cif
#   From: 2010.03.12/outbox.cif.g09.slc.cpg/sg18_3_cif.got.tgz:5866.got - 2010.04.10 18:53:55.
