data_PCOD8156586
_publ_section_title
;
Structure prediction by ZEFSAII (Michael W. Deem and Ramdas Pophale) SiO2 
 PCOD8156586
Probable space group: P 21 21 21
;
_chemical_formula_sum "Si O2"
_cell_formula_units_Z 32
_cell_length_a 14.829259
_cell_length_b 6.446782
_cell_length_c 16.026968
_cell_angle_alpha 90.000000
_cell_angle_beta 90.000000
_cell_angle_gamma 90.000000
_cell_volume 1532.194168
_symmetry_space_group_name_H-M "P 21 21 21"
_symmetry_group_IT_number 19
_symmetry_cell_setting 'orthorhombic'
loop_
_space_group_symop_operation_xyz
x,y,z
1/2-x,-y,1/2+z
1/2+x,1/2-y,-z
-x,1/2+y,1/2-z
loop_
_atom_site_type_symbol
_atom_site_label
_atom_site_fract_x
_atom_site_fract_y
_atom_site_fract_z
Si Si1 0.381719 0.066749 0.750451
Si Si2 0.507418 0.447538 0.993572
Si Si3 0.551516 0.203344 0.661790
Si Si4 0.304142 0.474633 0.738337
Si Si5 0.122263 0.852007 0.580815
Si Si6 0.827340 0.726303 0.398314
Si Si7 0.475133 0.756076 0.131524
Si Si8 0.891205 0.082651 0.761896
O O1 0.465766 0.209831 0.723347
O O2 0.297859 0.225596 0.752767
O O3 0.406344 0.938974 0.835661
O O4 0.356208 0.896197 0.683428
O O5 0.478060 0.623709 0.928216
O O6 0.596662 0.315172 0.968589
O O7 0.426638 0.284658 0.009487
O O8 0.526351 0.583373 0.075964
O O9 0.622349 0.040167 0.695073
O O10 0.324172 0.537984 0.639960
O O11 0.211810 0.580067 0.767156
O O12 0.230052 0.840442 0.565312
O O13 0.094999 0.767895 0.672170
O O14 0.087310 0.089128 0.576707
O O15 0.550511 0.886003 0.179515
O O16 0.411268 0.639913 0.197175
#
# Coordination Sequence:
#
# PCOD8156586 Si02
#       8
#     4   4   4   4   4   4   4   4
#     4  10  18  34  63  89 117 163 203 243 298 358
#     4  10  24  40  61  95 127 166 201 251 318 369
#     4  10  20  36  56  91 125 155 202 242 297 371
#     4  10  20  36  63  91 119 162 203 256 299 361
#     4  10  21  42  65  89 121 166 208 259 313 367
#     4   9  21  40  62  90 123 163 212 246 305 380
#     4  11  21  41  64  88 119 159 208 264 311 358
#     4  10  21  39  66  89 115 156 217 261 305 366
#
# _framework density 20.885082000000001
#
# number of rings (size 3 to 8) (size 9 to 14) (size 15 to 20)
#    0.000    2.000    2.500    0.750    0.000    3.000 
#    4.500    0.000    0.000    0.000    0.000    0.000 
#    0.000    0.000    0.000    0.000    0.000    0.000 
#
# Total GULP energy -396592.141555 kJ/mol
# GULP energy per Si atom -12393.504424 kJ/mol
# Density = 2.083755 g / cm^3
# Si number density = 20.885082 Si / 1000 Ang^3
#
#
#
# Elastic Constant Matrix: (Units=GPa)
#
#
# Indices 1 2 3 4 5 6 
#
# 1 117.8339 29.0016 39.9575 0.0000 0.0000 0.0000
# 2 29.0016 100.0357 25.0433 0.0000 0.0000 0.0000
# 3 39.9575 25.0433 54.0690 0.0000 0.0000 0.0000
# 4 0.0000 0.0000 0.0000 22.0158 0.0000 0.0000
# 5 0.0000 0.0000 0.0000 0.0000 28.1139 0.0000
# 6 0.0000 0.0000 0.0000 0.0000 0.0000 28.2277
#
#
#
# Elastic Compliance Matrix: (Units=1/GPa)
#
#
# Indices 1 2 3 4 5 6 
#
# 1 0.011486 -0.001363 -0.007857 0.000000 0.000000 0.000000
# 2 -0.001363 0.011469 -0.004305 0.000000 0.000000 0.000000
# 3 -0.007857 -0.004305 0.026295 0.000000 0.000000 0.000000
# 4 0.000000 0.000000 0.000000 0.045422 0.000000 0.000000
# 5 0.000000 0.000000 0.000000 0.000000 0.035570 0.000000
# 6 0.000000 0.000000 0.000000 0.000000 0.000000 0.035426
#
#
# Mechanical properties :
#
#
# Convention : Reuss Voigt Hill
#
# Bulk Modulus (GPa) = 45.04378 51.10480 48.07429
# Shear Modulus (GPa) = 24.98507 27.53390 26.25949
#
# Velocity S-wave (km/s) = 3.46253 3.63485 3.54973
# Velocity P-wave (km/s) = 6.13186 6.49144 6.31421
#
# Compressibility (1/GPa) = 0.02220062
#
# Stress axis : x y z
#
# Youngs Moduli (GPa) = 87.05964 87.18922 38.02949
#
# Poissons Ratio (x) = 0.11884 0.29881
# Poissons Ratio (y) = 0.11867 0.16372
# Poissons Ratio (z) = 0.68405 0.37535
#
# Static dielectric constant tensor:
#      x y z
#    x 3.940200 0.000000 0.000000 
#    y 0.000000 3.933930 0.000000 
#    z 0.000000 0.000000 3.500880 
# 
# 
# High freq. dielectric constant tensor:
#      x y z
#    x 1.817430 0.000000 0.000000 
#    y 0.000000 1.829610 0.000000 
#    z 0.000000 0.000000 1.785590 
# 
# From -- ./inp_files/6792.got.cif
#   From: 2010.03.12/outbox.cif.g09.slc.cpg/sg19_4_cif.got.tgz:6792.got - 2010.04.10 18:59:41.
