data_PCOD8156205
_publ_section_title
;
Structure prediction by ZEFSAII (Michael W. Deem and Ramdas Pophale) SiO2 
 PCOD8156205
Probable space group: P 21 21 2
;
_chemical_formula_sum "Si O2"
_cell_formula_units_Z 28
_cell_length_a 6.547954
_cell_length_b 18.879588
_cell_length_c 11.230643
_cell_angle_alpha 90.000000
_cell_angle_beta 90.000000
_cell_angle_gamma 90.000000
_cell_volume 1388.362116
_symmetry_space_group_name_H-M "P 21 21 2"
_symmetry_group_IT_number 18
_symmetry_cell_setting 'orthorhombic'
loop_
_space_group_symop_operation_xyz
x,y,z
-x,-y,z
1/2+x,1/2-y,-z
1/2-x,1/2+y,-z
loop_
_atom_site_type_symbol
_atom_site_label
_atom_site_fract_x
_atom_site_fract_y
_atom_site_fract_z
Si Si1 0.486022 0.080113 0.308264
Si Si2 0.991731 0.582499 0.970255
Si Si3 0.033114 0.791955 0.662526
Si Si4 0.773818 0.182483 0.431401
Si Si5 0.342988 0.677973 0.712623
Si Si6 0.896268 0.171687 0.073781
Si Si7 0.291233 0.682072 0.121043
O O1 0.448305 0.091428 0.167144
O O2 0.693063 0.114412 0.358385
O O3 0.283202 0.117410 0.360737
O O4 0.500000 0.000000 0.347830
O O5 0.000000 0.500000 0.008354
O O6 0.761888 0.612967 0.974155
O O7 0.137501 0.624299 0.064057
O O8 0.174766 0.836744 0.570251
O O9 0.182745 0.741639 0.742068
O O10 0.890476 0.744752 0.576631
O O11 0.889683 0.839825 0.750087
O O12 0.982373 0.208216 0.371359
O O13 0.439965 0.641779 0.831345
O O14 0.806024 0.240725 0.139514
O O15 0.015303 0.197626 0.959660
#
# Coordination Sequence:
#
# PCOD8156205 Si02
#       7
#     4   4   4   4   4   4   4
#     4  10  22  40  60  90 125 164 210 260 315 381
#     4  11  24  41  60  94 135 168 206 263 329 388
#     4  11  23  37  62  98 126 162 210 266 317 377
#     4  11  21  38  61  94 127 158 210 263 321 369
#     4  11  20  37  63  93 126 157 204 265 322 370
#     4  12  21  38  65  96 127 164 209 265 321 384
#     4  12  23  37  64  98 129 167 213 262 322 385
#
# _framework density 20.167648
#
# number of rings (size 3 to 8) (size 9 to 14) (size 15 to 20)
#    0.000    0.857    7.143    1.714    0.000    1.143 
#    0.000    0.000    0.000    5.143    0.000    0.000 
#    0.000    0.000    0.000    0.000    0.000    0.000 
#
# Total GULP energy -346870.311850 kJ/mol
# GULP energy per Si atom -12388.225423 kJ/mol
# Density = 2.012175 g / cm^3
# Si number density = 20.167648 Si / 1000 Ang^3
#
#
#
# Elastic Constant Matrix: (Units=GPa)
#
#
# Indices 1 2 3 4 5 6 
#
# 1 120.8688 43.8546 46.8603 0.0000 0.0000 0.0000
# 2 43.8546 98.9648 28.4400 0.0000 0.0000 0.0000
# 3 46.8603 28.4400 106.7934 0.0000 0.0000 0.0000
# 4 0.0000 0.0000 0.0000 15.8048 0.0000 0.0000
# 5 0.0000 0.0000 0.0000 0.0000 43.2606 0.0000
# 6 0.0000 0.0000 0.0000 0.0000 0.0000 12.8642
#
#
#
# Elastic Compliance Matrix: (Units=1/GPa)
#
#
# Indices 1 2 3 4 5 6 
#
# 1 0.011169 -0.003834 -0.003880 0.000000 0.000000 0.000000
# 2 -0.003834 0.012258 -0.001582 0.000000 0.000000 0.000000
# 3 -0.003880 -0.001582 0.011488 0.000000 0.000000 0.000000
# 4 0.000000 0.000000 0.000000 0.063272 0.000000 0.000000
# 5 0.000000 0.000000 0.000000 0.000000 0.023116 0.000000
# 6 0.000000 0.000000 0.000000 0.000000 0.000000 0.077735
#
#
# Mechanical properties :
#
#
# Convention : Reuss Voigt Hill
#
# Bulk Modulus (GPa) = 61.26466 62.77077 62.01771
# Shear Modulus (GPa) = 22.41446 28.21739 25.31593
#
# Velocity S-wave (km/s) = 3.33739 3.74457 3.54683
# Velocity P-wave (km/s) = 6.73012 7.06313 6.89864
#
# Compressibility (1/GPa) = 0.01632262
#
# Stress axis : x y z
#
# Youngs Moduli (GPa) = 89.53541 81.57698 87.05075
#
# Poissons Ratio (x) = 0.31279 0.33773
# Poissons Ratio (y) = 0.34331 0.13772
# Poissons Ratio (z) = 0.34737 0.12906
#
# Static dielectric constant tensor:
#      x y z
#    x 4.036990 0.000000 0.000000 
#    y 0.000000 3.293830 0.000000 
#    z 0.000000 0.000000 3.661320 
# 
# 
# High freq. dielectric constant tensor:
#      x y z
#    x 1.815330 0.000000 0.000000 
#    y 0.000000 1.738920 0.000000 
#    z 0.000000 0.000000 1.780680 
# 
# From -- ./inp_files/5201.got.cif
#   From: 2010.03.12/outbox.cif.g09.slc.cpg/sg18_3_cif.got.tgz:5201.got - 2010.04.10 18:53:55.
