data_PCOD8156102
_publ_section_title
;
Structure prediction by ZEFSAII (Michael W. Deem and Ramdas Pophale) SiO2 
 PCOD8156102
Probable space group: P 21 21 2
;
_chemical_formula_sum "Si O2"
_cell_formula_units_Z 24
_cell_length_a 21.873169
_cell_length_b 9.285250
_cell_length_c 5.580086
_cell_angle_alpha 90.000000
_cell_angle_beta 90.000000
_cell_angle_gamma 90.000000
_cell_volume 1133.303427
_symmetry_space_group_name_H-M "P 21 21 2"
_symmetry_group_IT_number 18
_symmetry_cell_setting 'orthorhombic'
loop_
_space_group_symop_operation_xyz
x,y,z
-x,-y,z
1/2+x,1/2-y,-z
1/2-x,1/2+y,-z
loop_
_atom_site_type_symbol
_atom_site_label
_atom_site_fract_x
_atom_site_fract_y
_atom_site_fract_z
Si Si1 0.620412 0.741056 0.137343
Si Si2 0.941961 0.190261 0.379437
Si Si3 0.834473 0.944366 0.951575
Si Si4 0.077533 0.134727 0.327626
Si Si5 0.724772 0.928305 0.275847
Si Si6 0.193928 0.268040 0.566664
O O1 0.579482 0.774865 0.377721
O O2 0.652236 0.587753 0.199757
O O3 0.670201 0.868209 0.110334
O O4 0.588237 0.737809 0.875129
O O5 0.013908 0.220112 0.338930
O O6 0.929802 0.023414 0.441424
O O7 0.803908 0.808453 0.823211
O O8 0.899334 0.889279 0.056484
O O9 0.784061 0.992834 0.144909
O O10 0.128397 0.228264 0.459022
O O11 0.746988 0.793170 0.431647
O O12 0.698543 0.060240 0.430806
#
# Coordination Sequence:
#
# PCOD8156102 Si02
#       6
#     4   4   4   4   4   4
#     4  11  23  41  65  99 129 170 215 274 328 382
#     4  10  22  40  69  94 133 167 227 269 317 388
#     4  10  21  39  64  94 128 168 223 269 327 392
#     4   9  21  38  64  98 121 177 217 275 317 389
#     4  11  25  38  64  98 131 175 213 277 332 395
#     4  11  22  41  65  91 135 167 224 267 334 392
#
# _framework density 21.177029999999998
#
# number of rings (size 3 to 8) (size 9 to 14) (size 15 to 20)
#    0.000    1.667    1.667    2.000    9.333    2.667 
#    0.000    0.833    0.000    0.000    0.000    0.000 
#    0.000    0.000    0.000    0.000    0.000    0.000 
#
# Total GULP energy -297348.805351 kJ/mol
# GULP energy per Si atom -12389.533556 kJ/mol
# Density = 2.112883 g / cm^3
# Si number density = 21.177030 Si / 1000 Ang^3
#
#
#
# Elastic Constant Matrix: (Units=GPa)
#
#
# Indices 1 2 3 4 5 6 
#
# 1 132.3107 57.2358 40.7321 0.0000 0.0000 0.0000
# 2 57.2358 88.0594 30.0986 0.0000 0.0000 0.0000
# 3 40.7321 30.0986 100.6925 0.0000 0.0000 0.0000
# 4 0.0000 0.0000 0.0000 27.6217 0.0000 0.0000
# 5 0.0000 0.0000 0.0000 0.0000 17.5344 0.0000
# 6 0.0000 0.0000 0.0000 0.0000 0.0000 25.9041
#
#
#
# Elastic Compliance Matrix: (Units=1/GPa)
#
#
# Indices 1 2 3 4 5 6 
#
# 1 0.011092 -0.006322 -0.002597 0.000000 0.000000 0.000000
# 2 -0.006322 0.016251 -0.002300 0.000000 0.000000 0.000000
# 3 -0.002597 -0.002300 0.011670 0.000000 0.000000 0.000000
# 4 0.000000 0.000000 0.000000 0.036203 0.000000 0.000000
# 5 0.000000 0.000000 0.000000 0.000000 0.057031 0.000000
# 6 0.000000 0.000000 0.000000 0.000000 0.000000 0.038604
#
#
# Mechanical properties :
#
#
# Convention : Reuss Voigt Hill
#
# Bulk Modulus (GPa) = 60.33620 64.13284 62.23452
# Shear Modulus (GPa) = 25.14900 27.07847 26.11373
#
# Velocity S-wave (km/s) = 3.44984 3.57973 3.51538
# Velocity P-wave (km/s) = 6.66496 6.88737 6.77708
#
# Compressibility (1/GPa) = 0.01657380
#
# Stress axis : x y z
#
# Youngs Moduli (GPa) = 90.15241 61.53354 85.69320
#
# Poissons Ratio (x) = 0.38901 0.22257
# Poissons Ratio (y) = 0.56993 0.19713
# Poissons Ratio (z) = 0.23416 0.14155
#
# Static dielectric constant tensor:
#      x y z
#    x 3.934240 0.000000 0.000000 
#    y 0.000000 3.468610 0.000000 
#    z 0.000000 0.000000 3.856670 
# 
# 
# High freq. dielectric constant tensor:
#      x y z
#    x 1.841140 0.000000 0.000000 
#    y 0.000000 1.800760 0.000000 
#    z 0.000000 0.000000 1.828730 
# 
# From -- ./inp_files/611.got.cif
#   From: 2010.03.12/outbox.cif.g09.slc.cpg/sg18_1_cif.got.tgz:611.got - 2010.04.10 18:53:55.
