data_PCOD8156303
_publ_section_title
;
Structure prediction by ZEFSAII (Michael W. Deem and Ramdas Pophale) SiO2 
 PCOD8156303
Probable space group: P 21 21 2
;
_chemical_formula_sum "Si O2"
_cell_formula_units_Z 20
_cell_length_a 8.975887
_cell_length_b 8.963736
_cell_length_c 12.020537
_cell_angle_alpha 90.000000
_cell_angle_beta 90.000000
_cell_angle_gamma 90.000000
_cell_volume 967.142133
_symmetry_space_group_name_H-M "P 21 21 2"
_symmetry_group_IT_number 18
_symmetry_cell_setting 'orthorhombic'
loop_
_space_group_symop_operation_xyz
x,y,z
-x,-y,z
1/2+x,1/2-y,-z
1/2-x,1/2+y,-z
loop_
_atom_site_type_symbol
_atom_site_label
_atom_site_fract_x
_atom_site_fract_y
_atom_site_fract_z
Si Si1 0.599899 0.641275 0.706990
Si Si2 0.830704 0.482868 0.557902
Si Si3 0.321138 0.811372 0.639136
Si Si4 0.630739 0.798370 0.925505
Si Si5 0.708323 0.125642 0.890705
O O1 0.500000 0.500000 0.739575
O O2 0.734063 0.599258 0.627525
O O3 0.495006 0.763763 0.646511
O O4 0.675948 0.700844 0.819004
O O5 0.774703 0.314703 0.575772
O O6 0.813503 0.534062 0.429233
O O7 0.000000 0.500000 0.598485
O O8 0.256860 0.841297 0.761673
O O9 0.454563 0.820660 0.925294
O O10 0.722819 0.951313 0.917092
O O11 0.670230 0.714905 0.039047
#
# Coordination Sequence:
#
# PCOD8156303 Si02
#       5
#     4   4   4   4   4
#     4   9  21  41  64  88 127 170 205 250 318 369
#     4  11  23  38  66  90 126 160 212 255 301 365
#     4  10  23  41  64  92 125 166 205 250 317 375
#     4  10  23  41  66  90 125 163 209 259 310 375
#     4  10  24  41  65  93 123 164 211 252 319 374
#
# _framework density 20.679483000000001
#
# number of rings (size 3 to 8) (size 9 to 14) (size 15 to 20)
#    0.000    2.000    0.000    1.200   16.800    1.600 
#    0.000    0.000    4.400    0.000    0.000    0.000 
#    0.000    0.000    0.000    0.000    0.000    0.000 
#
# Total GULP energy -248060.716367 kJ/mol
# GULP energy per Si atom -12403.035818 kJ/mol
# Density = 2.063242 g / cm^3
# Si number density = 20.679483 Si / 1000 Ang^3
#
#
#
# Elastic Constant Matrix: (Units=GPa)
#
#
# Indices 1 2 3 4 5 6 
#
# 1 69.9284 30.8451 54.8552 0.0000 0.0000 0.0000
# 2 30.8451 105.3607 80.4466 0.0000 0.0000 0.0000
# 3 54.8552 80.4466 155.9884 0.0000 0.0000 0.0000
# 4 0.0000 0.0000 0.0000 43.7447 0.0000 0.0000
# 5 0.0000 0.0000 0.0000 0.0000 30.1705 0.0000
# 6 0.0000 0.0000 0.0000 0.0000 0.0000 24.6686
#
#
#
# Elastic Compliance Matrix: (Units=1/GPa)
#
#
# Indices 1 2 3 4 5 6 
#
# 1 0.019788 -0.000792 -0.006550 0.000000 0.000000 0.000000
# 2 -0.000792 0.015688 -0.007812 0.000000 0.000000 0.000000
# 3 -0.006550 -0.007812 0.012743 0.000000 0.000000 0.000000
# 4 0.000000 0.000000 0.000000 0.022860 0.000000 0.000000
# 5 0.000000 0.000000 0.000000 0.000000 0.033145 0.000000
# 6 0.000000 0.000000 0.000000 0.000000 0.000000 0.040537
#
#
# Mechanical properties :
#
#
# Convention : Reuss Voigt Hill
#
# Bulk Modulus (GPa) = 55.83294 73.73014 64.78154
# Shear Modulus (GPa) = 27.61824 30.72547 29.17186
#
# Velocity S-wave (km/s) = 3.65847 3.85878 3.75996
# Velocity P-wave (km/s) = 6.70102 7.45552 7.08831
#
# Compressibility (1/GPa) = 0.01791057
#
# Stress axis : x y z
#
# Youngs Moduli (GPa) = 50.53572 63.74377 78.47333
#
# Poissons Ratio (x) = 0.05046 0.51404
# Poissons Ratio (y) = 0.04000 0.61305
# Poissons Ratio (z) = 0.33103 0.49798
#
# Static dielectric constant tensor:
#      x y z
#    x 3.585030 0.000000 0.000000 
#    y 0.000000 3.931930 0.000000 
#    z 0.000000 0.000000 3.733580 
# 
# 
# High freq. dielectric constant tensor:
#      x y z
#    x 1.794510 0.000000 0.000000 
#    y 0.000000 1.823700 0.000000 
#    z 0.000000 0.000000 1.814440 
# 
# From -- ./inp_files/5396.got.cif
#   From: 2010.03.12/outbox.cif.g09.slc.cpg/sg18_3_cif.got.tgz:5396.got - 2010.04.10 18:53:55.
