data_PCOD8156236
_publ_section_title
;
Structure prediction by ZEFSAII (Michael W. Deem and Ramdas Pophale) SiO2 
 PCOD8156236
Probable space group: P 21 21 2
;
_chemical_formula_sum "Si O2"
_cell_formula_units_Z 28
_cell_length_a 24.704832
_cell_length_b 8.363418
_cell_length_c 6.126193
_cell_angle_alpha 90.000000
_cell_angle_beta 90.000000
_cell_angle_gamma 90.000000
_cell_volume 1265.774618
_symmetry_space_group_name_H-M "P 21 21 2"
_symmetry_group_IT_number 18
_symmetry_cell_setting 'orthorhombic'
loop_
_space_group_symop_operation_xyz
x,y,z
-x,-y,z
1/2+x,1/2-y,-z
1/2-x,1/2+y,-z
loop_
_atom_site_type_symbol
_atom_site_label
_atom_site_fract_x
_atom_site_fract_y
_atom_site_fract_z
Si Si1 0.812350 0.233959 0.614642
Si Si2 0.557927 0.075276 0.004636
Si Si3 0.404672 0.196837 0.700920
Si Si4 0.394811 0.701698 0.335159
Si Si5 0.300371 0.597011 0.620971
Si Si6 0.483992 0.673463 0.680358
Si Si7 0.143981 0.950900 0.996648
O O1 0.862118 0.327451 0.496425
O O2 0.760253 0.343404 0.608796
O O3 0.824174 0.188054 0.865528
O O4 0.799959 0.076026 0.482618
O O5 0.593317 0.128193 0.216149
O O6 0.500000 0.000000 0.074143
O O7 0.548399 0.236879 0.870116
O O8 0.595055 0.955315 0.862745
O O9 0.464711 0.219582 0.603438
O O10 0.393933 0.361087 0.831216
O O11 0.341254 0.714363 0.488055
O O12 0.446569 0.651661 0.472465
O O13 0.390638 0.554088 0.170220
O O14 0.317202 0.575426 0.874427
O O15 0.500000 0.500000 0.770908
#
# Coordination Sequence:
#
# PCOD8156236 Si02
#       7
#     4   4   4   4   4   4   4
#     4  10  23  43  67  90 125 168 207 261 322 372
#     4  10  24  40  62  95 129 164 208 260 318 379
#     4  10  23  43  62  93 128 161 211 265 313 375
#     4  11  23  41  64  91 125 169 209 255 319 378
#     4  10  23  42  63  93 125 161 213 261 311 378
#     4  11  22  39  63  90 126 166 210 259 308 378
#     4  10  22  42  65  92 123 165 214 257 314 380
#
# _framework density 22.120840999999999
#
# number of rings (size 3 to 8) (size 9 to 14) (size 15 to 20)
#    0.000    1.714    0.000    4.286    0.000   16.000 
#    0.000    2.857    0.000    0.000    0.000    0.000 
#    0.000    0.000    0.000    0.000    0.000    0.000 
#
# Total GULP energy -347203.544881 kJ/mol
# GULP energy per Si atom -12400.126603 kJ/mol
# Density = 2.207049 g / cm^3
# Si number density = 22.120841 Si / 1000 Ang^3
#
#
#
# Elastic Constant Matrix: (Units=GPa)
#
#
# Indices 1 2 3 4 5 6 
#
# 1 117.4559 15.6338 36.1115 0.0000 0.0000 0.0000
# 2 15.6338 62.5480 9.6170 0.0000 0.0000 0.0000
# 3 36.1115 9.6170 86.3640 0.0000 0.0000 0.0000
# 4 0.0000 0.0000 0.0000 34.3279 0.0000 0.0000
# 5 0.0000 0.0000 0.0000 0.0000 24.5783 0.0000
# 6 0.0000 0.0000 0.0000 0.0000 0.0000 40.1091
#
#
#
# Elastic Compliance Matrix: (Units=1/GPa)
#
#
# Indices 1 2 3 4 5 6 
#
# 1 0.009984 -0.001886 -0.003965 0.000000 0.000000 0.000000
# 2 -0.001886 0.016622 -0.001062 0.000000 0.000000 0.000000
# 3 -0.003965 -0.001062 0.013355 0.000000 0.000000 0.000000
# 4 0.000000 0.000000 0.000000 0.029131 0.000000 0.000000
# 5 0.000000 0.000000 0.000000 0.000000 0.040686 0.000000
# 6 0.000000 0.000000 0.000000 0.000000 0.000000 0.024932
#
#
# Mechanical properties :
#
#
# Convention : Reuss Voigt Hill
#
# Bulk Modulus (GPa) = 38.26223 43.23251 40.74737
# Shear Modulus (GPa) = 31.79696 33.47008 32.63352
#
# Velocity S-wave (km/s) = 3.79545 3.89402 3.84505
# Velocity P-wave (km/s) = 6.04497 6.30905 6.17842
#
# Compressibility (1/GPa) = 0.02613543
#
# Stress axis : x y z
#
# Youngs Moduli (GPa) = 100.16293 60.15959 74.87893
#
# Poissons Ratio (x) = 0.11345 0.29686
# Poissons Ratio (y) = 0.18889 0.07955
# Poissons Ratio (z) = 0.39710 0.06392
#
# Static dielectric constant tensor:
#      x y z
#    x 4.081540 0.000000 0.000000 
#    y 0.000000 3.975470 0.000000 
#    z 0.000000 0.000000 4.299340 
# 
# 
# High freq. dielectric constant tensor:
#      x y z
#    x 1.869650 0.000000 0.000000 
#    y 0.000000 1.871660 0.000000 
#    z 0.000000 0.000000 1.871490 
# 
# From -- ./inp_files/2212.got.cif
#   From: 2010.03.12/outbox.cif.g09.slc.cpg/sg18_2_cif.got.tgz:2212.got - 2010.04.10 18:53:55.
