data_PCOD8156845
_publ_section_title
;
Structure prediction by ZEFSAII (Michael W. Deem and Ramdas Pophale) SiO2 
 PCOD8156845
Probable space group: P 21 21 21
;
_chemical_formula_sum "Si O2"
_cell_formula_units_Z 28
_cell_length_a 5.092316
_cell_length_b 25.885438
_cell_length_c 8.035609
_cell_angle_alpha 90.000000
_cell_angle_beta 90.000000
_cell_angle_gamma 90.000000
_cell_volume 1059.228506
_symmetry_space_group_name_H-M "P 21 21 21"
_symmetry_group_IT_number 19
_symmetry_cell_setting 'orthorhombic'
loop_
_space_group_symop_operation_xyz
x,y,z
1/2-x,-y,1/2+z
1/2+x,1/2-y,-z
-x,1/2+y,1/2-z
loop_
_atom_site_type_symbol
_atom_site_label
_atom_site_fract_x
_atom_site_fract_y
_atom_site_fract_z
Si Si1 0.986908 0.932429 0.175358
Si Si2 0.383793 0.523889 0.297851
Si Si3 0.235218 0.281769 0.466381
Si Si4 0.328141 0.964347 0.455773
Si Si5 0.999290 0.373322 0.651582
Si Si6 0.360102 0.857204 0.568772
Si Si7 0.838713 0.839879 0.365918
O O1 0.779063 0.895489 0.274135
O O2 0.240542 0.936114 0.287533
O O3 0.882812 0.992502 0.154097
O O4 0.091915 0.905785 0.008210
O O5 0.591874 0.508316 0.442207
O O6 0.463248 0.506308 0.111067
O O7 0.359604 0.586906 0.284063
O O8 0.201816 0.329571 0.594169
O O9 0.533784 0.263273 0.482213
O O10 0.244866 0.152803 0.257391
O O11 0.176079 0.296093 0.274978
O O12 0.443397 0.918016 0.566786
O O13 0.622863 0.827151 0.510220
O O14 0.127341 0.840033 0.444242
#
# Coordination Sequence:
#
# PCOD8156845 Si02
#       7
#     4   4   4   4   4   4   4
#     4  10  20  39  60  94 139 191 238 290 356 436
#     4  11  20  38  57  96 140 190 243 289 361 444
#     4  11  25  49  76 108 141 188 254 316 381 450
#     4  10  21  34  57  89 137 186 230 283 343 428
#     4  10  24  42  67 106 139 196 248 310 370 454
#     4  10  21  42  64 105 143 183 232 292 360 438
#     4  10  21  42  73  98 145 184 229 298 367 430
#
# _framework density 26.434332000000001
#
# number of rings (size 3 to 8) (size 9 to 14) (size 15 to 20)
#    0.000    1.714    1.429    2.571    0.000    1.143 
#   23.143    2.857    0.000    0.000    0.000    0.000 
#    0.000    0.000    0.000    0.000    0.000    0.000 
#
# Total GULP energy -346965.778100 kJ/mol
# GULP energy per Si atom -12391.634932 kJ/mol
# Density = 2.637417 g / cm^3
# Si number density = 26.434332 Si / 1000 Ang^3
#
#
#
# Elastic Constant Matrix: (Units=GPa)
#
#
# Indices 1 2 3 4 5 6 
#
# 1 74.6678 15.8340 26.7916 0.0000 0.0000 0.0000
# 2 15.8340 58.9742 11.9353 0.0000 0.0000 0.0000
# 3 26.7916 11.9353 126.2089 0.0000 0.0000 0.0000
# 4 0.0000 0.0000 0.0000 28.2644 0.0000 0.0000
# 5 0.0000 0.0000 0.0000 0.0000 50.4020 0.0000
# 6 0.0000 0.0000 0.0000 0.0000 0.0000 21.7013
#
#
#
# Elastic Compliance Matrix: (Units=1/GPa)
#
#
# Indices 1 2 3 4 5 6 
#
# 1 0.015169 -0.003488 -0.002890 0.000000 0.000000 0.000000
# 2 -0.003488 0.018089 -0.000970 0.000000 0.000000 0.000000
# 3 -0.002890 -0.000970 0.008629 0.000000 0.000000 0.000000
# 4 0.000000 0.000000 0.000000 0.035380 0.000000 0.000000
# 5 0.000000 0.000000 0.000000 0.000000 0.019840 0.000000
# 6 0.000000 0.000000 0.000000 0.000000 0.000000 0.046080
#
#
# Mechanical properties :
#
#
# Convention : Reuss Voigt Hill
#
# Bulk Modulus (GPa) = 36.77754 40.99698 38.88726
# Shear Modulus (GPa) = 29.94931 33.75954 31.85442
#
# Velocity S-wave (km/s) = 3.36961 3.57754 3.47513
# Velocity P-wave (km/s) = 5.39278 5.71032 5.55382
#
# Compressibility (1/GPa) = 0.02719051
#
# Stress axis : x y z
#
# Youngs Moduli (GPa) = 65.92236 55.28100 115.89262
#
# Poissons Ratio (x) = 0.19281 0.33496
# Poissons Ratio (y) = 0.22993 0.11245
# Poissons Ratio (z) = 0.19054 0.05364
#
# Static dielectric constant tensor:
#      x y z
#    x 4.406570 0.000000 0.000000 
#    y 0.000000 4.806530 0.000000 
#    z 0.000000 0.000000 5.207460 
# 
# 
# High freq. dielectric constant tensor:
#      x y z
#    x 2.040390 0.000000 0.000000 
#    y 0.000000 2.038530 0.000000 
#    z 0.000000 0.000000 2.094090 
# 
# From -- ./inp_files/2444.got.cif
#   From: 2010.03.12/outbox.cif.g09.slc.cpg/sg19_2_cif.got.tgz:2444.got - 2010.04.10 18:59:41.
