data_PCOD8156119
_publ_section_title
;
Structure prediction by ZEFSAII (Michael W. Deem and Ramdas Pophale) SiO2 
 PCOD8156119
Probable space group: P 21 21 2
;
_chemical_formula_sum "Si O2"
_cell_formula_units_Z 18
_cell_length_a 24.120498
_cell_length_b 6.161924
_cell_length_c 4.891713
_cell_angle_alpha 90.000000
_cell_angle_beta 90.000000
_cell_angle_gamma 90.000000
_cell_volume 727.048824
_symmetry_space_group_name_H-M "P 21 21 2"
_symmetry_group_IT_number 18
_symmetry_cell_setting 'orthorhombic'
loop_
_space_group_symop_operation_xyz
x,y,z
-x,-y,z
1/2+x,1/2-y,-z
1/2-x,1/2+y,-z
loop_
_atom_site_type_symbol
_atom_site_label
_atom_site_fract_x
_atom_site_fract_y
_atom_site_fract_z
Si Si1 0.302655 0.594966 0.333218
Si Si2 0.306181 0.330017 0.833068
Si Si3 0.421614 0.652992 0.229345
Si Si4 0.500000 0.000000 0.016142
Si Si5 0.925715 0.153349 0.272973
O O1 0.294375 0.547031 0.652980
O O2 0.245822 0.677725 0.208124
O O3 0.358671 0.737521 0.295051
O O4 0.313447 0.377415 0.154363
O O5 0.364544 0.234068 0.720331
O O6 0.441053 0.462163 0.438916
O O7 0.459662 0.868120 0.222432
O O8 0.425260 0.549201 0.931568
O O9 0.468972 0.163603 0.811400
#
# Coordination Sequence:
#
# PCOD8156119 Si02
#       5
#     4   4   4   2   4
#     4  10  21  40  66  97 135 170 216 286 339 402
#     4  10  21  40  66  97 135 170 216 286 339 402
#     4  10  25  46  67 105 142 176 237 292 337 410
#     4  12  26  46  80  96 140 206 226 280 360 424
#     4  10  25  46  67 105 142 176 237 292 337 410
#
# _framework density 24.757622999999999
#
# number of rings (size 3 to 8) (size 9 to 14) (size 15 to 20)
#    0.000    1.778    0.000    2.000    3.111    7.111 
#    0.000    0.000    0.000    0.000    0.000    0.000 
#    0.000    0.000    0.000    0.000    0.000    0.000 
#
# Total GULP energy -223042.554894 kJ/mol
# GULP energy per Si atom -12391.253050 kJ/mol
# Density = 2.470127 g / cm^3
# Si number density = 24.757623 Si / 1000 Ang^3
#
#
#
# Elastic Constant Matrix: (Units=GPa)
#
#
# Indices 1 2 3 4 5 6 
#
# 1 133.5699 27.3955 8.0426 0.0000 0.0000 0.0000
# 2 27.3955 28.9246 -2.0901 0.0000 0.0000 0.0000
# 3 8.0426 -2.0901 87.4863 0.0000 0.0000 0.0000
# 4 0.0000 0.0000 0.0000 27.7235 0.0000 0.0000
# 5 0.0000 0.0000 0.0000 0.0000 10.8300 0.0000
# 6 0.0000 0.0000 0.0000 0.0000 0.0000 52.1941
#
#
#
# Elastic Compliance Matrix: (Units=1/GPa)
#
#
# Indices 1 2 3 4 5 6 
#
# 1 0.009392 -0.008973 -0.001078 0.000000 0.000000 0.000000
# 2 -0.008973 0.043206 0.001857 0.000000 0.000000 0.000000
# 3 -0.001078 0.001857 0.011574 0.000000 0.000000 0.000000
# 4 0.000000 0.000000 0.000000 0.036070 0.000000 0.000000
# 5 0.000000 0.000000 0.000000 0.000000 0.092336 0.000000
# 6 0.000000 0.000000 0.000000 0.000000 0.000000 0.019159
#
#
# Mechanical properties :
#
#
# Convention : Reuss Voigt Hill
#
# Bulk Modulus (GPa) = 20.92765 35.18630 28.05697
# Shear Modulus (GPa) = 20.48730 32.59171 26.53950
#
# Velocity S-wave (km/s) = 2.87978 3.63220 3.27765
# Velocity P-wave (km/s) = 4.41915 5.64213 5.06767
#
# Compressibility (1/GPa) = 0.04778368
#
# Stress axis : x y z
#
# Youngs Moduli (GPa) = 106.47248 23.14492 86.40197
#
# Poissons Ratio (x) = 0.20769 0.09312
# Poissons Ratio (y) = 0.95543 -0.16046
# Poissons Ratio (z) = 0.11476 -0.04298
#
# Static dielectric constant tensor:
#      x y z
#    x 5.142350 0.000000 0.000000 
#    y 0.000000 3.859850 0.000000 
#    z 0.000000 0.000000 4.594630 
# 
# 
# High freq. dielectric constant tensor:
#      x y z
#    x 2.020100 0.000000 0.000000 
#    y 0.000000 1.934040 0.000000 
#    z 0.000000 0.000000 2.001260 
# 
# From -- ./inp_files/215.got.cif
#   From: 2010.03.12/outbox.cif.g09.slc.cpg/sg18_1_cif.got.tgz:215.got - 2010.04.10 18:53:55.
