data_PCOD8156077
_publ_section_title
;
Structure prediction by ZEFSAII (Michael W. Deem and Ramdas Pophale) SiO2 
 PCOD8156077
Probable space group: P 21 21 2
;
_chemical_formula_sum "Si O2"
_cell_formula_units_Z 32
_cell_length_a 14.389050
_cell_length_b 8.997715
_cell_length_c 11.790715
_cell_angle_alpha 90.000000
_cell_angle_beta 90.000000
_cell_angle_gamma 90.000000
_cell_volume 1526.527022
_symmetry_space_group_name_H-M "P 21 21 2"
_symmetry_group_IT_number 18
_symmetry_cell_setting 'orthorhombic'
loop_
_space_group_symop_operation_xyz
x,y,z
-x,-y,z
1/2+x,1/2-y,-z
1/2-x,1/2+y,-z
loop_
_atom_site_type_symbol
_atom_site_label
_atom_site_fract_x
_atom_site_fract_y
_atom_site_fract_z
Si Si1 0.678361 0.548131 0.957814
Si Si2 0.823404 0.229345 0.698566
Si Si3 0.136967 0.755208 0.442179
Si Si4 0.055799 0.148090 0.475095
Si Si5 0.965667 0.165226 0.872455
Si Si6 0.668109 0.461171 0.713296
Si Si7 0.835091 0.759962 0.901826
Si Si8 0.207825 0.104890 0.670052
O O1 0.631709 0.520259 0.834238
O O2 0.780657 0.617995 0.947813
O O3 0.608132 0.656188 0.025186
O O4 0.696696 0.397468 0.023070
O O5 0.820471 0.235470 0.565305
O O6 0.760717 0.366386 0.741466
O O7 0.922171 0.246974 0.762442
O O8 0.795008 0.058694 0.725855
O O9 0.171939 0.903663 0.376922
O O10 0.187530 0.618205 0.379943
O O11 0.026083 0.727979 0.460972
O O12 0.131959 0.157930 0.575155
O O13 0.098635 0.153117 0.348574
O O14 0.000000 0.000000 0.504182
O O15 0.053742 0.262644 0.912497
O O16 0.000000 0.000000 0.836681
O O17 0.806813 0.779040 0.771058
#
# Coordination Sequence:
#
# PCOD8156077 Si02
#       8
#     4   4   4   4   4   4   4   4
#     4  11  23  42  63  95 125 163 210 261 310 367
#     4  12  20  39  65  94 123 160 214 253 312 363
#     4  11  22  38  65  94 126 166 205 261 313 366
#     4  10  21  37  64  94 122 169 214 246 303 382
#     4  10  22  39  68  95 113 168 217 253 295 381
#     4  11  23  38  62  90 130 164 203 260 312 369
#     4  11  24  41  67  92 124 161 213 261 310 366
#     4  12  21  40  66  94 129 159 212 265 305 368
#
# _framework density 20.962616000000001
#
# number of rings (size 3 to 8) (size 9 to 14) (size 15 to 20)
#    0.000    1.000    7.500    1.500    0.000    4.500 
#    0.000    3.125    0.000    1.500    0.000    0.000 
#    0.000    0.000    0.000    0.000    0.000    0.000 
#
# Total GULP energy -396435.581220 kJ/mol
# GULP energy per Si atom -12388.611913 kJ/mol
# Density = 2.091490 g / cm^3
# Si number density = 20.962616 Si / 1000 Ang^3
#
#
#
# Elastic Constant Matrix: (Units=GPa)
#
#
# Indices 1 2 3 4 5 6 
#
# 1 79.8683 34.1405 37.2185 0.0000 0.0000 0.0000
# 2 34.1405 42.7984 23.1726 0.0000 0.0000 0.0000
# 3 37.2185 23.1726 119.9820 0.0000 0.0000 0.0000
# 4 0.0000 0.0000 0.0000 21.2256 0.0000 0.0000
# 5 0.0000 0.0000 0.0000 0.0000 39.1597 0.0000
# 6 0.0000 0.0000 0.0000 0.0000 0.0000 35.6181
#
#
#
# Elastic Compliance Matrix: (Units=1/GPa)
#
#
# Indices 1 2 3 4 5 6 
#
# 1 0.020256 -0.014246 -0.003532 0.000000 0.000000 0.000000
# 2 -0.014246 0.036113 -0.002556 0.000000 0.000000 0.000000
# 3 -0.003532 -0.002556 0.009924 0.000000 0.000000 0.000000
# 4 0.000000 0.000000 0.000000 0.047113 0.000000 0.000000
# 5 0.000000 0.000000 0.000000 0.000000 0.025536 0.000000
# 6 0.000000 0.000000 0.000000 0.000000 0.000000 0.028076
#
#
# Mechanical properties :
#
#
# Convention : Reuss Voigt Hill
#
# Bulk Modulus (GPa) = 39.02317 47.96799 43.49558
# Shear Modulus (GPa) = 23.12378 29.07515 26.09947
#
# Velocity S-wave (km/s) = 3.32489 3.72829 3.53235
# Velocity P-wave (km/s) = 5.77892 6.43939 6.11808
#
# Compressibility (1/GPa) = 0.02562580
#
# Stress axis : x y z
#
# Youngs Moduli (GPa) = 49.36757 27.69064 100.76782
#
# Poissons Ratio (x) = 0.39448 0.35592
# Poissons Ratio (y) = 0.70330 0.25752
# Poissons Ratio (z) = 0.17437 0.07076
#
# Static dielectric constant tensor:
#      x y z
#    x 4.524340 0.000000 0.000000 
#    y 0.000000 3.670510 0.000000 
#    z 0.000000 0.000000 4.038870 
# 
# 
# High freq. dielectric constant tensor:
#      x y z
#    x 1.822410 0.000000 0.000000 
#    y 0.000000 1.783880 0.000000 
#    z 0.000000 0.000000 1.839430 
# 
# From -- ./inp_files/6133.got.cif
#   From: 2010.03.12/outbox.cif.g09.slc.cpg/sg18_4_cif.got.tgz:6133.got - 2010.04.10 18:53:55.
