data_PCOD8156603
_publ_section_title
;
Structure prediction by ZEFSAII (Michael W. Deem and Ramdas Pophale) SiO2 
 PCOD8156603
Probable space group: P 21 21 21
;
_chemical_formula_sum "Si O2"
_cell_formula_units_Z 20
_cell_length_a 7.576297
_cell_length_b 13.613724
_cell_length_c 8.546550
_cell_angle_alpha 90.000000
_cell_angle_beta 90.000000
_cell_angle_gamma 90.000000
_cell_volume 881.504981
_symmetry_space_group_name_H-M "P 21 21 21"
_symmetry_group_IT_number 19
_symmetry_cell_setting 'orthorhombic'
loop_
_space_group_symop_operation_xyz
x,y,z
1/2-x,-y,1/2+z
1/2+x,1/2-y,-z
-x,1/2+y,1/2-z
loop_
_atom_site_type_symbol
_atom_site_label
_atom_site_fract_x
_atom_site_fract_y
_atom_site_fract_z
Si Si1 0.029376 0.546054 0.020509
Si Si2 0.261061 0.301726 0.076951
Si Si3 0.062398 0.207707 0.684288
Si Si4 0.866246 0.364228 0.119908
Si Si5 0.688577 0.090167 0.227441
O O1 0.190237 0.540248 0.142054
O O2 0.870140 0.482289 0.095332
O O3 0.073223 0.494621 0.853530
O O4 0.977606 0.659871 0.986679
O O5 0.409162 0.330789 0.200894
O O6 0.067013 0.325064 0.142223
O O7 0.279265 0.186237 0.033864
O O8 0.298627 0.357881 0.912256
O O9 0.251581 0.161378 0.728891
O O10 0.070389 0.326151 0.683942
#
# Coordination Sequence:
#
# PCOD8156603 Si02
#       5
#     4   4   4   4   4
#     4  11  22  44  66 102 140 175 235 277 339 417
#     4  10  18  41  72  91 137 174 224 270 341 405
#     4  11  23  44  67 101 138 176 226 283 344 402
#     4  10  20  38  67  96 123 181 219 268 341 400
#     4  10  23  43  68 104 134 184 224 282 345 394
#
# _framework density 22.688472000000001
#
# number of rings (size 3 to 8) (size 9 to 14) (size 15 to 20)
#    0.000    1.600    6.000    2.400    0.000    1.600 
#   18.000    0.000    0.000    0.000    0.000    0.000 
#    0.000    0.000    0.000    0.000    0.000    0.000 
#
# Total GULP energy -247805.272342 kJ/mol
# GULP energy per Si atom -12390.263617 kJ/mol
# Density = 2.263683 g / cm^3
# Si number density = 22.688472 Si / 1000 Ang^3
#
#
#
# Elastic Constant Matrix: (Units=GPa)
#
#
# Indices 1 2 3 4 5 6 
#
# 1 91.9308 0.7005 17.6818 0.0000 0.0000 0.0000
# 2 0.7005 28.9659 -0.4720 0.0000 0.0000 0.0000
# 3 17.6818 -0.4720 32.0675 0.0000 0.0000 0.0000
# 4 0.0000 0.0000 0.0000 32.9680 0.0000 0.0000
# 5 0.0000 0.0000 0.0000 0.0000 23.6226 0.0000
# 6 0.0000 0.0000 0.0000 0.0000 0.0000 34.0763
#
#
#
# Elastic Compliance Matrix: (Units=1/GPa)
#
#
# Indices 1 2 3 4 5 6 
#
# 1 0.012173 -0.000404 -0.006718 0.000000 0.000000 0.000000
# 2 -0.000404 0.034545 0.000731 0.000000 0.000000 0.000000
# 3 -0.006718 0.000731 0.034899 0.000000 0.000000 0.000000
# 4 0.000000 0.000000 0.000000 0.030332 0.000000 0.000000
# 5 0.000000 0.000000 0.000000 0.000000 0.042332 0.000000
# 6 0.000000 0.000000 0.000000 0.000000 0.000000 0.029346
#
#
# Mechanical properties :
#
#
# Convention : Reuss Voigt Hill
#
# Bulk Modulus (GPa) = 14.52732 20.97607 17.75170
# Shear Modulus (GPa) = 22.79415 27.13699 24.96557
#
# Velocity S-wave (km/s) = 3.17307 3.46218 3.32077
# Velocity P-wave (km/s) = 4.45437 5.02469 4.74810
#
# Compressibility (1/GPa) = 0.06883581
#
# Stress axis : x y z
#
# Youngs Moduli (GPa) = 82.14934 28.94772 28.65393
#
# Poissons Ratio (x) = 0.01169 0.19250
# Poissons Ratio (y) = 0.03318 -0.02095
# Poissons Ratio (z) = 0.55188 -0.02117
#
# Static dielectric constant tensor:
#      x y z
#    x 3.961880 0.000000 0.000000 
#    y 0.000000 4.411860 0.000000 
#    z 0.000000 0.000000 3.793590 
# 
# 
# High freq. dielectric constant tensor:
#      x y z
#    x 1.877810 0.000000 0.000000 
#    y 0.000000 1.908110 0.000000 
#    z 0.000000 0.000000 1.867910 
# 
# From -- ./inp_files/2766.got.cif
#   From: 2010.03.12/outbox.cif.g09.slc.cpg/sg19_2_cif.got.tgz:2766.got - 2010.04.10 18:59:41.
