data_PCOD8156204
_publ_section_title
;
Structure prediction by ZEFSAII (Michael W. Deem and Ramdas Pophale) SiO2 
 PCOD8156204
Probable space group: P 21 21 2
;
_chemical_formula_sum "Si O2"
_cell_formula_units_Z 32
_cell_length_a 15.109890
_cell_length_b 9.636687
_cell_length_c 11.187217
_cell_angle_alpha 90.000000
_cell_angle_beta 90.000000
_cell_angle_gamma 90.000000
_cell_volume 1628.962619
_symmetry_space_group_name_H-M "P 21 21 2"
_symmetry_group_IT_number 18
_symmetry_cell_setting 'orthorhombic'
loop_
_space_group_symop_operation_xyz
x,y,z
-x,-y,z
1/2+x,1/2-y,-z
1/2-x,1/2+y,-z
loop_
_atom_site_type_symbol
_atom_site_label
_atom_site_fract_x
_atom_site_fract_y
_atom_site_fract_z
Si Si1 0.405561 0.969642 0.471528
Si Si2 0.580920 0.907168 0.734411
Si Si3 0.396390 0.467603 0.319691
Si Si4 0.362638 0.669675 0.528982
Si Si5 0.245474 0.025536 0.879142
Si Si6 0.033612 0.145908 0.237095
Si Si7 0.704661 0.280708 0.901074
Si Si8 0.692123 0.815771 0.332559
O O1 0.394087 0.038673 0.602330
O O2 0.338367 0.033536 0.376307
O O3 0.500000 0.000000 0.416563
O O4 0.403675 0.804676 0.469439
O O5 0.668814 0.915342 0.812386
O O6 0.548810 0.748190 0.738789
O O7 0.500000 0.000000 0.785488
O O8 0.500000 0.500000 0.299905
O O9 0.356320 0.546835 0.433694
O O10 0.339353 0.515207 0.206462
O O11 0.383320 0.302706 0.340435
O O12 0.421522 0.611936 0.636633
O O13 0.269842 0.727551 0.577547
O O14 0.271159 0.876898 0.933715
O O15 0.216789 0.127588 0.982952
O O16 0.103605 0.213007 0.145197
O O17 0.000000 0.000000 0.182852
O O18 0.772150 0.335686 0.800881
#
# Coordination Sequence:
#
# PCOD8156204 Si02
#       8
#     4   4   4   4   4   4   4   4
#     4  11  20  35  61  89 123 159 201 243 309 388
#     4  11  20  41  66  91 124 166 207 267 325 378
#     4  11  24  41  61  92 134 169 205 263 329 380
#     4  11  20  37  60  95 125 160 202 255 312 385
#     4  11  24  45  65  90 125 172 219 269 324 387
#     4  11  23  38  64  97 125 157 212 268 320 382
#     4  10  24  44  63  89 126 163 221 269 318 385
#     4  10  22  40  60  86 126 165 202 260 315 375
#
# _framework density 19.644403000000001
#
# number of rings (size 3 to 8) (size 9 to 14) (size 15 to 20)
#    0.000    1.250    3.750    4.125    3.500    1.500 
#    4.500    0.625    0.000    0.000    0.000    0.000 
#    0.000    0.000    0.000    0.000    0.000    0.000 
#
# Total GULP energy -396772.236530 kJ/mol
# GULP energy per Si atom -12399.132392 kJ/mol
# Density = 1.959969 g / cm^3
# Si number density = 19.644403 Si / 1000 Ang^3
#
#
#
# Elastic Constant Matrix: (Units=GPa)
#
#
# Indices 1 2 3 4 5 6 
#
# 1 91.1124 23.3595 32.9682 0.0000 0.0000 0.0000
# 2 23.3595 75.4330 38.7765 0.0000 0.0000 0.0000
# 3 32.9682 38.7765 87.1371 0.0000 0.0000 0.0000
# 4 0.0000 0.0000 0.0000 33.7810 0.0000 0.0000
# 5 0.0000 0.0000 0.0000 0.0000 17.5050 0.0000
# 6 0.0000 0.0000 0.0000 0.0000 0.0000 34.6466
#
#
#
# Elastic Compliance Matrix: (Units=1/GPa)
#
#
# Indices 1 2 3 4 5 6 
#
# 1 0.012930 -0.001931 -0.004033 0.000000 0.000000 0.000000
# 2 -0.001931 0.017477 -0.007047 0.000000 0.000000 0.000000
# 3 -0.004033 -0.007047 0.016138 0.000000 0.000000 0.000000
# 4 0.000000 0.000000 0.000000 0.029602 0.000000 0.000000
# 5 0.000000 0.000000 0.000000 0.000000 0.057126 0.000000
# 6 0.000000 0.000000 0.000000 0.000000 0.000000 0.028863
#
#
# Mechanical properties :
#
#
# Convention : Reuss Voigt Hill
#
# Bulk Modulus (GPa) = 48.72405 49.32121 49.02263
# Shear Modulus (GPa) = 25.64118 27.75840 26.69979
#
# Velocity S-wave (km/s) = 3.61677 3.76313 3.69067
# Velocity P-wave (km/s) = 6.50371 6.63649 6.57043
#
# Compressibility (1/GPa) = 0.02052374
#
# Stress axis : x y z
#
# Youngs Moduli (GPa) = 77.34135 57.21730 61.96620
#
# Poissons Ratio (x) = 0.11048 0.24989
# Poissons Ratio (y) = 0.14934 0.43667
# Poissons Ratio (z) = 0.31189 0.40320
#
# Static dielectric constant tensor:
#      x y z
#    x 4.026630 0.000000 0.000000 
#    y 0.000000 3.211210 0.000000 
#    z 0.000000 0.000000 3.385650 
# 
# 
# High freq. dielectric constant tensor:
#      x y z
#    x 1.777510 0.000000 0.000000 
#    y 0.000000 1.774420 0.000000 
#    z 0.000000 0.000000 1.745570 
# 
# From -- ./inp_files/5689.got.cif
#   From: 2010.03.12/outbox.cif.g09.slc.cpg/sg18_3_cif.got.tgz:5689.got - 2010.04.10 18:53:55.
