data_PCOD8156538
_publ_section_title
;
Structure prediction by ZEFSAII (Michael W. Deem and Ramdas Pophale) SiO2 
 PCOD8156538
Probable space group: P 21 21 21
;
_chemical_formula_sum "Si O2"
_cell_formula_units_Z 32
_cell_length_a 17.040200
_cell_length_b 11.654633
_cell_length_c 8.310822
_cell_angle_alpha 90.000000
_cell_angle_beta 90.000000
_cell_angle_gamma 90.000000
_cell_volume 1650.506621
_symmetry_space_group_name_H-M "P 21 21 21"
_symmetry_group_IT_number 19
_symmetry_cell_setting 'orthorhombic'
loop_
_space_group_symop_operation_xyz
x,y,z
1/2-x,-y,1/2+z
1/2+x,1/2-y,-z
-x,1/2+y,1/2-z
loop_
_atom_site_type_symbol
_atom_site_label
_atom_site_fract_x
_atom_site_fract_y
_atom_site_fract_z
Si Si1 0.936736 0.528859 0.273564
Si Si2 0.068202 0.580868 0.737335
Si Si3 0.873621 0.875069 0.977872
Si Si4 0.588287 0.079931 0.834033
Si Si5 0.690866 0.901686 0.991311
Si Si6 0.549327 0.342876 0.479996
Si Si7 0.999398 0.719066 0.470968
Si Si8 0.410786 0.226102 0.665568
O O1 0.896326 0.411523 0.330092
O O2 0.024095 0.517665 0.197454
O O3 0.942384 0.611870 0.427347
O O4 0.898218 0.591337 0.117024
O O5 0.077878 0.472802 0.617655
O O6 0.044039 0.695361 0.638120
O O7 0.993625 0.566373 0.859397
O O8 0.150015 0.600801 0.832414
O O9 0.783493 0.908882 0.991955
O O10 0.890905 0.749974 0.896592
O O11 0.900587 0.858879 0.163003
O O12 0.556442 0.168913 0.969223
O O13 0.665124 0.018409 0.901513
O O14 0.668569 0.787531 0.891900
O O15 0.481344 0.258714 0.547757
O O16 0.069739 0.734685 0.345157
#
# Coordination Sequence:
#
# PCOD8156538 Si02
#       8
#     4   4   4   4   4   4   4   4
#     4  10  15  35  61  79 105 152 203 240 284 357
#     4  11  22  34  56  91 122 147 200 263 299 340
#     4  12  22  37  60  85 128 165 191 254 311 366
#     4  11  19  37  57  86 114 160 195 239 300 374
#     4  11  23  37  54  93 127 153 196 250 321 362
#     4  10  20  34  57  90 114 151 208 244 293 350
#     4  10  18  32  60  83 108 150 202 244 289 350
#     4   9  17  34  59  79 114 152 197 242 285 367
#
# _framework density 19.387986999999999
#
# number of rings (size 3 to 8) (size 9 to 14) (size 15 to 20)
#    0.000    1.500    8.750    0.750    1.750    0.000 
#    0.000    0.000    0.000    7.500    0.000    0.000 
#    0.000    0.000    0.000    0.000    0.000    0.000 
#
# Total GULP energy -396418.793215 kJ/mol
# GULP energy per Si atom -12388.087288 kJ/mol
# Density = 1.934386 g / cm^3
# Si number density = 19.387987 Si / 1000 Ang^3
#
#
#
# Elastic Constant Matrix: (Units=GPa)
#
#
# Indices 1 2 3 4 5 6 
#
# 1 43.5215 28.0499 23.1743 0.0000 0.0000 0.0000
# 2 28.0499 113.4820 23.3119 0.0000 0.0000 0.0000
# 3 23.1743 23.3119 71.1355 0.0000 0.0000 0.0000
# 4 0.0000 0.0000 0.0000 29.7920 0.0000 0.0000
# 5 0.0000 0.0000 0.0000 0.0000 15.1323 0.0000
# 6 0.0000 0.0000 0.0000 0.0000 0.0000 23.4631
#
#
#
# Elastic Compliance Matrix: (Units=1/GPa)
#
#
# Indices 1 2 3 4 5 6 
#
# 1 0.031232 -0.006036 -0.008197 0.000000 0.000000 0.000000
# 2 -0.006036 0.010615 -0.001512 0.000000 0.000000 0.000000
# 3 -0.008197 -0.001512 0.017223 0.000000 0.000000 0.000000
# 4 0.000000 0.000000 0.000000 0.033566 0.000000 0.000000
# 5 0.000000 0.000000 0.000000 0.000000 0.066084 0.000000
# 6 0.000000 0.000000 0.000000 0.000000 0.000000 0.042620
#
#
# Mechanical properties :
#
#
# Convention : Reuss Voigt Hill
#
# Bulk Modulus (GPa) = 36.25745 41.91237 39.08491
# Shear Modulus (GPa) = 20.65922 23.91767 22.28844
#
# Velocity S-wave (km/s) = 3.26785 3.51612 3.39425
# Velocity P-wave (km/s) = 5.74282 6.17647 5.96359
#
# Compressibility (1/GPa) = 0.02758054
#
# Stress axis : x y z
#
# Youngs Moduli (GPa) = 32.01857 94.21036 58.06030
#
# Poissons Ratio (x) = 0.56865 0.47590
# Poissons Ratio (y) = 0.19326 0.08779
# Poissons Ratio (z) = 0.26244 0.14246
#
# Static dielectric constant tensor:
#      x y z
#    x 3.168360 0.000000 0.000000 
#    y 0.000000 3.649680 0.000000 
#    z 0.000000 0.000000 3.669010 
# 
# 
# High freq. dielectric constant tensor:
#      x y z
#    x 1.701540 0.000000 0.000000 
#    y 0.000000 1.766000 0.000000 
#    z 0.000000 0.000000 1.755880 
# 
# From -- ./inp_files/4261.got.cif
#   From: 2010.03.12/outbox.cif.g09.slc.cpg/sg19_3_cif.got.tgz:4261.got - 2010.04.10 18:59:41.
