data_PCOD8156993
_publ_section_title
;
Structure prediction by ZEFSAII (Michael W. Deem and Ramdas Pophale) SiO2 
 PCOD8156993
Probable space group: P 21 21 21
;
_chemical_formula_sum "Si O2"
_cell_formula_units_Z 28
_cell_length_a 5.421796
_cell_length_b 9.230234
_cell_length_c 24.725959
_cell_angle_alpha 90.000000
_cell_angle_beta 90.000000
_cell_angle_gamma 90.000000
_cell_volume 1237.396915
_symmetry_space_group_name_H-M "P 21 21 21"
_symmetry_group_IT_number 19
_symmetry_cell_setting 'orthorhombic'
loop_
_space_group_symop_operation_xyz
x,y,z
1/2-x,-y,1/2+z
1/2+x,1/2-y,-z
-x,1/2+y,1/2-z
loop_
_atom_site_type_symbol
_atom_site_label
_atom_site_fract_x
_atom_site_fract_y
_atom_site_fract_z
Si Si1 0.501297 0.301415 0.475607
Si Si2 0.849804 0.169043 0.937149
Si Si3 0.418715 0.322903 0.354191
Si Si4 0.311286 0.695241 0.241288
Si Si5 0.466842 0.565456 0.782256
Si Si6 0.142906 0.875152 0.664499
Si Si7 0.354502 0.088769 0.976094
O O1 0.738462 0.203045 0.492387
O O2 0.420939 0.262456 0.414650
O O3 0.620419 0.460356 0.480542
O O4 0.839522 0.262547 0.883458
O O5 0.594230 0.078471 0.936898
O O6 0.101081 0.072051 0.940655
O O7 0.845135 0.261285 0.992168
O O8 0.607907 0.224580 0.320367
O O9 0.469969 0.494438 0.354471
O O10 0.157389 0.318256 0.323391
O O11 0.132575 0.831464 0.256024
O O12 0.536498 0.708262 0.283147
O O13 0.208031 0.530837 0.243548
O O14 0.597163 0.443930 0.819234
#
# Coordination Sequence:
#
# PCOD8156993 Si02
#       7
#     4   4   4   4   4   4   4
#     4  12  27  46  69  98 138 186 235 280 345 426
#     4  10  21  38  70  94 135 165 220 291 332 398
#     4  10  23  43  68  94 135 182 231 278 345 418
#     4  10  22  42  65 107 129 183 225 286 345 431
#     4  10  22  41  72  96 141 178 231 282 350 426
#     4  10  21  39  69 102 129 180 225 279 353 415
#     4  10  22  41  61 101 129 172 225 278 340 392
#
# _framework density 22.628149000000001
#
# number of rings (size 3 to 8) (size 9 to 14) (size 15 to 20)
#    0.000    1.714    1.429    1.714    8.000    1.143 
#    2.571    8.571    0.000    0.000    0.000    0.000 
#    0.000    0.000    0.000    0.000    0.000    0.000 
#
# Total GULP energy -346935.186260 kJ/mol
# GULP energy per Si atom -12390.542366 kJ/mol
# Density = 2.257665 g / cm^3
# Si number density = 22.628149 Si / 1000 Ang^3
#
#
#
# Elastic Constant Matrix: (Units=GPa)
#
#
# Indices 1 2 3 4 5 6 
#
# 1 137.1137 33.9701 26.2794 0.0000 0.0000 0.0000
# 2 33.9701 49.8279 32.2949 0.0000 0.0000 0.0000
# 3 26.2794 32.2949 96.2082 0.0000 0.0000 0.0000
# 4 0.0000 0.0000 0.0000 34.5929 0.0000 0.0000
# 5 0.0000 0.0000 0.0000 0.0000 12.6432 0.0000
# 6 0.0000 0.0000 0.0000 0.0000 0.0000 35.2901
#
#
#
# Elastic Compliance Matrix: (Units=1/GPa)
#
#
# Indices 1 2 3 4 5 6 
#
# 1 0.008794 -0.005673 -0.000498 0.000000 0.000000 0.000000
# 2 -0.005673 0.029309 -0.008289 0.000000 0.000000 0.000000
# 3 -0.000498 -0.008289 0.013312 0.000000 0.000000 0.000000
# 4 0.000000 0.000000 0.000000 0.028908 0.000000 0.000000
# 5 0.000000 0.000000 0.000000 0.000000 0.079094 0.000000
# 6 0.000000 0.000000 0.000000 0.000000 0.000000 0.028337
#
#
# Mechanical properties :
#
#
# Convention : Reuss Voigt Hill
#
# Bulk Modulus (GPa) = 44.45135 52.02652 48.23893
# Shear Modulus (GPa) = 22.30445 29.21227 25.75836
#
# Velocity S-wave (km/s) = 3.14298 3.59691 3.37758
# Velocity P-wave (km/s) = 5.73219 6.34761 6.04774
#
# Compressibility (1/GPa) = 0.02249651
#
# Stress axis : x y z
#
# Youngs Moduli (GPa) = 113.71324 34.11973 75.11742
#
# Poissons Ratio (x) = 0.19355 0.03740
# Poissons Ratio (y) = 0.64505 0.62263
# Poissons Ratio (z) = 0.05662 0.28281
#
# Static dielectric constant tensor:
#      x y z
#    x 4.625410 0.000000 0.000000 
#    y 0.000000 3.910950 0.000000 
#    z 0.000000 0.000000 3.758170 
# 
# 
# High freq. dielectric constant tensor:
#      x y z
#    x 1.910120 0.000000 0.000000 
#    y 0.000000 1.883930 0.000000 
#    z 0.000000 0.000000 1.869600 
# 
# From -- ./inp_files/7261.got.cif
#   From: 2010.03.12/outbox.cif.g09.slc.cpg/sg19_4_cif.got.tgz:7261.got - 2010.04.10 18:59:41.
