data_PCOD8156055
_publ_section_title
;
Structure prediction by ZEFSAII (Michael W. Deem and Ramdas Pophale) SiO2 
 PCOD8156055
Probable space group: P 21 21 2
;
_chemical_formula_sum "Si O2"
_cell_formula_units_Z 30
_cell_length_a 8.976661
_cell_length_b 11.347730
_cell_length_c 13.522887
_cell_angle_alpha 90.000000
_cell_angle_beta 90.000000
_cell_angle_gamma 90.000000
_cell_volume 1377.505170
_symmetry_space_group_name_H-M "P 21 21 2"
_symmetry_group_IT_number 18
_symmetry_cell_setting 'orthorhombic'
loop_
_space_group_symop_operation_xyz
x,y,z
-x,-y,z
1/2+x,1/2-y,-z
1/2-x,1/2+y,-z
loop_
_atom_site_type_symbol
_atom_site_label
_atom_site_fract_x
_atom_site_fract_y
_atom_site_fract_z
Si Si1 0.446337 0.378270 0.014878
Si Si2 0.120823 0.678489 0.678456
Si Si3 0.646816 0.572166 0.228181
Si Si4 0.824437 0.997359 0.427443
Si Si5 0.682765 0.206622 0.105317
Si Si6 0.000000 0.500000 0.833812
Si Si7 0.332985 0.038872 0.619882
Si Si8 0.296282 0.779227 0.334845
O O1 0.500000 0.500000 0.963324
O O2 0.348094 0.415325 0.110311
O O3 0.589382 0.302535 0.045158
O O4 0.347757 0.302057 0.939745
O O5 0.171109 0.800516 0.724555
O O6 0.248036 0.626677 0.605744
O O7 0.099117 0.585349 0.766457
O O8 0.964112 0.703926 0.621261
O O9 0.500000 0.500000 0.263226
O O10 0.786952 0.499128 0.269385
O O11 0.765797 0.027993 0.537214
O O12 0.784081 0.096997 0.348409
O O13 0.000000 0.000000 0.431156
O O14 0.689414 0.249893 0.218350
O O15 0.606432 0.078155 0.096651
O O16 0.299824 0.178841 0.610398
O O17 0.500000 0.000000 0.598734
#
# Coordination Sequence:
#
# PCOD8156055 Si02
#       8
#     4   4   4   4   4   2   4   4
#     4  11  25  43  69 103 141 183 237 288 348 423
#     4  11  20  44  73  90 131 178 231 279 345 403
#     4  11  22  45  69  97 135 186 228 286 352 408
#     4  12  28  42  69 106 135 181 234 291 352 418
#     4  11  24  45  70 102 141 186 236 283 356 414
#     4  10  20  44  70  94 130 190 224 284 350 406
#     4  12  28  45  69 102 141 185 231 289 359 422
#     4  11  23  48  72  95 140 183 236 288 346 425
#
# _framework density 21.778502
#
# number of rings (size 3 to 8) (size 9 to 14) (size 15 to 20)
#    0.000    0.800    6.667    2.000    5.600    1.600 
#    1.200    0.000    0.000    0.000    0.000    0.000 
#    0.000    0.000    0.000    0.000    0.000    0.000 
#
# Total GULP energy -371948.998476 kJ/mol
# GULP energy per Si atom -12398.299949 kJ/mol
# Density = 2.172893 g / cm^3
# Si number density = 21.778502 Si / 1000 Ang^3
#
#
#
# Elastic Constant Matrix: (Units=GPa)
#
#
# Indices 1 2 3 4 5 6 
#
# 1 149.1664 42.9822 40.7963 0.0000 0.0000 0.0000
# 2 42.9822 123.1542 15.6610 0.0000 0.0000 0.0000
# 3 40.7963 15.6610 50.7013 0.0000 0.0000 0.0000
# 4 0.0000 0.0000 0.0000 5.7724 0.0000 0.0000
# 5 0.0000 0.0000 0.0000 0.0000 35.9996 0.0000
# 6 0.0000 0.0000 0.0000 0.0000 0.0000 42.9906
#
#
#
# Elastic Compliance Matrix: (Units=1/GPa)
#
#
# Indices 1 2 3 4 5 6 
#
# 1 0.009213 -0.002366 -0.006683 0.000000 0.000000 0.000000
# 2 -0.002366 0.009059 -0.000895 0.000000 0.000000 0.000000
# 3 -0.006683 -0.000895 0.025377 0.000000 0.000000 0.000000
# 4 0.000000 0.000000 0.000000 0.173240 0.000000 0.000000
# 5 0.000000 0.000000 0.000000 0.000000 0.027778 0.000000
# 6 0.000000 0.000000 0.000000 0.000000 0.000000 0.023261
#
#
# Mechanical properties :
#
#
# Convention : Reuss Voigt Hill
#
# Bulk Modulus (GPa) = 42.08184 57.98901 50.03542
# Shear Modulus (GPa) = 16.90701 31.85800 24.38251
#
# Velocity S-wave (km/s) = 2.78927 3.82883 3.34962
# Velocity P-wave (km/s) = 5.45325 6.79935 6.16316
#
# Compressibility (1/GPa) = 0.02376322
#
# Stress axis : x y z
#
# Youngs Moduli (GPa) = 108.53908 110.38319 39.40605
#
# Poissons Ratio (x) = 0.26114 0.26334
# Poissons Ratio (y) = 0.25677 0.03526
# Poissons Ratio (z) = 0.72532 0.09877
#
# Static dielectric constant tensor:
#      x y z
#    x 4.037580 0.000000 0.000000 
#    y 0.000000 -0.381320 0.000000 
#    z 0.000000 0.000000 3.792150 
# 
# 
# High freq. dielectric constant tensor:
#      x y z
#    x 1.842020 0.000000 0.000000 
#    y 0.000000 1.876570 0.000000 
#    z 0.000000 0.000000 1.839720 
# 
# From -- ./inp_files/6739.got.cif
#   From: 2010.03.12/outbox.cif.g09.slc.cpg/sg18_4_cif.got.tgz:6739.got - 2010.04.10 18:53:55.
