data_PCOD8156469
_publ_section_title
;
Structure prediction by ZEFSAII (Michael W. Deem and Ramdas Pophale) SiO2 
 PCOD8156469
Probable space group: P 21 21 2
;
_chemical_formula_sum "Si O2"
_cell_formula_units_Z 24
_cell_length_a 8.372631
_cell_length_b 8.507808
_cell_length_c 14.834512
_cell_angle_alpha 90.000000
_cell_angle_beta 90.000000
_cell_angle_gamma 90.000000
_cell_volume 1056.702892
_symmetry_space_group_name_H-M "P 21 21 2"
_symmetry_group_IT_number 18
_symmetry_cell_setting 'orthorhombic'
loop_
_space_group_symop_operation_xyz
x,y,z
-x,-y,z
1/2+x,1/2-y,-z
1/2-x,1/2+y,-z
loop_
_atom_site_type_symbol
_atom_site_label
_atom_site_fract_x
_atom_site_fract_y
_atom_site_fract_z
Si Si1 0.880276 0.118507 0.061985
Si Si2 0.823360 0.569344 0.778206
Si Si3 0.819691 0.944234 0.769918
Si Si4 0.380281 0.878830 0.921624
Si Si5 0.672871 0.937507 0.402630
Si Si6 0.673546 0.565209 0.420780
O O1 0.787912 0.018373 0.138508
O O2 0.995840 0.245140 0.109719
O O3 0.752908 0.188325 0.990607
O O4 0.000000 0.000000 0.009176
O O5 0.821185 0.758200 0.781525
O O6 0.736990 0.499714 0.687579
O O7 0.000000 0.500000 0.794130
O O8 0.702337 0.035240 0.837202
O O9 0.758189 0.985637 0.669316
O O10 0.000000 0.000000 0.783249
O O11 0.500000 0.000000 0.972249
O O12 0.676888 0.751470 0.409781
O O13 0.500000 0.000000 0.379550
O O14 0.721375 0.020517 0.494226
O O15 0.500000 0.500000 0.442957
#
# Coordination Sequence:
#
# PCOD8156469 Si02
#       6
#     4   4   4   4   4   4
#     4  12  28  44  73 101 141 183 236 292 355 422
#     4  11  24  45  70 102 141 186 235 291 352 420
#     4  11  24  43  73 100 141 186 234 290 355 417
#     4  12  26  49  69 106 139 186 235 293 359 424
#     4  11  23  43  69 101 141 184 233 283 348 409
#     4  11  23  43  69 103 140 186 231 286 344 412
#
# _framework density 22.712154000000002
#
# number of rings (size 3 to 8) (size 9 to 14) (size 15 to 20)
#    0.000    0.667    1.667    8.000    7.000    1.333 
#    3.000    0.000    0.000    0.000    0.000    0.000 
#    0.000    0.000    0.000    0.000    0.000    0.000 
#
# Total GULP energy -297413.356353 kJ/mol
# GULP energy per Si atom -12392.223181 kJ/mol
# Density = 2.266046 g / cm^3
# Si number density = 22.712154 Si / 1000 Ang^3
#
#
#
# Elastic Constant Matrix: (Units=GPa)
#
#
# Indices 1 2 3 4 5 6 
#
# 1 103.1546 37.2315 62.9981 0.0000 0.0000 0.0000
# 2 37.2315 87.8763 23.5165 0.0000 0.0000 0.0000
# 3 62.9981 23.5165 139.2932 0.0000 0.0000 0.0000
# 4 0.0000 0.0000 0.0000 36.6560 0.0000 0.0000
# 5 0.0000 0.0000 0.0000 0.0000 -312.3405 0.0000
# 6 0.0000 0.0000 0.0000 0.0000 0.0000 49.7522
#
#
#
# Elastic Compliance Matrix: (Units=1/GPa)
#
#
# Indices 1 2 3 4 5 6 
#
# 1 0.015098 -0.004786 -0.006021 0.000000 0.000000 0.000000
# 2 -0.004786 0.013435 -0.000104 0.000000 0.000000 0.000000
# 3 -0.006021 -0.000104 0.009920 0.000000 0.000000 0.000000
# 4 0.000000 0.000000 0.000000 0.027281 0.000000 0.000000
# 5 0.000000 0.000000 0.000000 0.000000 -0.003202 0.000000
# 6 0.000000 0.000000 0.000000 0.000000 0.000000 0.020100
#
#
# Mechanical properties :
#
#
# Convention : Reuss Voigt Hill
#
# Bulk Modulus (GPa) = 60.12213 64.20181 62.16197
# Shear Modulus (GPa) = 45.45625 -31.41459 7.02083
#
# Velocity S-wave (km/s) = 4.47856 -3.72312 1.76009
# Velocity P-wave (km/s) = 7.29878 3.13796 5.61778
#
# Compressibility (1/GPa) = 0.01663281
#
# Stress axis : x y z
#
# Youngs Moduli (GPa) = 66.23247 74.43231 100.81123
#
# Poissons Ratio (x) = 0.35621 0.60694
# Poissons Ratio (y) = 0.31697 0.01046
# Poissons Ratio (z) = 0.39876 0.00772
#
# Static dielectric constant tensor:
#      x y z
#    x 4.298350 0.000000 0.000000 
#    y 0.000000 4.301750 0.000000 
#    z 0.000000 0.000000 4.376900 
# 
# 
# High freq. dielectric constant tensor:
#      x y z
#    x 1.898050 0.000000 0.000000 
#    y 0.000000 1.911580 0.000000 
#    z 0.000000 0.000000 1.905380 
# 
# From -- ./inp_files/6673.got.cif
#   From: 2010.03.12/outbox.cif.g09.slc.cpg/sg18_4_cif.got.tgz:6673.got - 2010.04.10 18:53:55.
