data_PCOD8156921
_publ_section_title
;
Structure prediction by ZEFSAII (Michael W. Deem and Ramdas Pophale) SiO2 
 PCOD8156921
Probable space group: P 21 21 21
;
_chemical_formula_sum "Si O2"
_cell_formula_units_Z 24
_cell_length_a 15.687882
_cell_length_b 9.154469
_cell_length_c 7.721307
_cell_angle_alpha 90.000000
_cell_angle_beta 90.000000
_cell_angle_gamma 90.000000
_cell_volume 1108.889555
_symmetry_space_group_name_H-M "P 21 21 21"
_symmetry_group_IT_number 19
_symmetry_cell_setting 'orthorhombic'
loop_
_space_group_symop_operation_xyz
x,y,z
1/2-x,-y,1/2+z
1/2+x,1/2-y,-z
-x,1/2+y,1/2-z
loop_
_atom_site_type_symbol
_atom_site_label
_atom_site_fract_x
_atom_site_fract_y
_atom_site_fract_z
Si Si1 0.816897 0.101005 0.539822
Si Si2 0.414604 0.139947 0.951931
Si Si3 0.904216 0.813140 0.552037
Si Si4 0.230179 0.664341 0.588768
Si Si5 0.643512 0.444561 0.250882
Si Si6 0.667588 0.598563 0.886864
O O1 0.790803 0.187398 0.711631
O O2 0.842037 0.225392 0.404242
O O3 0.894022 0.988175 0.584030
O O4 0.737247 0.007350 0.462840
O O5 0.341473 0.262211 0.970732
O O6 0.415763 0.030263 0.114606
O O7 0.507635 0.215822 0.951207
O O8 0.396924 0.057056 0.770151
O O9 0.822196 0.757285 0.439579
O O10 0.897397 0.717777 0.728956
O O11 0.737090 0.444712 0.333201
O O12 0.639790 0.520526 0.062884
#
# Coordination Sequence:
#
# PCOD8156921 Si02
#       6
#     4   4   4   4   4   4
#     4  10  22  43  69  97 134 178 241 278 344 417
#     4  12  25  44  71 101 149 177 232 297 344 415
#     4  10  26  42  68 108 131 186 240 276 354 416
#     4  10  20  43  66  97 131 181 225 284 345 407
#     4  12  24  44  69 103 140 181 238 283 354 418
#     4  12  23  44  71 100 137 191 228 288 355 413
#
# _framework density 21.643273000000001
#
# number of rings (size 3 to 8) (size 9 to 14) (size 15 to 20)
#    1.000    0.000    5.000    2.000    2.333    1.333 
#    0.000    0.000    0.000    0.000    0.000    0.000 
#    0.000    0.000    0.000    0.000    0.000    0.000 
#
# Total GULP energy -297474.196023 kJ/mol
# GULP energy per Si atom -12394.758168 kJ/mol
# Density = 2.159401 g / cm^3
# Si number density = 21.643273 Si / 1000 Ang^3
#
#
#
# Elastic Constant Matrix: (Units=GPa)
#
#
# Indices 1 2 3 4 5 6 
#
# 1 126.9885 23.5107 26.7824 0.0000 0.0000 0.0000
# 2 23.5107 72.0354 30.8823 0.0000 0.0000 0.0000
# 3 26.7824 30.8823 132.5350 0.0000 0.0000 0.0000
# 4 0.0000 0.0000 0.0000 38.9111 0.0000 0.0000
# 5 0.0000 0.0000 0.0000 0.0000 16.8899 0.0000
# 6 0.0000 0.0000 0.0000 0.0000 0.0000 21.7219
#
#
#
# Elastic Compliance Matrix: (Units=1/GPa)
#
#
# Indices 1 2 3 4 5 6 
#
# 1 0.008549 -0.002277 -0.001197 0.000000 0.000000 0.000000
# 2 -0.002277 0.016029 -0.003275 0.000000 0.000000 0.000000
# 3 -0.001197 -0.003275 0.008550 0.000000 0.000000 0.000000
# 4 0.000000 0.000000 0.000000 0.025700 0.000000 0.000000
# 5 0.000000 0.000000 0.000000 0.000000 0.059207 0.000000
# 6 0.000000 0.000000 0.000000 0.000000 0.000000 0.046036
#
#
# Mechanical properties :
#
#
# Convention : Reuss Voigt Hill
#
# Bulk Modulus (GPa) = 50.94121 54.87886 52.91003
# Shear Modulus (GPa) = 27.15734 32.19680 29.67707
#
# Velocity S-wave (km/s) = 3.54612 3.86114 3.70698
# Velocity P-wave (km/s) = 6.35251 6.72971 6.54383
#
# Compressibility (1/GPa) = 0.01963047
#
# Stress axis : x y z
#
# Youngs Moduli (GPa) = 116.97647 62.38624 116.95715
#
# Poissons Ratio (x) = 0.14205 0.13999
# Poissons Ratio (y) = 0.26635 0.38302
# Poissons Ratio (z) = 0.14001 0.20431
#
# Static dielectric constant tensor:
#      x y z
#    x 3.638820 0.000000 0.000000 
#    y 0.000000 3.975860 0.000000 
#    z 0.000000 0.000000 3.867170 
# 
# 
# High freq. dielectric constant tensor:
#      x y z
#    x 1.827520 0.000000 0.000000 
#    y 0.000000 1.856080 0.000000 
#    z 0.000000 0.000000 1.849260 
# 
# From -- ./inp_files/4126.got.cif
#   From: 2010.03.12/outbox.cif.g09.slc.cpg/sg19_3_cif.got.tgz:4126.got - 2010.04.10 18:59:41.
