data_PCOD8156085
_publ_section_title
;
Structure prediction by ZEFSAII (Michael W. Deem and Ramdas Pophale) SiO2 
 PCOD8156085
Probable space group: P 21 21 2
;
_chemical_formula_sum "Si O2"
_cell_formula_units_Z 32
_cell_length_a 12.025873
_cell_length_b 8.701509
_cell_length_c 15.056219
_cell_angle_alpha 90.000000
_cell_angle_beta 90.000000
_cell_angle_gamma 90.000000
_cell_volume 1575.531571
_symmetry_space_group_name_H-M "P 21 21 2"
_symmetry_group_IT_number 18
_symmetry_cell_setting 'orthorhombic'
loop_
_space_group_symop_operation_xyz
x,y,z
-x,-y,z
1/2+x,1/2-y,-z
1/2-x,1/2+y,-z
loop_
_atom_site_type_symbol
_atom_site_label
_atom_site_fract_x
_atom_site_fract_y
_atom_site_fract_z
Si Si1 0.870922 0.179846 0.747953
Si Si2 0.267819 0.675803 0.591082
Si Si3 0.627946 0.319236 0.266748
Si Si4 0.012866 0.327817 0.360146
Si Si5 0.214214 0.813575 0.408925
Si Si6 0.517061 0.170489 0.842039
Si Si7 0.218797 0.705117 0.106674
Si Si8 0.261836 0.843052 0.918748
O O1 0.797753 0.277783 0.679714
O O2 0.831590 0.214316 0.848871
O O3 0.999305 0.228470 0.739485
O O4 0.854533 0.001175 0.726296
O O5 0.392538 0.741824 0.584735
O O6 0.203321 0.741317 0.506424
O O7 0.275646 0.494530 0.584745
O O8 0.679188 0.249609 0.356246
O O9 0.689443 0.249679 0.180142
O O10 0.000000 0.500000 0.399026
O O11 0.898452 0.234134 0.359331
O O12 0.055721 0.336336 0.259580
O O13 0.401570 0.259717 0.856194
O O14 0.621099 0.241600 0.895740
O O15 0.500000 0.000000 0.879288
O O16 0.226530 0.525534 0.087323
O O17 0.232129 0.802002 0.018176
#
# Coordination Sequence:
#
# PCOD8156085 Si02
#       8
#     4   4   4   4   4   4   4   4
#     4  10  22  42  65  89 124 167 212 260 316 376
#     4  12  26  43  65  95 128 166 211 258 315 378
#     4  10  22  42  65  89 124 167 212 260 316 376
#     4  11  21  43  71  92 123 164 209 263 318 372
#     4  12  26  43  65  95 128 166 211 258 315 378
#     4   9  18  37  63  84 115 160 205 251 314 374
#     4  10  21  38  60  89 121 162 206 256 314 374
#     4  10  21  38  60  89 121 162 206 256 314 374
#
# _framework density 20.310607000000001
#
# number of rings (size 3 to 8) (size 9 to 14) (size 15 to 20)
#    0.000    1.500    2.500    2.625    3.500    1.500 
#    0.000    0.000    0.000    0.000    0.000    0.000 
#    0.000    0.000    0.000    0.000    0.000    0.000 
#
# Total GULP energy -396839.351322 kJ/mol
# GULP energy per Si atom -12401.229729 kJ/mol
# Density = 2.026438 g / cm^3
# Si number density = 20.310607 Si / 1000 Ang^3
#
#
#
# Elastic Constant Matrix: (Units=GPa)
#
#
# Indices 1 2 3 4 5 6 
#
# 1 122.6491 30.5637 17.9741 0.0000 0.0000 0.0000
# 2 30.5637 77.6956 22.9730 0.0000 0.0000 0.0000
# 3 17.9741 22.9730 85.2527 0.0000 0.0000 0.0000
# 4 0.0000 0.0000 0.0000 -36.7385 0.0000 0.0000
# 5 0.0000 0.0000 0.0000 0.0000 30.9857 0.0000
# 6 0.0000 0.0000 0.0000 0.0000 0.0000 21.4791
#
#
#
# Elastic Compliance Matrix: (Units=1/GPa)
#
#
# Indices 1 2 3 4 5 6 
#
# 1 0.009123 -0.003282 -0.001039 0.000000 0.000000 0.000000
# 2 -0.003282 0.015165 -0.003395 0.000000 0.000000 0.000000
# 3 -0.001039 -0.003395 0.012864 0.000000 0.000000 0.000000
# 4 0.000000 0.000000 0.000000 -0.027219 0.000000 0.000000
# 5 0.000000 0.000000 0.000000 0.000000 0.032273 0.000000
# 6 0.000000 0.000000 0.000000 0.000000 0.000000 0.046557
#
#
# Mechanical properties :
#
#
# Convention : Reuss Voigt Hill
#
# Bulk Modulus (GPa) = 46.03770 47.62432 46.83101
# Shear Modulus (GPa) = 44.86930 17.41769 31.14349
#
# Velocity S-wave (km/s) = 4.70527 2.93160 3.92006
# Velocity P-wave (km/s) = 7.22741 5.91252 6.60278
#
# Compressibility (1/GPa) = 0.02172133
#
# Stress axis : x y z
#
# Youngs Moduli (GPa) = 109.60800 65.93946 77.73809
#
# Poissons Ratio (x) = 0.21639 0.08079
# Poissons Ratio (y) = 0.35970 0.26390
# Poissons Ratio (z) = 0.11391 0.22385
#
# Static dielectric constant tensor:
#      x y z
#    x 4.035660 0.000000 0.000000 
#    y 0.000000 3.469930 0.000000 
#    z 0.000000 0.000000 3.682020 
# 
# 
# High freq. dielectric constant tensor:
#      x y z
#    x 1.810850 0.000000 0.000000 
#    y 0.000000 1.772180 0.000000 
#    z 0.000000 0.000000 1.797230 
# 
# From -- ./inp_files/6936.got.cif
#   From: 2010.03.12/outbox.cif.g09.slc.cpg/sg18_4_cif.got.tgz:6936.got - 2010.04.10 18:53:55.
