data_PCOD8156000
_publ_section_title
;
Structure prediction by ZEFSAII (Michael W. Deem and Ramdas Pophale) SiO2 
 PCOD8156000
Probable space group: P 21 21 2
;
_chemical_formula_sum "Si O2"
_cell_formula_units_Z 28
_cell_length_a 13.981108
_cell_length_b 12.401807
_cell_length_c 7.709760
_cell_angle_alpha 90.000000
_cell_angle_beta 90.000000
_cell_angle_gamma 90.000000
_cell_volume 1336.803020
_symmetry_space_group_name_H-M "P 21 21 2"
_symmetry_group_IT_number 18
_symmetry_cell_setting 'orthorhombic'
loop_
_space_group_symop_operation_xyz
x,y,z
-x,-y,z
1/2+x,1/2-y,-z
1/2-x,1/2+y,-z
loop_
_atom_site_type_symbol
_atom_site_label
_atom_site_fract_x
_atom_site_fract_y
_atom_site_fract_z
Si Si1 0.022270 0.226331 0.011057
Si Si2 0.646227 0.587246 0.929710
Si Si3 0.409529 0.068146 0.954056
Si Si4 0.719174 0.949988 0.265099
Si Si5 0.716786 0.991208 0.642244
Si Si6 0.219653 0.286999 0.171167
Si Si7 0.908846 0.936765 0.760889
O O1 0.108630 0.269929 0.125492
O O2 0.960142 0.133484 0.109946
O O3 0.944572 0.317788 0.974888
O O4 0.059200 0.182059 0.824649
O O5 0.687872 0.527422 0.759719
O O6 0.718009 0.680239 0.002509
O O7 0.637704 0.494710 0.073270
O O8 0.500000 0.000000 0.896143
O O9 0.343141 0.076085 0.783859
O O10 0.352760 0.012399 0.112050
O O11 0.740804 0.823133 0.251567
O O12 0.671587 0.975824 0.451223
O O13 0.723522 0.118047 0.686409
O O14 0.822532 0.935741 0.623178
O O15 0.000000 0.000000 0.683333
#
# Coordination Sequence:
#
# PCOD8156000 Si02
#       7
#     4   4   4   4   4   4   4
#     4  11  20  37  74  92 129 180 221 272 347 385
#     4  10  20  38  70  94 126 173 222 274 331 400
#     4  12  23  43  68  97 135 181 224 279 333 411
#     4  12  24  44  70  97 136 178 227 276 349 402
#     4  11  25  44  66  96 143 174 223 283 338 403
#     4  11  21  43  65  96 135 171 221 280 328 399
#     4   9  19  40  65  96 127 168 221 282 326 397
#
# _framework density 20.945494
#
# number of rings (size 3 to 8) (size 9 to 14) (size 15 to 20)
#    0.000    1.143    7.143    0.000    0.000    1.714 
#    5.143    0.000    0.000    0.000    0.000    0.000 
#    0.000    0.000    0.000    0.000    0.000    0.000 
#
# Total GULP energy -347090.372359 kJ/mol
# GULP energy per Si atom -12396.084727 kJ/mol
# Density = 2.089782 g / cm^3
# Si number density = 20.945494 Si / 1000 Ang^3
#
#
#
# Elastic Constant Matrix: (Units=GPa)
#
#
# Indices 1 2 3 4 5 6 
#
# 1 107.2779 24.7473 36.1671 0.0000 0.0000 0.0000
# 2 24.7473 95.6799 19.3156 0.0000 0.0000 0.0000
# 3 36.1671 19.3156 104.9503 0.0000 0.0000 0.0000
# 4 0.0000 0.0000 0.0000 21.5332 0.0000 0.0000
# 5 0.0000 0.0000 0.0000 0.0000 9.6868 0.0000
# 6 0.0000 0.0000 0.0000 0.0000 0.0000 45.5705
#
#
#
# Elastic Compliance Matrix: (Units=1/GPa)
#
#
# Indices 1 2 3 4 5 6 
#
# 1 0.010957 -0.002152 -0.003380 0.000000 0.000000 0.000000
# 2 -0.002152 0.011277 -0.001334 0.000000 0.000000 0.000000
# 3 -0.003380 -0.001334 0.010939 0.000000 0.000000 0.000000
# 4 0.000000 0.000000 0.000000 0.046440 0.000000 0.000000
# 5 0.000000 0.000000 0.000000 0.000000 0.103233 0.000000
# 6 0.000000 0.000000 0.000000 0.000000 0.000000 0.021944
#
#
# Mechanical properties :
#
#
# Convention : Reuss Voigt Hill
#
# Bulk Modulus (GPa) = 51.43548 52.04088 51.73818
# Shear Modulus (GPa) = 22.22196 30.53666 26.37931
#
# Velocity S-wave (km/s) = 3.26074 3.82240 3.55269
# Velocity P-wave (km/s) = 6.22790 6.66189 6.44855
#
# Compressibility (1/GPa) = 0.01944183
#
# Stress axis : x y z
#
# Youngs Moduli (GPa) = 91.26172 88.67317 91.41904
#
# Poissons Ratio (x) = 0.19080 0.30900
# Poissons Ratio (y) = 0.19637 0.12195
# Poissons Ratio (z) = 0.30847 0.11829
#
# Static dielectric constant tensor:
#      x y z
#    x 4.143900 0.000000 0.000000 
#    y 0.000000 4.065860 0.000000 
#    z 0.000000 0.000000 3.319460 
# 
# 
# High freq. dielectric constant tensor:
#      x y z
#    x 1.839780 0.000000 0.000000 
#    y 0.000000 1.828920 0.000000 
#    z 0.000000 0.000000 1.769030 
# 
# From -- ./inp_files/4332.got.cif
#   From: 2010.03.12/outbox.cif.g09.slc.cpg/sg18_3_cif.got.tgz:4332.got - 2010.04.10 18:53:55.
