data_PCOD8156794
_publ_section_title
;
Structure prediction by ZEFSAII (Michael W. Deem and Ramdas Pophale) SiO2 
 PCOD8156794
Probable space group: P 21 21 21
;
_chemical_formula_sum "Si O2"
_cell_formula_units_Z 28
_cell_length_a 7.024674
_cell_length_b 25.544601
_cell_length_c 7.242072
_cell_angle_alpha 90.000000
_cell_angle_beta 90.000000
_cell_angle_gamma 90.000000
_cell_volume 1299.535465
_symmetry_space_group_name_H-M "P 21 21 21"
_symmetry_group_IT_number 19
_symmetry_cell_setting 'orthorhombic'
loop_
_space_group_symop_operation_xyz
x,y,z
1/2-x,-y,1/2+z
1/2+x,1/2-y,-z
-x,1/2+y,1/2-z
loop_
_atom_site_type_symbol
_atom_site_label
_atom_site_fract_x
_atom_site_fract_y
_atom_site_fract_z
Si Si1 0.666140 0.929091 0.588003
Si Si2 0.196152 0.414093 0.500123
Si Si3 0.385636 0.010279 0.467366
Si Si4 0.736637 0.266662 0.749823
Si Si5 0.025930 0.506940 0.923875
Si Si6 0.874907 0.191101 0.065987
Si Si7 0.883159 0.799278 0.910943
O O1 0.720881 0.931652 0.801680
O O2 0.459183 0.955395 0.554659
O O3 0.666705 0.869351 0.518671
O O4 0.826559 0.964884 0.483438
O O5 0.364014 0.438453 0.372350
O O6 0.994648 0.440226 0.439661
O O7 0.177377 0.352288 0.485711
O O8 0.440872 0.017080 0.257753
O O9 0.159084 0.016275 0.451020
O O10 0.594714 0.301314 0.874056
O O11 0.628114 0.244453 0.569539
O O12 0.904174 0.303412 0.671056
O O13 0.827597 0.221864 0.878710
O O14 0.751600 0.212751 0.236996
#
# Coordination Sequence:
#
# PCOD8156794 Si02
#       7
#     4   4   4   4   4   4   4
#     4   9  21  39  61  86 125 165 202 260 323 378
#     4   9  21  39  61  86 124 163 206 255 327 372
#     4  10  20  37  59  92 121 164 206 257 304 395
#     4  12  24  44  68  98 129 171 228 274 330 395
#     4  10  20  37  60  89 127 162 209 255 315 385
#     4  11  24  43  68  95 133 173 221 277 333 390
#     4  11  24  43  67  96 131 172 218 282 330 387
#
# _framework density 21.54616
#
# number of rings (size 3 to 8) (size 9 to 14) (size 15 to 20)
#    0.000    1.714    2.857    0.857    2.000    6.857 
#    0.000    0.000    0.000    0.000    0.000    0.000 
#    0.000    0.000    0.000    0.000    0.000    0.000 
#
# Total GULP energy -346981.976419 kJ/mol
# GULP energy per Si atom -12392.213444 kJ/mol
# Density = 2.149712 g / cm^3
# Si number density = 21.546160 Si / 1000 Ang^3
#
#
#
# Elastic Constant Matrix: (Units=GPa)
#
#
# Indices 1 2 3 4 5 6 
#
# 1 151.4041 40.0440 15.3808 0.0000 0.0000 0.0000
# 2 40.0440 87.3822 9.6072 0.0000 0.0000 0.0000
# 3 15.3808 9.6072 40.5631 0.0000 0.0000 0.0000
# 4 0.0000 0.0000 0.0000 27.7030 0.0000 0.0000
# 5 0.0000 0.0000 0.0000 0.0000 36.7797 0.0000
# 6 0.0000 0.0000 0.0000 0.0000 0.0000 22.2356
#
#
#
# Elastic Compliance Matrix: (Units=1/GPa)
#
#
# Indices 1 2 3 4 5 6 
#
# 1 0.007692 -0.003290 -0.002137 0.000000 0.000000 0.000000
# 2 -0.003290 0.013157 -0.001869 0.000000 0.000000 0.000000
# 3 -0.002137 -0.001869 0.025906 0.000000 0.000000 0.000000
# 4 0.000000 0.000000 0.000000 0.036097 0.000000 0.000000
# 5 0.000000 0.000000 0.000000 0.000000 0.027189 0.000000
# 6 0.000000 0.000000 0.000000 0.000000 0.000000 0.044973
#
#
# Mechanical properties :
#
#
# Convention : Reuss Voigt Hill
#
# Bulk Modulus (GPa) = 31.09172 45.49037 38.29104
# Shear Modulus (GPa) = 27.72728 31.63147 29.67938
#
# Velocity S-wave (km/s) = 3.59120 3.83571 3.71547
# Velocity P-wave (km/s) = 5.62648 6.38559 6.01801
#
# Compressibility (1/GPa) = 0.03216291
#
# Stress axis : x y z
#
# Youngs Moduli (GPa) = 130.00280 76.00446 38.60101
#
# Poissons Ratio (x) = 0.25006 0.08251
# Poissons Ratio (y) = 0.42771 0.07213
# Poissons Ratio (z) = 0.27788 0.14203
#
# Static dielectric constant tensor:
#      x y z
#    x 4.984310 0.000000 0.000000 
#    y 0.000000 3.707130 0.000000 
#    z 0.000000 0.000000 3.812640 
# 
# 
# High freq. dielectric constant tensor:
#      x y z
#    x 1.855260 0.000000 0.000000 
#    y 0.000000 1.828370 0.000000 
#    z 0.000000 0.000000 1.848260 
# 
# From -- ./inp_files/2470.got.cif
#   From: 2010.03.12/outbox.cif.g09.slc.cpg/sg19_2_cif.got.tgz:2470.got - 2010.04.10 18:59:41.
