data_PCOD8156264
_publ_section_title
;
Structure prediction by ZEFSAII (Michael W. Deem and Ramdas Pophale) SiO2 
 PCOD8156264
Probable space group: P 21 21 2
;
_chemical_formula_sum "Si O2"
_cell_formula_units_Z 16
_cell_length_a 9.030303
_cell_length_b 8.136377
_cell_length_c 9.192915
_cell_angle_alpha 90.000000
_cell_angle_beta 90.000000
_cell_angle_gamma 90.000000
_cell_volume 675.439774
_symmetry_space_group_name_H-M "P 21 21 2"
_symmetry_group_IT_number 18
_symmetry_cell_setting 'orthorhombic'
loop_
_space_group_symop_operation_xyz
x,y,z
-x,-y,z
1/2+x,1/2-y,-z
1/2-x,1/2+y,-z
loop_
_atom_site_type_symbol
_atom_site_label
_atom_site_fract_x
_atom_site_fract_y
_atom_site_fract_z
Si Si1 0.175796 0.979790 0.035879
Si Si2 0.651838 0.733751 0.702744
Si Si3 0.322016 0.797668 0.792045
Si Si4 0.662038 0.528070 0.430232
O O1 0.215280 0.825614 0.142033
O O2 0.230733 0.141806 0.117205
O O3 0.274675 0.957614 0.890375
O O4 0.000000 0.000000 0.002886
O O5 0.489461 0.802687 0.737892
O O6 0.650800 0.567912 0.602562
O O7 0.739672 0.871906 0.614798
O O8 0.225899 0.807938 0.645508
O O9 0.500000 0.500000 0.366204
#
# Coordination Sequence:
#
# PCOD8156264 Si02
#       4
#     4   4   4   4
#     4  10  22  43  68 101 137 178 226 280 335 401
#     4  11  24  45  70  98 134 179 227 280 337 401
#     4  11  23  42  70 101 137 178 226 279 337 402
#     4  12  24  42  66  98 135 177 225 281 337 400
#
# _framework density 23.688272000000001
#
# number of rings (size 3 to 8) (size 9 to 14) (size 15 to 20)
#    0.000    1.000    0.000    8.250    0.000    4.000 
#    0.000    8.750    0.000    0.000    0.000    0.000 
#    0.000    0.000    0.000    0.000    0.000    0.000 
#
# Total GULP energy -198297.953079 kJ/mol
# GULP energy per Si atom -12393.622067 kJ/mol
# Density = 2.363436 g / cm^3
# Si number density = 23.688272 Si / 1000 Ang^3
#
#
#
# Elastic Constant Matrix: (Units=GPa)
#
#
# Indices 1 2 3 4 5 6 
#
# 1 120.8770 39.6771 53.8468 0.0000 0.0000 0.0000
# 2 39.6771 70.1512 21.6806 0.0000 0.0000 0.0000
# 3 53.8468 21.6806 108.2722 0.0000 0.0000 0.0000
# 4 0.0000 0.0000 0.0000 44.2711 0.0000 0.0000
# 5 0.0000 0.0000 0.0000 0.0000 36.0547 0.0000
# 6 0.0000 0.0000 0.0000 0.0000 0.0000 41.9726
#
#
#
# Elastic Compliance Matrix: (Units=1/GPa)
#
#
# Indices 1 2 3 4 5 6 
#
# 1 0.012283 -0.005393 -0.005029 0.000000 0.000000 0.000000
# 2 -0.005393 0.017563 -0.000835 0.000000 0.000000 0.000000
# 3 -0.005029 -0.000835 0.011904 0.000000 0.000000 0.000000
# 4 0.000000 0.000000 0.000000 0.022588 0.000000 0.000000
# 5 0.000000 0.000000 0.000000 0.000000 0.027736 0.000000
# 6 0.000000 0.000000 0.000000 0.000000 0.000000 0.023825
#
#
# Mechanical properties :
#
#
# Convention : Reuss Voigt Hill
#
# Bulk Modulus (GPa) = 51.98280 58.85660 55.41970
# Shear Modulus (GPa) = 34.52428 36.73274 35.62851
#
# Velocity S-wave (km/s) = 3.82179 3.94213 3.88242
# Velocity P-wave (km/s) = 6.43948 6.75431 6.59878
#
# Compressibility (1/GPa) = 0.01923713
#
# Stress axis : x y z
#
# Youngs Moduli (GPa) = 81.41080 56.93707 84.00430
#
# Poissons Ratio (x) = 0.30707 0.42245
# Poissons Ratio (y) = 0.43906 0.07012
# Poissons Ratio (z) = 0.40941 0.04753
#
# Static dielectric constant tensor:
#      x y z
#    x 4.089090 0.000000 0.000000 
#    y 0.000000 4.328860 0.000000 
#    z 0.000000 0.000000 4.578910 
# 
# 
# High freq. dielectric constant tensor:
#      x y z
#    x 1.920050 0.000000 0.000000 
#    y 0.000000 1.951670 0.000000 
#    z 0.000000 0.000000 1.964470 
# 
# From -- ./inp_files/2733.got.cif
#   From: 2010.03.12/outbox.cif.g09.slc.cpg/sg18_2_cif.got.tgz:2733.got - 2010.04.10 18:53:55.
