data_PCOD8156181
_publ_section_title
;
Structure prediction by ZEFSAII (Michael W. Deem and Ramdas Pophale) SiO2 
 PCOD8156181
Probable space group: P 21 21 2
;
_chemical_formula_sum "Si O2"
_cell_formula_units_Z 28
_cell_length_a 13.167727
_cell_length_b 20.873627
_cell_length_c 5.103707
_cell_angle_alpha 90.000000
_cell_angle_beta 90.000000
_cell_angle_gamma 90.000000
_cell_volume 1402.795831
_symmetry_space_group_name_H-M "P 21 21 2"
_symmetry_group_IT_number 18
_symmetry_cell_setting 'orthorhombic'
loop_
_space_group_symop_operation_xyz
x,y,z
-x,-y,z
1/2+x,1/2-y,-z
1/2-x,1/2+y,-z
loop_
_atom_site_type_symbol
_atom_site_label
_atom_site_fract_x
_atom_site_fract_y
_atom_site_fract_z
Si Si1 0.677954 0.559713 0.719596
Si Si2 0.820144 0.978684 0.765953
Si Si3 0.795209 0.864398 0.076018
Si Si4 0.040336 0.099494 0.466654
Si Si5 0.931842 0.773739 0.745276
Si Si6 0.149703 0.741796 0.867253
Si Si7 0.242086 0.801914 0.374458
O O1 0.722196 0.511519 0.498976
O O2 0.560029 0.574662 0.670418
O O3 0.744594 0.623839 0.705582
O O4 0.682399 0.532379 0.011050
O O5 0.932963 0.947946 0.710081
O O6 0.755816 0.915497 0.856677
O O7 0.859575 0.906283 0.282952
O O8 0.697869 0.828180 0.198699
O O9 0.870150 0.809154 0.972672
O O10 0.025314 0.173333 0.544185
O O11 0.857811 0.723167 0.603476
O O12 0.028011 0.735805 0.860825
O O13 0.189651 0.793512 0.657058
O O14 0.179466 0.762010 0.159882
#
# Coordination Sequence:
#
# PCOD8156181 Si02
#       7
#     4   4   4   4   4   4   4
#     4  12  24  36  56  85 125 156 190 237 296 355
#     4  11  25  36  54  85 118 163 195 232 291 358
#     4  10  22  39  60  88 122 154 197 243 290 354
#     4  11  21  35  58  86 123 152 191 239 296 358
#     4  10  22  38  63  91 120 153 199 246 296 357
#     4  11  22  40  62  88 120 158 194 245 301 346
#     4  11  23  39  59  91 121 158 193 245 299 350
#
# _framework density 19.960139999999999
#
# number of rings (size 3 to 8) (size 9 to 14) (size 15 to 20)
#    0.000    1.143    4.286    2.143    6.000    0.000 
#    0.000    0.000    0.000    0.857    3.714    0.000 
#    0.000    0.000    0.000    0.000    0.000    0.000 
#
# Total GULP energy -347070.937520 kJ/mol
# GULP energy per Si atom -12395.390626 kJ/mol
# Density = 1.991471 g / cm^3
# Si number density = 19.960140 Si / 1000 Ang^3
#
#
#
# Elastic Constant Matrix: (Units=GPa)
#
#
# Indices 1 2 3 4 5 6 
#
# 1 66.2319 29.7749 5.8991 0.0000 0.0000 0.0000
# 2 29.7749 95.0435 19.8473 0.0000 0.0000 0.0000
# 3 5.8991 19.8473 73.2708 0.0000 0.0000 0.0000
# 4 0.0000 0.0000 0.0000 39.4870 0.0000 0.0000
# 5 0.0000 0.0000 0.0000 0.0000 16.6473 0.0000
# 6 0.0000 0.0000 0.0000 0.0000 0.0000 21.0921
#
#
#
# Elastic Compliance Matrix: (Units=1/GPa)
#
#
# Indices 1 2 3 4 5 6 
#
# 1 0.017574 -0.005522 0.000081 0.000000 0.000000 0.000000
# 2 -0.005522 0.012888 -0.003046 0.000000 0.000000 0.000000
# 3 0.000081 -0.003046 0.014467 0.000000 0.000000 0.000000
# 4 0.000000 0.000000 0.000000 0.025325 0.000000 0.000000
# 5 0.000000 0.000000 0.000000 0.000000 0.060070 0.000000
# 6 0.000000 0.000000 0.000000 0.000000 0.000000 0.047411
#
#
# Mechanical properties :
#
#
# Convention : Reuss Voigt Hill
#
# Bulk Modulus (GPa) = 35.77470 38.39876 37.08673
# Shear Modulus (GPa) = 24.50656 27.38026 25.94341
#
# Velocity S-wave (km/s) = 3.50776 3.70773 3.60913
# Velocity P-wave (km/s) = 5.86241 6.13263 5.99904
#
# Compressibility (1/GPa) = 0.02795271
#
# Stress axis : x y z
#
# Youngs Moduli (GPa) = 56.90268 77.59348 69.12439
#
# Poissons Ratio (x) = 0.42850 -0.00560
# Poissons Ratio (y) = 0.31424 0.21058
# Poissons Ratio (z) = -0.00461 0.23638
#
# Static dielectric constant tensor:
#      x y z
#    x 3.341870 0.000000 0.000000 
#    y 0.000000 3.941870 0.000000 
#    z 0.000000 0.000000 3.765020 
# 
# 
# High freq. dielectric constant tensor:
#      x y z
#    x 1.727680 0.000000 0.000000 
#    y 0.000000 1.787770 0.000000 
#    z 0.000000 0.000000 1.791910 
# 
# From -- ./inp_files/1232.got.cif
#   From: 2010.03.12/outbox.cif.g09.slc.cpg/sg18_1_cif.got.tgz:1232.got - 2010.04.10 18:53:55.
