data_PCOD8156670
_publ_section_title
;
Structure prediction by ZEFSAII (Michael W. Deem and Ramdas Pophale) SiO2 
 PCOD8156670
Probable space group: P 21 21 21
;
_chemical_formula_sum "Si O2"
_cell_formula_units_Z 24
_cell_length_a 8.623521
_cell_length_b 28.521212
_cell_length_c 5.011605
_cell_angle_alpha 90.000000
_cell_angle_beta 90.000000
_cell_angle_gamma 90.000000
_cell_volume 1232.620641
_symmetry_space_group_name_H-M "P 21 21 21"
_symmetry_group_IT_number 19
_symmetry_cell_setting 'orthorhombic'
loop_
_space_group_symop_operation_xyz
x,y,z
1/2-x,-y,1/2+z
1/2+x,1/2-y,-z
-x,1/2+y,1/2-z
loop_
_atom_site_type_symbol
_atom_site_label
_atom_site_fract_x
_atom_site_fract_y
_atom_site_fract_z
Si Si1 0.470824 0.784140 0.791884
Si Si2 0.836799 0.516304 0.159524
Si Si3 0.320205 0.281766 0.210934
Si Si4 0.685974 0.887150 0.231868
Si Si5 0.169402 0.479523 0.139972
Si Si6 0.984032 0.610372 0.266392
O O1 0.321063 0.753209 0.743142
O O2 0.605367 0.774441 0.578077
O O3 0.413670 0.838054 0.783407
O O4 0.544155 0.771797 0.077122
O O5 0.789507 0.490205 0.430283
O O6 0.851959 0.571836 0.214305
O O7 0.996353 0.493311 0.056937
O O8 0.250812 0.334238 0.243245
O O9 0.821965 0.923902 0.298633
O O10 0.540601 0.894369 0.429774
O O11 0.628824 0.897912 0.932573
O O12 0.214576 0.509536 0.398846
#
# Coordination Sequence:
#
# PCOD8156670 Si02
#       6
#     4   4   4   4   4   4
#     4  10  21  39  62  85 113 152 186 238 284 339
#     4  12  24  38  55  86 122 146 185 240 289 333
#     4  10  21  38  61  85 116 144 191 235 284 339
#     4  10  19  37  61  84 104 152 199 230 266 340
#     4  12  21  38  63  81 110 152 196 231 267 341
#     4  10  20  38  60  79 115 156 187 220 292 348
#
# _framework density 19.470711000000001
#
# number of rings (size 3 to 8) (size 9 to 14) (size 15 to 20)
#    0.000    1.333    3.333    3.000    0.000    0.000 
#    6.000    0.000    0.000    0.000    0.000    0.000 
#    0.000    0.000    0.000    0.000    0.000    0.000 
#
# Total GULP energy -297710.846566 kJ/mol
# GULP energy per Si atom -12404.618607 kJ/mol
# Density = 1.942639 g / cm^3
# Si number density = 19.470711 Si / 1000 Ang^3
#
#
#
# Elastic Constant Matrix: (Units=GPa)
#
#
# Indices 1 2 3 4 5 6 
#
# 1 61.4899 50.1244 -1.2748 0.0000 0.0000 0.0000
# 2 50.1244 107.6248 8.2407 0.0000 0.0000 0.0000
# 3 -1.2748 8.2407 73.7313 0.0000 0.0000 0.0000
# 4 0.0000 0.0000 0.0000 26.5916 0.0000 0.0000
# 5 0.0000 0.0000 0.0000 0.0000 17.4843 0.0000
# 6 0.0000 0.0000 0.0000 0.0000 0.0000 38.2986
#
#
#
# Elastic Compliance Matrix: (Units=1/GPa)
#
#
# Indices 1 2 3 4 5 6 
#
# 1 0.026464 -0.012467 0.001851 0.000000 0.000000 0.000000
# 2 -0.012467 0.015245 -0.001919 0.000000 0.000000 0.000000
# 3 0.001851 -0.001919 0.013809 0.000000 0.000000 0.000000
# 4 0.000000 0.000000 0.000000 0.037606 0.000000 0.000000
# 5 0.000000 0.000000 0.000000 0.000000 0.057194 0.000000
# 6 0.000000 0.000000 0.000000 0.000000 0.000000 0.026111
#
#
# Mechanical properties :
#
#
# Convention : Reuss Voigt Hill
#
# Bulk Modulus (GPa) = 32.84370 39.66960 36.25665
# Shear Modulus (GPa) = 23.62415 28.85860 26.24138
#
# Velocity S-wave (km/s) = 3.48705 3.85405 3.67513
# Velocity P-wave (km/s) = 5.75479 6.34217 6.05561
#
# Compressibility (1/GPa) = 0.03044724
#
# Stress axis : x y z
#
# Youngs Moduli (GPa) = 37.78770 65.59675 72.41499
#
# Poissons Ratio (x) = 0.81778 -0.13403
# Poissons Ratio (y) = 0.47109 0.13899
# Poissons Ratio (z) = -0.06994 0.12591
#
# Static dielectric constant tensor:
#      x y z
#    x 3.097400 0.000000 0.000000 
#    y 0.000000 3.817420 0.000000 
#    z 0.000000 0.000000 3.772650 
# 
# 
# High freq. dielectric constant tensor:
#      x y z
#    x 1.721340 0.000000 0.000000 
#    y 0.000000 1.772010 0.000000 
#    z 0.000000 0.000000 1.781770 
# 
# From -- ./inp_files/500.got.cif
#   From: 2010.03.12/outbox.cif.g09.slc.cpg/sg19_1_cif.got.tgz:500.got - 2010.04.10 18:59:41.
