data_PCOD8156421
_publ_section_title
;
Structure prediction by ZEFSAII (Michael W. Deem and Ramdas Pophale) SiO2 
 PCOD8156421
Probable space group: P 21 21 2
;
_chemical_formula_sum "Si O2"
_cell_formula_units_Z 18
_cell_length_a 8.182001
_cell_length_b 18.986453
_cell_length_c 5.066645
_cell_angle_alpha 90.000000
_cell_angle_beta 90.000000
_cell_angle_gamma 90.000000
_cell_volume 787.089000
_symmetry_space_group_name_H-M "P 21 21 2"
_symmetry_group_IT_number 18
_symmetry_cell_setting 'orthorhombic'
loop_
_space_group_symop_operation_xyz
x,y,z
-x,-y,z
1/2+x,1/2-y,-z
1/2-x,1/2+y,-z
loop_
_atom_site_type_symbol
_atom_site_label
_atom_site_fract_x
_atom_site_fract_y
_atom_site_fract_z
Si Si1 0.689424 0.127486 0.209264
Si Si2 0.000000 0.500000 0.020892
Si Si3 0.055464 0.135477 0.287228
Si Si4 0.743819 0.894552 0.774719
Si Si5 0.054046 0.300104 0.287152
O O1 0.658198 0.159572 0.494643
O O2 0.879583 0.106250 0.198651
O O3 0.580934 0.058254 0.166644
O O4 0.643323 0.185730 0.990648
O O5 0.134950 0.534697 0.212963
O O6 0.116842 0.096755 0.553152
O O7 0.046376 0.218094 0.345710
O O8 0.182442 0.117893 0.060923
O O9 0.631602 0.827464 0.705513
#
# Coordination Sequence:
#
# PCOD8156421 Si02
#       5
#     4   2   4   4   4
#     4  11  25  42  69  94 135 174 212 270 318 391
#     4  10  26  50  62  92 132 184 222 250 332 386
#     4  12  23  41  68 104 125 163 221 274 324 374
#     4  11  25  42  69  94 135 174 212 269 317 392
#     4  11  22  42  67  99 133 169 206 264 339 390
#
# _framework density 22.869078999999999
#
# number of rings (size 3 to 8) (size 9 to 14) (size 15 to 20)
#    0.000    0.889    0.000    8.000    0.000    8.889 
#    0.000    4.444    0.000    0.000    0.000    0.000 
#    0.000    0.000    0.000    0.000    0.000    0.000 
#
# Total GULP energy -223345.740208 kJ/mol
# GULP energy per Si atom -12408.096678 kJ/mol
# Density = 2.281703 g / cm^3
# Si number density = 22.869079 Si / 1000 Ang^3
#
#
#
# Elastic Constant Matrix: (Units=GPa)
#
#
# Indices 1 2 3 4 5 6 
#
# 1 116.6103 29.4835 20.6790 0.0000 0.0000 0.0000
# 2 29.4835 98.2502 24.4745 0.0000 0.0000 0.0000
# 3 20.6790 24.4745 89.4347 0.0000 0.0000 0.0000
# 4 0.0000 0.0000 0.0000 17.2026 0.0000 0.0000
# 5 0.0000 0.0000 0.0000 0.0000 36.9544 0.0000
# 6 0.0000 0.0000 0.0000 0.0000 0.0000 27.5829
#
#
#
# Elastic Compliance Matrix: (Units=1/GPa)
#
#
# Indices 1 2 3 4 5 6 
#
# 1 0.009467 -0.002464 -0.001515 0.000000 0.000000 0.000000
# 2 -0.002464 0.011564 -0.002595 0.000000 0.000000 0.000000
# 3 -0.001515 -0.002595 0.012242 0.000000 0.000000 0.000000
# 4 0.000000 0.000000 0.000000 0.058131 0.000000 0.000000
# 5 0.000000 0.000000 0.000000 0.000000 0.027060 0.000000
# 6 0.000000 0.000000 0.000000 0.000000 0.000000 0.036254
#
#
# Mechanical properties :
#
#
# Convention : Reuss Voigt Hill
#
# Bulk Modulus (GPa) = 49.68693 50.39660 50.04176
# Shear Modulus (GPa) = 28.64124 31.65850 30.14987
#
# Velocity S-wave (km/s) = 3.54277 3.72470 3.63487
# Velocity P-wave (km/s) = 6.20554 6.37046 6.28854
#
# Compressibility (1/GPa) = 0.02012602
#
# Stress axis : x y z
#
# Youngs Moduli (GPa) = 105.62912 86.47684 81.68797
#
# Poissons Ratio (x) = 0.21304 0.12374
# Poissons Ratio (y) = 0.26023 0.21197
# Poissons Ratio (z) = 0.16001 0.22440
#
# Static dielectric constant tensor:
#      x y z
#    x 4.339300 0.000000 0.000000 
#    y 0.000000 4.167860 0.000000 
#    z 0.000000 0.000000 4.095140 
# 
# 
# High freq. dielectric constant tensor:
#      x y z
#    x 1.917880 0.000000 0.000000 
#    y 0.000000 1.897280 0.000000 
#    z 0.000000 0.000000 1.912810 
# 
# From -- ./inp_files/524.got.cif
#   From: 2010.03.12/outbox.cif.g09.slc.cpg/sg18_1_cif.got.tgz:524.got - 2010.04.10 18:53:55.
