data_PCOD8156968
_publ_section_title
;
Structure prediction by ZEFSAII (Michael W. Deem and Ramdas Pophale) SiO2 
 PCOD8156968
Probable space group: P 21 21 21
;
_chemical_formula_sum "Si O2"
_cell_formula_units_Z 28
_cell_length_a 5.019236
_cell_length_b 12.146659
_cell_length_c 19.115647
_cell_angle_alpha 90.000000
_cell_angle_beta 90.000000
_cell_angle_gamma 90.000000
_cell_volume 1165.422659
_symmetry_space_group_name_H-M "P 21 21 21"
_symmetry_group_IT_number 19
_symmetry_cell_setting 'orthorhombic'
loop_
_space_group_symop_operation_xyz
x,y,z
1/2-x,-y,1/2+z
1/2+x,1/2-y,-z
-x,1/2+y,1/2-z
loop_
_atom_site_type_symbol
_atom_site_label
_atom_site_fract_x
_atom_site_fract_y
_atom_site_fract_z
Si Si1 0.035831 0.623755 0.954467
Si Si2 0.604313 0.308662 0.979908
Si Si3 0.033015 0.869399 0.951079
Si Si4 0.505388 0.601188 0.735933
Si Si5 0.848422 0.575122 0.612980
Si Si6 0.498396 0.490943 0.311444
Si Si7 0.293571 0.222993 0.168664
O O1 0.008545 0.746109 0.920570
O O2 0.017618 0.533331 0.893676
O O3 0.323312 0.607204 0.988074
O O4 0.821474 0.610994 0.015052
O O5 0.631258 0.328369 0.897228
O O6 0.292662 0.294234 0.998029
O O7 0.714758 0.405713 0.030221
O O8 0.001081 0.956615 0.886653
O O9 0.573254 0.562679 0.656232
O O10 0.775181 0.589519 0.780338
O O11 0.407602 0.728403 0.727616
O O12 0.277709 0.528746 0.771553
O O13 0.014715 0.676446 0.645662
O O14 0.553131 0.620007 0.298086
#
# Coordination Sequence:
#
# PCOD8156968 Si02
#       7
#     4   4   4   4   4   4   4
#     4  10  23  48  67 110 136 192 235 293 357 426
#     4  10  21  37  70 100 138 168 215 299 359 410
#     4  10  23  42  77 101 146 174 243 301 355 423
#     4  12  27  48  66 104 143 195 240 286 355 442
#     4  11  24  45  72 111 140 186 235 303 368 428
#     4  12  28  46  74  98 147 197 239 296 352 437
#     4  11  26  48  70 108 142 184 249 298 368 432
#
# _framework density 24.025621000000001
#
# number of rings (size 3 to 8) (size 9 to 14) (size 15 to 20)
#    0.000    1.143    2.857    1.714    4.000    5.714 
#    2.571    0.000    0.000    0.000    0.000    0.000 
#    0.000    0.000    0.000    0.000    0.000    0.000 
#
# Total GULP energy -347004.941040 kJ/mol
# GULP energy per Si atom -12393.033609 kJ/mol
# Density = 2.397094 g / cm^3
# Si number density = 24.025621 Si / 1000 Ang^3
#
#
#
# Elastic Constant Matrix: (Units=GPa)
#
#
# Indices 1 2 3 4 5 6 
#
# 1 79.0722 8.7990 4.0474 0.0000 0.0000 0.0000
# 2 8.7990 105.4225 17.7729 0.0000 0.0000 0.0000
# 3 4.0474 17.7729 45.9811 0.0000 0.0000 0.0000
# 4 0.0000 0.0000 0.0000 26.7928 0.0000 0.0000
# 5 0.0000 0.0000 0.0000 0.0000 26.0337 0.0000
# 6 0.0000 0.0000 0.0000 0.0000 0.0000 25.2843
#
#
#
# Elastic Compliance Matrix: (Units=1/GPa)
#
#
# Indices 1 2 3 4 5 6 
#
# 1 0.012790 -0.000939 -0.000763 0.000000 0.000000 0.000000
# 2 -0.000939 0.010216 -0.003866 0.000000 0.000000 0.000000
# 3 -0.000763 -0.003866 0.023310 0.000000 0.000000 0.000000
# 4 0.000000 0.000000 0.000000 0.037323 0.000000 0.000000
# 5 0.000000 0.000000 0.000000 0.000000 0.038412 0.000000
# 6 0.000000 0.000000 0.000000 0.000000 0.000000 0.039550
#
#
# Mechanical properties :
#
#
# Convention : Reuss Voigt Hill
#
# Bulk Modulus (GPa) = 28.42540 32.41272 30.41906
# Shear Modulus (GPa) = 27.10567 28.94592 28.02580
#
# Velocity S-wave (km/s) = 3.36251 3.47478 3.41911
# Velocity P-wave (km/s) = 5.18963 5.44233 5.31748
#
# Compressibility (1/GPa) = 0.03517981
#
# Stress axis : x y z
#
# Youngs Moduli (GPa) = 78.18488 97.88795 42.90094
#
# Poissons Ratio (x) = 0.09191 0.03273
# Poissons Ratio (y) = 0.07341 0.16586
# Poissons Ratio (z) = 0.05965 0.37843
#
# Static dielectric constant tensor:
#      x y z
#    x 4.356190 0.000000 0.000000 
#    y 0.000000 4.526360 0.000000 
#    z 0.000000 0.000000 4.346220 
# 
# 
# High freq. dielectric constant tensor:
#      x y z
#    x 1.959480 0.000000 0.000000 
#    y 0.000000 1.953350 0.000000 
#    z 0.000000 0.000000 1.941790 
# 
# From -- ./inp_files/6440.got.cif
#   From: 2010.03.12/outbox.cif.g09.slc.cpg/sg19_4_cif.got.tgz:6440.got - 2010.04.10 18:59:41.
