data_PCOD8156667
_publ_section_title
;
Structure prediction by ZEFSAII (Michael W. Deem and Ramdas Pophale) SiO2 
 PCOD8156667
Probable space group: P 21 21 21
;
_chemical_formula_sum "Si O2"
_cell_formula_units_Z 32
_cell_length_a 7.884873
_cell_length_b 22.466198
_cell_length_c 8.474989
_cell_angle_alpha 90.000000
_cell_angle_beta 90.000000
_cell_angle_gamma 90.000000
_cell_volume 1501.285977
_symmetry_space_group_name_H-M "P 21 21 21"
_symmetry_group_IT_number 19
_symmetry_cell_setting 'orthorhombic'
loop_
_space_group_symop_operation_xyz
x,y,z
1/2-x,-y,1/2+z
1/2+x,1/2-y,-z
-x,1/2+y,1/2-z
loop_
_atom_site_type_symbol
_atom_site_label
_atom_site_fract_x
_atom_site_fract_y
_atom_site_fract_z
Si Si1 0.850858 0.781717 0.207169
Si Si2 0.618757 0.526521 0.693113
Si Si3 0.300631 0.599992 0.598788
Si Si4 0.063488 0.319727 0.859745
Si Si5 0.066074 0.096440 0.848801
Si Si6 0.293185 0.788780 0.499063
Si Si7 0.304230 0.924611 0.027289
Si Si8 0.383814 0.194046 0.455032
O O1 0.783312 0.841619 0.290022
O O2 0.878857 0.729388 0.334572
O O3 0.713292 0.755477 0.084083
O O4 0.027284 0.796667 0.122896
O O5 0.432554 0.552832 0.667177
O O6 0.662690 0.534489 0.879821
O O7 0.620056 0.459255 0.624709
O O8 0.767966 0.559892 0.593383
O O9 0.358476 0.618184 0.421962
O O10 0.113203 0.570673 0.587724
O O11 0.900409 0.307825 0.972868
O O12 0.022164 0.323163 0.676478
O O13 0.201695 0.267800 0.882645
O O14 0.053237 0.092962 0.656995
O O15 0.090516 0.162481 0.914939
O O16 0.237107 0.862505 0.962475
#
# Coordination Sequence:
#
# PCOD8156667 Si02
#       8
#     4   4   4   4   4   4   4   4
#     4  10  23  36  62  97 137 174 216 272 347 409
#     4  10  23  45  69  89 132 177 228 283 336 387
#     4  11  21  44  66  99 128 176 223 283 331 413
#     4  10  21  33  64  92 141 169 225 263 337 406
#     4  10  22  40  70  92 125 169 228 275 332 396
#     4  10  19  37  58  95 127 181 212 267 331 409
#     4  10  24  43  70  90 134 179 228 282 336 398
#     4  11  23  38  61 100 138 175 216 279 344 402
#
# _framework density 21.315061
#
# number of rings (size 3 to 8) (size 9 to 14) (size 15 to 20)
#    0.750    1.000    2.500    2.250    7.000    1.000 
#    2.250    0.000    2.750    0.000    0.000    0.000 
#    0.000    0.000    0.000    0.000    0.000    0.000 
#
# Total GULP energy -396531.671298 kJ/mol
# GULP energy per Si atom -12391.614728 kJ/mol
# Density = 2.126655 g / cm^3
# Si number density = 21.315061 Si / 1000 Ang^3
#
#
#
# Elastic Constant Matrix: (Units=GPa)
#
#
# Indices 1 2 3 4 5 6 
#
# 1 93.6939 9.4520 4.4104 0.0000 0.0000 0.0000
# 2 9.4520 41.8507 13.8937 0.0000 0.0000 0.0000
# 3 4.4104 13.8937 36.7309 0.0000 0.0000 0.0000
# 4 0.0000 0.0000 0.0000 40.2131 0.0000 0.0000
# 5 0.0000 0.0000 0.0000 0.0000 31.4265 0.0000
# 6 0.0000 0.0000 0.0000 0.0000 0.0000 22.2426
#
#
#
# Elastic Compliance Matrix: (Units=1/GPa)
#
#
# Indices 1 2 3 4 5 6 
#
# 1 0.010928 -0.002324 -0.000433 0.000000 0.000000 0.000000
# 2 -0.002324 0.027820 -0.010244 0.000000 0.000000 0.000000
# 3 -0.000433 -0.010244 0.031152 0.000000 0.000000 0.000000
# 4 0.000000 0.000000 0.000000 0.024867 0.000000 0.000000
# 5 0.000000 0.000000 0.000000 0.000000 0.031820 0.000000
# 6 0.000000 0.000000 0.000000 0.000000 0.000000 0.044959
#
#
# Mechanical properties :
#
#
# Convention : Reuss Voigt Hill
#
# Bulk Modulus (GPa) = 22.78043 25.30974 24.04509
# Shear Modulus (GPa) = 23.56470 28.41108 25.98789
#
# Velocity S-wave (km/s) = 3.32858 3.65487 3.49553
# Velocity P-wave (km/s) = 5.04809 5.45074 5.25328
#
# Compressibility (1/GPa) = 0.04389733
#
# Stress axis : x y z
#
# Youngs Moduli (GPa) = 91.50876 35.94506 32.10076
#
# Poissons Ratio (x) = 0.08355 0.01390
# Poissons Ratio (y) = 0.21270 0.32884
# Poissons Ratio (z) = 0.03962 0.36822
#
# Static dielectric constant tensor:
#      x y z
#    x 3.766770 0.000000 0.000000 
#    y 0.000000 3.591220 0.000000 
#    z 0.000000 0.000000 3.799980 
# 
# 
# High freq. dielectric constant tensor:
#      x y z
#    x 1.827990 0.000000 0.000000 
#    y 0.000000 1.816390 0.000000 
#    z 0.000000 0.000000 1.831210 
# 
# From -- ./inp_files/3250.got.cif
#   From: 2010.03.12/outbox.cif.g09.slc.cpg/sg19_2_cif.got.tgz:3250.got - 2010.04.10 18:59:41.
