data_PCOD8156895
_publ_section_title
;
Structure prediction by ZEFSAII (Michael W. Deem and Ramdas Pophale) SiO2 
 PCOD8156895
Probable space group: P 21 21 21
;
_chemical_formula_sum "Si O2"
_cell_formula_units_Z 32
_cell_length_a 16.807377
_cell_length_b 15.811692
_cell_length_c 5.342431
_cell_angle_alpha 90.000000
_cell_angle_beta 90.000000
_cell_angle_gamma 90.000000
_cell_volume 1419.767431
_symmetry_space_group_name_H-M "P 21 21 21"
_symmetry_group_IT_number 19
_symmetry_cell_setting 'orthorhombic'
loop_
_space_group_symop_operation_xyz
x,y,z
1/2-x,-y,1/2+z
1/2+x,1/2-y,-z
-x,1/2+y,1/2-z
loop_
_atom_site_type_symbol
_atom_site_label
_atom_site_fract_x
_atom_site_fract_y
_atom_site_fract_z
Si Si1 0.467083 0.710137 0.225828
Si Si2 0.372171 0.970237 0.645177
Si Si3 0.040482 0.550339 0.182934
Si Si4 0.250893 0.720586 0.704260
Si Si5 0.768820 0.399686 0.556583
Si Si6 0.163448 0.173739 0.821634
Si Si7 0.089651 0.369214 0.249358
Si Si8 0.916426 0.148576 0.818103
O O1 0.401046 0.780758 0.145093
O O2 0.443387 0.666572 0.487357
O O3 0.550489 0.756936 0.270806
O O4 0.470216 0.648494 0.984717
O O5 0.448436 0.983544 0.823306
O O6 0.391528 0.881855 0.507214
O O7 0.355390 0.055321 0.479000
O O8 0.285577 0.956554 0.765886
O O9 0.097583 0.469912 0.221590
O O10 0.054496 0.613736 0.413985
O O11 0.058253 0.589446 0.912807
O O12 0.280949 0.753970 0.438275
O O13 0.324222 0.668581 0.825018
O O14 0.178773 0.655613 0.671561
O O15 0.222636 0.801813 0.863184
O O16 0.720094 0.395535 0.299869
#
# Coordination Sequence:
#
# PCOD8156895 Si02
#       8
#     4   4   4   4   4   4   4   4
#     4  11  22  44  71  93 138 176 221 276 341 404
#     4  11  23  38  62 100 137 179 217 276 360 408
#     4  12  28  45  69 100 141 185 225 285 342 414
#     4  10  26  41  69  97 126 181 233 280 336 398
#     4  11  21  39  64  99 136 171 225 286 342 417
#     4  10  20  41  65  94 133 170 216 277 342 407
#     4  11  25  46  70 100 134 181 228 282 337 400
#     4  12  27  46  70 101 137 183 229 278 344 408
#
# _framework density 22.538905
#
# number of rings (size 3 to 8) (size 9 to 14) (size 15 to 20)
#    0.000    1.000    3.750    2.250    5.250    2.000 
#    0.000    0.000    0.000    0.000    0.000    0.000 
#    0.000    0.000    0.000    0.000    0.000    0.000 
#
# Total GULP energy -396538.733497 kJ/mol
# GULP energy per Si atom -12391.835422 kJ/mol
# Density = 2.248761 g / cm^3
# Si number density = 22.538905 Si / 1000 Ang^3
#
#
#
# Elastic Constant Matrix: (Units=GPa)
#
#
# Indices 1 2 3 4 5 6 
#
# 1 32.4653 10.3897 -18.1591 0.0000 0.0000 0.0000
# 2 10.3897 64.4806 1.3230 0.0000 0.0000 0.0000
# 3 -18.1591 1.3230 74.5697 0.0000 0.0000 0.0000
# 4 0.0000 0.0000 0.0000 23.3717 0.0000 0.0000
# 5 0.0000 0.0000 0.0000 0.0000 15.1778 0.0000
# 6 0.0000 0.0000 0.0000 0.0000 0.0000 33.3096
#
#
#
# Elastic Compliance Matrix: (Units=1/GPa)
#
#
# Indices 1 2 3 4 5 6 
#
# 1 0.038076 -0.006328 0.009385 0.000000 0.000000 0.000000
# 2 -0.006328 0.016566 -0.001835 0.000000 0.000000 0.000000
# 3 0.009385 -0.001835 0.015728 0.000000 0.000000 0.000000
# 4 0.000000 0.000000 0.000000 0.042787 0.000000 0.000000
# 5 0.000000 0.000000 0.000000 0.000000 0.065886 0.000000
# 6 0.000000 0.000000 0.000000 0.000000 0.000000 0.030021
#
#
# Mechanical properties :
#
#
# Convention : Reuss Voigt Hill
#
# Bulk Modulus (GPa) = 13.73361 17.62477 15.67919
# Shear Modulus (GPa) = 21.65518 26.23595 23.94557
#
# Velocity S-wave (km/s) = 3.10303 3.41549 3.26300
# Velocity P-wave (km/s) = 4.35257 4.83640 4.60085
#
# Compressibility (1/GPa) = 0.07281409
#
# Stress axis : x y z
#
# Youngs Moduli (GPa) = 26.26306 60.36539 63.58032
#
# Poissons Ratio (x) = 0.38198 -0.59667
# Poissons Ratio (y) = 0.16619 0.11666
# Poissons Ratio (z) = -0.24647 0.11076
#
# Static dielectric constant tensor:
#      x y z
#    x 3.965670 0.000000 0.000000 
#    y 0.000000 4.034620 0.000000 
#    z 0.000000 0.000000 4.043720 
# 
# 
# High freq. dielectric constant tensor:
#      x y z
#    x 1.881030 0.000000 0.000000 
#    y 0.000000 1.892550 0.000000 
#    z 0.000000 0.000000 1.886140 
# 
# From -- ./inp_files/1836.got.cif
#   From: 2010.03.12/outbox.cif.g09.slc.cpg/sg19_1_cif.got.tgz:1836.got - 2010.04.10 18:59:41.
