data_PCOD8156287
_publ_section_title
;
Structure prediction by ZEFSAII (Michael W. Deem and Ramdas Pophale) SiO2 
 PCOD8156287
Probable space group: P 21 21 2
;
_chemical_formula_sum "Si O2"
_cell_formula_units_Z 22
_cell_length_a 14.967453
_cell_length_b 12.573279
_cell_length_c 5.169498
_cell_angle_alpha 90.000000
_cell_angle_beta 90.000000
_cell_angle_gamma 90.000000
_cell_volume 972.847635
_symmetry_space_group_name_H-M "P 21 21 2"
_symmetry_group_IT_number 18
_symmetry_cell_setting 'orthorhombic'
loop_
_space_group_symop_operation_xyz
x,y,z
-x,-y,z
1/2+x,1/2-y,-z
1/2-x,1/2+y,-z
loop_
_atom_site_type_symbol
_atom_site_label
_atom_site_fract_x
_atom_site_fract_y
_atom_site_fract_z
Si Si1 0.337969 0.050338 0.288462
Si Si2 0.499420 0.305195 0.099575
Si Si3 0.093353 0.338959 0.517612
Si Si4 0.430518 0.131907 0.786120
Si Si5 0.500000 0.500000 0.409398
Si Si6 0.857657 0.870586 0.270313
O O1 0.365311 0.118933 0.540843
O O2 0.237467 0.078606 0.213488
O O3 0.342620 0.925261 0.352992
O O4 0.398853 0.067117 0.036546
O O5 0.517439 0.206694 0.291005
O O6 0.454081 0.406311 0.238366
O O7 0.436662 0.258552 0.868975
O O8 0.595766 0.347040 0.002539
O O9 0.154163 0.242236 0.416706
O O10 0.033605 0.398471 0.294140
O O11 0.420061 0.547581 0.576608
#
# Coordination Sequence:
#
# PCOD8156287 Si02
#       6
#     4   4   4   4   2   4
#     4  12  27  43  74 110 143 184 249 300 362 422
#     4  10  22  46  71 101 144 188 248 283 364 438
#     4  10  24  45  72 102 148 190 238 302 357 440
#     4  11  25  43  72 106 139 187 231 295 366 431
#     4  10  22  46  74  96 146 206 230 292 368 432
#     4  10  25  46  68 109 148 193 245 304 358 435
#
# _framework density 22.614025999999999
#
# number of rings (size 3 to 8) (size 9 to 14) (size 15 to 20)
#    0.000    1.455    1.818    1.091   12.727    1.455 
#    3.273    0.000    0.000    0.000    0.000    0.000 
#    0.000    0.000    0.000    0.000    0.000    0.000 
#
# Total GULP energy -272692.756208 kJ/mol
# GULP energy per Si atom -12395.125282 kJ/mol
# Density = 2.256256 g / cm^3
# Si number density = 22.614026 Si / 1000 Ang^3
#
#
#
# Elastic Constant Matrix: (Units=GPa)
#
#
# Indices 1 2 3 4 5 6 
#
# 1 82.5164 62.4148 27.8783 0.0000 0.0000 0.0000
# 2 62.4148 131.3651 44.3908 0.0000 0.0000 0.0000
# 3 27.8783 44.3908 115.6321 0.0000 0.0000 0.0000
# 4 0.0000 0.0000 0.0000 28.3644 0.0000 0.0000
# 5 0.0000 0.0000 0.0000 0.0000 26.2280 0.0000
# 6 0.0000 0.0000 0.0000 0.0000 0.0000 37.0755
#
#
#
# Elastic Compliance Matrix: (Units=1/GPa)
#
#
# Indices 1 2 3 4 5 6 
#
# 1 0.019083 -0.008632 -0.001287 0.000000 0.000000 0.000000
# 2 -0.008632 0.012651 -0.002776 0.000000 0.000000 0.000000
# 3 -0.001287 -0.002776 0.010024 0.000000 0.000000 0.000000
# 4 0.000000 0.000000 0.000000 0.035255 0.000000 0.000000
# 5 0.000000 0.000000 0.000000 0.000000 0.038127 0.000000
# 6 0.000000 0.000000 0.000000 0.000000 0.000000 0.026972
#
#
# Mechanical properties :
#
#
# Convention : Reuss Voigt Hill
#
# Bulk Modulus (GPa) = 61.09090 66.54235 63.81663
# Shear Modulus (GPa) = 28.90873 31.32224 30.11549
#
# Velocity S-wave (km/s) = 3.57929 3.72570 3.65323
# Velocity P-wave (km/s) = 6.64492 6.92798 6.78793
#
# Compressibility (1/GPa) = 0.01636905
#
# Stress axis : x y z
#
# Youngs Moduli (GPa) = 52.40387 79.04205 99.76021
#
# Poissons Ratio (x) = 0.68227 0.12839
# Poissons Ratio (y) = 0.45233 0.27692
# Poissons Ratio (z) = 0.06745 0.21941
#
# Static dielectric constant tensor:
#      x y z
#    x 3.610150 0.000000 0.000000 
#    y 0.000000 4.217390 0.000000 
#    z 0.000000 0.000000 4.375190 
# 
# 
# High freq. dielectric constant tensor:
#      x y z
#    x 1.846610 0.000000 0.000000 
#    y 0.000000 1.907040 0.000000 
#    z 0.000000 0.000000 1.911910 
# 
# From -- ./inp_files/1462.got.cif
#   From: 2010.03.12/outbox.cif.g09.slc.cpg/sg18_1_cif.got.tgz:1462.got - 2010.04.10 18:53:55.
