data_PCOD8156970
_publ_section_title
;
Structure prediction by ZEFSAII (Michael W. Deem and Ramdas Pophale) SiO2 
 PCOD8156970
Probable space group: P 21 21 21
;
_chemical_formula_sum "Si O2"
_cell_formula_units_Z 28
_cell_length_a 5.587688
_cell_length_b 17.412512
_cell_length_c 13.269161
_cell_angle_alpha 90.000000
_cell_angle_beta 90.000000
_cell_angle_gamma 90.000000
_cell_volume 1291.032100
_symmetry_space_group_name_H-M "P 21 21 21"
_symmetry_group_IT_number 19
_symmetry_cell_setting 'orthorhombic'
loop_
_space_group_symop_operation_xyz
x,y,z
1/2-x,-y,1/2+z
1/2+x,1/2-y,-z
-x,1/2+y,1/2-z
loop_
_atom_site_type_symbol
_atom_site_label
_atom_site_fract_x
_atom_site_fract_y
_atom_site_fract_z
Si Si1 0.877123 0.353431 0.728177
Si Si2 0.772665 0.897817 0.388744
Si Si3 0.921909 0.501688 0.247254
Si Si4 0.230593 0.604040 0.384502
Si Si5 0.621805 0.359735 0.273298
Si Si6 0.998695 0.751738 0.319785
Si Si7 0.992389 0.749021 0.938078
O O1 0.732762 0.429855 0.698682
O O2 0.709505 0.278909 0.746369
O O3 0.033094 0.325879 0.632379
O O4 0.021967 0.374547 0.829557
O O5 0.739868 0.925824 0.502100
O O6 0.535837 0.884774 0.322695
O O7 0.909834 0.817120 0.395200
O O8 0.933746 0.964405 0.343314
O O9 0.768779 0.435859 0.303461
O O10 0.107830 0.534325 0.327076
O O11 0.072784 0.680558 0.388425
O O12 0.787320 0.286415 0.246615
O O13 0.479619 0.329502 0.371307
O O14 0.241036 0.754755 0.000875
#
# Coordination Sequence:
#
# PCOD8156970 Si02
#       7
#     4   4   4   4   4   4   4
#     4  11  23  49  67 103 149 184 245 310 355 451
#     4  11  24  43  72 104 139 191 242 301 380 433
#     4  10  26  46  68 100 154 190 236 310 366 446
#     4  11  24  43  72 104 139 191 242 301 380 433
#     4  11  23  49  67 103 149 184 245 310 355 451
#     4  10  21  37  74  98 142 180 233 311 358 430
#     4  12  27  47  80 112 142 204 255 307 380 436
#
# _framework density 21.688072999999999
#
# number of rings (size 3 to 8) (size 9 to 14) (size 15 to 20)
#    0.000    1.143    2.857    1.714    8.000    3.429 
#   10.286    0.000    0.000    0.000    0.000    0.000 
#    0.000    0.000    0.000    0.000    0.000    0.000 
#
# Total GULP energy -347092.182373 kJ/mol
# GULP energy per Si atom -12396.149370 kJ/mol
# Density = 2.163871 g / cm^3
# Si number density = 21.688073 Si / 1000 Ang^3
#
#
#
# Elastic Constant Matrix: (Units=GPa)
#
#
# Indices 1 2 3 4 5 6 
#
# 1 101.9626 19.5965 33.0966 0.0000 0.0000 0.0000
# 2 19.5965 107.5441 42.7632 0.0000 0.0000 0.0000
# 3 33.0966 42.7632 86.2022 0.0000 0.0000 0.0000
# 4 0.0000 0.0000 0.0000 17.2605 0.0000 0.0000
# 5 0.0000 0.0000 0.0000 0.0000 32.8726 0.0000
# 6 0.0000 0.0000 0.0000 0.0000 0.0000 -299.3475
#
#
#
# Elastic Compliance Matrix: (Units=1/GPa)
#
#
# Indices 1 2 3 4 5 6 
#
# 1 0.011219 -0.000413 -0.004102 0.000000 0.000000 0.000000
# 2 -0.000413 0.011599 -0.005595 0.000000 0.000000 0.000000
# 3 -0.004102 -0.005595 0.015951 0.000000 0.000000 0.000000
# 4 0.000000 0.000000 0.000000 0.057936 0.000000 0.000000
# 5 0.000000 0.000000 0.000000 0.000000 0.030420 0.000000
# 6 0.000000 0.000000 0.000000 0.000000 0.000000 -0.003341
#
#
# Mechanical properties :
#
#
# Convention : Reuss Voigt Hill
#
# Bulk Modulus (GPa) = 53.91632 54.06907 53.99270
# Shear Modulus (GPa) = 33.29165 -36.49272 -1.60053
#
# Velocity S-wave (km/s) = 3.92219 -4.10642 -0.85999
# Velocity P-wave (km/s) = 6.73983 1.58141 4.89521
#
# Compressibility (1/GPa) = 0.01854726
#
# Stress axis : x y z
#
# Youngs Moduli (GPa) = 89.13840 86.21697 62.69030
#
# Poissons Ratio (x) = 0.03561 0.25718
# Poissons Ratio (y) = 0.03681 0.35077
# Poissons Ratio (z) = 0.36568 0.48241
#
# Static dielectric constant tensor:
#      x y z
#    x 4.199890 0.000000 0.000000 
#    y 0.000000 4.089010 0.000000 
#    z 0.000000 0.000000 5.450360 
# 
# 
# High freq. dielectric constant tensor:
#      x y z
#    x 1.864390 0.000000 0.000000 
#    y 0.000000 1.867820 0.000000 
#    z 0.000000 0.000000 1.834440 
# 
# From -- ./inp_files/1064.got.cif
#   From: 2010.03.12/outbox.cif.g09.slc.cpg/sg19_1_cif.got.tgz:1064.got - 2010.04.10 18:59:41.
