data_PCOD8156693
_publ_section_title
;
Structure prediction by ZEFSAII (Michael W. Deem and Ramdas Pophale) SiO2 
 PCOD8156693
Probable space group: P 21 21 21
;
_chemical_formula_sum "Si O2"
_cell_formula_units_Z 32
_cell_length_a 12.062836
_cell_length_b 10.570222
_cell_length_c 12.437733
_cell_angle_alpha 90.000000
_cell_angle_beta 90.000000
_cell_angle_gamma 90.000000
_cell_volume 1585.896212
_symmetry_space_group_name_H-M "P 21 21 21"
_symmetry_group_IT_number 19
_symmetry_cell_setting 'orthorhombic'
loop_
_space_group_symop_operation_xyz
x,y,z
1/2-x,-y,1/2+z
1/2+x,1/2-y,-z
-x,1/2+y,1/2-z
loop_
_atom_site_type_symbol
_atom_site_label
_atom_site_fract_x
_atom_site_fract_y
_atom_site_fract_z
Si Si1 0.768606 0.664985 0.555889
Si Si2 0.175938 0.603239 0.185210
Si Si3 0.722548 0.351757 0.309774
Si Si4 0.081665 0.002743 0.531088
Si Si5 0.831698 0.948216 0.511401
Si Si6 0.090311 0.017049 0.102635
Si Si7 0.647649 0.069683 0.623901
Si Si8 0.434879 0.832997 0.821530
O O1 0.768149 0.624752 0.681413
O O2 0.657161 0.620364 0.493566
O O3 0.777074 0.815207 0.540598
O O4 0.874208 0.601673 0.498792
O O5 0.279352 0.699489 0.168491
O O6 0.183579 0.547328 0.302730
O O7 0.066379 0.691260 0.174562
O O8 0.165365 0.475339 0.115432
O O9 0.615324 0.420279 0.360741
O O10 0.826102 0.402774 0.378001
O O11 0.098903 0.090920 0.427784
O O12 0.956683 0.958135 0.555989
O O13 0.752717 0.067611 0.544346
O O14 0.093803 0.094857 0.212937
O O15 0.970128 0.963774 0.069853
O O16 0.635611 0.204116 0.682018
#
# Coordination Sequence:
#
# PCOD8156693 Si02
#       8
#     4   4   4   4   4   4   4   4
#     4  11  23  41  66  87 128 166 215 259 316 380
#     4  10  21  37  64  91 124 161 205 261 314 366
#     4  11  20  43  63  89 127 168 204 256 314 383
#     4  10  24  41  63  92 127 170 205 260 323 370
#     4  11  24  40  61  94 125 166 207 265 315 370
#     4  10  22  37  64  96 114 165 217 255 318 370
#     4  11  21  37  63  93 121 159 210 260 309 373
#     4  10  19  38  64  94 124 153 211 266 307 374
#
# _framework density 20.177864
#
# number of rings (size 3 to 8) (size 9 to 14) (size 15 to 20)
#    0.000    1.500    3.750    1.500    1.750    0.000 
#    2.250    2.500    0.000    0.000    0.000    0.000 
#    0.000    0.000    0.000    0.000    0.000    0.000 
#
# Total GULP energy -396529.575123 kJ/mol
# GULP energy per Si atom -12391.549223 kJ/mol
# Density = 2.013194 g / cm^3
# Si number density = 20.177864 Si / 1000 Ang^3
#
#
#
# Elastic Constant Matrix: (Units=GPa)
#
#
# Indices 1 2 3 4 5 6 
#
# 1 87.2793 25.0245 4.6665 0.0000 0.0000 0.0000
# 2 25.0245 89.2323 13.4801 0.0000 0.0000 0.0000
# 3 4.6665 13.4801 61.0207 0.0000 0.0000 0.0000
# 4 0.0000 0.0000 0.0000 22.5345 0.0000 0.0000
# 5 0.0000 0.0000 0.0000 0.0000 21.3774 0.0000
# 6 0.0000 0.0000 0.0000 0.0000 0.0000 24.7117
#
#
#
# Elastic Compliance Matrix: (Units=1/GPa)
#
#
# Indices 1 2 3 4 5 6 
#
# 1 0.012461 -0.003466 -0.000187 0.000000 0.000000 0.000000
# 2 -0.003466 0.012558 -0.002509 0.000000 0.000000 0.000000
# 3 -0.000187 -0.002509 0.016956 0.000000 0.000000 0.000000
# 4 0.000000 0.000000 0.000000 0.044376 0.000000 0.000000
# 5 0.000000 0.000000 0.000000 0.000000 0.046778 0.000000
# 6 0.000000 0.000000 0.000000 0.000000 0.000000 0.040467
#
#
# Mechanical properties :
#
#
# Convention : Reuss Voigt Hill
#
# Bulk Modulus (GPa) = 33.72644 35.98607 34.85625
# Shear Modulus (GPa) = 25.53547 26.68212 26.10880
#
# Velocity S-wave (km/s) = 3.56127 3.64035 3.60103
# Velocity P-wave (km/s) = 5.80182 5.96177 5.88234
#
# Compressibility (1/GPa) = 0.02965033
#
# Stress axis : x y z
#
# Youngs Moduli (GPa) = 80.24801 79.63131 58.97450
#
# Poissons Ratio (x) = 0.27604 0.01104
# Poissons Ratio (y) = 0.27817 0.14797
# Poissons Ratio (z) = 0.01502 0.19980
#
# Static dielectric constant tensor:
#      x y z
#    x 3.788490 0.000000 0.000000 
#    y 0.000000 3.581800 0.000000 
#    z 0.000000 0.000000 3.681940 
# 
# 
# High freq. dielectric constant tensor:
#      x y z
#    x 1.779570 0.000000 0.000000 
#    y 0.000000 1.795340 0.000000 
#    z 0.000000 0.000000 1.785270 
# 
# From -- ./inp_files/5040.got.cif
#   From: 2010.03.12/outbox.cif.g09.slc.cpg/sg19_3_cif.got.tgz:5040.got - 2010.04.10 18:59:41.
