data_PCOD8156617
_publ_section_title
;
Structure prediction by ZEFSAII (Michael W. Deem and Ramdas Pophale) SiO2 
 PCOD8156617
Probable space group: P 21 21 21
;
_chemical_formula_sum "Si O2"
_cell_formula_units_Z 28
_cell_length_a 5.030551
_cell_length_b 34.528750
_cell_length_c 8.234936
_cell_angle_alpha 90.000000
_cell_angle_beta 90.000000
_cell_angle_gamma 90.000000
_cell_volume 1430.397166
_symmetry_space_group_name_H-M "P 21 21 21"
_symmetry_group_IT_number 19
_symmetry_cell_setting 'orthorhombic'
loop_
_space_group_symop_operation_xyz
x,y,z
1/2-x,-y,1/2+z
1/2+x,1/2-y,-z
-x,1/2+y,1/2-z
loop_
_atom_site_type_symbol
_atom_site_label
_atom_site_fract_x
_atom_site_fract_y
_atom_site_fract_z
Si Si1 0.005445 0.381658 0.976847
Si Si2 0.011493 0.325273 0.686299
Si Si3 0.449012 0.978963 0.397215
Si Si4 0.448258 0.532118 0.396539
Si Si5 0.887817 0.744672 0.900541
Si Si6 0.488083 0.837014 0.030477
Si Si7 0.004511 0.107217 0.815552
O O1 0.030572 0.421666 0.877668
O O2 0.215374 0.380037 0.123029
O O3 0.715338 0.377300 0.053796
O O4 0.058802 0.346721 0.854728
O O5 0.038725 0.278961 0.726197
O O6 0.222639 0.337858 0.549910
O O7 0.723077 0.335652 0.615659
O O8 0.656124 0.980179 0.545425
O O9 0.476247 0.939104 0.296450
O O10 0.156515 0.983481 0.470950
O O11 0.498626 0.014827 0.279669
O O12 0.575225 0.747263 0.941630
O O13 0.954796 0.700467 0.848566
O O14 0.446912 0.875197 0.137855
#
# Coordination Sequence:
#
# PCOD8156617 Si02
#       7
#     4   4   4   4   4   4   4
#     4  10  21  36  51  74 107 134 159 205 259 296
#     4  10  19  33  54  76  98 132 173 207 241 294
#     4  10  21  36  54  75 102 133 166 206 250 295
#     4  10  21  36  54  75 102 133 166 206 250 295
#     4   8  16  30  48  72 100 126 162 210 248 278
#     4  10  19  33  54  76  98 132 173 207 241 294
#     4  10  21  36  51  74 107 134 159 205 259 296
#
# _framework density 19.574983
#
# number of rings (size 3 to 8) (size 9 to 14) (size 15 to 20)
#    0.000    2.286    0.000    2.571    0.000    2.286 
#    0.000    1.429    0.000    0.000    0.000    0.000 
#    0.000    0.000    0.000    0.000    0.000    0.000 
#
# Total GULP energy -347179.820210 kJ/mol
# GULP energy per Si atom -12399.279293 kJ/mol
# Density = 1.953043 g / cm^3
# Si number density = 19.574983 Si / 1000 Ang^3
#
#
#
# Elastic Constant Matrix: (Units=GPa)
#
#
# Indices 1 2 3 4 5 6 
#
# 1 76.1432 11.3533 -3.9820 0.0000 0.0000 0.0000
# 2 11.3533 26.8556 4.3397 0.0000 0.0000 0.0000
# 3 -3.9820 4.3397 23.3836 0.0000 0.0000 0.0000
# 4 0.0000 0.0000 0.0000 33.3537 0.0000 0.0000
# 5 0.0000 0.0000 0.0000 0.0000 11.1425 0.0000
# 6 0.0000 0.0000 0.0000 0.0000 0.0000 23.3946
#
#
#
# Elastic Compliance Matrix: (Units=1/GPa)
#
#
# Indices 1 2 3 4 5 6 
#
# 1 0.014316 -0.006645 0.003671 0.000000 0.000000 0.000000
# 2 -0.006645 0.041472 -0.008828 0.000000 0.000000 0.000000
# 3 0.003671 -0.008828 0.045029 0.000000 0.000000 0.000000
# 4 0.000000 0.000000 0.000000 0.029982 0.000000 0.000000
# 5 0.000000 0.000000 0.000000 0.000000 0.089746 0.000000
# 6 0.000000 0.000000 0.000000 0.000000 0.000000 0.042745
#
#
# Mechanical properties :
#
#
# Convention : Reuss Voigt Hill
#
# Bulk Modulus (GPa) = 12.95141 16.64492 14.79817
# Shear Modulus (GPa) = 15.99326 21.22293 18.60809
#
# Velocity S-wave (km/s) = 2.86147 3.29627 3.08653
# Velocity P-wave (km/s) = 4.18903 4.79675 4.50316
#
# Compressibility (1/GPa) = 0.07721166
#
# Stress axis : x y z
#
# Youngs Moduli (GPa) = 69.85198 24.11258 22.20813
#
# Poissons Ratio (x) = 0.16024 -0.08153
# Poissons Ratio (y) = 0.46419 0.19606
# Poissons Ratio (z) = -0.25644 0.21287
#
# Static dielectric constant tensor:
#      x y z
#    x 3.771970 0.000000 0.000000 
#    y 0.000000 3.783400 0.000000 
#    z 0.000000 0.000000 2.989930 
# 
# 
# High freq. dielectric constant tensor:
#      x y z
#    x 1.786810 0.000000 0.000000 
#    y 0.000000 1.769070 0.000000 
#    z 0.000000 0.000000 1.716960 
# 
# From -- ./inp_files/2481.got.cif
#   From: 2010.03.12/outbox.cif.g09.slc.cpg/sg19_2_cif.got.tgz:2481.got - 2010.04.10 18:59:41.
