data_PCOD8156889
_publ_section_title
;
Structure prediction by ZEFSAII (Michael W. Deem and Ramdas Pophale) SiO2 
 PCOD8156889
Probable space group: P 21 21 21
;
_chemical_formula_sum "Si O2"
_cell_formula_units_Z 20
_cell_length_a 9.911474
_cell_length_b 8.234460
_cell_length_c 11.963414
_cell_angle_alpha 90.000000
_cell_angle_beta 90.000000
_cell_angle_gamma 90.000000
_cell_volume 976.401645
_symmetry_space_group_name_H-M "P 21 21 21"
_symmetry_group_IT_number 19
_symmetry_cell_setting 'orthorhombic'
loop_
_space_group_symop_operation_xyz
x,y,z
1/2-x,-y,1/2+z
1/2+x,1/2-y,-z
-x,1/2+y,1/2-z
loop_
_atom_site_type_symbol
_atom_site_label
_atom_site_fract_x
_atom_site_fract_y
_atom_site_fract_z
Si Si1 0.585903 0.230362 0.816973
Si Si2 0.887911 0.002581 0.115964
Si Si3 0.394963 0.619838 0.450035
Si Si4 0.520754 0.452991 0.111810
Si Si5 0.373390 0.167126 0.200546
O O1 0.450243 0.333133 0.833195
O O2 0.714710 0.351908 0.822601
O O3 0.580333 0.146641 0.696699
O O4 0.596580 0.095279 0.915912
O O5 0.727151 0.021807 0.104689
O O6 0.948784 0.964365 0.994336
O O7 0.372824 0.815101 0.429453
O O8 0.537114 0.568308 0.391688
O O9 0.410710 0.359724 0.190897
O O10 0.593993 0.597513 0.177068
#
# Coordination Sequence:
#
# PCOD8156889 Si02
#       5
#     4   4   4   4   4
#     4  11  22  41  62  86 129 156 201 251 305 349
#     4  11  23  41  60  94 120 160 200 255 295 360
#     4   9  20  39  65  82 121 159 196 246 301 356
#     4   9  21  38  62  87 120 155 204 237 301 363
#     4  10  20  41  63  87 120 162 197 247 298 364
#
# _framework density 20.483374000000001
#
# number of rings (size 3 to 8) (size 9 to 14) (size 15 to 20)
#    1.200    0.800    2.000    1.200    2.800    0.000 
#    7.200    0.000    0.000    0.000    0.000    0.000 
#    0.000    0.000    0.000    0.000    0.000    0.000 
#
# Total GULP energy -247832.349882 kJ/mol
# GULP energy per Si atom -12391.617494 kJ/mol
# Density = 2.043675 g / cm^3
# Si number density = 20.483374 Si / 1000 Ang^3
#
#
#
# Elastic Constant Matrix: (Units=GPa)
#
#
# Indices 1 2 3 4 5 6 
#
# 1 37.5790 -6.0904 1.6785 0.0000 0.0000 0.0000
# 2 -6.0904 23.2514 26.5231 0.0000 0.0000 0.0000
# 3 1.6785 26.5231 111.9560 0.0000 0.0000 0.0000
# 4 0.0000 0.0000 0.0000 46.7712 0.0000 0.0000
# 5 0.0000 0.0000 0.0000 0.0000 29.9054 0.0000
# 6 0.0000 0.0000 0.0000 0.0000 0.0000 13.5403
#
#
#
# Elastic Compliance Matrix: (Units=1/GPa)
#
#
# Indices 1 2 3 4 5 6 
#
# 1 0.028512 0.010902 -0.003010 0.000000 0.000000 0.000000
# 2 0.010902 0.063104 -0.015113 0.000000 0.000000 0.000000
# 3 -0.003010 -0.015113 0.012558 0.000000 0.000000 0.000000
# 4 0.000000 0.000000 0.000000 0.021381 0.000000 0.000000
# 5 0.000000 0.000000 0.000000 0.000000 0.033439 0.000000
# 6 0.000000 0.000000 0.000000 0.000000 0.000000 0.073854
#
#
# Mechanical properties :
#
#
# Convention : Reuss Voigt Hill
#
# Bulk Modulus (GPa) = 11.14445 24.11210 17.62827
# Shear Modulus (GPa) = 18.03759 28.08839 23.06299
#
# Velocity S-wave (km/s) = 2.97070 3.70709 3.35914
# Velocity P-wave (km/s) = 4.14962 5.48821 4.86517
#
# Compressibility (1/GPa) = 0.08973076
#
# Stress axis : x y z
#
# Youngs Moduli (GPa) = 35.07304 15.84693 79.63294
#
# Poissons Ratio (x) = -0.17277 0.23972
# Poissons Ratio (y) = -0.38237 1.20350
# Poissons Ratio (z) = 0.10558 0.23950
#
# Static dielectric constant tensor:
#      x y z
#    x 3.628690 0.000000 0.000000 
#    y 0.000000 3.133880 0.000000 
#    z 0.000000 0.000000 3.762240 
# 
# 
# High freq. dielectric constant tensor:
#      x y z
#    x 1.797910 0.000000 0.000000 
#    y 0.000000 1.749750 0.000000 
#    z 0.000000 0.000000 1.813780 
# 
# From -- ./inp_files/3291.got.cif
#   From: 2010.03.12/outbox.cif.g09.slc.cpg/sg19_2_cif.got.tgz:3291.got - 2010.04.10 18:59:41.
