data_PCOD8156024
_publ_section_title
;
Structure prediction by ZEFSAII (Michael W. Deem and Ramdas Pophale) SiO2 
 PCOD8156024
Probable space group: P 21 21 2
;
_chemical_formula_sum "Si O2"
_cell_formula_units_Z 26
_cell_length_a 8.625150
_cell_length_b 11.735670
_cell_length_c 11.876982
_cell_angle_alpha 90.000000
_cell_angle_beta 90.000000
_cell_angle_gamma 90.000000
_cell_volume 1202.210852
_symmetry_space_group_name_H-M "P 21 21 2"
_symmetry_group_IT_number 18
_symmetry_cell_setting 'orthorhombic'
loop_
_space_group_symop_operation_xyz
x,y,z
-x,-y,z
1/2+x,1/2-y,-z
1/2-x,1/2+y,-z
loop_
_atom_site_type_symbol
_atom_site_label
_atom_site_fract_x
_atom_site_fract_y
_atom_site_fract_z
Si Si1 0.000000 0.000000 0.758794
Si Si2 0.901832 0.218760 0.518369
Si Si3 0.170805 0.321260 0.878998
Si Si4 0.139704 0.800839 0.901696
Si Si5 0.000000 0.000000 0.397695
Si Si6 0.304638 0.688511 0.345410
Si Si7 0.749794 0.836507 0.295175
Si Si8 0.500000 0.000000 0.238970
O O1 0.099804 0.915391 0.834989
O O2 0.874084 0.936549 0.679641
O O3 0.856940 0.305690 0.415456
O O4 0.766373 0.235394 0.612664
O O5 0.067063 0.250423 0.574897
O O6 0.899653 0.087201 0.474218
O O7 0.231341 0.250124 0.772207
O O8 0.015385 0.267334 0.928107
O O9 0.136471 0.449041 0.838960
O O10 0.294362 0.330379 0.977186
O O11 0.257440 0.721763 0.828283
O O12 0.892907 0.920731 0.318088
O O13 0.586169 0.903935 0.311557
#
# Coordination Sequence:
#
# PCOD8156024 Si02
#       8
#     2   4   4   4   2   4   4   2
#     4  10  21  44  71 100 132 183 219 282 342 406
#     4  12  23  42  67  96 132 179 216 278 330 399
#     4  10  22  42  64  94 131 171 221 281 328 407
#     4  10  23  42  70  92 136 177 223 274 345 393
#     4  12  27  40  71  98 136 173 231 272 334 408
#     4  11  23  43  68  96 135 175 227 275 338 400
#     4  11  24  41  65  97 128 173 219 279 332 401
#     4  10  20  40  62  90 130 166 216 268 338 388
#
# _framework density 21.626821
#
# number of rings (size 3 to 8) (size 9 to 14) (size 15 to 20)
#    0.000    1.231    6.154    1.385    0.000    7.385 
#    0.000    1.538    0.000    0.000    0.000    0.000 
#    0.000    0.000    0.000    0.000    0.000    0.000 
#
# Total GULP energy -322122.175535 kJ/mol
# GULP energy per Si atom -12389.314444 kJ/mol
# Density = 2.157760 g / cm^3
# Si number density = 21.626821 Si / 1000 Ang^3
#
#
#
# Elastic Constant Matrix: (Units=GPa)
#
#
# Indices 1 2 3 4 5 6 
#
# 1 71.8673 35.9720 52.1820 0.0000 0.0000 0.0000
# 2 35.9720 103.6084 44.5926 0.0000 0.0000 0.0000
# 3 52.1820 44.5926 115.4334 0.0000 0.0000 0.0000
# 4 0.0000 0.0000 0.0000 19.0706 0.0000 0.0000
# 5 0.0000 0.0000 0.0000 0.0000 21.8839 0.0000
# 6 0.0000 0.0000 0.0000 0.0000 0.0000 36.4357
#
#
#
# Elastic Compliance Matrix: (Units=1/GPa)
#
#
# Indices 1 2 3 4 5 6 
#
# 1 0.022035 -0.004034 -0.008402 0.000000 0.000000 0.000000
# 2 -0.004034 0.012315 -0.002934 0.000000 0.000000 0.000000
# 3 -0.008402 -0.002934 0.013595 0.000000 0.000000 0.000000
# 4 0.000000 0.000000 0.000000 0.052437 0.000000 0.000000
# 5 0.000000 0.000000 0.000000 0.000000 0.045696 0.000000
# 6 0.000000 0.000000 0.000000 0.000000 0.000000 0.027446
#
#
# Mechanical properties :
#
#
# Convention : Reuss Voigt Hill
#
# Bulk Modulus (GPa) = 58.12626 61.82248 59.97437
# Shear Modulus (GPa) = 23.80984 26.02222 24.91603
#
# Velocity S-wave (km/s) = 3.32164 3.47254 3.39793
# Velocity P-wave (km/s) = 6.45340 6.68776 6.57162
#
# Compressibility (1/GPa) = 0.01720393
#
# Stress axis : x y z
#
# Youngs Moduli (GPa) = 45.38330 81.20218 73.55789
#
# Poissons Ratio (x) = 0.32755 0.61807
# Poissons Ratio (y) = 0.18307 0.21581
# Poissons Ratio (z) = 0.38133 0.23823
#
# Static dielectric constant tensor:
#      x y z
#    x 4.000990 0.000000 0.000000 
#    y 0.000000 4.035500 0.000000 
#    z 0.000000 0.000000 3.960600 
# 
# 
# High freq. dielectric constant tensor:
#      x y z
#    x 1.826500 0.000000 0.000000 
#    y 0.000000 1.849570 0.000000 
#    z 0.000000 0.000000 1.857270 
# 
# From -- ./inp_files/5578.got.cif
#   From: 2010.03.12/outbox.cif.g09.slc.cpg/sg18_3_cif.got.tgz:5578.got - 2010.04.10 18:53:55.
