data_PCOD8156825
_publ_section_title
;
Structure prediction by ZEFSAII (Michael W. Deem and Ramdas Pophale) SiO2 
 PCOD8156825
Probable space group: P 21 21 21
;
_chemical_formula_sum "Si O2"
_cell_formula_units_Z 32
_cell_length_a 10.601219
_cell_length_b 7.676508
_cell_length_c 19.616991
_cell_angle_alpha 90.000000
_cell_angle_beta 90.000000
_cell_angle_gamma 90.000000
_cell_volume 1596.437446
_symmetry_space_group_name_H-M "P 21 21 21"
_symmetry_group_IT_number 19
_symmetry_cell_setting 'orthorhombic'
loop_
_space_group_symop_operation_xyz
x,y,z
1/2-x,-y,1/2+z
1/2+x,1/2-y,-z
-x,1/2+y,1/2-z
loop_
_atom_site_type_symbol
_atom_site_label
_atom_site_fract_x
_atom_site_fract_y
_atom_site_fract_z
Si Si1 0.480430 0.302207 0.139420
Si Si2 0.694378 0.752693 0.240311
Si Si3 0.866172 0.545168 0.911001
Si Si4 0.383059 0.557239 0.847983
Si Si5 0.051302 0.840542 0.887495
Si Si6 0.274614 0.199737 0.843261
Si Si7 0.834274 0.444049 0.300315
Si Si8 0.693923 0.371506 0.563628
O O1 0.418789 0.325341 0.213761
O O2 0.463275 0.489440 0.101596
O O3 0.627979 0.258240 0.143437
O O4 0.404894 0.155698 0.097959
O O5 0.772047 0.909710 0.207040
O O6 0.631739 0.629651 0.182422
O O7 0.794998 0.640470 0.282355
O O8 0.977145 0.662372 0.880312
O O9 0.740463 0.600994 0.870221
O O10 0.859567 0.582421 0.990449
O O11 0.355829 0.361492 0.873581
O O12 0.518111 0.569894 0.812800
O O13 0.377324 0.699689 0.908488
O O14 0.156966 0.830322 0.946660
O O15 0.298949 0.182907 0.762149
O O16 0.326068 0.032050 0.884320
#
# Coordination Sequence:
#
# PCOD8156825 Si02
#       8
#     4   4   4   4   4   4   4   4
#     4  10  21  38  64  96 121 154 214 272 305 373
#     4  10  20  38  62  96 126 156 208 265 317 372
#     4  11  25  40  65  93 125 167 217 259 324 380
#     4  11  23  39  65  88 133 172 204 252 330 382
#     4  10  21  40  65  88 122 161 207 262 315 371
#     4  11  22  41  68  91 126 168 210 265 326 361
#     4  11  22  41  62  98 129 163 211 272 308 381
#     4  10  24  45  59  92 128 169 211 263 315 392
#
# _framework density 20.044630999999999
#
# number of rings (size 3 to 8) (size 9 to 14) (size 15 to 20)
#    0.000    1.500    3.750    3.000    7.000    1.000 
#    2.250    0.000    0.000    0.000    0.000    0.000 
#    0.000    0.000    0.000    0.000    0.000    0.000 
#
# Total GULP energy -396724.808559 kJ/mol
# GULP energy per Si atom -12397.650267 kJ/mol
# Density = 1.999901 g / cm^3
# Si number density = 20.044631 Si / 1000 Ang^3
#
#
#
# Elastic Constant Matrix: (Units=GPa)
#
#
# Indices 1 2 3 4 5 6 
#
# 1 76.6562 25.4935 28.1548 0.0000 0.0000 0.0000
# 2 25.4935 101.3329 22.0483 0.0000 0.0000 0.0000
# 3 28.1548 22.0483 92.6527 0.0000 0.0000 0.0000
# 4 0.0000 0.0000 0.0000 17.9300 0.0000 0.0000
# 5 0.0000 0.0000 0.0000 0.0000 20.0025 0.0000
# 6 0.0000 0.0000 0.0000 0.0000 0.0000 27.0709
#
#
#
# Elastic Compliance Matrix: (Units=1/GPa)
#
#
# Indices 1 2 3 4 5 6 
#
# 1 0.015522 -0.003036 -0.003994 0.000000 0.000000 0.000000
# 2 -0.003036 0.011001 -0.001695 0.000000 0.000000 0.000000
# 3 -0.003994 -0.001695 0.012410 0.000000 0.000000 0.000000
# 4 0.000000 0.000000 0.000000 0.055772 0.000000 0.000000
# 5 0.000000 0.000000 0.000000 0.000000 0.049994 0.000000
# 6 0.000000 0.000000 0.000000 0.000000 0.000000 0.036940
#
#
# Mechanical properties :
#
#
# Convention : Reuss Voigt Hill
#
# Bulk Modulus (GPa) = 46.55035 46.89277 46.72156
# Shear Modulus (GPa) = 24.24226 25.99702 25.11964
#
# Velocity S-wave (km/s) = 3.48144 3.60524 3.54388
# Velocity P-wave (km/s) = 6.27967 6.38555 6.33283
#
# Compressibility (1/GPa) = 0.02148212
#
# Stress axis : x y z
#
# Youngs Moduli (GPa) = 64.42480 90.89970 80.57891
#
# Poissons Ratio (x) = 0.27597 0.32185
# Poissons Ratio (y) = 0.19559 0.13661
# Poissons Ratio (z) = 0.25733 0.15411
#
# Static dielectric constant tensor:
#      x y z
#    x 3.642790 0.000000 0.000000 
#    y 0.000000 3.696690 0.000000 
#    z 0.000000 0.000000 3.457410 
# 
# 
# High freq. dielectric constant tensor:
#      x y z
#    x 1.783950 0.000000 0.000000 
#    y 0.000000 1.791950 0.000000 
#    z 0.000000 0.000000 1.762330 
# 
# From -- ./inp_files/7074.got.cif
#   From: 2010.03.12/outbox.cif.g09.slc.cpg/sg19_4_cif.got.tgz:7074.got - 2010.04.10 18:59:41.
