data_PCOD8156083
_publ_section_title
;
Structure prediction by ZEFSAII (Michael W. Deem and Ramdas Pophale) SiO2 
 PCOD8156083
Probable space group: P 21 21 2
;
_chemical_formula_sum "Si O2"
_cell_formula_units_Z 32
_cell_length_a 28.275966
_cell_length_b 8.822545
_cell_length_c 6.900511
_cell_angle_alpha 90.000000
_cell_angle_beta 90.000000
_cell_angle_gamma 90.000000
_cell_volume 1721.442756
_symmetry_space_group_name_H-M "P 21 21 2"
_symmetry_group_IT_number 18
_symmetry_cell_setting 'orthorhombic'
loop_
_space_group_symop_operation_xyz
x,y,z
-x,-y,z
1/2+x,1/2-y,-z
1/2-x,1/2+y,-z
loop_
_atom_site_type_symbol
_atom_site_label
_atom_site_fract_x
_atom_site_fract_y
_atom_site_fract_z
Si Si1 0.375627 0.072368 0.713989
Si Si2 0.125388 0.422251 0.688909
Si Si3 0.949476 0.926296 0.015511
Si Si4 0.625387 0.422243 0.311096
Si Si5 0.050524 0.426301 0.015515
Si Si6 0.875624 0.072363 0.286006
Si Si7 0.199249 0.426313 0.016292
Si Si8 0.300750 0.573691 0.983715
O O1 0.375053 0.039427 0.486174
O O2 0.423059 0.002102 0.803676
O O3 0.328756 0.002144 0.807497
O O4 0.375697 0.250002 0.751324
O O5 0.125034 0.250005 0.610535
O O6 0.079491 0.453688 0.819188
O O7 0.172164 0.452789 0.814863
O O8 0.954697 0.749998 0.063194
O O9 0.923053 0.002091 0.196309
O O10 0.920513 0.953679 0.819170
O O11 0.000000 0.000000 0.985626
O O12 0.624948 0.539417 0.486181
O O13 0.672160 0.452785 0.185131
O O14 0.000000 0.500000 0.985605
O O15 0.828749 0.002153 0.192503
O O16 0.203969 0.250001 0.064814
O O17 0.249999 0.500007 0.000019
#
# Coordination Sequence:
#
# PCOD8156083 Si02
#       8
#     4   4   4   4   4   4   4   4
#     4  11  22  36  57  83 112 146 183 225 273 326
#     4   9  20  38  57  79 110 146 183 226 273 320
#     4  10  21  38  59  82 111 145 183 228 274 324
#     4   9  20  38  57  79 110 146 183 226 273 320
#     4  10  21  38  59  82 111 145 183 228 274 324
#     4  11  22  36  57  83 112 146 183 225 273 326
#     4  10  21  38  59  82 111 145 183 228 274 324
#     4  10  21  38  59  82 111 145 183 228 274 324
#
# _framework density 18.589058000000001
#
# number of rings (size 3 to 8) (size 9 to 14) (size 15 to 20)
#    0.000    2.000    0.000    5.250    0.000    8.000 
#    0.000    2.500    0.000    0.000    0.000    0.000 
#    0.000    0.000    0.000    0.000    0.000    0.000 
#
# Total GULP energy -396956.690026 kJ/mol
# GULP energy per Si atom -12404.896563 kJ/mol
# Density = 1.854675 g / cm^3
# Si number density = 18.589058 Si / 1000 Ang^3
#
#
#
# Elastic Constant Matrix: (Units=GPa)
#
#
# Indices 1 2 3 4 5 6 
#
# 1 168.4662 77.7086 50.8105 0.0000 0.0000 0.0000
# 2 77.7086 159.2171 64.8754 0.0000 0.0000 0.0000
# 3 50.8105 64.8754 104.1200 0.0000 0.0000 0.0000
# 4 0.0000 0.0000 0.0000 33.1654 0.0000 0.0000
# 5 0.0000 0.0000 0.0000 0.0000 13.4255 0.0000
# 6 0.0000 0.0000 0.0000 0.0000 0.0000 39.1061
#
#
#
# Elastic Compliance Matrix: (Units=1/GPa)
#
#
# Indices 1 2 3 4 5 6 
#
# 1 0.007948 -0.003081 -0.001959 0.000000 0.000000 0.000000
# 2 -0.003081 0.009612 -0.004486 0.000000 0.000000 0.000000
# 3 -0.001959 -0.004486 0.013355 0.000000 0.000000 0.000000
# 4 0.000000 0.000000 0.000000 0.030152 0.000000 0.000000
# 5 0.000000 0.000000 0.000000 0.000000 0.074485 0.000000
# 6 0.000000 0.000000 0.000000 0.000000 0.000000 0.025571
#
#
# Mechanical properties :
#
#
# Convention : Reuss Voigt Hill
#
# Bulk Modulus (GPa) = 84.28688 90.95471 87.62079
# Shear Modulus (GPa) = 27.15479 33.03332 30.09405
#
# Velocity S-wave (km/s) = 3.82618 4.22006 4.02794
# Velocity P-wave (km/s) = 8.05979 8.53115 8.29882
#
# Compressibility (1/GPa) = 0.01186424
#
# Stress axis : x y z
#
# Youngs Moduli (GPa) = 125.82003 104.03459 74.87716
#
# Poissons Ratio (x) = 0.32052 0.14668
# Poissons Ratio (y) = 0.38764 0.33588
# Poissons Ratio (z) = 0.24647 0.46667
#
# Static dielectric constant tensor:
#      x y z
#    x 3.491740 0.000000 0.000000 
#    y 0.000000 3.502610 0.000000 
#    z 0.000000 0.000000 3.296980 
# 
# 
# High freq. dielectric constant tensor:
#      x y z
#    x 1.727870 0.000000 0.000000 
#    y 0.000000 1.735330 0.000000 
#    z 0.000000 0.000000 1.719560 
# 
# From -- ./inp_files/2303.got.cif
#   From: 2010.03.12/outbox.cif.g09.slc.cpg/sg18_2_cif.got.tgz:2303.got - 2010.04.10 18:53:55.
