data_PCOD8156485
_publ_section_title
;
Structure prediction by ZEFSAII (Michael W. Deem and Ramdas Pophale) SiO2 
 PCOD8156485
Probable space group: P 21 21 2
;
_chemical_formula_sum "Si O2"
_cell_formula_units_Z 12
_cell_length_a 8.545423
_cell_length_b 5.130115
_cell_length_c 11.068884
_cell_angle_alpha 90.000000
_cell_angle_beta 90.000000
_cell_angle_gamma 90.000000
_cell_volume 485.248836
_symmetry_space_group_name_H-M "P 21 21 2"
_symmetry_group_IT_number 18
_symmetry_cell_setting 'orthorhombic'
loop_
_space_group_symop_operation_xyz
x,y,z
-x,-y,z
1/2+x,1/2-y,-z
1/2-x,1/2+y,-z
loop_
_atom_site_type_symbol
_atom_site_label
_atom_site_fract_x
_atom_site_fract_y
_atom_site_fract_z
Si Si1 0.675145 0.452577 0.196129
Si Si2 0.603721 0.251959 0.945359
Si Si3 0.319861 0.075357 0.557643
O O1 0.500000 0.500000 0.243351
O O2 0.750241 0.725182 0.147393
O O3 0.778199 0.338833 0.305542
O O4 0.673351 0.256242 0.081354
O O5 0.500000 0.500000 0.913212
O O6 0.500000 0.000000 0.925545
O O7 0.285295 0.323137 0.473475
O O8 0.500000 0.000000 0.543764
#
# Coordination Sequence:
#
# PCOD8156485 Si02
#       3
#     4   4   4
#     4  11  24  44  72 104 143 184 233 288 348 415
#     4  11  25  44  69 106 146 186 230 284 351 418
#     4  12  28  50  74 102 139 186 238 290 348 415
#
# _framework density 24.729582000000001
#
# number of rings (size 3 to 8) (size 9 to 14) (size 15 to 20)
#    0.000    0.667    0.000    8.000    0.000   14.667 
#    0.000    0.000    0.000    0.000    0.000    0.000 
#    0.000    0.000    0.000    0.000    0.000    0.000 
#
# Total GULP energy -148807.411528 kJ/mol
# GULP energy per Si atom -12400.617627 kJ/mol
# Density = 2.467330 g / cm^3
# Si number density = 24.729582 Si / 1000 Ang^3
#
#
#
# Elastic Constant Matrix: (Units=GPa)
#
#
# Indices 1 2 3 4 5 6 
#
# 1 146.5887 55.3374 43.6693 0.0000 0.0000 0.0000
# 2 55.3374 139.7949 24.9534 0.0000 0.0000 0.0000
# 3 43.6693 24.9534 112.4334 0.0000 0.0000 0.0000
# 4 0.0000 0.0000 0.0000 36.5874 0.0000 0.0000
# 5 0.0000 0.0000 0.0000 0.0000 87.6739 0.0000
# 6 0.0000 0.0000 0.0000 0.0000 0.0000 44.5109
#
#
#
# Elastic Compliance Matrix: (Units=1/GPa)
#
#
# Indices 1 2 3 4 5 6 
#
# 1 0.008764 -0.002979 -0.002743 0.000000 0.000000 0.000000
# 2 -0.002979 0.008461 -0.000721 0.000000 0.000000 0.000000
# 3 -0.002743 -0.000721 0.010119 0.000000 0.000000 0.000000
# 4 0.000000 0.000000 0.000000 0.027332 0.000000 0.000000
# 5 0.000000 0.000000 0.000000 0.000000 0.011406 0.000000
# 6 0.000000 0.000000 0.000000 0.000000 0.000000 0.022466
#
#
# Mechanical properties :
#
#
# Convention : Reuss Voigt Hill
#
# Bulk Modulus (GPa) = 69.16158 71.85969 70.51064
# Shear Modulus (GPa) = 47.05732 52.07825 49.56778
#
# Velocity S-wave (km/s) = 4.36693 4.59400 4.48190
# Velocity P-wave (km/s) = 7.31127 7.56710 7.44028
#
# Compressibility (1/GPa) = 0.01445889
#
# Stress axis : x y z
#
# Youngs Moduli (GPa) = 114.10868 118.18376 98.82114
#
# Poissons Ratio (x) = 0.35213 0.27102
# Poissons Ratio (y) = 0.33999 0.07122
# Poissons Ratio (z) = 0.31294 0.08517
#
# Static dielectric constant tensor:
#      x y z
#    x 5.329850 0.000000 0.000000 
#    y 0.000000 4.354580 0.000000 
#    z 0.000000 0.000000 4.354880 
# 
# 
# High freq. dielectric constant tensor:
#      x y z
#    x 2.016270 0.000000 0.000000 
#    y 0.000000 1.973870 0.000000 
#    z 0.000000 0.000000 1.979500 
# 
# From -- ./inp_files/5330.got.cif
#   From: 2010.03.12/outbox.cif.g09.slc.cpg/sg18_3_cif.got.tgz:5330.got - 2010.04.10 18:53:55.
