data_PCOD8156792
_publ_section_title
;
Structure prediction by ZEFSAII (Michael W. Deem and Ramdas Pophale) SiO2 
 PCOD8156792
Probable space group: P 21 21 21
;
_chemical_formula_sum "Si O2"
_cell_formula_units_Z 32
_cell_length_a 9.535213
_cell_length_b 9.579784
_cell_length_c 18.454565
_cell_angle_alpha 90.000000
_cell_angle_beta 90.000000
_cell_angle_gamma 90.000000
_cell_volume 1685.737424
_symmetry_space_group_name_H-M "P 21 21 21"
_symmetry_group_IT_number 19
_symmetry_cell_setting 'orthorhombic'
loop_
_space_group_symop_operation_xyz
x,y,z
1/2-x,-y,1/2+z
1/2+x,1/2-y,-z
-x,1/2+y,1/2-z
loop_
_atom_site_type_symbol
_atom_site_label
_atom_site_fract_x
_atom_site_fract_y
_atom_site_fract_z
Si Si1 0.394109 0.649153 0.269860
Si Si2 0.349081 0.332058 0.272602
Si Si3 0.951435 0.357306 0.045451
Si Si4 0.493664 0.822660 0.960015
Si Si5 0.390071 0.322762 0.694476
Si Si6 0.313563 0.675918 0.431321
Si Si7 0.568387 0.138973 0.799781
Si Si8 0.266590 0.355236 0.431848
O O1 0.421204 0.483712 0.274144
O O2 0.537147 0.715311 0.242645
O O3 0.274677 0.685721 0.211668
O O4 0.351320 0.709518 0.348222
O O5 0.230652 0.319519 0.210991
O O6 0.274031 0.303680 0.349253
O O7 0.927628 0.523053 0.043054
O O8 0.027621 0.313317 0.119823
O O9 0.800844 0.284791 0.039770
O O10 0.046962 0.306058 0.978997
O O11 0.588488 0.790148 0.889853
O O12 0.369078 0.712416 0.968705
O O13 0.592305 0.804167 0.029317
O O14 0.469236 0.209693 0.741694
O O15 0.451145 0.474471 0.713837
O O16 0.249333 0.521431 0.438764
#
# Coordination Sequence:
#
# PCOD8156792 Si02
#       8
#     4   4   4   4   4   4   4   4
#     4  10  22  38  57  84 115 147 187 233 281 331
#     4  10  22  38  57  84 115 147 187 233 281 331
#     4  10  22  38  58  84 113 148 190 231 277 337
#     4  10  22  38  58  84 113 148 190 231 277 337
#     4  10  20  37  59  83 110 144 187 231 278 330
#     4  10  22  40  58  82 116 150 187 232 279 333
#     4  10  20  37  59  83 110 144 187 231 278 330
#     4  10  22  40  58  82 116 150 187 232 279 333
#
# _framework density 18.982789
#
# number of rings (size 3 to 8) (size 9 to 14) (size 15 to 20)
#    0.000    2.000    2.500    0.000    3.500    3.000 
#    0.000    0.000    0.000    0.000    0.000    0.000 
#    0.000    0.000    0.000    0.000    0.000    0.000 
#
# Total GULP energy -396958.512230 kJ/mol
# GULP energy per Si atom -12404.953507 kJ/mol
# Density = 1.893958 g / cm^3
# Si number density = 18.982789 Si / 1000 Ang^3
#
#
#
# Elastic Constant Matrix: (Units=GPa)
#
#
# Indices 1 2 3 4 5 6 
#
# 1 41.1132 8.0402 3.2935 0.0000 0.0000 0.0000
# 2 8.0402 27.7129 9.3078 0.0000 0.0000 0.0000
# 3 3.2935 9.3078 47.9973 0.0000 0.0000 0.0000
# 4 0.0000 0.0000 0.0000 25.7984 0.0000 0.0000
# 5 0.0000 0.0000 0.0000 0.0000 30.7375 0.0000
# 6 0.0000 0.0000 0.0000 0.0000 0.0000 40.8658
#
#
#
# Elastic Compliance Matrix: (Units=1/GPa)
#
#
# Indices 1 2 3 4 5 6 
#
# 1 0.025791 -0.007368 -0.000341 0.000000 0.000000 0.000000
# 2 -0.007368 0.040703 -0.007388 0.000000 0.000000 0.000000
# 3 -0.000341 -0.007388 0.022291 0.000000 0.000000 0.000000
# 4 0.000000 0.000000 0.000000 0.038762 0.000000 0.000000
# 5 0.000000 0.000000 0.000000 0.000000 0.032533 0.000000
# 6 0.000000 0.000000 0.000000 0.000000 0.000000 0.024470
#
#
# Mechanical properties :
#
#
# Convention : Reuss Voigt Hill
#
# Bulk Modulus (GPa) = 17.06732 17.56738 17.31735
# Shear Modulus (GPa) = 21.34241 25.89248 23.61744
#
# Velocity S-wave (km/s) = 3.35670 3.69724 3.53108
# Velocity P-wave (km/s) = 4.90242 5.24410 5.07614
#
# Compressibility (1/GPa) = 0.05859150
#
# Stress axis : x y z
#
# Youngs Moduli (GPa) = 38.77269 24.56802 44.86213
#
# Poissons Ratio (x) = 0.18102 0.01529
# Poissons Ratio (y) = 0.28569 0.33143
# Poissons Ratio (z) = 0.01322 0.18150
#
# Static dielectric constant tensor:
#      x y z
#    x 3.314890 0.000000 0.000000 
#    y 0.000000 3.434380 0.000000 
#    z 0.000000 0.000000 3.658290 
# 
# 
# High freq. dielectric constant tensor:
#      x y z
#    x 1.736350 0.000000 0.000000 
#    y 0.000000 1.733000 0.000000 
#    z 0.000000 0.000000 1.746340 
# 
# From -- ./inp_files/3135.got.cif
#   From: 2010.03.12/outbox.cif.g09.slc.cpg/sg19_2_cif.got.tgz:3135.got - 2010.04.10 18:59:41.
