data_PCOD8156331
_publ_section_title
;
Structure prediction by ZEFSAII (Michael W. Deem and Ramdas Pophale) SiO2 
 PCOD8156331
Probable space group: P 21 21 2
;
_chemical_formula_sum "Si O2"
_cell_formula_units_Z 12
_cell_length_a 9.119144
_cell_length_b 8.860285
_cell_length_c 4.705005
_cell_angle_alpha 90.000000
_cell_angle_beta 90.000000
_cell_angle_gamma 90.000000
_cell_volume 380.156005
_symmetry_space_group_name_H-M "P 21 21 2"
_symmetry_group_IT_number 18
_symmetry_cell_setting 'orthorhombic'
loop_
_space_group_symop_operation_xyz
x,y,z
-x,-y,z
1/2+x,1/2-y,-z
1/2-x,1/2+y,-z
loop_
_atom_site_type_symbol
_atom_site_label
_atom_site_fract_x
_atom_site_fract_y
_atom_site_fract_z
Si Si1 0.269466 0.389634 0.342329
Si Si2 0.465054 0.830579 0.208989
Si Si3 0.353047 0.569807 0.867373
O O1 0.375865 0.245043 0.277894
O O2 0.128492 0.320223 0.502501
O O3 0.227656 0.485017 0.055264
O O4 0.343447 0.519901 0.540309
O O5 0.372184 0.748971 0.945703
O O6 0.500000 0.000000 0.122019
O O7 0.500000 0.500000 0.007182
#
# Coordination Sequence:
#
# PCOD8156331 Si02
#       3
#     4   4   4
#     4  11  25  47  72 106 150 194 243 310 379 444
#     4  11  25  47  78 113 147 200 261 312 373 452
#     4  10  23  44  69 101 149 194 236 302 375 438
#
# _framework density 31.565988000000001
#
# number of rings (size 3 to 8) (size 9 to 14) (size 15 to 20)
#    0.000    1.333    0.000    5.000    0.000   13.333 
#    0.000   20.000    0.000    0.000    0.000    0.000 
#    0.000    0.000    0.000    0.000    0.000    0.000 
#
# Total GULP energy -148775.833301 kJ/mol
# GULP energy per Si atom -12397.986108 kJ/mol
# Density = 3.149414 g / cm^3
# Si number density = 31.565988 Si / 1000 Ang^3
#
#
#
# Elastic Constant Matrix: (Units=GPa)
#
#
# Indices 1 2 3 4 5 6 
#
# 1 165.0570 59.3719 33.5691 0.0000 0.0000 0.0000
# 2 59.3719 322.3480 86.9218 0.0000 0.0000 0.0000
# 3 33.5691 86.9218 192.4091 0.0000 0.0000 0.0000
# 4 0.0000 0.0000 0.0000 52.4474 0.0000 0.0000
# 5 0.0000 0.0000 0.0000 0.0000 50.6150 0.0000
# 6 0.0000 0.0000 0.0000 0.0000 0.0000 41.5289
#
#
#
# Elastic Compliance Matrix: (Units=1/GPa)
#
#
# Indices 1 2 3 4 5 6 
#
# 1 0.006566 -0.001025 -0.000682 0.000000 0.000000 0.000000
# 2 -0.001025 0.003693 -0.001489 0.000000 0.000000 0.000000
# 3 -0.000682 -0.001489 0.005989 0.000000 0.000000 0.000000
# 4 0.000000 0.000000 0.000000 0.019067 0.000000 0.000000
# 5 0.000000 0.000000 0.000000 0.000000 0.019757 0.000000
# 6 0.000000 0.000000 0.000000 0.000000 0.000000 0.024080
#
#
# Mechanical properties :
#
#
# Convention : Reuss Voigt Hill
#
# Bulk Modulus (GPa) = 101.48316 115.50442 108.49379
# Shear Modulus (GPa) = 56.28733 62.24835 59.26784
#
# Velocity S-wave (km/s) = 4.22733 4.44555 4.33781
# Velocity P-wave (km/s) = 7.48642 7.93860 7.71582
#
# Compressibility (1/GPa) = 0.00985385
#
# Stress axis : x y z
#
# Youngs Moduli (GPa) = 152.29684 270.80524 166.96988
#
# Poissons Ratio (x) = 0.27768 0.11393
# Poissons Ratio (y) = 0.15616 0.24867
# Poissons Ratio (z) = 0.10392 0.40331
#
# Static dielectric constant tensor:
#      x y z
#    x 7.344640 0.000000 0.000000 
#    y 0.000000 6.350530 0.000000 
#    z 0.000000 0.000000 5.779630 
# 
# 
# High freq. dielectric constant tensor:
#      x y z
#    x 2.343100 0.000000 0.000000 
#    y 0.000000 2.347000 0.000000 
#    z 0.000000 0.000000 2.324900 
# 
# From -- ./inp_files/354.got.cif
#   From: 2010.03.12/outbox.cif.g09.slc.cpg/sg18_1_cif.got.tgz:354.got - 2010.04.10 18:53:55.
