data_PCOD8156253
_publ_section_title
;
Structure prediction by ZEFSAII (Michael W. Deem and Ramdas Pophale) SiO2 
 PCOD8156253
Probable space group: P 21 21 2
;
_chemical_formula_sum "Si O2"
_cell_formula_units_Z 20
_cell_length_a 11.482014
_cell_length_b 11.448034
_cell_length_c 7.784273
_cell_angle_alpha 90.000000
_cell_angle_beta 90.000000
_cell_angle_gamma 90.000000
_cell_volume 1023.215337
_symmetry_space_group_name_H-M "P 21 21 2"
_symmetry_group_IT_number 18
_symmetry_cell_setting 'orthorhombic'
loop_
_space_group_symop_operation_xyz
x,y,z
-x,-y,z
1/2+x,1/2-y,-z
1/2-x,1/2+y,-z
loop_
_atom_site_type_symbol
_atom_site_label
_atom_site_fract_x
_atom_site_fract_y
_atom_site_fract_z
Si Si1 0.688947 0.353434 0.197794
Si Si2 0.873140 0.031491 0.558934
Si Si3 0.890782 0.421263 0.957004
Si Si4 0.065775 0.844640 0.901572
Si Si5 0.266665 0.400388 0.789148
O O1 0.687120 0.408120 0.389361
O O2 0.568652 0.390605 0.098437
O O3 0.688449 0.214536 0.198200
O O4 0.804645 0.406544 0.116265
O O5 0.869809 0.112436 0.729121
O O6 0.812209 0.097374 0.404152
O O7 0.000000 0.000000 0.491099
O O8 0.932756 0.295769 0.891752
O O9 0.817365 0.488399 0.810933
O O10 0.000000 0.500000 0.016318
O O11 0.130042 0.894665 0.070184
#
# Coordination Sequence:
#
# PCOD8156253 Si02
#       5
#     4   4   4   4   4
#     4  10  22  43  64  91 129 158 216 261 306 374
#     4  10  23  39  62  94 123 162 215 256 307 375
#     4  11  22  40  65  92 126 166 206 256 316 368
#     4  10  22  43  63  90 124 168 210 262 307 371
#     4  11  23  39  66  90 124 170 206 259 319 364
#
# _framework density 19.546229
#
# number of rings (size 3 to 8) (size 9 to 14) (size 15 to 20)
#    0.000    1.600    4.000    0.000    5.600    0.000 
#    0.000    9.000    0.000    0.000    0.000    0.000 
#    0.000    0.000    0.000    0.000    0.000    0.000 
#
# Total GULP energy -247913.540742 kJ/mol
# GULP energy per Si atom -12395.677037 kJ/mol
# Density = 1.950174 g / cm^3
# Si number density = 19.546229 Si / 1000 Ang^3
#
#
#
# Elastic Constant Matrix: (Units=GPa)
#
#
# Indices 1 2 3 4 5 6 
#
# 1 103.4541 27.4443 49.7991 0.0000 0.0000 0.0000
# 2 27.4443 72.6014 26.1409 0.0000 0.0000 0.0000
# 3 49.7991 26.1409 114.1250 0.0000 0.0000 0.0000
# 4 0.0000 0.0000 0.0000 24.8954 0.0000 0.0000
# 5 0.0000 0.0000 0.0000 0.0000 18.0293 0.0000
# 6 0.0000 0.0000 0.0000 0.0000 0.0000 22.3420
#
#
#
# Elastic Compliance Matrix: (Units=1/GPa)
#
#
# Indices 1 2 3 4 5 6 
#
# 1 0.012843 -0.003092 -0.004896 0.000000 0.000000 0.000000
# 2 -0.003092 0.015756 -0.002260 0.000000 0.000000 0.000000
# 3 -0.004896 -0.002260 0.011416 0.000000 0.000000 0.000000
# 4 0.000000 0.000000 0.000000 0.040168 0.000000 0.000000
# 5 0.000000 0.000000 0.000000 0.000000 0.055465 0.000000
# 6 0.000000 0.000000 0.000000 0.000000 0.000000 0.044759
#
#
# Mechanical properties :
#
#
# Convention : Reuss Voigt Hill
#
# Bulk Modulus (GPa) = 51.22904 55.21657 53.22280
# Shear Modulus (GPa) = 24.10684 25.50643 24.80664
#
# Velocity S-wave (km/s) = 3.51568 3.61630 3.56635
# Velocity P-wave (km/s) = 6.53805 6.76368 6.65182
#
# Compressibility (1/GPa) = 0.01952018
#
# Stress axis : x y z
#
# Youngs Moduli (GPa) = 77.86287 63.46645 87.59392
#
# Poissons Ratio (x) = 0.19624 0.42885
# Poissons Ratio (y) = 0.24075 0.19795
# Poissons Ratio (z) = 0.38121 0.14342
#
# Static dielectric constant tensor:
#      x y z
#    x 3.633610 0.000000 0.000000 
#    y 0.000000 3.932370 0.000000 
#    z 0.000000 0.000000 3.317930 
# 
# 
# High freq. dielectric constant tensor:
#      x y z
#    x 1.767790 0.000000 0.000000 
#    y 0.000000 1.785150 0.000000 
#    z 0.000000 0.000000 1.735750 
# 
# From -- ./inp_files/2939.got.cif
#   From: 2010.03.12/outbox.cif.g09.slc.cpg/sg18_2_cif.got.tgz:2939.got - 2010.04.10 18:53:55.
