data_PCOD8156283
_publ_section_title
;
Structure prediction by ZEFSAII (Michael W. Deem and Ramdas Pophale) SiO2 
 PCOD8156283
Probable space group: P 21 21 2
;
_chemical_formula_sum "Si O2"
_cell_formula_units_Z 30
_cell_length_a 19.358506
_cell_length_b 5.372174
_cell_length_c 12.593955
_cell_angle_alpha 90.000000
_cell_angle_beta 90.000000
_cell_angle_gamma 90.000000
_cell_volume 1309.736845
_symmetry_space_group_name_H-M "P 21 21 2"
_symmetry_group_IT_number 18
_symmetry_cell_setting 'orthorhombic'
loop_
_space_group_symop_operation_xyz
x,y,z
-x,-y,z
1/2+x,1/2-y,-z
1/2-x,1/2+y,-z
loop_
_atom_site_type_symbol
_atom_site_label
_atom_site_fract_x
_atom_site_fract_y
_atom_site_fract_z
Si Si1 0.577394 0.032693 0.197263
Si Si2 0.625069 0.306084 0.702236
Si Si3 0.831408 0.370560 0.969191
Si Si4 0.795762 0.990309 0.495195
Si Si5 0.737141 0.073539 0.828916
Si Si6 0.000000 0.500000 0.250778
Si Si7 0.071619 0.884068 0.107844
Si Si8 0.631072 0.509104 0.288783
O O1 0.624059 0.081184 0.091684
O O2 0.602313 0.777810 0.253953
O O3 0.500000 0.000000 0.158379
O O4 0.579677 0.274625 0.273881
O O5 0.652583 0.477137 0.606338
O O6 0.689383 0.125288 0.726937
O O7 0.550429 0.174369 0.675749
O O8 0.615939 0.447157 0.813114
O O9 0.766841 0.309894 0.893931
O O10 0.805623 0.419328 0.087065
O O11 0.886196 0.151287 0.997706
O O12 0.754006 0.731534 0.513217
O O13 0.849266 0.034148 0.589282
O O14 0.802319 0.928846 0.780766
O O15 0.054444 0.637729 0.175356
O O16 0.000000 0.000000 0.070301
#
# Coordination Sequence:
#
# PCOD8156283 Si02
#       8
#     4   4   4   4   4   2   4   4
#     4  11  26  47  72  99 146 193 239 288 343 425
#     4  11  24  43  72 101 144 181 239 298 366 428
#     4  11  23  37  67 100 138 186 236 285 356 417
#     4  12  27  46  79 109 137 186 233 298 373 428
#     4  11  22  40  64 105 136 183 224 302 347 426
#     4  10  22  46  62 100 136 192 222 300 350 420
#     4  10  23  40  65  95 141 181 241 291 350 421
#     4  11  25  48  70 106 141 182 241 296 359 422
#
# _framework density 22.905366999999998
#
# number of rings (size 3 to 8) (size 9 to 14) (size 15 to 20)
#    0.000    1.067    2.667    2.800    6.533    3.200 
#    1.200    2.667    0.000    0.000    0.000    0.000 
#    0.000    0.000    0.000    0.000    0.000    0.000 
#
# Total GULP energy -371678.556401 kJ/mol
# GULP energy per Si atom -12389.285213 kJ/mol
# Density = 2.285323 g / cm^3
# Si number density = 22.905367 Si / 1000 Ang^3
#
#
#
# Elastic Constant Matrix: (Units=GPa)
#
#
# Indices 1 2 3 4 5 6 
#
# 1 87.8218 5.6425 13.7527 0.0000 0.0000 0.0000
# 2 5.6425 79.8353 -13.1577 0.0000 0.0000 0.0000
# 3 13.7527 -13.1577 66.0389 0.0000 0.0000 0.0000
# 4 0.0000 0.0000 0.0000 24.7080 0.0000 0.0000
# 5 0.0000 0.0000 0.0000 0.0000 21.2949 0.0000
# 6 0.0000 0.0000 0.0000 0.0000 0.0000 25.9502
#
#
#
# Elastic Compliance Matrix: (Units=1/GPa)
#
#
# Indices 1 2 3 4 5 6 
#
# 1 0.011898 -0.001292 -0.002735 0.000000 0.000000 0.000000
# 2 -0.001292 0.013091 0.002877 0.000000 0.000000 0.000000
# 3 -0.002735 0.002877 0.016285 0.000000 0.000000 0.000000
# 4 0.000000 0.000000 0.000000 0.040473 0.000000 0.000000
# 5 0.000000 0.000000 0.000000 0.000000 0.046960 0.000000
# 6 0.000000 0.000000 0.000000 0.000000 0.000000 0.038535
#
#
# Mechanical properties :
#
#
# Convention : Reuss Voigt Hill
#
# Bulk Modulus (GPa) = 25.65697 27.35233 26.50465
# Shear Modulus (GPa) = 27.39225 29.55452 28.47339
#
# Velocity S-wave (km/s) = 3.46191 3.59595 3.52957
# Velocity P-wave (km/s) = 5.21588 5.40449 5.31102
#
# Compressibility (1/GPa) = 0.03897576
#
# Stress axis : x y z
#
# Youngs Moduli (GPa) = 84.04779 76.38670 61.40444
#
# Poissons Ratio (x) = 0.09867 0.16795
# Poissons Ratio (y) = 0.10856 -0.17668
# Poissons Ratio (z) = 0.22988 -0.21979
#
# Static dielectric constant tensor:
#      x y z
#    x 4.496140 0.000000 0.000000 
#    y 0.000000 4.261700 0.000000 
#    z 0.000000 0.000000 4.022910 
# 
# 
# High freq. dielectric constant tensor:
#      x y z
#    x 1.925340 0.000000 0.000000 
#    y 0.000000 1.894820 0.000000 
#    z 0.000000 0.000000 1.893070 
# 
# From -- ./inp_files/6289.got.cif
#   From: 2010.03.12/outbox.cif.g09.slc.cpg/sg18_4_cif.got.tgz:6289.got - 2010.04.10 18:53:55.
