data_PCOD8156442
_publ_section_title
;
Structure prediction by ZEFSAII (Michael W. Deem and Ramdas Pophale) SiO2 
 PCOD8156442
Probable space group: P 21 21 2
;
_chemical_formula_sum "Si O2"
_cell_formula_units_Z 18
_cell_length_a 7.669030
_cell_length_b 13.959848
_cell_length_c 7.575232
_cell_angle_alpha 90.000000
_cell_angle_beta 90.000000
_cell_angle_gamma 90.000000
_cell_volume 810.992923
_symmetry_space_group_name_H-M "P 21 21 2"
_symmetry_group_IT_number 18
_symmetry_cell_setting 'orthorhombic'
loop_
_space_group_symop_operation_xyz
x,y,z
-x,-y,z
1/2+x,1/2-y,-z
1/2-x,1/2+y,-z
loop_
_atom_site_type_symbol
_atom_site_label
_atom_site_fract_x
_atom_site_fract_y
_atom_site_fract_z
Si Si1 0.824376 0.057562 0.348861
Si Si2 0.844729 0.075171 0.956402
Si Si3 0.500000 0.000000 0.787538
Si Si4 0.833300 0.381104 0.491977
Si Si5 0.955647 0.189582 0.631727
O O1 0.818782 0.138890 0.498682
O O2 0.678005 0.977590 0.388740
O O3 0.813473 0.109154 0.158029
O O4 0.000000 0.000000 0.366048
O O5 0.899846 0.163644 0.831850
O O6 0.666408 0.024794 0.903564
O O7 0.000000 0.000000 0.943416
O O8 0.545258 0.905750 0.673774
O O9 0.932283 0.303438 0.612548
O O10 0.649682 0.343038 0.417148
#
# Coordination Sequence:
#
# PCOD8156442 Si02
#       5
#     4   4   2   4   4
#     4   9  21  42  68  93 131 177 218 277 338 389
#     4  11  21  43  67  93 132 174 221 278 331 395
#     4  12  22  40  70  96 130 180 222 264 346 394
#     4  11  23  41  70 100 136 180 223 277 343 399
#     4  11  21  44  65  99 138 172 225 280 331 404
#
# _framework density 22.195012999999999
#
# number of rings (size 3 to 8) (size 9 to 14) (size 15 to 20)
#    0.000    1.333    4.444    2.000    0.000    0.889 
#    4.000    0.000    0.000    0.000    0.000    0.000 
#    0.000    0.000    0.000    0.000    0.000    0.000 
#
# Total GULP energy -223147.552498 kJ/mol
# GULP energy per Si atom -12397.086250 kJ/mol
# Density = 2.214450 g / cm^3
# Si number density = 22.195013 Si / 1000 Ang^3
#
#
#
# Elastic Constant Matrix: (Units=GPa)
#
#
# Indices 1 2 3 4 5 6 
#
# 1 103.4292 4.0096 12.2046 0.0000 0.0000 0.0000
# 2 4.0096 70.6813 24.3116 0.0000 0.0000 0.0000
# 3 12.2046 24.3116 120.1911 0.0000 0.0000 0.0000
# 4 0.0000 0.0000 0.0000 1.5851 0.0000 0.0000
# 5 0.0000 0.0000 0.0000 0.0000 9.5133 0.0000
# 6 0.0000 0.0000 0.0000 0.0000 0.0000 31.3789
#
#
#
# Elastic Compliance Matrix: (Units=1/GPa)
#
#
# Indices 1 2 3 4 5 6 
#
# 1 0.009789 -0.000229 -0.000948 0.000000 0.000000 0.000000
# 2 -0.000229 0.015211 -0.003054 0.000000 0.000000 0.000000
# 3 -0.000948 -0.003054 0.009034 0.000000 0.000000 0.000000
# 4 0.000000 0.000000 0.000000 0.630893 0.000000 0.000000
# 5 0.000000 0.000000 0.000000 0.000000 0.105116 0.000000
# 6 0.000000 0.000000 0.000000 0.000000 0.000000 0.031869
#
#
# Mechanical properties :
#
#
# Convention : Reuss Voigt Hill
#
# Bulk Modulus (GPa) = 39.10326 41.70593 40.40459
# Shear Modulus (GPa) = 6.10577 25.41383 15.75980
#
# Velocity S-wave (km/s) = 1.66040 3.38749 2.66759
# Velocity P-wave (km/s) = 4.61868 5.84223 5.26611
#
# Compressibility (1/GPa) = 0.02557332
#
# Stress axis : x y z
#
# Youngs Moduli (GPa) = 102.15382 65.74041 110.69332
#
# Poissons Ratio (x) = 0.01508 0.10490
# Poissons Ratio (y) = 0.02343 0.33801
# Poissons Ratio (z) = 0.09680 0.20074
#
# Static dielectric constant tensor:
#      x y z
#    x 4.340570 0.000000 0.000000 
#    y 0.000000 3.955130 0.000000 
#    z 0.000000 0.000000 4.238330 
# 
# 
# High freq. dielectric constant tensor:
#      x y z
#    x 1.895240 0.000000 0.000000 
#    y 0.000000 1.856500 0.000000 
#    z 0.000000 0.000000 1.867640 
# 
# From -- ./inp_files/2905.got.cif
#   From: 2010.03.12/outbox.cif.g09.slc.cpg/sg18_2_cif.got.tgz:2905.got - 2010.04.10 18:53:55.
