data_PCOD8156224
_publ_section_title
;
Structure prediction by ZEFSAII (Michael W. Deem and Ramdas Pophale) SiO2 
 PCOD8156224
Probable space group: P 21 21 2
;
_chemical_formula_sum "Si O2"
_cell_formula_units_Z 14
_cell_length_a 7.229973
_cell_length_b 11.035628
_cell_length_c 8.532840
_cell_angle_alpha 90.000000
_cell_angle_beta 90.000000
_cell_angle_gamma 90.000000
_cell_volume 680.812201
_symmetry_space_group_name_H-M "P 21 21 2"
_symmetry_group_IT_number 18
_symmetry_cell_setting 'orthorhombic'
loop_
_space_group_symop_operation_xyz
x,y,z
-x,-y,z
1/2+x,1/2-y,-z
1/2-x,1/2+y,-z
loop_
_atom_site_type_symbol
_atom_site_label
_atom_site_fract_x
_atom_site_fract_y
_atom_site_fract_z
Si Si1 0.000000 0.000000 0.942968
Si Si2 0.784260 0.084107 0.223803
Si Si3 0.507448 0.282280 0.288097
Si Si4 0.143808 0.159855 0.370984
O O1 0.047480 0.114600 0.837244
O O2 0.821791 0.028302 0.051730
O O3 0.594555 0.157617 0.222816
O O4 0.955494 0.172818 0.270505
O O5 0.772987 0.975423 0.350521
O O6 0.288975 0.260861 0.312010
O O7 0.607356 0.320201 0.447025
#
# Coordination Sequence:
#
# PCOD8156224 Si02
#       4
#     2   4   4   4
#     4  10  26  40  68  96 132 166 212 266 318 396
#     4  10  24  45  61  96 134 163 217 261 321 385
#     4  12  22  43  70  94 130 167 214 264 328 370
#     4  10  22  41  67  94 125 170 211 269 307 379
#
# _framework density 20.563675
#
# number of rings (size 3 to 8) (size 9 to 14) (size 15 to 20)
#    0.000    1.714    2.857    2.571    8.000    0.000 
#    0.000    1.429    0.000    0.000    0.000    0.000 
#    0.000    0.000    0.000    0.000    0.000    0.000 
#
# Total GULP energy -173624.565935 kJ/mol
# GULP energy per Si atom -12401.754710 kJ/mol
# Density = 2.051687 g / cm^3
# Si number density = 20.563675 Si / 1000 Ang^3
#
#
#
# Elastic Constant Matrix: (Units=GPa)
#
#
# Indices 1 2 3 4 5 6 
#
# 1 77.4466 26.0897 38.6883 0.0000 0.0000 0.0000
# 2 26.0897 77.4079 41.8894 0.0000 0.0000 0.0000
# 3 38.6883 41.8894 126.0514 0.0000 0.0000 0.0000
# 4 0.0000 0.0000 0.0000 83.4758 0.0000 0.0000
# 5 0.0000 0.0000 0.0000 0.0000 25.0604 0.0000
# 6 0.0000 0.0000 0.0000 0.0000 0.0000 33.2245
#
#
#
# Elastic Compliance Matrix: (Units=1/GPa)
#
#
# Indices 1 2 3 4 5 6 
#
# 1 0.015920 -0.003318 -0.003784 0.000000 0.000000 0.000000
# 2 -0.003318 0.016443 -0.004446 0.000000 0.000000 0.000000
# 3 -0.003784 -0.004446 0.010572 0.000000 0.000000 0.000000
# 4 0.000000 0.000000 0.000000 0.011980 0.000000 0.000000
# 5 0.000000 0.000000 0.000000 0.000000 0.039904 0.000000
# 6 0.000000 0.000000 0.000000 0.000000 0.000000 0.030098
#
#
# Mechanical properties :
#
#
# Convention : Reuss Voigt Hill
#
# Bulk Modulus (GPa) = 50.40424 54.91564 52.65994
# Shear Modulus (GPa) = 32.33639 39.96806 36.15222
#
# Velocity S-wave (km/s) = 3.96978 4.41344 4.19747
# Velocity P-wave (km/s) = 6.75105 7.26184 7.01110
#
# Compressibility (1/GPa) = 0.01983960
#
# Stress axis : x y z
#
# Youngs Moduli (GPa) = 62.81409 60.81674 94.58975
#
# Poissons Ratio (x) = 0.20181 0.35788
# Poissons Ratio (y) = 0.20843 0.42053
# Poissons Ratio (z) = 0.23766 0.27038
#
# Static dielectric constant tensor:
#      x y z
#    x 3.288590 0.000000 0.000000 
#    y 0.000000 3.727520 0.000000 
#    z 0.000000 0.000000 3.762710 
# 
# 
# High freq. dielectric constant tensor:
#      x y z
#    x 1.796410 0.000000 0.000000 
#    y 0.000000 1.801470 0.000000 
#    z 0.000000 0.000000 1.807310 
# 
# From -- ./inp_files/2719.got.cif
#   From: 2010.03.12/outbox.cif.g09.slc.cpg/sg18_2_cif.got.tgz:2719.got - 2010.04.10 18:53:55.
