data_PCOD8156849
_publ_section_title
;
Structure prediction by ZEFSAII (Michael W. Deem and Ramdas Pophale) SiO2 
 PCOD8156849
Probable space group: P 21 21 21
;
_chemical_formula_sum "Si O2"
_cell_formula_units_Z 28
_cell_length_a 8.141290
_cell_length_b 9.289840
_cell_length_c 17.709039
_cell_angle_alpha 90.000000
_cell_angle_beta 90.000000
_cell_angle_gamma 90.000000
_cell_volume 1339.357314
_symmetry_space_group_name_H-M "P 21 21 21"
_symmetry_group_IT_number 19
_symmetry_cell_setting 'orthorhombic'
loop_
_space_group_symop_operation_xyz
x,y,z
1/2-x,-y,1/2+z
1/2+x,1/2-y,-z
-x,1/2+y,1/2-z
loop_
_atom_site_type_symbol
_atom_site_label
_atom_site_fract_x
_atom_site_fract_y
_atom_site_fract_z
Si Si1 0.039206 0.056707 0.114286
Si Si2 0.599034 0.624887 0.027101
Si Si3 0.289852 0.932878 0.235121
Si Si4 0.008899 0.370722 0.157534
Si Si5 0.031482 0.143078 0.422891
Si Si6 0.829245 0.850130 0.190218
Si Si7 0.488857 0.179016 0.314293
O O1 0.015744 0.226329 0.109365
O O2 0.194820 0.001329 0.163727
O O3 0.869055 0.003302 0.152552
O O4 0.050537 0.004004 0.028471
O O5 0.787979 0.608148 0.047368
O O6 0.482584 0.614188 0.101696
O O7 0.574114 0.779103 0.987012
O O8 0.166958 0.910736 0.305422
O O9 0.357373 0.771930 0.216258
O O10 0.431632 0.048807 0.258933
O O11 0.058982 0.495580 0.099179
O O12 0.148922 0.356219 0.220385
O O13 0.039266 0.239186 0.346663
O O14 0.647114 0.802034 0.172670
#
# Coordination Sequence:
#
# PCOD8156849 Si02
#       7
#     4   4   4   4   4   4   4
#     4  10  21  37  65  93 123 167 216 255 313 379
#     4  10  21  42  60  89 126 172 204 251 319 391
#     4  11  23  40  63  98 128 166 209 270 320 369
#     4  11  19  39  63  91 121 159 218 267 297 372
#     4  10  20  39  63  85 125 163 206 258 309 383
#     4   9  18  37  62  89 122 161 210 248 312 382
#     4  11  22  42  62  93 133 160 211 263 326 374
#
# _framework density 20.905549000000001
#
# number of rings (size 3 to 8) (size 9 to 14) (size 15 to 20)
#    0.000    1.714    4.286    1.714    2.000    0.000 
#    2.571    7.143    0.000    0.000    0.000    0.000 
#    0.000    0.000    0.000    0.000    0.000    0.000 
#
# Total GULP energy -347090.775573 kJ/mol
# GULP energy per Si atom -12396.099128 kJ/mol
# Density = 2.085797 g / cm^3
# Si number density = 20.905549 Si / 1000 Ang^3
#
#
#
# Elastic Constant Matrix: (Units=GPa)
#
#
# Indices 1 2 3 4 5 6 
#
# 1 20.6430 -5.3064 5.5920 0.0000 0.0000 0.0000
# 2 -5.3064 96.9601 37.2062 0.0000 0.0000 0.0000
# 3 5.5920 37.2062 103.6718 0.0000 0.0000 0.0000
# 4 0.0000 0.0000 0.0000 15.8799 0.0000 0.0000
# 5 0.0000 0.0000 0.0000 0.0000 26.1896 0.0000
# 6 0.0000 0.0000 0.0000 0.0000 0.0000 30.8028
#
#
#
# Elastic Compliance Matrix: (Units=1/GPa)
#
#
# Indices 1 2 3 4 5 6 
#
# 1 0.050757 0.004440 -0.004331 0.000000 0.000000 0.000000
# 2 0.004440 0.012349 -0.004671 0.000000 0.000000 0.000000
# 3 -0.004331 -0.004671 0.011556 0.000000 0.000000 0.000000
# 4 0.000000 0.000000 0.000000 0.062973 0.000000 0.000000
# 5 0.000000 0.000000 0.000000 0.000000 0.038183 0.000000
# 6 0.000000 0.000000 0.000000 0.000000 0.000000 0.032465
#
#
# Mechanical properties :
#
#
# Convention : Reuss Voigt Hill
#
# Bulk Modulus (GPa) = 15.25865 32.91760 24.08813
# Shear Modulus (GPa) = 20.89834 26.82666 23.86250
#
# Velocity S-wave (km/s) = 3.16516 3.58611 3.38219
# Velocity P-wave (km/s) = 4.54669 5.73820 5.17684
#
# Compressibility (1/GPa) = 0.06553658
#
# Stress axis : x y z
#
# Youngs Moduli (GPa) = 19.70168 80.97805 86.53570
#
# Poissons Ratio (x) = -0.35953 0.37480
# Poissons Ratio (y) = -0.08747 0.40424
# Poissons Ratio (z) = 0.08533 0.37828
#
# Static dielectric constant tensor:
#      x y z
#    x 3.572490 0.000000 0.000000 
#    y 0.000000 3.880610 0.000000 
#    z 0.000000 0.000000 3.931550 
# 
# 
# High freq. dielectric constant tensor:
#      x y z
#    x 1.797800 0.000000 0.000000 
#    y 0.000000 1.820460 0.000000 
#    z 0.000000 0.000000 1.818120 
# 
# From -- ./inp_files/3030.got.cif
#   From: 2010.03.12/outbox.cif.g09.slc.cpg/sg19_2_cif.got.tgz:3030.got - 2010.04.10 18:59:41.
