data_PCOD8156854
_publ_section_title
;
Structure prediction by ZEFSAII (Michael W. Deem and Ramdas Pophale) SiO2 
 PCOD8156854
Probable space group: P 21 21 21
;
_chemical_formula_sum "Si O2"
_cell_formula_units_Z 32
_cell_length_a 14.514923
_cell_length_b 8.157874
_cell_length_c 12.877686
_cell_angle_alpha 90.000000
_cell_angle_beta 90.000000
_cell_angle_gamma 90.000000
_cell_volume 1524.858556
_symmetry_space_group_name_H-M "P 21 21 21"
_symmetry_group_IT_number 19
_symmetry_cell_setting 'orthorhombic'
loop_
_space_group_symop_operation_xyz
x,y,z
1/2-x,-y,1/2+z
1/2+x,1/2-y,-z
-x,1/2+y,1/2-z
loop_
_atom_site_type_symbol
_atom_site_label
_atom_site_fract_x
_atom_site_fract_y
_atom_site_fract_z
Si Si1 0.086383 0.050723 0.428325
Si Si2 0.764973 0.035317 0.929006
Si Si3 0.123221 0.330424 0.733255
Si Si4 0.403471 0.427991 0.692984
Si Si5 0.290306 0.175993 0.207558
Si Si6 0.318320 0.630343 0.870377
Si Si7 0.534240 0.493388 0.339926
Si Si8 0.300130 0.139894 0.779036
O O1 0.131972 0.229694 0.437852
O O2 0.008454 0.057991 0.340473
O O3 0.046245 0.990896 0.536770
O O4 0.163907 0.921598 0.390805
O O5 0.839970 0.931295 0.864655
O O6 0.661707 0.979941 0.902178
O O7 0.776424 0.227197 0.900759
O O8 0.780519 0.007428 0.051134
O O9 0.209919 0.253545 0.795406
O O10 0.068750 0.453115 0.809608
O O11 0.052756 0.191757 0.695044
O O12 0.389634 0.545280 0.792228
O O13 0.380537 0.240531 0.722065
O O14 0.266893 0.296164 0.304020
O O15 0.394919 0.115391 0.217998
O O16 0.223318 0.017552 0.206916
#
# Coordination Sequence:
#
# PCOD8156854 Si02
#       8
#     4   4   4   4   4   4   4   4
#     4  11  22  40  64  91 126 170 216 260 324 391
#     4  10  20  39  64  90 124 170 212 250 335 380
#     4  10  21  40  63  93 130 168 213 273 319 377
#     4  10  22  37  63  92 124 166 210 268 311 387
#     4   9  21  39  64  90 124 169 207 274 314 384
#     4  10  21  41  62  89 130 167 209 265 327 382
#     4  11  22  39  65  91 126 168 221 267 321 379
#     4   9  21  41  63  90 132 168 208 269 323 374
#
# _framework density 20.985554
#
# number of rings (size 3 to 8) (size 9 to 14) (size 15 to 20)
#    0.000    2.000    1.250    1.500    1.750    4.000 
#    2.250    0.000    0.000    0.000    0.000    0.000 
#    0.000    0.000    0.000    0.000    0.000    0.000 
#
# Total GULP energy -396827.424947 kJ/mol
# GULP energy per Si atom -12400.857030 kJ/mol
# Density = 2.093779 g / cm^3
# Si number density = 20.985554 Si / 1000 Ang^3
#
#
#
# Elastic Constant Matrix: (Units=GPa)
#
#
# Indices 1 2 3 4 5 6 
#
# 1 79.3969 33.5439 38.0118 0.0000 0.0000 0.0000
# 2 33.5439 84.5616 24.4718 0.0000 0.0000 0.0000
# 3 38.0118 24.4718 94.0922 0.0000 0.0000 0.0000
# 4 0.0000 0.0000 0.0000 28.8424 0.0000 0.0000
# 5 0.0000 0.0000 0.0000 0.0000 26.3866 0.0000
# 6 0.0000 0.0000 0.0000 0.0000 0.0000 31.7905
#
#
#
# Elastic Compliance Matrix: (Units=1/GPa)
#
#
# Indices 1 2 3 4 5 6 
#
# 1 0.017580 -0.005319 -0.005719 0.000000 0.000000 0.000000
# 2 -0.005319 0.014397 -0.001596 0.000000 0.000000 0.000000
# 3 -0.005719 -0.001596 0.013353 0.000000 0.000000 0.000000
# 4 0.000000 0.000000 0.000000 0.034671 0.000000 0.000000
# 5 0.000000 0.000000 0.000000 0.000000 0.037898 0.000000
# 6 0.000000 0.000000 0.000000 0.000000 0.000000 0.031456
#
#
# Mechanical properties :
#
#
# Convention : Reuss Voigt Hill
#
# Bulk Modulus (GPa) = 49.84049 50.01175 49.92612
# Shear Modulus (GPa) = 27.57711 28.20546 27.89128
#
# Velocity S-wave (km/s) = 3.62898 3.67009 3.64960
# Velocity P-wave (km/s) = 6.43124 6.46859 6.44994
#
# Compressibility (1/GPa) = 0.02006401
#
# Stress axis : x y z
#
# Youngs Moduli (GPa) = 56.88327 69.45741 74.88838
#
# Poissons Ratio (x) = 0.36942 0.42827
# Poissons Ratio (y) = 0.30254 0.11951
# Poissons Ratio (z) = 0.32530 0.11084
#
# Static dielectric constant tensor:
#      x y z
#    x 3.683800 0.000000 0.000000 
#    y 0.000000 4.066990 0.000000 
#    z 0.000000 0.000000 3.477440 
# 
# 
# High freq. dielectric constant tensor:
#      x y z
#    x 1.817470 0.000000 0.000000 
#    y 0.000000 1.839250 0.000000 
#    z 0.000000 0.000000 1.804480 
# 
# From -- ./inp_files/4708.got.cif
#   From: 2010.03.12/outbox.cif.g09.slc.cpg/sg19_3_cif.got.tgz:4708.got - 2010.04.10 18:59:41.
