data_PCOD8156163
_publ_section_title
;
Structure prediction by ZEFSAII (Michael W. Deem and Ramdas Pophale) SiO2 
 PCOD8156163
Probable space group: P 21 21 2
;
_chemical_formula_sum "Si O2"
_cell_formula_units_Z 14
_cell_length_a 7.368957
_cell_length_b 9.437927
_cell_length_c 8.293860
_cell_angle_alpha 90.000000
_cell_angle_beta 90.000000
_cell_angle_gamma 90.000000
_cell_volume 576.818707
_symmetry_space_group_name_H-M "P 21 21 2"
_symmetry_group_IT_number 18
_symmetry_cell_setting 'orthorhombic'
loop_
_space_group_symop_operation_xyz
x,y,z
-x,-y,z
1/2+x,1/2-y,-z
1/2-x,1/2+y,-z
loop_
_atom_site_type_symbol
_atom_site_label
_atom_site_fract_x
_atom_site_fract_y
_atom_site_fract_z
Si Si1 0.778563 0.228931 0.321418
Si Si2 0.306806 0.016293 0.891229
Si Si3 0.000000 0.000000 0.122968
Si Si4 0.908850 0.152279 0.663281
O O1 0.853339 0.377803 0.255817
O O2 0.800977 0.215678 0.512555
O O3 0.561565 0.231893 0.287416
O O4 0.884904 0.105606 0.231416
O O5 0.229848 0.869204 0.813297
O O6 0.500000 0.000000 0.982885
O O7 0.151117 0.077534 0.010551
O O8 0.000000 0.000000 0.620835
#
# Coordination Sequence:
#
# PCOD8156163 Si02
#       4
#     4   4   2   4
#     4  11  23  45  75 101 149 184 243 297 356 430
#     4  11  25  46  73 103 148 188 238 299 358 433
#     4  12  26  46  70 112 146 188 236 292 380 420
#     4  10  21  46  72 106 138 191 246 294 352 424
#
# _framework density 24.271056999999999
#
# number of rings (size 3 to 8) (size 9 to 14) (size 15 to 20)
#    0.000    1.143    5.714    1.714    4.000    0.000 
#    5.143    1.429    0.000    0.000    0.000    0.000 
#    0.000    0.000    0.000    0.000    0.000    0.000 
#
# Total GULP energy -173456.384689 kJ/mol
# GULP energy per Si atom -12389.741763 kJ/mol
# Density = 2.421581 g / cm^3
# Si number density = 24.271057 Si / 1000 Ang^3
#
#
#
# Elastic Constant Matrix: (Units=GPa)
#
#
# Indices 1 2 3 4 5 6 
#
# 1 214.6158 56.9040 55.6602 0.0000 0.0000 0.0000
# 2 56.9040 73.4641 28.9350 0.0000 0.0000 0.0000
# 3 55.6602 28.9350 87.9393 0.0000 0.0000 0.0000
# 4 0.0000 0.0000 0.0000 24.1504 0.0000 0.0000
# 5 0.0000 0.0000 0.0000 0.0000 20.6439 0.0000
# 6 0.0000 0.0000 0.0000 0.0000 0.0000 43.7983
#
#
#
# Elastic Compliance Matrix: (Units=1/GPa)
#
#
# Indices 1 2 3 4 5 6 
#
# 1 0.006406 -0.003866 -0.002783 0.000000 0.000000 0.000000
# 2 -0.003866 0.017972 -0.003466 0.000000 0.000000 0.000000
# 3 -0.002783 -0.003466 0.014273 0.000000 0.000000 0.000000
# 4 0.000000 0.000000 0.000000 0.041407 0.000000 0.000000
# 5 0.000000 0.000000 0.000000 0.000000 0.048440 0.000000
# 6 0.000000 0.000000 0.000000 0.000000 0.000000 0.022832
#
#
# Mechanical properties :
#
#
# Convention : Reuss Voigt Hill
#
# Bulk Modulus (GPa) = 54.28534 73.22418 63.75476
# Shear Modulus (GPa) = 28.13700 33.35319 30.74509
#
# Velocity S-wave (km/s) = 3.40852 3.71104 3.56299
# Velocity P-wave (km/s) = 6.15674 6.97117 6.57658
#
# Compressibility (1/GPa) = 0.01842118
#
# Stress axis : x y z
#
# Youngs Moduli (GPa) = 156.09735 55.64197 70.06090
#
# Poissons Ratio (x) = 0.21512 0.19496
# Poissons Ratio (y) = 0.60350 0.24286
# Poissons Ratio (z) = 0.43437 0.19288
#
# Static dielectric constant tensor:
#      x y z
#    x 5.241860 0.000000 0.000000 
#    y 0.000000 4.039020 0.000000 
#    z 0.000000 0.000000 4.346310 
# 
# 
# High freq. dielectric constant tensor:
#      x y z
#    x 1.989620 0.000000 0.000000 
#    y 0.000000 1.929660 0.000000 
#    z 0.000000 0.000000 1.958560 
# 
# From -- ./inp_files/2729.got.cif
#   From: 2010.03.12/outbox.cif.g09.slc.cpg/sg18_2_cif.got.tgz:2729.got - 2010.04.10 18:53:55.
