data_PCOD8156054
_publ_section_title
;
Structure prediction by ZEFSAII (Michael W. Deem and Ramdas Pophale) SiO2 
 PCOD8156054
Probable space group: P 21 21 2
;
_chemical_formula_sum "Si O2"
_cell_formula_units_Z 18
_cell_length_a 6.456946
_cell_length_b 7.343717
_cell_length_c 16.896757
_cell_angle_alpha 90.000000
_cell_angle_beta 90.000000
_cell_angle_gamma 90.000000
_cell_volume 801.210155
_symmetry_space_group_name_H-M "P 21 21 2"
_symmetry_group_IT_number 18
_symmetry_cell_setting 'orthorhombic'
loop_
_space_group_symop_operation_xyz
x,y,z
-x,-y,z
1/2+x,1/2-y,-z
1/2-x,1/2+y,-z
loop_
_atom_site_type_symbol
_atom_site_label
_atom_site_fract_x
_atom_site_fract_y
_atom_site_fract_z
Si Si1 0.000000 0.500000 0.326554
Si Si2 0.639386 0.165626 0.092487
Si Si3 0.671572 0.756978 0.402287
Si Si4 0.000000 0.000000 0.470522
Si Si5 0.500000 0.500000 0.992925
Si Si6 0.881527 0.814677 0.739139
O O1 0.161181 0.394795 0.380727
O O2 0.137555 0.642515 0.275858
O O3 0.609642 0.181302 0.186445
O O4 0.500000 0.000000 0.060409
O O5 0.606084 0.357611 0.050826
O O6 0.867807 0.112613 0.069136
O O7 0.551867 0.680223 0.478893
O O8 0.499890 0.784771 0.333680
O O9 0.796023 0.945776 0.418601
O O10 0.000000 0.000000 0.759836
#
# Coordination Sequence:
#
# PCOD8156054 Si02
#       6
#     2   4   4   2   2   4
#     4  10  20  44  68 100 142 186 242 296 366 430
#     4  12  26  46  75 109 150 194 243 304 365 442
#     4  11  24  44  67 105 138 195 241 306 363 438
#     4  12  24  43  75  96 144 190 248 300 372 430
#     4  12  26  45  77 110 144 194 250 296 366 446
#     4  10  23  44  72 102 147 189 243 302 369 438
#
# _framework density 22.466018999999999
#
# number of rings (size 3 to 8) (size 9 to 14) (size 15 to 20)
#    0.000    0.889    6.667    1.333    0.000    7.111 
#    0.000    0.000    0.000    0.000    0.000    0.000 
#    0.000    0.000    0.000    0.000    0.000    0.000 
#
# Total GULP energy -223148.681741 kJ/mol
# GULP energy per Si atom -12397.148986 kJ/mol
# Density = 2.241488 g / cm^3
# Si number density = 22.466019 Si / 1000 Ang^3
#
#
#
# Elastic Constant Matrix: (Units=GPa)
#
#
# Indices 1 2 3 4 5 6 
#
# 1 128.9189 39.3526 59.6683 0.0000 0.0000 0.0000
# 2 39.3526 101.2906 51.4716 0.0000 0.0000 0.0000
# 3 59.6683 51.4716 133.1438 0.0000 0.0000 0.0000
# 4 0.0000 0.0000 0.0000 45.8090 0.0000 0.0000
# 5 0.0000 0.0000 0.0000 0.0000 30.1231 0.0000
# 6 0.0000 0.0000 0.0000 0.0000 0.0000 55.4335
#
#
#
# Elastic Compliance Matrix: (Units=1/GPa)
#
#
# Indices 1 2 3 4 5 6 
#
# 1 0.010109 -0.002023 -0.003748 0.000000 0.000000 0.000000
# 2 -0.002023 0.012691 -0.004000 0.000000 0.000000 0.000000
# 3 -0.003748 -0.004000 0.010737 0.000000 0.000000 0.000000
# 4 0.000000 0.000000 0.000000 0.021830 0.000000 0.000000
# 5 0.000000 0.000000 0.000000 0.000000 0.033197 0.000000
# 6 0.000000 0.000000 0.000000 0.000000 0.000000 0.018040
#
#
# Mechanical properties :
#
#
# Convention : Reuss Voigt Hill
#
# Bulk Modulus (GPa) = 71.45328 73.81537 72.63432
# Shear Modulus (GPa) = 38.22336 40.46384 39.34360
#
# Velocity S-wave (km/s) = 4.12926 4.24856 4.18933
# Velocity P-wave (km/s) = 7.38976 7.54949 7.47005
#
# Compressibility (1/GPa) = 0.01399516
#
# Stress axis : x y z
#
# Youngs Moduli (GPa) = 98.91998 78.79668 93.13791
#
# Poissons Ratio (x) = 0.15938 0.34912
# Poissons Ratio (y) = 0.20009 0.37252
# Poissons Ratio (z) = 0.37080 0.31516
#
# Static dielectric constant tensor:
#      x y z
#    x 4.508500 0.000000 0.000000 
#    y 0.000000 3.823510 0.000000 
#    z 0.000000 0.000000 3.937430 
# 
# 
# High freq. dielectric constant tensor:
#      x y z
#    x 1.896740 0.000000 0.000000 
#    y 0.000000 1.886950 0.000000 
#    z 0.000000 0.000000 1.878810 
# 
# From -- ./inp_files/7104.got.cif
#   From: 2010.03.12/outbox.cif.g09.slc.cpg/sg18_4_cif.got.tgz:7104.got - 2010.04.10 18:53:55.
