data_PCOD8156926
_publ_section_title
;
Structure prediction by ZEFSAII (Michael W. Deem and Ramdas Pophale) SiO2 
 PCOD8156926
Probable space group: P 21 21 21
;
_chemical_formula_sum "Si O2"
_cell_formula_units_Z 32
_cell_length_a 5.682667
_cell_length_b 30.486601
_cell_length_c 7.521005
_cell_angle_alpha 90.000000
_cell_angle_beta 90.000000
_cell_angle_gamma 90.000000
_cell_volume 1302.978026
_symmetry_space_group_name_H-M "P 21 21 21"
_symmetry_group_IT_number 19
_symmetry_cell_setting 'orthorhombic'
loop_
_space_group_symop_operation_xyz
x,y,z
1/2-x,-y,1/2+z
1/2+x,1/2-y,-z
-x,1/2+y,1/2-z
loop_
_atom_site_type_symbol
_atom_site_label
_atom_site_fract_x
_atom_site_fract_y
_atom_site_fract_z
Si Si1 0.500002 0.604264 0.500000
Si Si2 0.606138 0.860302 0.693909
Si Si3 0.002109 0.733830 0.199839
Si Si4 0.499999 0.514788 0.999999
Si Si5 0.106135 0.139698 0.806094
Si Si6 0.656404 0.943350 0.242752
Si Si7 0.843597 0.556649 0.242750
Si Si8 0.997894 0.733831 0.800159
O O1 0.385823 0.634910 0.344771
O O2 0.614180 0.634910 0.655227
O O3 0.318975 0.572229 0.595018
O O4 0.681030 0.572229 0.404982
O O5 0.522672 0.818693 0.806525
O O6 0.499999 0.855051 0.500002
O O7 0.525855 0.904208 0.796424
O O8 0.250001 0.749999 0.293486
O O9 0.750002 0.749999 0.288791
O O10 0.000001 0.752783 1.000000
O O11 0.281080 0.546028 0.945774
O O12 0.535906 0.487070 0.820010
O O13 0.464094 0.487069 0.179987
O O14 0.718917 0.546028 0.054225
O O15 0.025851 0.095793 0.703578
O O16 0.022667 0.181308 0.693482
#
# Coordination Sequence:
#
# PCOD8156926 Si02
#       8
#     4   4   4   4   4   4   4   4
#     4  10  20  44  66  97 136 180 233 300 358 436
#     4  10  23  42  68  99 138 181 234 291 367 433
#     4  10  24  45  69 102 142 184 236 299 363 445
#     4  12  24  44  68  95 142 188 239 298 364 426
#     4  10  23  42  68  99 138 181 234 291 367 433
#     4  11  24  43  64 100 136 185 237 297 359 434
#     4  11  24  43  64 100 136 185 237 297 359 434
#     4  10  24  45  69 102 142 184 236 299 363 445
#
# _framework density 24.559125000000002
#
# number of rings (size 3 to 8) (size 9 to 14) (size 15 to 20)
#    0.000    1.500    3.750    1.500    7.000    3.000 
#    2.250    0.000    0.000    0.000    0.000    0.000 
#    0.000    0.000    0.000    0.000    0.000    0.000 
#
# Total GULP energy -396461.502863 kJ/mol
# GULP energy per Si atom -12389.421964 kJ/mol
# Density = 2.450323 g / cm^3
# Si number density = 24.559125 Si / 1000 Ang^3
#
#
#
# Elastic Constant Matrix: (Units=GPa)
#
#
# Indices 1 2 3 4 5 6 
#
# 1 162.6800 71.8191 6.0769 0.0000 0.0000 0.0000
# 2 71.8191 136.8483 28.5663 0.0000 0.0000 0.0000
# 3 6.0769 28.5663 41.8583 0.0000 0.0000 0.0000
# 4 0.0000 0.0000 0.0000 29.3837 0.0000 0.0000
# 5 0.0000 0.0000 0.0000 0.0000 35.4392 0.0000
# 6 0.0000 0.0000 0.0000 0.0000 0.0000 29.3499
#
#
#
# Elastic Compliance Matrix: (Units=1/GPa)
#
#
# Indices 1 2 3 4 5 6 
#
# 1 0.008145 -0.004697 0.002023 0.000000 0.000000 0.000000
# 2 -0.004697 0.011230 -0.006982 0.000000 0.000000 0.000000
# 3 0.002023 -0.006982 0.028361 0.000000 0.000000 0.000000
# 4 0.000000 0.000000 0.000000 0.034032 0.000000 0.000000
# 5 0.000000 0.000000 0.000000 0.000000 0.028217 0.000000
# 6 0.000000 0.000000 0.000000 0.000000 0.000000 0.034072
#
#
# Mechanical properties :
#
#
# Convention : Reuss Voigt Hill
#
# Bulk Modulus (GPa) = 35.18111 61.59012 48.38561
# Shear Modulus (GPa) = 28.92784 34.49617 31.71201
#
# Velocity S-wave (km/s) = 3.43576 3.75189 3.59730
# Velocity P-wave (km/s) = 5.48593 6.62583 6.08264
#
# Compressibility (1/GPa) = 0.02842435
#
# Stress axis : x y z
#
# Youngs Moduli (GPa) = 122.77463 89.04945 35.25938
#
# Poissons Ratio (x) = 0.41825 -0.07133
# Poissons Ratio (y) = 0.57665 0.24618
# Poissons Ratio (z) = -0.24836 0.62173
#
# Static dielectric constant tensor:
#      x y z
#    x 6.018000 0.000000 0.000000 
#    y 0.000000 4.432260 0.000000 
#    z 0.000000 0.000000 3.948450 
# 
# 
# High freq. dielectric constant tensor:
#      x y z
#    x 1.990180 0.000000 0.000000 
#    y 0.000000 1.972360 0.000000 
#    z 0.000000 0.000000 1.949230 
# 
# From -- ./inp_files/2525.got.cif
#   From: 2010.03.12/outbox.cif.g09.slc.cpg/sg19_2_cif.got.tgz:2525.got - 2010.04.10 18:59:41.
