data_PCOD8156834
_publ_section_title
;
Structure prediction by ZEFSAII (Michael W. Deem and Ramdas Pophale) SiO2 
 PCOD8156834
Probable space group: P 21 21 21
;
_chemical_formula_sum "Si O2"
_cell_formula_units_Z 32
_cell_length_a 11.606586
_cell_length_b 9.197356
_cell_length_c 14.910438
_cell_angle_alpha 90.000000
_cell_angle_beta 90.000000
_cell_angle_gamma 90.000000
_cell_volume 1591.687816
_symmetry_space_group_name_H-M "P 21 21 21"
_symmetry_group_IT_number 19
_symmetry_cell_setting 'orthorhombic'
loop_
_space_group_symop_operation_xyz
x,y,z
1/2-x,-y,1/2+z
1/2+x,1/2-y,-z
-x,1/2+y,1/2-z
loop_
_atom_site_type_symbol
_atom_site_label
_atom_site_fract_x
_atom_site_fract_y
_atom_site_fract_z
Si Si1 0.759497 0.634128 0.327082
Si Si2 0.134161 0.296792 0.327097
Si Si3 0.603003 0.619639 0.763686
Si Si4 0.432991 0.986205 0.914690
Si Si5 0.175585 0.490532 0.867479
Si Si6 0.217654 0.344925 0.680467
Si Si7 0.580042 0.428960 0.386716
Si Si8 0.686083 0.095551 0.938440
O O1 0.770552 0.723503 0.236069
O O2 0.857128 0.508461 0.331131
O O3 0.634870 0.554982 0.324364
O O4 0.776477 0.743776 0.409199
O O5 0.068313 0.184853 0.390966
O O6 0.210558 0.411888 0.379946
O O7 0.035409 0.374401 0.268369
O O8 0.638875 0.576994 0.660693
O O9 0.660681 0.770318 0.794042
O O10 0.558613 0.053862 0.909768
O O11 0.381242 0.986566 0.014538
O O12 0.167671 0.405359 0.773987
O O13 0.057351 0.582186 0.876901
O O14 0.190942 0.389044 0.954105
O O15 0.130134 0.228796 0.637684
O O16 0.231961 0.473865 0.608013
#
# Coordination Sequence:
#
# PCOD8156834 Si02
#       8
#     4   4   4   4   4   4   4   4
#     4  10  22  39  61  88 125 157 195 261 309 362
#     4  11  20  39  66  92 119 156 205 262 312 365
#     4  10  21  37  66  94 117 156 205 256 329 352
#     4  10  20  38  64  91 125 153 205 261 305 375
#     4  11  25  37  66  91 123 167 213 248 308 375
#     4  11  22  42  65  86 127 166 207 255 307 377
#     4  10  25  42  59  86 130 170 206 249 305 377
#     4  11  21  40  63  96 124 159 206 258 313 361
#
# _framework density 20.104444999999998
#
# number of rings (size 3 to 8) (size 9 to 14) (size 15 to 20)
#    0.000    1.500    3.750    0.750    5.250    0.000 
#    2.250    0.000    2.750    0.000    0.000    0.000 
#    0.000    0.000    0.000    0.000    0.000    0.000 
#
# Total GULP energy -396558.198764 kJ/mol
# GULP energy per Si atom -12392.443711 kJ/mol
# Density = 2.005869 g / cm^3
# Si number density = 20.104445 Si / 1000 Ang^3
#
#
#
# Elastic Constant Matrix: (Units=GPa)
#
#
# Indices 1 2 3 4 5 6 
#
# 1 66.2729 21.1286 28.8289 0.0000 0.0000 0.0000
# 2 21.1286 77.4890 22.0416 0.0000 0.0000 0.0000
# 3 28.8289 22.0416 90.9379 0.0000 0.0000 0.0000
# 4 0.0000 0.0000 0.0000 28.5163 0.0000 0.0000
# 5 0.0000 0.0000 0.0000 0.0000 25.5761 0.0000
# 6 0.0000 0.0000 0.0000 0.0000 0.0000 22.3695
#
#
#
# Elastic Compliance Matrix: (Units=1/GPa)
#
#
# Indices 1 2 3 4 5 6 
#
# 1 0.018395 -0.003606 -0.004958 0.000000 0.000000 0.000000
# 2 -0.003606 0.014567 -0.002388 0.000000 0.000000 0.000000
# 3 -0.004958 -0.002388 0.013147 0.000000 0.000000 0.000000
# 4 0.000000 0.000000 0.000000 0.035068 0.000000 0.000000
# 5 0.000000 0.000000 0.000000 0.000000 0.039099 0.000000
# 6 0.000000 0.000000 0.000000 0.000000 0.000000 0.044704
#
#
# Mechanical properties :
#
#
# Convention : Reuss Voigt Hill
#
# Bulk Modulus (GPa) = 41.30966 42.07757 41.69361
# Shear Modulus (GPa) = 25.64744 26.13910 25.89327
#
# Velocity S-wave (km/s) = 3.57558 3.60969 3.59268
# Velocity P-wave (km/s) = 6.13502 6.19258 6.16387
#
# Compressibility (1/GPa) = 0.02420742
#
# Stress axis : x y z
#
# Youngs Moduli (GPa) = 54.36192 68.64653 76.06324
#
# Poissons Ratio (x) = 0.24751 0.37710
# Poissons Ratio (y) = 0.19600 0.18163
# Poissons Ratio (z) = 0.26951 0.16392
#
# Static dielectric constant tensor:
#      x y z
#    x 3.475360 0.000000 0.000000 
#    y 0.000000 3.713330 0.000000 
#    z 0.000000 0.000000 3.737860 
# 
# 
# High freq. dielectric constant tensor:
#      x y z
#    x 1.770970 0.000000 0.000000 
#    y 0.000000 1.787170 0.000000 
#    z 0.000000 0.000000 1.789730 
# 
# From -- ./inp_files/3958.got.cif
#   From: 2010.03.12/outbox.cif.g09.slc.cpg/sg19_2_cif.got.tgz:3958.got - 2010.04.10 18:59:41.
