data_PCOD8156653
_publ_section_title
;
Structure prediction by ZEFSAII (Michael W. Deem and Ramdas Pophale) SiO2 
 PCOD8156653
Probable space group: P 21 21 21
;
_chemical_formula_sum "Si O2"
_cell_formula_units_Z 32
_cell_length_a 13.027375
_cell_length_b 7.127060
_cell_length_c 19.223233
_cell_angle_alpha 90.000000
_cell_angle_beta 90.000000
_cell_angle_gamma 90.000000
_cell_volume 1784.817270
_symmetry_space_group_name_H-M "P 21 21 21"
_symmetry_group_IT_number 19
_symmetry_cell_setting 'orthorhombic'
loop_
_space_group_symop_operation_xyz
x,y,z
1/2-x,-y,1/2+z
1/2+x,1/2-y,-z
-x,1/2+y,1/2-z
loop_
_atom_site_type_symbol
_atom_site_label
_atom_site_fract_x
_atom_site_fract_y
_atom_site_fract_z
Si Si1 0.586119 0.223866 0.449503
Si Si2 0.611910 0.508162 0.696826
Si Si3 0.390321 0.406558 0.746935
Si Si4 0.739169 0.791938 0.227440
Si Si5 0.777954 0.072731 0.006788
Si Si6 0.148972 0.724738 0.917445
Si Si7 0.271391 0.514483 0.142846
Si Si8 0.179335 0.993351 0.453583
O O1 0.466002 0.229105 0.438562
O O2 0.642974 0.172593 0.376181
O O3 0.621713 0.426602 0.478378
O O4 0.620229 0.062389 0.505594
O O5 0.509480 0.438209 0.733802
O O6 0.625078 0.728186 0.705124
O O7 0.710987 0.414242 0.734204
O O8 0.610757 0.463851 0.614568
O O9 0.338283 0.575976 0.790620
O O10 0.330243 0.383710 0.673187
O O11 0.656006 0.797544 0.165962
O O12 0.686391 0.864880 0.299201
O O13 0.740077 0.099766 0.926799
O O14 0.802945 0.271945 0.039950
O O15 0.687262 0.969963 0.048942
O O16 0.212247 0.902115 0.945554
#
# Coordination Sequence:
#
# PCOD8156653 Si02
#       8
#     4   4   4   4   4   4   4   4
#     4   9  21  39  57  85 116 153 195 237 291 346
#     4  11  20  34  58  89 112 155 193 233 299 348
#     4  10  19  36  56  84 119 148 190 239 293 345
#     4   9  20  37  56  84 117 149 193 240 283 346
#     4   9  20  40  57  86 117 148 196 239 288 354
#     4  10  20  39  61  84 120 153 191 247 288 343
#     4   8  20  39  54  81 117 150 188 240 287 340
#     4  10  22  36  61  85 116 154 196 243 291 342
#
# _framework density 17.929006000000001
#
# number of rings (size 3 to 8) (size 9 to 14) (size 15 to 20)
#    1.500    1.000    1.250    0.750    1.750    2.000 
#    0.000    3.750    0.000    0.000    0.000    0.000 
#    0.000    0.000    0.000    0.000    0.000    0.000 
#
# Total GULP energy -396470.730396 kJ/mol
# GULP energy per Si atom -12389.710325 kJ/mol
# Density = 1.788820 g / cm^3
# Si number density = 17.929006 Si / 1000 Ang^3
#
#
#
# Elastic Constant Matrix: (Units=GPa)
#
#
# Indices 1 2 3 4 5 6 
#
# 1 66.0887 16.1419 16.3753 0.0000 0.0000 0.0000
# 2 16.1419 86.2732 11.3326 0.0000 0.0000 0.0000
# 3 16.3753 11.3326 58.9677 0.0000 0.0000 0.0000
# 4 0.0000 0.0000 0.0000 33.3895 0.0000 0.0000
# 5 0.0000 0.0000 0.0000 0.0000 27.4832 0.0000
# 6 0.0000 0.0000 0.0000 0.0000 0.0000 16.4418
#
#
#
# Elastic Compliance Matrix: (Units=1/GPa)
#
#
# Indices 1 2 3 4 5 6 
#
# 1 0.016797 -0.002596 -0.004166 0.000000 0.000000 0.000000
# 2 -0.002596 0.012292 -0.001642 0.000000 0.000000 0.000000
# 3 -0.004166 -0.001642 0.018431 0.000000 0.000000 0.000000
# 4 0.000000 0.000000 0.000000 0.029950 0.000000 0.000000
# 5 0.000000 0.000000 0.000000 0.000000 0.036386 0.000000
# 6 0.000000 0.000000 0.000000 0.000000 0.000000 0.060821
#
#
# Mechanical properties :
#
#
# Convention : Reuss Voigt Hill
#
# Bulk Modulus (GPa) = 32.55791 33.22547 32.89169
# Shear Modulus (GPa) = 24.78676 26.62820 25.70748
#
# Velocity S-wave (km/s) = 3.72223 3.85801 3.79073
# Velocity P-wave (km/s) = 6.05575 6.19819 6.12738
#
# Compressibility (1/GPa) = 0.03071450
#
# Stress axis : x y z
#
# Youngs Moduli (GPa) = 59.53330 81.35127 54.25719
#
# Poissons Ratio (x) = 0.21116 0.22602
# Poissons Ratio (y) = 0.15453 0.08907
# Poissons Ratio (z) = 0.24800 0.13354
#
# Static dielectric constant tensor:
#      x y z
#    x 2.978710 0.000000 0.000000 
#    y 0.000000 3.260000 0.000000 
#    z 0.000000 0.000000 3.233550 
# 
# 
# High freq. dielectric constant tensor:
#      x y z
#    x 1.670410 0.000000 0.000000 
#    y 0.000000 1.693550 0.000000 
#    z 0.000000 0.000000 1.691950 
# 
# From -- ./inp_files/7395.got.cif
#   From: 2010.03.12/outbox.cif.g09.slc.cpg/sg19_4_cif.got.tgz:7395.got - 2010.04.10 18:59:41.
