data_PCOD8156025
_publ_section_title
;
Structure prediction by ZEFSAII (Michael W. Deem and Ramdas Pophale) SiO2 
 PCOD8156025
Probable space group: P 21 21 2
;
_chemical_formula_sum "Si O2"
_cell_formula_units_Z 24
_cell_length_a 18.988035
_cell_length_b 8.532088
_cell_length_c 7.708620
_cell_angle_alpha 90.000000
_cell_angle_beta 90.000000
_cell_angle_gamma 90.000000
_cell_volume 1248.854914
_symmetry_space_group_name_H-M "P 21 21 2"
_symmetry_group_IT_number 18
_symmetry_cell_setting 'orthorhombic'
loop_
_space_group_symop_operation_xyz
x,y,z
-x,-y,z
1/2+x,1/2-y,-z
1/2-x,1/2+y,-z
loop_
_atom_site_type_symbol
_atom_site_label
_atom_site_fract_x
_atom_site_fract_y
_atom_site_fract_z
Si Si1 0.422965 0.563910 0.755668
Si Si2 0.673842 0.556963 0.450906
Si Si3 0.684773 0.892886 0.570845
Si Si4 0.577743 0.065893 0.774284
Si Si5 0.691940 0.890989 0.951742
Si Si6 0.332189 0.442116 0.061003
O O1 0.500000 0.500000 0.721902
O O2 0.378519 0.516539 0.588692
O O3 0.423695 0.748834 0.773474
O O4 0.395297 0.487892 0.933818
O O5 0.670062 0.746021 0.447609
O O6 0.752702 0.502233 0.501455
O O7 0.652605 0.499944 0.257191
O O8 0.707000 0.822775 0.758718
O O9 0.614407 0.000095 0.597040
O O10 0.500000 0.000000 0.792514
O O11 0.624617 0.008954 0.939925
O O12 0.760355 0.984853 0.017334
O O13 0.675935 0.745699 0.075914
#
# Coordination Sequence:
#
# PCOD8156025 Si02
#       6
#     4   4   4   4   4   4
#     4  12  24  42  66  88 129 168 207 268 316 374
#     4  11  22  38  63  94 126 164 210 256 312 375
#     4   9  20  36  58  93 120 162 204 252 308 366
#     4  10  20  40  64  88 123 168 209 254 320 372
#     4   9  20  36  58  93 120 162 204 252 308 366
#     4  11  22  38  63  94 126 164 210 256 312 375
#
# _framework density 19.217604999999999
#
# number of rings (size 3 to 8) (size 9 to 14) (size 15 to 20)
#    1.000    0.667    1.667    4.000    2.333    0.667 
#    0.000    1.667    0.000    4.000    0.000    0.000 
#    0.000    0.000    0.000    0.000    0.000    0.000 
#
# Total GULP energy -297469.951102 kJ/mol
# GULP energy per Si atom -12394.581296 kJ/mol
# Density = 1.917386 g / cm^3
# Si number density = 19.217605 Si / 1000 Ang^3
#
#
#
# Elastic Constant Matrix: (Units=GPa)
#
#
# Indices 1 2 3 4 5 6 
#
# 1 73.6241 4.5227 7.1925 0.0000 0.0000 0.0000
# 2 4.5227 115.5255 6.8847 0.0000 0.0000 0.0000
# 3 7.1925 6.8847 65.8231 0.0000 0.0000 0.0000
# 4 0.0000 0.0000 0.0000 28.5036 0.0000 0.0000
# 5 0.0000 0.0000 0.0000 0.0000 39.6843 0.0000
# 6 0.0000 0.0000 0.0000 0.0000 0.0000 38.3553
#
#
#
# Elastic Compliance Matrix: (Units=1/GPa)
#
#
# Indices 1 2 3 4 5 6 
#
# 1 0.013752 -0.000452 -0.001455 0.000000 0.000000 0.000000
# 2 -0.000452 0.008725 -0.000863 0.000000 0.000000 0.000000
# 3 -0.001455 -0.000863 0.015442 0.000000 0.000000 0.000000
# 4 0.000000 0.000000 0.000000 0.035083 0.000000 0.000000
# 5 0.000000 0.000000 0.000000 0.000000 0.025199 0.000000
# 6 0.000000 0.000000 0.000000 0.000000 0.000000 0.026072
#
#
# Mechanical properties :
#
#
# Convention : Reuss Voigt Hill
#
# Bulk Modulus (GPa) = 30.88476 32.46362 31.67419
# Shear Modulus (GPa) = 35.56008 37.06681 36.31345
#
# Velocity S-wave (km/s) = 4.30628 4.39657 4.35166
# Velocity P-wave (km/s) = 6.38995 6.53471 6.46273
#
# Compressibility (1/GPa) = 0.03237843
#
# Stress axis : x y z
#
# Youngs Moduli (GPa) = 72.71433 114.61019 64.76025
#
# Poissons Ratio (x) = 0.05176 0.09426
# Poissons Ratio (y) = 0.03284 0.05590
# Poissons Ratio (z) = 0.10584 0.09894
#
# Static dielectric constant tensor:
#      x y z
#    x 3.447270 0.000000 0.000000 
#    y 0.000000 3.476460 0.000000 
#    z 0.000000 0.000000 3.340800 
# 
# 
# High freq. dielectric constant tensor:
#      x y z
#    x 1.743580 0.000000 0.000000 
#    y 0.000000 1.757490 0.000000 
#    z 0.000000 0.000000 1.728170 
# 
# From -- ./inp_files/4468.got.cif
#   From: 2010.03.12/outbox.cif.g09.slc.cpg/sg18_3_cif.got.tgz:4468.got - 2010.04.10 18:53:55.
