data_PCOD8156440
_publ_section_title
;
Structure prediction by ZEFSAII (Michael W. Deem and Ramdas Pophale) SiO2 
 PCOD8156440
Probable space group: P 21 21 2
;
_chemical_formula_sum "Si O2"
_cell_formula_units_Z 24
_cell_length_a 8.507315
_cell_length_b 9.537651
_cell_length_c 13.676041
_cell_angle_alpha 90.000000
_cell_angle_beta 90.000000
_cell_angle_gamma 90.000000
_cell_volume 1109.671251
_symmetry_space_group_name_H-M "P 21 21 2"
_symmetry_group_IT_number 18
_symmetry_cell_setting 'orthorhombic'
loop_
_space_group_symop_operation_xyz
x,y,z
-x,-y,z
1/2+x,1/2-y,-z
1/2-x,1/2+y,-z
loop_
_atom_site_type_symbol
_atom_site_label
_atom_site_fract_x
_atom_site_fract_y
_atom_site_fract_z
Si Si1 0.685811 0.011859 0.775351
Si Si2 0.174242 0.253219 0.080125
Si Si3 0.841054 0.588164 0.434699
Si Si4 0.808799 0.233070 0.128523
Si Si5 0.817072 0.467623 0.787965
Si Si6 0.345117 0.584488 0.593149
O O1 0.753973 0.863704 0.808637
O O2 0.500000 0.000000 0.771240
O O3 0.743059 0.118968 0.857609
O O4 0.745997 0.060621 0.668958
O O5 0.273289 0.119568 0.115122
O O6 0.989624 0.237274 0.098016
O O7 0.199896 0.282019 0.966410
O O8 0.730964 0.523467 0.517087
O O9 0.872623 0.756710 0.449277
O O10 0.000000 0.500000 0.440001
O O11 0.782795 0.108497 0.203801
O O12 0.764635 0.392131 0.688004
O O13 0.000000 0.500000 0.785691
O O14 0.500000 0.500000 0.625610
#
# Coordination Sequence:
#
# PCOD8156440 Si02
#       6
#     4   4   4   4   4   4
#     4   9  21  40  66  93 130 171 220 270 336 406
#     4  11  21  43  64 100 134 177 227 280 346 404
#     4  11  24  46  72 101 137 176 225 282 346 426
#     4  11  23  39  70  97 134 180 223 284 341 416
#     4  12  26  43  65  97 137 181 233 282 337 408
#     4  12  26  45  73 102 136 179 226 286 352 418
#
# _framework density 21.628026999999999
#
# number of rings (size 3 to 8) (size 9 to 14) (size 15 to 20)
#    0.000    1.000    1.667    5.000    7.000    1.333 
#    0.000    2.500    0.000    0.000    0.000    0.000 
#    0.000    0.000    0.000    0.000    0.000    0.000 
#
# Total GULP energy -297558.322104 kJ/mol
# GULP energy per Si atom -12398.263421 kJ/mol
# Density = 2.157880 g / cm^3
# Si number density = 21.628027 Si / 1000 Ang^3
#
#
#
# Elastic Constant Matrix: (Units=GPa)
#
#
# Indices 1 2 3 4 5 6 
#
# 1 75.6138 31.4002 15.2988 0.0000 0.0000 0.0000
# 2 31.4002 152.8419 27.7327 0.0000 0.0000 0.0000
# 3 15.2988 27.7327 100.5019 0.0000 0.0000 0.0000
# 4 0.0000 0.0000 0.0000 33.1558 0.0000 0.0000
# 5 0.0000 0.0000 0.0000 0.0000 40.2221 0.0000
# 6 0.0000 0.0000 0.0000 0.0000 0.0000 25.1591
#
#
#
# Elastic Compliance Matrix: (Units=1/GPa)
#
#
# Indices 1 2 3 4 5 6 
#
# 1 0.014663 -0.002745 -0.001475 0.000000 0.000000 0.000000
# 2 -0.002745 0.007401 -0.001625 0.000000 0.000000 0.000000
# 3 -0.001475 -0.001625 0.010623 0.000000 0.000000 0.000000
# 4 0.000000 0.000000 0.000000 0.030161 0.000000 0.000000
# 5 0.000000 0.000000 0.000000 0.000000 0.024862 0.000000
# 6 0.000000 0.000000 0.000000 0.000000 0.000000 0.039747
#
#
# Mechanical properties :
#
#
# Convention : Reuss Voigt Hill
#
# Bulk Modulus (GPa) = 47.62050 53.09124 50.35587
# Shear Modulus (GPa) = 34.21255 36.67579 35.44417
#
# Velocity S-wave (km/s) = 3.98158 4.12242 4.05261
# Velocity P-wave (km/s) = 6.57290 6.87458 6.72543
#
# Compressibility (1/GPa) = 0.02099936
#
# Stress axis : x y z
#
# Youngs Moduli (GPa) = 68.19724 135.10977 94.13696
#
# Poissons Ratio (x) = 0.37086 0.13882
# Poissons Ratio (y) = 0.18719 0.15293
# Poissons Ratio (z) = 0.10057 0.21949
#
# Static dielectric constant tensor:
#      x y z
#    x 3.845160 0.000000 0.000000 
#    y 0.000000 4.248660 0.000000 
#    z 0.000000 0.000000 4.108500 
# 
# 
# High freq. dielectric constant tensor:
#      x y z
#    x 1.831990 0.000000 0.000000 
#    y 0.000000 1.869660 0.000000 
#    z 0.000000 0.000000 1.860290 
# 
# From -- ./inp_files/6655.got.cif
#   From: 2010.03.12/outbox.cif.g09.slc.cpg/sg18_4_cif.got.tgz:6655.got - 2010.04.10 18:53:55.
