data_PCOD8156012
_publ_section_title
;
Structure prediction by ZEFSAII (Michael W. Deem and Ramdas Pophale) SiO2 
 PCOD8156012
Probable space group: P 21 21 2
;
_chemical_formula_sum "Si O2"
_cell_formula_units_Z 24
_cell_length_a 7.812864
_cell_length_b 24.774674
_cell_length_c 5.231698
_cell_angle_alpha 90.000000
_cell_angle_beta 90.000000
_cell_angle_gamma 90.000000
_cell_volume 1012.653526
_symmetry_space_group_name_H-M "P 21 21 2"
_symmetry_group_IT_number 18
_symmetry_cell_setting 'orthorhombic'
loop_
_space_group_symop_operation_xyz
x,y,z
-x,-y,z
1/2+x,1/2-y,-z
1/2-x,1/2+y,-z
loop_
_atom_site_type_symbol
_atom_site_label
_atom_site_fract_x
_atom_site_fract_y
_atom_site_fract_z
Si Si1 0.994764 0.228691 0.488603
Si Si2 0.189497 0.023685 0.773360
Si Si3 0.989998 0.298972 0.990974
Si Si4 0.156735 0.148262 0.821129
Si Si5 0.822520 0.147185 0.171866
Si Si6 0.309532 0.477011 0.723574
O O1 0.039206 0.262941 0.236812
O O2 0.147449 0.187228 0.570779
O O3 0.835371 0.189757 0.408237
O O4 0.954616 0.263974 0.737837
O O5 0.183763 0.087408 0.731664
O O6 0.287624 0.996869 0.532939
O O7 0.000000 0.000000 0.808064
O O8 0.285239 0.004074 0.032435
O O9 0.819365 0.333594 0.017929
O O10 0.146547 0.340269 0.970284
O O11 0.984159 0.154483 0.985383
O O12 0.814358 0.087152 0.277800
O O13 0.500000 0.500000 0.693407
#
# Coordination Sequence:
#
# PCOD8156012 Si02
#       6
#     4   4   4   4   4   4
#     4  12  28  48  73 108 153 198 248 308 374 442
#     4  10  20  39  69 104 132 179 247 292 362 450
#     4  12  32  46  71 116 149 194 266 302 366 462
#     4  12  27  47  78 105 149 202 243 317 377 439
#     4  12  27  47  78 105 149 202 243 317 377 439
#     4  10  20  39  69 104 132 179 247 292 362 450
#
# _framework density 23.700108
#
# number of rings (size 3 to 8) (size 9 to 14) (size 15 to 20)
#    0.000    0.667    5.000    3.000    9.333    0.000 
#    0.000    0.833    0.000    4.000    0.000    0.000 
#    0.000    0.000    0.000    0.000    0.000    0.000 
#
# Total GULP energy -297467.669408 kJ/mol
# GULP energy per Si atom -12394.486225 kJ/mol
# Density = 2.364617 g / cm^3
# Si number density = 23.700108 Si / 1000 Ang^3
#
#
#
# Elastic Constant Matrix: (Units=GPa)
#
#
# Indices 1 2 3 4 5 6 
#
# 1 46.6641 -2.0227 4.9968 0.0000 0.0000 0.0000
# 2 -2.0227 135.9801 28.1944 0.0000 0.0000 0.0000
# 3 4.9968 28.1944 162.5931 0.0000 0.0000 0.0000
# 4 0.0000 0.0000 0.0000 16.4683 0.0000 0.0000
# 5 0.0000 0.0000 0.0000 0.0000 19.0703 0.0000
# 6 0.0000 0.0000 0.0000 0.0000 0.0000 -0.7173
#
#
#
# Elastic Compliance Matrix: (Units=1/GPa)
#
#
# Indices 1 2 3 4 5 6 
#
# 1 0.021530 0.000475 -0.000744 0.000000 0.000000 0.000000
# 2 0.000475 0.007639 -0.001339 0.000000 0.000000 0.000000
# 3 -0.000744 -0.001339 0.006405 0.000000 0.000000 0.000000
# 4 0.000000 0.000000 0.000000 0.060723 0.000000 0.000000
# 5 0.000000 0.000000 0.000000 0.000000 0.052437 0.000000
# 6 0.000000 0.000000 0.000000 0.000000 0.000000 -1.394181
#
#
# Mechanical properties :
#
#
# Convention : Reuss Voigt Hill
#
# Bulk Modulus (GPa) = 30.90531 45.28602 38.09566
# Shear Modulus (GPa) = -4.06028 27.90219 11.92096
#
# Velocity S-wave (km/s) = -1.31031 3.43491 2.24518
# Velocity P-wave (km/s) = 3.28318 5.90600 4.77808
#
# Compressibility (1/GPa) = 0.03235690
#
# Stress axis : x y z
#
# Youngs Moduli (GPa) = 46.44688 130.91158 156.11817
#
# Poissons Ratio (x) = -0.06212 0.11614
# Poissons Ratio (y) = -0.02204 0.20907
# Poissons Ratio (z) = 0.03455 0.17531
#
# Static dielectric constant tensor:
#      x y z
#    x 3.859260 0.000000 0.000000 
#    y 0.000000 4.430110 0.000000 
#    z 0.000000 0.000000 7.241380 
# 
# 
# High freq. dielectric constant tensor:
#      x y z
#    x 1.897920 0.000000 0.000000 
#    y 0.000000 1.957030 0.000000 
#    z 0.000000 0.000000 1.965090 
# 
# From -- ./inp_files/607.got.cif
#   From: 2010.03.12/outbox.cif.g09.slc.cpg/sg18_1_cif.got.tgz:607.got - 2010.04.10 18:53:55.
