data_PCOD8156471
_publ_section_title
;
Structure prediction by ZEFSAII (Michael W. Deem and Ramdas Pophale) SiO2 
 PCOD8156471
Probable space group: P 21 21 2
;
_chemical_formula_sum "Si O2"
_cell_formula_units_Z 16
_cell_length_a 10.082138
_cell_length_b 8.146385
_cell_length_c 7.208057
_cell_angle_alpha 90.000000
_cell_angle_beta 90.000000
_cell_angle_gamma 90.000000
_cell_volume 592.019185
_symmetry_space_group_name_H-M "P 21 21 2"
_symmetry_group_IT_number 18
_symmetry_cell_setting 'orthorhombic'
loop_
_space_group_symop_operation_xyz
x,y,z
-x,-y,z
1/2+x,1/2-y,-z
1/2-x,1/2+y,-z
loop_
_atom_site_type_symbol
_atom_site_label
_atom_site_fract_x
_atom_site_fract_y
_atom_site_fract_z
Si Si1 0.508635 0.811366 0.630869
Si Si2 0.347957 0.516458 0.237054
Si Si3 0.741521 0.885568 0.397582
Si Si4 0.718669 0.661475 0.882344
O O1 0.600187 0.795630 0.441992
O O2 0.364473 0.738830 0.595181
O O3 0.576217 0.707803 0.795942
O O4 0.500000 0.000000 0.695403
O O5 0.500000 0.500000 0.284954
O O6 0.263356 0.495186 0.424417
O O7 0.324038 0.693669 0.142046
O O8 0.728292 0.994154 0.213404
O O9 0.701817 0.629735 0.101785
#
# Coordination Sequence:
#
# PCOD8156471 Si02
#       4
#     4   4   4   4
#     4  11  23  43  73 103 137 184 230 282 348 411
#     4  11  25  44  69 100 135 181 232 285 346 415
#     4  11  25  47  72 102 139 181 229 284 346 411
#     4  11  26  44  69 101 139 182 229 289 347 409
#
# _framework density 27.026150999999999
#
# number of rings (size 3 to 8) (size 9 to 14) (size 15 to 20)
#    0.000    1.000    0.000    6.750    0.000   16.000 
#    0.000    5.000    0.000    3.000    0.000    0.000 
#    0.000    0.000    0.000    0.000    0.000    0.000 
#
# Total GULP energy -198439.191643 kJ/mol
# GULP energy per Si atom -12402.449478 kJ/mol
# Density = 2.696464 g / cm^3
# Si number density = 27.026151 Si / 1000 Ang^3
#
#
#
# Elastic Constant Matrix: (Units=GPa)
#
#
# Indices 1 2 3 4 5 6 
#
# 1 85.7515 39.1196 -18.4737 0.0000 0.0000 0.0000
# 2 39.1196 98.6836 -34.8032 0.0000 0.0000 0.0000
# 3 -18.4737 -34.8032 37.4638 0.0000 0.0000 0.0000
# 4 0.0000 0.0000 0.0000 35.1680 0.0000 0.0000
# 5 0.0000 0.0000 0.0000 0.0000 26.4879 0.0000
# 6 0.0000 0.0000 0.0000 0.0000 0.0000 56.1166
#
#
#
# Elastic Compliance Matrix: (Units=1/GPa)
#
#
# Indices 1 2 3 4 5 6 
#
# 1 0.014414 -0.004770 0.002676 0.000000 0.000000 0.000000
# 2 -0.004770 0.016650 0.013115 0.000000 0.000000 0.000000
# 3 0.002676 0.013115 0.040196 0.000000 0.000000 0.000000
# 4 0.000000 0.000000 0.000000 0.028435 0.000000 0.000000
# 5 0.000000 0.000000 0.000000 0.000000 0.037753 0.000000
# 6 0.000000 0.000000 0.000000 0.000000 0.000000 0.017820
#
#
# Mechanical properties :
#
#
# Convention : Reuss Voigt Hill
#
# Bulk Modulus (GPa) = 10.71777 21.50935 16.11356
# Shear Modulus (GPa) = 30.42730 39.29158 34.85944
#
# Velocity S-wave (km/s) = 3.35900 3.81706 3.59533
# Velocity P-wave (km/s) = 4.36099 5.23474 4.81771
#
# Compressibility (1/GPa) = 0.09330296
#
# Stress axis : x y z
#
# Youngs Moduli (GPa) = 69.37551 60.06111 24.87810
#
# Poissons Ratio (x) = 0.28650 -0.06659
# Poissons Ratio (y) = 0.33093 -0.32628
# Poissons Ratio (z) = -0.18568 -0.78771
#
# Static dielectric constant tensor:
#      x y z
#    x 5.244420 0.000000 0.000000 
#    y 0.000000 5.179310 0.000000 
#    z 0.000000 0.000000 5.215120 
# 
# 
# High freq. dielectric constant tensor:
#      x y z
#    x 2.092930 0.000000 0.000000 
#    y 0.000000 2.116060 0.000000 
#    z 0.000000 0.000000 2.078100 
# 
# From -- ./inp_files/3603.got.cif
#   From: 2010.03.12/outbox.cif.g09.slc.cpg/sg18_2_cif.got.tgz:3603.got - 2010.04.10 18:53:55.
