data_PCOD8156521
_publ_section_title
;
Structure prediction by ZEFSAII (Michael W. Deem and Ramdas Pophale) SiO2 
 PCOD8156521
Probable space group: P 21 21 2
;
_chemical_formula_sum "Si O2"
_cell_formula_units_Z 14
_cell_length_a 8.091901
_cell_length_b 4.787806
_cell_length_c 13.660777
_cell_angle_alpha 90.000000
_cell_angle_beta 90.000000
_cell_angle_gamma 90.000000
_cell_volume 529.251999
_symmetry_space_group_name_H-M "P 21 21 2"
_symmetry_group_IT_number 18
_symmetry_cell_setting 'orthorhombic'
loop_
_space_group_symop_operation_xyz
x,y,z
-x,-y,z
1/2+x,1/2-y,-z
1/2-x,1/2+y,-z
loop_
_atom_site_type_symbol
_atom_site_label
_atom_site_fract_x
_atom_site_fract_y
_atom_site_fract_z
Si Si1 0.798847 0.474018 0.883270
Si Si2 0.000000 0.000000 0.973015
Si Si3 0.309336 0.007051 0.769855
Si Si4 0.193413 0.001062 0.559244
O O1 0.793410 0.800350 0.847947
O O2 0.968082 0.297475 0.916051
O O3 0.752205 0.310035 0.783665
O O4 0.660446 0.412507 0.964678
O O5 0.500000 0.000000 0.798584
O O6 0.282686 0.101425 0.658404
O O7 0.255803 0.694894 0.531090
O O8 0.000000 0.000000 0.578166
#
# Coordination Sequence:
#
# PCOD8156521 Si02
#       4
#     4   2   4   4
#     4  12  28  48  78 110 163 209 267 332 394 472
#     4  12  28  52  76 116 156 218 274 330 402 472
#     4  12  25  49  76 116 158 210 261 328 401 472
#     4  12  27  51  83 118 157 203 256 322 398 481
#
# _framework density 26.452428999999999
#
# number of rings (size 3 to 8) (size 9 to 14) (size 15 to 20)
#    0.000    0.000    2.857    6.000    2.000    5.714 
#    0.000    0.000    0.000    0.000    0.000    0.000 
#    0.000    0.000    0.000    0.000    0.000    0.000 
#
# Total GULP energy -173586.702060 kJ/mol
# GULP energy per Si atom -12399.050147 kJ/mol
# Density = 2.639222 g / cm^3
# Si number density = 26.452429 Si / 1000 Ang^3
#
#
#
# Elastic Constant Matrix: (Units=GPa)
#
#
# Indices 1 2 3 4 5 6 
#
# 1 138.2460 50.4614 25.6350 0.0000 0.0000 0.0000
# 2 50.4614 174.6497 37.0520 0.0000 0.0000 0.0000
# 3 25.6350 37.0520 122.9599 0.0000 0.0000 0.0000
# 4 0.0000 0.0000 0.0000 41.8186 0.0000 0.0000
# 5 0.0000 0.0000 0.0000 0.0000 44.3715 0.0000
# 6 0.0000 0.0000 0.0000 0.0000 0.0000 33.7116
#
#
#
# Elastic Compliance Matrix: (Units=1/GPa)
#
#
# Indices 1 2 3 4 5 6 
#
# 1 0.008215 -0.002147 -0.001066 0.000000 0.000000 0.000000
# 2 -0.002147 0.006678 -0.001565 0.000000 0.000000 0.000000
# 3 -0.001066 -0.001565 0.008826 0.000000 0.000000 0.000000
# 4 0.000000 0.000000 0.000000 0.023913 0.000000 0.000000
# 5 0.000000 0.000000 0.000000 0.000000 0.022537 0.000000
# 6 0.000000 0.000000 0.000000 0.000000 0.000000 0.029663
#
#
# Mechanical properties :
#
#
# Convention : Reuss Voigt Hill
#
# Bulk Modulus (GPa) = 70.60109 73.57247 72.08678
# Shear Modulus (GPa) = 43.81762 45.49415 44.65589
#
# Velocity S-wave (km/s) = 4.07439 4.15160 4.11318
# Velocity P-wave (km/s) = 6.99156 7.13124 7.06175
#
# Compressibility (1/GPa) = 0.01416409
#
# Stress axis : x y z
#
# Youngs Moduli (GPa) = 121.72966 149.74202 113.29697
#
# Poissons Ratio (x) = 0.32157 0.12073
# Poissons Ratio (y) = 0.26141 0.17727
# Poissons Ratio (z) = 0.12971 0.23429
#
# Static dielectric constant tensor:
#      x y z
#    x 5.153400 0.000000 0.000000 
#    y 0.000000 5.026030 0.000000 
#    z 0.000000 0.000000 4.505930 
# 
# 
# High freq. dielectric constant tensor:
#      x y z
#    x 2.102150 0.000000 0.000000 
#    y 0.000000 2.100750 0.000000 
#    z 0.000000 0.000000 2.055060 
# 
# From -- ./inp_files/6592.got.cif
#   From: 2010.03.12/outbox.cif.g09.slc.cpg/sg18_4_cif.got.tgz:6592.got - 2010.04.10 18:53:55.
