data_PCOD8156407
_publ_section_title
;
Structure prediction by ZEFSAII (Michael W. Deem and Ramdas Pophale) SiO2 
 PCOD8156407
Probable space group: P 21 21 2
;
_chemical_formula_sum "Si O2"
_cell_formula_units_Z 10
_cell_length_a 13.256738
_cell_length_b 4.907464
_cell_length_c 6.018449
_cell_angle_alpha 90.000000
_cell_angle_beta 90.000000
_cell_angle_gamma 90.000000
_cell_volume 391.542023
_symmetry_space_group_name_H-M "P 21 21 2"
_symmetry_group_IT_number 18
_symmetry_cell_setting 'orthorhombic'
loop_
_space_group_symop_operation_xyz
x,y,z
-x,-y,z
1/2+x,1/2-y,-z
1/2-x,1/2+y,-z
loop_
_atom_site_type_symbol
_atom_site_label
_atom_site_fract_x
_atom_site_fract_y
_atom_site_fract_z
Si Si1 0.638937 0.826887 0.164089
Si Si2 0.370130 0.679466 0.868603
Si Si3 0.500000 0.000000 0.531222
O O1 0.756208 0.789322 0.222029
O O2 0.575803 0.806683 0.390482
O O3 0.604717 0.621469 0.965030
O O4 0.615061 0.128980 0.080683
O O5 0.442216 0.770719 0.671390
#
# Coordination Sequence:
#
# PCOD8156407 Si02
#       3
#     4   4   2
#     4  10  25  48  71 104 147 185 233 295 353 419
#     4  10  25  48  71 104 147 185 233 295 353 419
#     4  12  26  46  80 106 136 194 242 286 356 422
#
# _framework density 25.540042
#
# number of rings (size 3 to 8) (size 9 to 14) (size 15 to 20)
#    0.000    1.600    0.000    1.200    0.000   22.400 
#    0.000    8.000    0.000    0.000    0.000    0.000 
#    0.000    0.000    0.000    0.000    0.000    0.000 
#
# Total GULP energy -124039.737382 kJ/mol
# GULP energy per Si atom -12403.973738 kJ/mol
# Density = 2.548191 g / cm^3
# Si number density = 25.540042 Si / 1000 Ang^3
#
#
#
# Elastic Constant Matrix: (Units=GPa)
#
#
# Indices 1 2 3 4 5 6 
#
# 1 117.6700 52.0486 98.3650 0.0000 0.0000 0.0000
# 2 52.0486 100.3129 23.3529 0.0000 0.0000 0.0000
# 3 98.3650 23.3529 122.0635 0.0000 0.0000 0.0000
# 4 0.0000 0.0000 0.0000 33.3810 0.0000 0.0000
# 5 0.0000 0.0000 0.0000 0.0000 57.9729 0.0000
# 6 0.0000 0.0000 0.0000 0.0000 0.0000 43.9806
#
#
#
# Elastic Compliance Matrix: (Units=1/GPa)
#
#
# Indices 1 2 3 4 5 6 
#
# 1 0.037200 -0.012897 -0.027510 0.000000 0.000000 0.000000
# 2 -0.012897 0.014905 0.007542 0.000000 0.000000 0.000000
# 3 -0.027510 0.007542 0.028919 0.000000 0.000000 0.000000
# 4 0.000000 0.000000 0.000000 0.029957 0.000000 0.000000
# 5 0.000000 0.000000 0.000000 0.000000 0.017249 0.000000
# 6 0.000000 0.000000 0.000000 0.000000 0.000000 0.022737
#
#
# Mechanical properties :
#
#
# Convention : Reuss Voigt Hill
#
# Bulk Modulus (GPa) = 65.39283 76.39769 70.89526
# Shear Modulus (GPa) = 22.54313 38.15221 30.34767
#
# Velocity S-wave (km/s) = 2.97418 3.86919 3.45082
# Velocity P-wave (km/s) = 6.11996 7.06673 6.61032
#
# Compressibility (1/GPa) = 0.01529220
#
# Stress axis : x y z
#
# Youngs Moduli (GPa) = 26.88162 67.09136 34.57959
#
# Poissons Ratio (x) = 0.86530 0.95129
# Poissons Ratio (y) = 0.34670 -0.26079
# Poissons Ratio (z) = 0.73952 -0.50599
#
# Static dielectric constant tensor:
#      x y z
#    x 5.197780 0.000000 0.000000 
#    y 0.000000 4.526370 0.000000 
#    z 0.000000 0.000000 4.310360 
# 
# 
# High freq. dielectric constant tensor:
#      x y z
#    x 2.051990 0.000000 0.000000 
#    y 0.000000 2.024440 0.000000 
#    z 0.000000 0.000000 2.011160 
# 
# From -- ./inp_files/808.got.cif
#   From: 2010.03.12/outbox.cif.g09.slc.cpg/sg18_1_cif.got.tgz:808.got - 2010.04.10 18:53:55.
