data_PCOD8156048
_publ_section_title
;
Structure prediction by ZEFSAII (Michael W. Deem and Ramdas Pophale) SiO2 
 PCOD8156048
Probable space group: P 21 21 2
;
_chemical_formula_sum "Si O2"
_cell_formula_units_Z 20
_cell_length_a 9.594620
_cell_length_b 10.559190
_cell_length_c 7.565198
_cell_angle_alpha 90.000000
_cell_angle_beta 90.000000
_cell_angle_gamma 90.000000
_cell_volume 766.440918
_symmetry_space_group_name_H-M "P 21 21 2"
_symmetry_group_IT_number 18
_symmetry_cell_setting 'orthorhombic'
loop_
_space_group_symop_operation_xyz
x,y,z
-x,-y,z
1/2+x,1/2-y,-z
1/2-x,1/2+y,-z
loop_
_atom_site_type_symbol
_atom_site_label
_atom_site_fract_x
_atom_site_fract_y
_atom_site_fract_z
Si Si1 0.500000 0.000000 0.784129
Si Si2 0.247354 0.147673 0.917765
Si Si3 0.297397 0.147412 0.320872
Si Si4 0.500000 0.500000 0.035154
Si Si5 0.169460 0.887726 0.269342
Si Si6 0.959152 0.734110 0.466307
O O1 0.541732 0.120151 0.671036
O O2 0.369692 0.043203 0.904204
O O3 0.248320 0.190310 0.124683
O O4 0.096494 0.094186 0.852611
O O5 0.249576 0.259458 0.775848
O O6 0.204080 0.222671 0.471207
O O7 0.459477 0.183693 0.357542
O O8 0.272753 0.995490 0.348632
O O9 0.612265 0.572346 0.918958
O O10 0.039261 0.859472 0.397115
#
# Coordination Sequence:
#
# PCOD8156048 Si02
#       6
#     2   4   4   2   4   4
#     4  10  26  46  70 108 150 192 246 308 366 444
#     4  10  23  45  78 107 149 194 253 307 368 433
#     4  11  25  45  74 106 147 197 243 306 375 439
#     4  10  20  42  74 108 144 182 242 310 364 426
#     4  10  21  45  73 103 146 190 244 311 362 438
#     4  11  24  47  70 103 151 189 244 300 375 447
#
# _framework density 26.094642
#
# number of rings (size 3 to 8) (size 9 to 14) (size 15 to 20)
#    0.000    1.600    4.000    0.000    8.400    0.800 
#   10.800    0.000    0.000    0.000    0.000    0.000 
#    0.000    0.000    0.000    0.000    0.000    0.000 
#
# Total GULP energy -247797.285862 kJ/mol
# GULP energy per Si atom -12389.864293 kJ/mol
# Density = 2.603525 g / cm^3
# Si number density = 26.094642 Si / 1000 Ang^3
#
#
#
# Elastic Constant Matrix: (Units=GPa)
#
#
# Indices 1 2 3 4 5 6 
#
# 1 148.5041 42.0210 26.1208 0.0000 0.0000 0.0000
# 2 42.0210 107.2209 17.1192 0.0000 0.0000 0.0000
# 3 26.1208 17.1192 56.9931 0.0000 0.0000 0.0000
# 4 0.0000 0.0000 0.0000 15.2281 0.0000 0.0000
# 5 0.0000 0.0000 0.0000 0.0000 37.5161 0.0000
# 6 0.0000 0.0000 0.0000 0.0000 0.0000 36.2445
#
#
#
# Elastic Compliance Matrix: (Units=1/GPa)
#
#
# Indices 1 2 3 4 5 6 
#
# 1 0.007994 -0.002676 -0.002860 0.000000 0.000000 0.000000
# 2 -0.002676 0.010692 -0.001985 0.000000 0.000000 0.000000
# 3 -0.002860 -0.001985 0.019453 0.000000 0.000000 0.000000
# 4 0.000000 0.000000 0.000000 0.065668 0.000000 0.000000
# 5 0.000000 0.000000 0.000000 0.000000 0.026655 0.000000
# 6 0.000000 0.000000 0.000000 0.000000 0.000000 0.027590
#
#
# Mechanical properties :
#
#
# Convention : Reuss Voigt Hill
#
# Bulk Modulus (GPa) = 43.29611 53.69335 48.49473
# Shear Modulus (GPa) = 27.65566 32.96155 30.30860
#
# Velocity S-wave (km/s) = 3.25902 3.55794 3.41176
# Velocity P-wave (km/s) = 5.54884 6.12370 5.84334
#
# Compressibility (1/GPa) = 0.02309677
#
# Stress axis : x y z
#
# Youngs Moduli (GPa) = 125.09107 93.52449 51.40593
#
# Poissons Ratio (x) = 0.25031 0.14702
# Poissons Ratio (y) = 0.33479 0.10205
# Poissons Ratio (z) = 0.35775 0.18565
#
# Static dielectric constant tensor:
#      x y z
#    x 5.013360 0.000000 0.000000 
#    y 0.000000 5.292060 0.000000 
#    z 0.000000 0.000000 4.284280 
# 
# 
# High freq. dielectric constant tensor:
#      x y z
#    x 2.054440 0.000000 0.000000 
#    y 0.000000 2.058080 0.000000 
#    z 0.000000 0.000000 2.026880 
# 
# From -- ./inp_files/2988.got.cif
#   From: 2010.03.12/outbox.cif.g09.slc.cpg/sg18_2_cif.got.tgz:2988.got - 2010.04.10 18:53:55.
