data_PCOD8156231
_publ_section_title
;
Structure prediction by ZEFSAII (Michael W. Deem and Ramdas Pophale) SiO2 
 PCOD8156231
Probable space group: P 21 21 2
;
_chemical_formula_sum "Si O2"
_cell_formula_units_Z 16
_cell_length_a 9.017279
_cell_length_b 11.955146
_cell_length_c 7.257304
_cell_angle_alpha 90.000000
_cell_angle_beta 90.000000
_cell_angle_gamma 90.000000
_cell_volume 782.358323
_symmetry_space_group_name_H-M "P 21 21 2"
_symmetry_group_IT_number 18
_symmetry_cell_setting 'orthorhombic'
loop_
_space_group_symop_operation_xyz
x,y,z
-x,-y,z
1/2+x,1/2-y,-z
1/2-x,1/2+y,-z
loop_
_atom_site_type_symbol
_atom_site_label
_atom_site_fract_x
_atom_site_fract_y
_atom_site_fract_z
Si Si1 0.661573 0.146579 0.935354
Si Si2 0.649395 0.564542 0.758917
Si Si3 0.842270 0.306815 0.146846
Si Si4 0.672650 0.006459 0.597177
O O1 0.484510 0.143395 0.959340
O O2 0.700187 0.115846 0.724312
O O3 0.734738 0.052837 0.070143
O O4 0.722564 0.270328 0.990146
O O5 0.500000 0.500000 0.808076
O O6 0.612663 0.696598 0.733582
O O7 0.722630 0.512995 0.577918
O O8 0.776672 0.397399 0.287619
O O9 0.500000 0.000000 0.538840
#
# Coordination Sequence:
#
# PCOD8156231 Si02
#       4
#     4   4   4   4
#     4   9  22  42  62  97 124 174 212 270 320 387
#     4  10  24  40  63  98 125 172 219 267 319 388
#     4   9  22  42  64  92 131 169 213 266 326 379
#     4  10  22  42  60  93 133 166 219 265 318 388
#
# _framework density 20.450987000000001
#
# number of rings (size 3 to 8) (size 9 to 14) (size 15 to 20)
#    1.500    1.000    0.000    0.000    3.500   10.000 
#    9.000    0.000    0.000    0.000    0.000    0.000 
#    0.000    0.000    0.000    0.000    0.000    0.000 
#
# Total GULP energy -198274.038293 kJ/mol
# GULP energy per Si atom -12392.127393 kJ/mol
# Density = 2.040444 g / cm^3
# Si number density = 20.450987 Si / 1000 Ang^3
#
#
#
# Elastic Constant Matrix: (Units=GPa)
#
#
# Indices 1 2 3 4 5 6 
#
# 1 89.1596 24.3093 65.9951 0.0000 0.0000 0.0000
# 2 24.3093 60.7198 9.8081 0.0000 0.0000 0.0000
# 3 65.9951 9.8081 91.1079 0.0000 0.0000 0.0000
# 4 0.0000 0.0000 0.0000 35.7205 0.0000 0.0000
# 5 0.0000 0.0000 0.0000 0.0000 42.6812 0.0000
# 6 0.0000 0.0000 0.0000 0.0000 0.0000 39.8425
#
#
#
# Elastic Compliance Matrix: (Units=1/GPa)
#
#
# Indices 1 2 3 4 5 6 
#
# 1 0.027477 -0.007923 -0.019050 0.000000 0.000000 0.000000
# 2 -0.007923 0.019045 0.003689 0.000000 0.000000 0.000000
# 3 -0.019050 0.003689 0.024378 0.000000 0.000000 0.000000
# 4 0.000000 0.000000 0.000000 0.027995 0.000000 0.000000
# 5 0.000000 0.000000 0.000000 0.000000 0.023429 0.000000
# 6 0.000000 0.000000 0.000000 0.000000 0.000000 0.025099
#
#
# Mechanical properties :
#
#
# Convention : Reuss Voigt Hill
#
# Bulk Modulus (GPa) = 41.09924 49.02357 45.06140
# Shear Modulus (GPa) = 24.73985 33.04052 28.89018
#
# Velocity S-wave (km/s) = 3.48187 4.02381 3.76261
# Velocity P-wave (km/s) = 6.02533 6.75362 6.39984
#
# Compressibility (1/GPa) = 0.02433135
#
# Stress axis : x y z
#
# Youngs Moduli (GPa) = 36.39422 52.50645 41.02038
#
# Poissons Ratio (x) = 0.41602 0.78145
# Poissons Ratio (y) = 0.28836 -0.15132
# Poissons Ratio (z) = 0.69332 -0.19370
#
# Static dielectric constant tensor:
#      x y z
#    x 3.601080 0.000000 0.000000 
#    y 0.000000 3.776270 0.000000 
#    z 0.000000 0.000000 3.421270 
# 
# 
# High freq. dielectric constant tensor:
#      x y z
#    x 1.792690 0.000000 0.000000 
#    y 0.000000 1.803060 0.000000 
#    z 0.000000 0.000000 1.782510 
# 
# From -- ./inp_files/415.got.cif
#   From: 2010.03.12/outbox.cif.g09.slc.cpg/sg18_1_cif.got.tgz:415.got - 2010.04.10 18:53:55.
