data_PCOD8156413
_publ_section_title
;
Structure prediction by ZEFSAII (Michael W. Deem and Ramdas Pophale) SiO2 
 PCOD8156413
Probable space group: P 21 21 2
;
_chemical_formula_sum "Si O2"
_cell_formula_units_Z 14
_cell_length_a 7.248784
_cell_length_b 15.223561
_cell_length_c 6.143266
_cell_angle_alpha 90.000000
_cell_angle_beta 90.000000
_cell_angle_gamma 90.000000
_cell_volume 677.923566
_symmetry_space_group_name_H-M "P 21 21 2"
_symmetry_group_IT_number 18
_symmetry_cell_setting 'orthorhombic'
loop_
_space_group_symop_operation_xyz
x,y,z
-x,-y,z
1/2+x,1/2-y,-z
1/2-x,1/2+y,-z
loop_
_atom_site_type_symbol
_atom_site_label
_atom_site_fract_x
_atom_site_fract_y
_atom_site_fract_z
Si Si1 0.335467 0.638153 0.433845
Si Si2 0.116035 0.855402 0.949795
Si Si3 0.525138 0.210131 0.738003
Si Si4 0.500000 0.500000 0.736885
O O1 0.457378 0.622958 0.221374
O O2 0.394134 0.727789 0.551208
O O3 0.121970 0.644115 0.367822
O O4 0.356593 0.555041 0.591784
O O5 0.312598 0.849667 0.833325
O O6 0.073616 0.764007 0.069971
O O7 0.125411 0.934939 0.120557
#
# Coordination Sequence:
#
# PCOD8156413 Si02
#       4
#     4   4   4   2
#     4  11  22  43  68 101 129 174 216 277 314 395
#     4  11  22  43  68 101 129 174 216 277 314 395
#     4  11  22  39  77  95 128 170 230 261 326 378
#     4  10  26  44  66  92 148 168 210 266 342 378
#
# _framework density 20.651295999999999
#
# number of rings (size 3 to 8) (size 9 to 14) (size 15 to 20)
#    0.000    1.143    5.714    0.857    0.000    0.000 
#    0.000    8.571    0.000    0.000    0.000    0.000 
#    0.000    0.000    0.000    0.000    0.000    0.000 
#
# Total GULP energy -173705.566057 kJ/mol
# GULP energy per Si atom -12407.540433 kJ/mol
# Density = 2.060429 g / cm^3
# Si number density = 20.651296 Si / 1000 Ang^3
#
#
#
# Elastic Constant Matrix: (Units=GPa)
#
#
# Indices 1 2 3 4 5 6 
#
# 1 83.1009 2.8497 -3.8727 0.0000 0.0000 0.0000
# 2 2.8497 71.5164 8.4234 0.0000 0.0000 0.0000
# 3 -3.8727 8.4234 67.8777 0.0000 0.0000 0.0000
# 4 0.0000 0.0000 0.0000 28.3736 0.0000 0.0000
# 5 0.0000 0.0000 0.0000 0.0000 43.6087 0.0000
# 6 0.0000 0.0000 0.0000 0.0000 0.0000 19.5434
#
#
#
# Elastic Compliance Matrix: (Units=1/GPa)
#
#
# Indices 1 2 3 4 5 6 
#
# 1 0.012089 -0.000571 0.000761 0.000000 0.000000 0.000000
# 2 -0.000571 0.014217 -0.001797 0.000000 0.000000 0.000000
# 3 0.000761 -0.001797 0.014999 0.000000 0.000000 0.000000
# 4 0.000000 0.000000 0.000000 0.035244 0.000000 0.000000
# 5 0.000000 0.000000 0.000000 0.000000 0.022931 0.000000
# 6 0.000000 0.000000 0.000000 0.000000 0.000000 0.051168
#
#
# Mechanical properties :
#
#
# Convention : Reuss Voigt Hill
#
# Bulk Modulus (GPa) = 26.25399 26.36617 26.31008
# Shear Modulus (GPa) = 30.01929 32.64478 31.33204
#
# Velocity S-wave (km/s) = 3.81678 3.98019 3.89934
# Velocity P-wave (km/s) = 5.67136 5.82388 5.74813
#
# Compressibility (1/GPa) = 0.03808945
#
# Stress axis : x y z
#
# Youngs Moduli (GPa) = 82.72254 70.33723 66.67213
#
# Poissons Ratio (x) = 0.04018 -0.05071
# Poissons Ratio (y) = 0.04726 0.11980
# Poissons Ratio (z) = -0.06292 0.12639
#
# Static dielectric constant tensor:
#      x y z
#    x 3.610050 0.000000 0.000000 
#    y 0.000000 3.674400 0.000000 
#    z 0.000000 0.000000 4.080150 
# 
# 
# High freq. dielectric constant tensor:
#      x y z
#    x 1.800980 0.000000 0.000000 
#    y 0.000000 1.799290 0.000000 
#    z 0.000000 0.000000 1.831790 
# 
# From -- ./inp_files/127.got.cif
#   From: 2010.03.12/outbox.cif.g09.slc.cpg/sg18_1_cif.got.tgz:127.got - 2010.04.10 18:53:55.
