data_PCOD8156098
_publ_section_title
;
Structure prediction by ZEFSAII (Michael W. Deem and Ramdas Pophale) SiO2 
 PCOD8156098
Probable space group: P 21 21 2
;
_chemical_formula_sum "Si O2"
_cell_formula_units_Z 32
_cell_length_a 9.335187
_cell_length_b 10.635373
_cell_length_c 16.278033
_cell_angle_alpha 90.000000
_cell_angle_beta 90.000000
_cell_angle_gamma 90.000000
_cell_volume 1616.135137
_symmetry_space_group_name_H-M "P 21 21 2"
_symmetry_group_IT_number 18
_symmetry_cell_setting 'orthorhombic'
loop_
_space_group_symop_operation_xyz
x,y,z
-x,-y,z
1/2+x,1/2-y,-z
1/2-x,1/2+y,-z
loop_
_atom_site_type_symbol
_atom_site_label
_atom_site_fract_x
_atom_site_fract_y
_atom_site_fract_z
Si Si1 0.277635 0.235147 0.682523
Si Si2 0.012587 0.350768 0.433545
Si Si3 0.497555 0.642251 0.796747
Si Si4 0.511424 0.146105 0.382234
Si Si5 0.392884 0.342452 0.978306
Si Si6 0.165163 0.018571 0.782844
Si Si7 0.238565 0.271443 0.300505
Si Si8 0.187653 0.106324 0.958474
O O1 0.368362 0.209327 0.601426
O O2 0.376168 0.278577 0.756578
O O3 0.160638 0.339595 0.664269
O O4 0.191157 0.111452 0.707570
O O5 0.000000 0.500000 0.428512
O O6 0.022280 0.296673 0.525953
O O7 0.148405 0.303624 0.381791
O O8 0.500000 0.500000 0.768069
O O9 0.519323 0.658742 0.893412
O O10 0.343382 0.684048 0.763990
O O11 0.384715 0.207444 0.329794
O O12 0.500000 0.000000 0.392236
O O13 0.292912 0.218736 0.990643
O O14 0.523334 0.341397 0.044292
O O15 0.304156 0.475186 0.987844
O O16 0.237377 0.890449 0.756563
O O17 0.236596 0.071251 0.866370
O O18 0.000000 0.000000 0.799358
#
# Coordination Sequence:
#
# PCOD8156098 Si02
#       8
#     4   4   4   4   4   4   4   4
#     4  11  22  40  64  89 127 163 210 258 315 368
#     4  10  21  39  62  93 126 164 211 261 316 375
#     4  11  23  42  64  90 127 168 206 254 317 379
#     4  11  23  40  61  92 130 166 209 262 315 377
#     4  11  24  44  65  94 132 166 208 266 323 384
#     4  12  22  41  67  94 124 161 213 268 312 371
#     4  11  24  39  67  95 123 169 217 257 315 377
#     4  11  25  44  67  96 128 168 214 268 323 383
#
# _framework density 19.800325000000001
#
# number of rings (size 3 to 8) (size 9 to 14) (size 15 to 20)
#    0.000    1.000    6.250    1.500    1.750    0.500 
#    0.000    0.000    2.750    0.000    0.000    0.000 
#    0.000    0.000    0.000    0.000    0.000    0.000 
#
# Total GULP energy -396688.554168 kJ/mol
# GULP energy per Si atom -12396.517318 kJ/mol
# Density = 1.975526 g / cm^3
# Si number density = 19.800325 Si / 1000 Ang^3
#
#
#
# Elastic Constant Matrix: (Units=GPa)
#
#
# Indices 1 2 3 4 5 6 
#
# 1 94.8698 33.9123 32.3940 0.0000 0.0000 0.0000
# 2 33.9123 102.8184 27.1230 0.0000 0.0000 0.0000
# 3 32.3940 27.1230 86.9099 0.0000 0.0000 0.0000
# 4 0.0000 0.0000 0.0000 38.2267 0.0000 0.0000
# 5 0.0000 0.0000 0.0000 0.0000 30.1921 0.0000
# 6 0.0000 0.0000 0.0000 0.0000 0.0000 34.5536
#
#
#
# Elastic Compliance Matrix: (Units=1/GPa)
#
#
# Indices 1 2 3 4 5 6 
#
# 1 0.013022 -0.003285 -0.003829 0.000000 0.000000 0.000000
# 2 -0.003285 0.011427 -0.002342 0.000000 0.000000 0.000000
# 3 -0.003829 -0.002342 0.013664 0.000000 0.000000 0.000000
# 4 0.000000 0.000000 0.000000 0.026160 0.000000 0.000000
# 5 0.000000 0.000000 0.000000 0.000000 0.033121 0.000000
# 6 0.000000 0.000000 0.000000 0.000000 0.000000 0.028941
#
#
# Mechanical properties :
#
#
# Convention : Reuss Voigt Hill
#
# Bulk Modulus (GPa) = 52.07636 52.38407 52.23021
# Shear Modulus (GPa) = 32.97132 33.33906 33.15519
#
# Velocity S-wave (km/s) = 4.08510 4.10782 4.09648
# Velocity P-wave (km/s) = 6.97199 7.00089 6.98646
#
# Compressibility (1/GPa) = 0.01920257
#
# Stress axis : x y z
#
# Youngs Moduli (GPa) = 76.79087 87.51083 73.18490
#
# Poissons Ratio (x) = 0.28749 0.28020
# Poissons Ratio (y) = 0.25227 0.17138
# Poissons Ratio (z) = 0.29400 0.20493
#
# Static dielectric constant tensor:
#      x y z
#    x 3.453400 0.000000 0.000000 
#    y 0.000000 3.751360 0.000000 
#    z 0.000000 0.000000 3.707710 
# 
# 
# High freq. dielectric constant tensor:
#      x y z
#    x 1.773520 0.000000 0.000000 
#    y 0.000000 1.778750 0.000000 
#    z 0.000000 0.000000 1.779630 
# 
# From -- ./inp_files/6797.got.cif
#   From: 2010.03.12/outbox.cif.g09.slc.cpg/sg18_4_cif.got.tgz:6797.got - 2010.04.10 18:53:55.
