data_PCOD8156558
_publ_section_title
;
Structure prediction by ZEFSAII (Michael W. Deem and Ramdas Pophale) SiO2 
 PCOD8156558
Probable space group: P 21 21 21
;
_chemical_formula_sum "Si O2"
_cell_formula_units_Z 28
_cell_length_a 13.649277
_cell_length_b 10.486071
_cell_length_c 11.087834
_cell_angle_alpha 90.000000
_cell_angle_beta 90.000000
_cell_angle_gamma 90.000000
_cell_volume 1586.971607
_symmetry_space_group_name_H-M "P 21 21 21"
_symmetry_group_IT_number 19
_symmetry_cell_setting 'orthorhombic'
loop_
_space_group_symop_operation_xyz
x,y,z
1/2-x,-y,1/2+z
1/2+x,1/2-y,-z
-x,1/2+y,1/2-z
loop_
_atom_site_type_symbol
_atom_site_label
_atom_site_fract_x
_atom_site_fract_y
_atom_site_fract_z
Si Si1 0.619374 0.100716 0.894625
Si Si2 0.798779 0.871041 0.134310
Si Si3 0.221797 0.649593 0.418023
Si Si4 0.397820 0.117362 0.903464
Si Si5 0.609532 0.833531 0.005678
Si Si6 0.781566 0.302757 0.307073
Si Si7 0.890112 0.652797 0.972116
O O1 0.678508 0.134528 0.774658
O O2 0.510452 0.157214 0.883158
O O3 0.608753 0.950131 0.911892
O O4 0.676758 0.160221 0.008277
O O5 0.826342 0.008218 0.073913
O O6 0.681537 0.854784 0.118916
O O7 0.854871 0.758332 0.066811
O O8 0.149108 0.758922 0.470750
O O9 0.240696 0.677615 0.275374
O O10 0.340537 0.095437 0.775768
O O11 0.384072 0.989559 0.977720
O O12 0.649819 0.718465 0.923751
O O13 0.501858 0.809859 0.059891
O O14 0.675371 0.350272 0.351643
#
# Coordination Sequence:
#
# PCOD8156558 Si02
#       7
#     4   4   4   4   4   4   4
#     4  10  17  34  57  78 106 139 188 214 264 326
#     4  10  19  32  59  80 102 145 183 219 261 325
#     4   9  20  36  54  79 108 142 173 228 265 309
#     4   9  20  35  54  78 107 145 171 225 272 311
#     4   9  18  34  54  82 108 139 178 222 275 316
#     4   9  18  37  55  73 116 136 174 224 275 307
#     4  10  20  34  57  80 107 144 177 226 274 322
#
# _framework density 17.643667000000001
#
# number of rings (size 3 to 8) (size 9 to 14) (size 15 to 20)
#    0.857    1.714    1.429    0.857    0.000    1.143 
#    2.571    2.857    9.429    0.000    0.000    0.000 
#    0.000    0.000    0.000    0.000    0.000    0.000 
#
# Total GULP energy -346902.816040 kJ/mol
# GULP energy per Si atom -12389.386287 kJ/mol
# Density = 1.760351 g / cm^3
# Si number density = 17.643667 Si / 1000 Ang^3
#
#
#
# Elastic Constant Matrix: (Units=GPa)
#
#
# Indices 1 2 3 4 5 6 
#
# 1 146.4192 34.8066 44.3533 0.0000 0.0000 0.0000
# 2 34.8066 70.1808 8.9222 0.0000 0.0000 0.0000
# 3 44.3533 8.9222 57.2078 0.0000 0.0000 0.0000
# 4 0.0000 0.0000 0.0000 20.1689 0.0000 0.0000
# 5 0.0000 0.0000 0.0000 0.0000 31.0278 0.0000
# 6 0.0000 0.0000 0.0000 0.0000 0.0000 24.2808
#
#
#
# Elastic Compliance Matrix: (Units=1/GPa)
#
#
# Indices 1 2 3 4 5 6 
#
# 1 0.009928 -0.004025 -0.007069 0.000000 0.000000 0.000000
# 2 -0.004025 0.016169 0.000599 0.000000 0.000000 0.000000
# 3 -0.007069 0.000599 0.022868 0.000000 0.000000 0.000000
# 4 0.000000 0.000000 0.000000 0.049581 0.000000 0.000000
# 5 0.000000 0.000000 0.000000 0.000000 0.032229 0.000000
# 6 0.000000 0.000000 0.000000 0.000000 0.000000 0.041185
#
#
# Mechanical properties :
#
#
# Convention : Reuss Voigt Hill
#
# Bulk Modulus (GPa) = 35.74810 49.99688 42.87249
# Shear Modulus (GPa) = 24.71871 27.47720 26.09796
#
# Velocity S-wave (km/s) = 3.74705 3.95060 3.85017
# Velocity P-wave (km/s) = 6.24705 7.01485 6.64205
#
# Compressibility (1/GPa) = 0.02797351
#
# Stress axis : x y z
#
# Youngs Moduli (GPa) = 100.72487 61.84653 43.72982
#
# Poissons Ratio (x) = 0.24894 0.30915
# Poissons Ratio (y) = 0.40543 -0.02619
# Poissons Ratio (z) = 0.71207 -0.03704
#
# Static dielectric constant tensor:
#      x y z
#    x 3.433370 0.000000 0.000000 
#    y 0.000000 3.149410 0.000000 
#    z 0.000000 0.000000 3.052590 
# 
# 
# High freq. dielectric constant tensor:
#      x y z
#    x 1.686920 0.000000 0.000000 
#    y 0.000000 1.672430 0.000000 
#    z 0.000000 0.000000 1.665280 
# 
# From -- ./inp_files/4977.got.cif
#   From: 2010.03.12/outbox.cif.g09.slc.cpg/sg19_3_cif.got.tgz:4977.got - 2010.04.10 18:59:41.
