data_PCOD8156172
_publ_section_title
;
Structure prediction by ZEFSAII (Michael W. Deem and Ramdas Pophale) SiO2 
 PCOD8156172
Probable space group: P 21 21 2
;
_chemical_formula_sum "Si O2"
_cell_formula_units_Z 26
_cell_length_a 17.569763
_cell_length_b 11.865173
_cell_length_c 4.889206
_cell_angle_alpha 90.000000
_cell_angle_beta 90.000000
_cell_angle_gamma 90.000000
_cell_volume 1019.244353
_symmetry_space_group_name_H-M "P 21 21 2"
_symmetry_group_IT_number 18
_symmetry_cell_setting 'orthorhombic'
loop_
_space_group_symop_operation_xyz
x,y,z
-x,-y,z
1/2+x,1/2-y,-z
1/2-x,1/2+y,-z
loop_
_atom_site_type_symbol
_atom_site_label
_atom_site_fract_x
_atom_site_fract_y
_atom_site_fract_z
Si Si1 0.000000 0.000000 0.363499
Si Si2 0.674171 0.243775 0.767520
Si Si3 0.620191 0.050261 0.365802
Si Si4 0.737912 0.578103 0.957575
Si Si5 0.011231 0.217521 0.040821
Si Si6 0.466724 0.158704 0.443366
Si Si7 0.663300 0.471061 0.468716
O O1 0.071642 0.030753 0.557415
O O2 0.980272 0.101849 0.162573
O O3 0.657328 0.130450 0.594537
O O4 0.750782 0.208140 0.937995
O O5 0.604243 0.278122 0.973000
O O6 0.693096 0.349674 0.574205
O O7 0.537600 0.097837 0.288555
O O8 0.607816 0.919646 0.455693
O O9 0.674881 0.041166 0.103818
O O10 0.700053 0.493586 0.175420
O O11 0.688447 0.569517 0.680718
O O12 0.985120 0.316027 0.244650
O O13 0.965039 0.229588 0.751531
#
# Coordination Sequence:
#
# PCOD8156172 Si02
#       7
#     2   4   4   4   4   4   4
#     4  10  26  52  68  96 136 180 248 272 340 414
#     4  10  23  46  69  94 140 187 222 273 368 407
#     4  10  22  41  69  98 143 173 224 278 343 424
#     4  12  24  45  68 104 131 183 228 283 347 411
#     4  10  22  41  70  95 132 184 221 287 332 407
#     4  10  22  37  66 105 132 179 225 275 342 396
#     4  11  28  45  74  97 136 187 231 289 339 419
#
# _framework density 25.509094000000001
#
# number of rings (size 3 to 8) (size 9 to 14) (size 15 to 20)
#    0.000    1.538    3.077    0.000    4.308    7.385 
#    8.308    0.000    0.000    0.000    0.000    0.000 
#    0.000    0.000    0.000    0.000    0.000    0.000 
#
# Total GULP energy -322204.765062 kJ/mol
# GULP energy per Si atom -12392.490964 kJ/mol
# Density = 2.545103 g / cm^3
# Si number density = 25.509094 Si / 1000 Ang^3
#
#
#
# Elastic Constant Matrix: (Units=GPa)
#
#
# Indices 1 2 3 4 5 6 
#
# 1 73.9577 20.9086 11.1725 0.0000 0.0000 0.0000
# 2 20.9086 50.7141 -17.4939 0.0000 0.0000 0.0000
# 3 11.1725 -17.4939 78.0034 0.0000 0.0000 0.0000
# 4 0.0000 0.0000 0.0000 22.4227 0.0000 0.0000
# 5 0.0000 0.0000 0.0000 0.0000 36.7243 0.0000
# 6 0.0000 0.0000 0.0000 0.0000 0.0000 37.6191
#
#
#
# Elastic Compliance Matrix: (Units=1/GPa)
#
#
# Indices 1 2 3 4 5 6 
#
# 1 0.016491 -0.008252 -0.004213 0.000000 0.000000 0.000000
# 2 -0.008252 0.025501 0.006901 0.000000 0.000000 0.000000
# 3 -0.004213 0.006901 0.014971 0.000000 0.000000 0.000000
# 4 0.000000 0.000000 0.000000 0.044598 0.000000 0.000000
# 5 0.000000 0.000000 0.000000 0.000000 0.027230 0.000000
# 6 0.000000 0.000000 0.000000 0.000000 0.000000 0.026582
#
#
# Mechanical properties :
#
#
# Convention : Reuss Voigt Hill
#
# Bulk Modulus (GPa) = 21.81706 25.76107 23.78907
# Shear Modulus (GPa) = 27.50606 31.89240 29.69923
#
# Velocity S-wave (km/s) = 3.28729 3.53970 3.41583
# Velocity P-wave (km/s) = 4.79370 5.17945 4.99030
#
# Compressibility (1/GPa) = 0.04583569
#
# Stress axis : x y z
#
# Youngs Moduli (GPa) = 60.64077 39.21405 66.79556
#
# Poissons Ratio (x) = 0.32359 0.28139
# Poissons Ratio (y) = 0.50040 -0.46096
# Poissons Ratio (z) = 0.25546 -0.27062
#
# Static dielectric constant tensor:
#      x y z
#    x 4.583780 0.000000 0.000000 
#    y 0.000000 4.809860 0.000000 
#    z 0.000000 0.000000 4.372230 
# 
# 
# High freq. dielectric constant tensor:
#      x y z
#    x 1.999340 0.000000 0.000000 
#    y 0.000000 2.019360 0.000000 
#    z 0.000000 0.000000 2.017240 
# 
# From -- ./inp_files/1802.got.cif
#   From: 2010.03.12/outbox.cif.g09.slc.cpg/sg18_1_cif.got.tgz:1802.got - 2010.04.10 18:53:55.
