data_PCOD8156017
_publ_section_title
;
Structure prediction by ZEFSAII (Michael W. Deem and Ramdas Pophale) SiO2 
 PCOD8156017
Probable space group: P 21 21 2
;
_chemical_formula_sum "Si O2"
_cell_formula_units_Z 20
_cell_length_a 13.281732
_cell_length_b 14.049581
_cell_length_c 5.129963
_cell_angle_alpha 90.000000
_cell_angle_beta 90.000000
_cell_angle_gamma 90.000000
_cell_volume 957.265304
_symmetry_space_group_name_H-M "P 21 21 2"
_symmetry_group_IT_number 18
_symmetry_cell_setting 'orthorhombic'
loop_
_space_group_symop_operation_xyz
x,y,z
-x,-y,z
1/2+x,1/2-y,-z
1/2-x,1/2+y,-z
loop_
_atom_site_type_symbol
_atom_site_label
_atom_site_fract_x
_atom_site_fract_y
_atom_site_fract_z
Si Si1 0.320345 0.080189 0.962609
Si Si2 0.956016 0.258013 0.081838
Si Si3 0.226042 0.020471 0.455722
Si Si4 0.354612 0.324413 0.413515
Si Si5 0.323524 0.707885 0.773934
O O1 0.297782 0.006948 0.200536
O O2 0.242478 0.169816 0.982196
O O3 0.429952 0.130888 0.982596
O O4 0.304034 0.026021 0.694014
O O5 0.905397 0.234551 0.357011
O O6 0.075120 0.251449 0.113705
O O7 0.919747 0.187796 0.850626
O O8 0.159084 0.116876 0.420249
O O9 0.148638 0.934712 0.501888
O O10 0.240133 0.288815 0.374930
#
# Coordination Sequence:
#
# PCOD8156017 Si02
#       5
#     4   4   4   4   4
#     4   9  19  39  56  83 123 156 195 259 296 358
#     4  11  21  38  63  89 121 163 205 247 314 370
#     4  10  20  40  58  86 128 155 200 260 301 356
#     4  11  23  39  63  90 123 164 205 251 315 368
#     4   9  23  38  62  87 126 158 201 255 310 357
#
# _framework density 20.892848999999998
#
# number of rings (size 3 to 8) (size 9 to 14) (size 15 to 20)
#    1.200    0.800    2.000    1.200    2.800    0.800 
#    0.000    1.000    0.000    4.800    0.000    0.000 
#    0.000    0.000    0.000    0.000    0.000    0.000 
#
# Total GULP energy -247821.939493 kJ/mol
# GULP energy per Si atom -12391.096975 kJ/mol
# Density = 2.084530 g / cm^3
# Si number density = 20.892849 Si / 1000 Ang^3
#
#
#
# Elastic Constant Matrix: (Units=GPa)
#
#
# Indices 1 2 3 4 5 6 
#
# 1 91.5238 5.6904 26.1279 0.0000 0.0000 0.0000
# 2 5.6904 17.8139 1.5663 0.0000 0.0000 0.0000
# 3 26.1279 1.5663 125.7264 0.0000 0.0000 0.0000
# 4 0.0000 0.0000 0.0000 31.1876 0.0000 0.0000
# 5 0.0000 0.0000 0.0000 0.0000 23.5496 0.0000
# 6 0.0000 0.0000 0.0000 0.0000 0.0000 9.4506
#
#
#
# Elastic Compliance Matrix: (Units=1/GPa)
#
#
# Indices 1 2 3 4 5 6 
#
# 1 0.011838 -0.003569 -0.002416 0.000000 0.000000 0.000000
# 2 -0.003569 0.057274 0.000028 0.000000 0.000000 0.000000
# 3 -0.002416 0.000028 0.008455 0.000000 0.000000 0.000000
# 4 0.000000 0.000000 0.000000 0.032064 0.000000 0.000000
# 5 0.000000 0.000000 0.000000 0.000000 0.042464 0.000000
# 6 0.000000 0.000000 0.000000 0.000000 0.000000 0.105814
#
#
# Mechanical properties :
#
#
# Convention : Reuss Voigt Hill
#
# Bulk Modulus (GPa) = 15.23140 33.53704 24.38422
# Shear Modulus (GPa) = 17.14059 26.28285 21.71172
#
# Velocity S-wave (km/s) = 2.86738 3.55065 3.22715
# Velocity P-wave (km/s) = 4.27417 5.73553 5.05791
#
# Compressibility (1/GPa) = 0.06565387
#
# Stress axis : x y z
#
# Youngs Moduli (GPa) = 84.47648 17.46005 118.26731
#
# Poissons Ratio (x) = 0.06231 0.28568
# Poissons Ratio (y) = 0.30149 -0.00333
# Poissons Ratio (z) = 0.20406 -0.00049
#
# Static dielectric constant tensor:
#      x y z
#    x 3.425330 0.000000 0.000000 
#    y 0.000000 3.567110 0.000000 
#    z 0.000000 0.000000 3.811750 
# 
# 
# High freq. dielectric constant tensor:
#      x y z
#    x 1.788290 0.000000 0.000000 
#    y 0.000000 1.801130 0.000000 
#    z 0.000000 0.000000 1.831570 
# 
# From -- ./inp_files/1021.got.cif
#   From: 2010.03.12/outbox.cif.g09.slc.cpg/sg18_1_cif.got.tgz:1021.got - 2010.04.10 18:53:55.
