data_PCOD8156598
_publ_section_title
;
Structure prediction by ZEFSAII (Michael W. Deem and Ramdas Pophale) SiO2 
 PCOD8156598
Probable space group: P 21 21 21
;
_chemical_formula_sum "Si O2"
_cell_formula_units_Z 32
_cell_length_a 10.043514
_cell_length_b 7.393886
_cell_length_c 18.780427
_cell_angle_alpha 90.000000
_cell_angle_beta 90.000000
_cell_angle_gamma 90.000000
_cell_volume 1394.645731
_symmetry_space_group_name_H-M "P 21 21 21"
_symmetry_group_IT_number 19
_symmetry_cell_setting 'orthorhombic'
loop_
_space_group_symop_operation_xyz
x,y,z
1/2-x,-y,1/2+z
1/2+x,1/2-y,-z
-x,1/2+y,1/2-z
loop_
_atom_site_type_symbol
_atom_site_label
_atom_site_fract_x
_atom_site_fract_y
_atom_site_fract_z
Si Si1 0.522896 0.798908 0.165303
Si Si2 0.476712 0.281640 0.812107
Si Si3 0.251406 0.810007 0.223596
Si Si4 0.639489 0.526470 0.902959
Si Si5 0.070076 0.023751 0.941267
Si Si6 0.200237 0.204053 0.291109
Si Si7 0.415605 0.104170 0.068796
Si Si8 0.635628 0.508163 0.583946
O O1 0.407961 0.762133 0.224568
O O2 0.519245 0.630094 0.111688
O O3 0.662267 0.816208 0.207609
O O4 0.498817 0.990152 0.126303
O O5 0.338336 0.326326 0.770654
O O6 0.520917 0.462345 0.851621
O O7 0.586961 0.202627 0.756823
O O8 0.464099 0.133667 0.873001
O O9 0.204474 0.803822 0.139778
O O10 0.227920 0.006466 0.258179
O O11 0.760031 0.378449 0.908874
O O12 0.580104 0.570127 0.980473
O O13 0.215793 0.095019 0.918657
O O14 0.971173 0.194073 0.940901
O O15 0.147106 0.182284 0.373151
O O16 0.423288 0.988869 0.995162
#
# Coordination Sequence:
#
# PCOD8156598 Si02
#       8
#     4   4   4   4   4   4   4   4
#     4  10  22  43  64  93 126 162 208 260 316 354
#     4  10  18  39  62  83 126 174 196 252 322 364
#     4   9  20  40  61  89 126 167 207 260 304 373
#     4   9  19  38  60  88 130 158 207 263 312 363
#     4  10  20  40  66  92 123 162 206 267 307 371
#     4   9  20  40  61  89 126 167 207 260 304 373
#     4  10  20  40  66  92 123 162 206 267 307 371
#     4   9  19  38  60  88 130 158 207 263 312 363
#
# _framework density 22.944897999999998
#
# number of rings (size 3 to 8) (size 9 to 14) (size 15 to 20)
#    0.000    2.500    1.250    0.000    0.000    1.000 
#   33.750   10.000    0.000    0.000    0.000    0.000 
#    0.000    0.000    0.000    0.000    0.000    0.000 
#
# Total GULP energy -396535.659973 kJ/mol
# GULP energy per Si atom -12391.739374 kJ/mol
# Density = 2.289267 g / cm^3
# Si number density = 22.944898 Si / 1000 Ang^3
#
#
#
# Elastic Constant Matrix: (Units=GPa)
#
#
# Indices 1 2 3 4 5 6 
#
# 1 69.6057 -4.6067 29.6887 0.0000 0.0000 0.0000
# 2 -4.6067 25.1575 -3.5961 0.0000 0.0000 0.0000
# 3 29.6887 -3.5961 94.0434 0.0000 0.0000 0.0000
# 4 0.0000 0.0000 0.0000 19.3887 0.0000 0.0000
# 5 0.0000 0.0000 0.0000 0.0000 45.9287 0.0000
# 6 0.0000 0.0000 0.0000 0.0000 0.0000 28.2130
#
#
#
# Elastic Compliance Matrix: (Units=1/GPa)
#
#
# Indices 1 2 3 4 5 6 
#
# 1 0.016736 0.002322 -0.005195 0.000000 0.000000 0.000000
# 2 0.002322 0.040290 0.000808 0.000000 0.000000 0.000000
# 3 -0.005195 0.000808 0.012304 0.000000 0.000000 0.000000
# 4 0.000000 0.000000 0.000000 0.051577 0.000000 0.000000
# 5 0.000000 0.000000 0.000000 0.000000 0.021773 0.000000
# 6 0.000000 0.000000 0.000000 0.000000 0.000000 0.035445
#
#
# Mechanical properties :
#
#
# Convention : Reuss Voigt Hill
#
# Bulk Modulus (GPa) = 15.33734 25.75316 20.54525
# Shear Modulus (GPa) = 24.51127 29.86077 27.18602
#
# Velocity S-wave (km/s) = 3.27198 3.61142 3.44588
# Velocity P-wave (km/s) = 4.57967 5.35146 4.98054
#
# Compressibility (1/GPa) = 0.06520036
#
# Stress axis : x y z
#
# Youngs Moduli (GPa) = 59.75161 24.81995 81.27329
#
# Poissons Ratio (x) = -0.05763 0.42218
# Poissons Ratio (y) = -0.13875 -0.06563
# Poissons Ratio (z) = 0.31039 -0.02004
#
# Static dielectric constant tensor:
#      x y z
#    x 4.409110 0.000000 0.000000 
#    y 0.000000 3.535120 0.000000 
#    z 0.000000 0.000000 4.608240 
# 
# 
# High freq. dielectric constant tensor:
#      x y z
#    x 1.915360 0.000000 0.000000 
#    y 0.000000 1.854470 0.000000 
#    z 0.000000 0.000000 1.926860 
# 
# From -- ./inp_files/7037.got.cif
#   From: 2010.03.12/outbox.cif.g09.slc.cpg/sg19_4_cif.got.tgz:7037.got - 2010.04.10 18:59:41.
