data_PCOD8156724
_publ_section_title
;
Structure prediction by ZEFSAII (Michael W. Deem and Ramdas Pophale) SiO2 
 PCOD8156724
Probable space group: P 21 21 21
;
_chemical_formula_sum "Si O2"
_cell_formula_units_Z 24
_cell_length_a 7.649409
_cell_length_b 18.805754
_cell_length_c 6.521110
_cell_angle_alpha 90.000000
_cell_angle_beta 90.000000
_cell_angle_gamma 90.000000
_cell_volume 938.080610
_symmetry_space_group_name_H-M "P 21 21 21"
_symmetry_group_IT_number 19
_symmetry_cell_setting 'orthorhombic'
loop_
_space_group_symop_operation_xyz
x,y,z
1/2-x,-y,1/2+z
1/2+x,1/2-y,-z
-x,1/2+y,1/2-z
loop_
_atom_site_type_symbol
_atom_site_label
_atom_site_fract_x
_atom_site_fract_y
_atom_site_fract_z
Si Si1 0.750000 0.898729 0.366105
Si Si2 0.943823 0.653158 0.180586
Si Si3 0.056177 0.846842 0.819414
Si Si4 0.553054 0.696408 0.708069
Si Si5 0.446946 0.803592 0.291931
Si Si6 0.250000 0.438721 0.591988
O O1 0.572093 0.856447 0.424618
O O2 0.927907 0.856447 0.424618
O O3 0.750000 0.977778 0.458665
O O4 0.750000 0.899597 0.121885
O O5 0.750000 0.624384 0.231703
O O6 0.986937 0.722095 0.322288
O O7 0.081479 0.588656 0.220839
O O8 0.954493 0.677993 0.946811
O O9 0.013063 0.777905 0.677712
O O10 0.918521 0.911344 0.779161
O O11 0.045507 0.822007 0.053189
O O12 0.750000 0.687272 0.624864
#
# Coordination Sequence:
#
# PCOD8156724 Si02
#       6
#     4   4   4   4   4   4
#     4  10  20  32  48  72 101 126 152 194 241 282
#     4   9  15  26  47  73  94 117 158 204 235 265
#     4   9  15  26  47  73  94 117 158 204 235 265
#     4   9  15  26  47  73  94 117 158 204 235 265
#     4   9  15  26  47  73  94 117 158 204 235 265
#     4  10  20  32  48  72 101 126 152 194 241 282
#
# _framework density 25.584154000000002
#
# number of rings (size 3 to 8) (size 9 to 14) (size 15 to 20)
#    0.000    2.667    3.333    0.000    0.000    1.333 
#    0.000    0.000    0.000    2.000    0.000    0.000 
#    0.000    0.000    0.000    0.000    0.000    0.000 
#
# Total GULP energy -297632.209760 kJ/mol
# GULP energy per Si atom -12401.342073 kJ/mol
# Density = 2.552592 g / cm^3
# Si number density = 25.584154 Si / 1000 Ang^3
#
#
#
# Elastic Constant Matrix: (Units=GPa)
#
#
# Indices 1 2 3 4 5 6 
#
# 1 296.8802 126.1259 -7.6017 0.0000 0.0000 0.0000
# 2 126.1259 185.6779 18.6152 0.0000 0.0000 0.0000
# 3 -7.6017 18.6152 41.3616 0.0000 0.0000 0.0000
# 4 0.0000 0.0000 0.0000 42.3823 0.0000 0.0000
# 5 0.0000 0.0000 0.0000 0.0000 -13.6161 0.0000
# 6 0.0000 0.0000 0.0000 0.0000 0.0000 48.8761
#
#
#
# Elastic Compliance Matrix: (Units=1/GPa)
#
#
# Indices 1 2 3 4 5 6 
#
# 1 0.004979 -0.003638 0.002553 0.000000 0.000000 0.000000
# 2 -0.003638 0.008299 -0.004403 0.000000 0.000000 0.000000
# 3 0.002553 -0.004403 0.026628 0.000000 0.000000 0.000000
# 4 0.000000 0.000000 0.000000 0.023595 0.000000 0.000000
# 5 0.000000 0.000000 0.000000 0.000000 -0.073442 0.000000
# 6 0.000000 0.000000 0.000000 0.000000 0.000000 0.020460
#
#
# Mechanical properties :
#
#
# Convention : Reuss Voigt Hill
#
# Bulk Modulus (GPa) = 34.56914 88.68873 61.62893
# Shear Modulus (GPa) = 160.57021 41.31382 100.94201
#
# Velocity S-wave (km/s) = 7.93082 4.02284 6.28813
# Velocity P-wave (km/s) = 9.86940 7.50456 8.76708
#
# Compressibility (1/GPa) = 0.02892754
#
# Stress axis : x y z
#
# Youngs Moduli (GPa) = 200.82743 120.50334 37.55447
#
# Poissons Ratio (x) = 0.43842 -0.09586
# Poissons Ratio (y) = 0.73067 0.16537
# Poissons Ratio (z) = -0.51263 0.53064
#
# Static dielectric constant tensor:
#      x y z
#    x 5.043540 0.000000 0.000000 
#    y 0.000000 4.317690 0.000000 
#    z 0.000000 0.000000 4.682900 
# 
# 
# High freq. dielectric constant tensor:
#      x y z
#    x 2.027780 0.000000 0.000000 
#    y 0.000000 1.992480 0.000000 
#    z 0.000000 0.000000 2.078750 
# 
# From -- ./inp_files/2815.got.cif
#   From: 2010.03.12/outbox.cif.g09.slc.cpg/sg19_2_cif.got.tgz:2815.got - 2010.04.10 18:59:41.
