data_PCOD8156565
_publ_section_title
;
Structure prediction by ZEFSAII (Michael W. Deem and Ramdas Pophale) SiO2 
 PCOD8156565
Probable space group: P 21 21 21
;
_chemical_formula_sum "Si O2"
_cell_formula_units_Z 28
_cell_length_a 25.477801
_cell_length_b 5.119123
_cell_length_c 13.035333
_cell_angle_alpha 90.000000
_cell_angle_beta 90.000000
_cell_angle_gamma 90.000000
_cell_volume 1700.120233
_symmetry_space_group_name_H-M "P 21 21 21"
_symmetry_group_IT_number 19
_symmetry_cell_setting 'orthorhombic'
loop_
_space_group_symop_operation_xyz
x,y,z
1/2-x,-y,1/2+z
1/2+x,1/2-y,-z
-x,1/2+y,1/2-z
loop_
_atom_site_type_symbol
_atom_site_label
_atom_site_fract_x
_atom_site_fract_y
_atom_site_fract_z
Si Si1 0.920293 0.394095 0.577268
Si Si2 0.688072 0.751429 0.994304
Si Si3 0.972008 0.903523 0.627083
Si Si4 0.246157 0.256831 0.699598
Si Si5 0.254695 0.752669 0.431454
Si Si6 0.689056 0.751169 0.374333
Si Si7 0.921396 0.212567 0.791457
O O1 0.873197 0.319538 0.501265
O O2 0.944302 0.679648 0.558319
O O3 0.901279 0.391673 0.696443
O O4 0.965690 0.173409 0.563388
O O5 0.720161 0.534350 0.054435
O O6 0.701278 0.030835 0.046103
O O7 0.703197 0.745733 0.874273
O O8 0.032888 0.847534 0.643093
O O9 0.943964 0.942382 0.740113
O O10 0.266602 0.244379 0.815783
O O11 0.218798 0.535926 0.692702
O O12 0.204399 0.032480 0.669661
O O13 0.205102 0.716457 0.506538
O O14 0.627338 0.816906 0.368074
#
# Coordination Sequence:
#
# PCOD8156565 Si02
#       7
#     4   4   4   4   4   4   4
#     4  10  18  29  44  67  89 124 151 189 234 280
#     4  10  20  31  49  69  95 124 165 188 239 280
#     4  10  20  28  45  66  96 122 154 191 239 277
#     4  10  20  34  47  71  97 127 156 204 223 286
#     4  10  19  34  45  72  94 124 161 198 228 290
#     4  10  22  29  52  69  94 132 160 182 251 280
#     4  10  19  31  44  68  97 123 153 194 234 293
#
# _framework density 16.469422999999999
#
# number of rings (size 3 to 8) (size 9 to 14) (size 15 to 20)
#    0.857    1.143    1.429    3.429    4.000    0.000 
#    0.000    0.000    0.000    0.000    0.000    2.000 
#    0.000    0.000    0.000    0.000    0.000    0.000 
#
# Total GULP energy -346968.472177 kJ/mol
# GULP energy per Si atom -12391.731149 kJ/mol
# Density = 1.643194 g / cm^3
# Si number density = 16.469423 Si / 1000 Ang^3
#
#
#
# Elastic Constant Matrix: (Units=GPa)
#
#
# Indices 1 2 3 4 5 6 
#
# 1 82.0447 7.4284 25.0543 0.0000 0.0000 0.0000
# 2 7.4284 72.2705 11.1765 0.0000 0.0000 0.0000
# 3 25.0543 11.1765 87.0581 0.0000 0.0000 0.0000
# 4 0.0000 0.0000 0.0000 15.5620 0.0000 0.0000
# 5 0.0000 0.0000 0.0000 0.0000 23.2103 0.0000
# 6 0.0000 0.0000 0.0000 0.0000 0.0000 16.1226
#
#
#
# Elastic Compliance Matrix: (Units=1/GPa)
#
#
# Indices 1 2 3 4 5 6 
#
# 1 0.013408 -0.000797 -0.003756 0.000000 0.000000 0.000000
# 2 -0.000797 0.014165 -0.001589 0.000000 0.000000 0.000000
# 3 -0.003756 -0.001589 0.012772 0.000000 0.000000 0.000000
# 4 0.000000 0.000000 0.000000 0.064259 0.000000 0.000000
# 5 0.000000 0.000000 0.000000 0.000000 0.043084 0.000000
# 6 0.000000 0.000000 0.000000 0.000000 0.000000 0.062025
#
#
# Mechanical properties :
#
#
# Convention : Reuss Voigt Hill
#
# Bulk Modulus (GPa) = 35.63931 36.52132 36.08031
# Shear Modulus (GPa) = 21.61230 24.15994 22.88612
#
# Velocity S-wave (km/s) = 3.62645 3.83424 3.73180
# Velocity P-wave (km/s) = 6.26271 6.46725 6.36580
#
# Compressibility (1/GPa) = 0.02805891
#
# Stress axis : x y z
#
# Youngs Moduli (GPa) = 74.58393 70.59863 78.29884
#
# Poissons Ratio (x) = 0.05628 0.29411
# Poissons Ratio (y) = 0.05946 0.12442
# Poissons Ratio (z) = 0.28016 0.11218
#
# Static dielectric constant tensor:
#      x y z
#    x 2.896520 0.000000 0.000000 
#    y 0.000000 3.318710 0.000000 
#    z 0.000000 0.000000 2.953080 
# 
# 
# High freq. dielectric constant tensor:
#      x y z
#    x 1.613880 0.000000 0.000000 
#    y 0.000000 1.656090 0.000000 
#    z 0.000000 0.000000 1.594780 
# 
# From -- ./inp_files/2155.got.cif
#   From: 2010.03.12/outbox.cif.g09.slc.cpg/sg19_2_cif.got.tgz:2155.got - 2010.04.10 18:59:41.
