data_PCOD8156935
_publ_section_title
;
Structure prediction by ZEFSAII (Michael W. Deem and Ramdas Pophale) SiO2 
 PCOD8156935
Probable space group: P 21 21 21
;
_chemical_formula_sum "Si O2"
_cell_formula_units_Z 28
_cell_length_a 10.151251
_cell_length_b 5.186424
_cell_length_c 26.391302
_cell_angle_alpha 90.000000
_cell_angle_beta 90.000000
_cell_angle_gamma 90.000000
_cell_volume 1389.467526
_symmetry_space_group_name_H-M "P 21 21 21"
_symmetry_group_IT_number 19
_symmetry_cell_setting 'orthorhombic'
loop_
_space_group_symop_operation_xyz
x,y,z
1/2-x,-y,1/2+z
1/2+x,1/2-y,-z
-x,1/2+y,1/2-z
loop_
_atom_site_type_symbol
_atom_site_label
_atom_site_fract_x
_atom_site_fract_y
_atom_site_fract_z
Si Si1 0.944370 0.243048 0.945831
Si Si2 0.823419 0.752498 0.625616
Si Si3 0.676006 0.259246 0.484427
Si Si4 0.752423 0.757343 0.353079
Si Si5 0.625672 0.740170 0.891364
Si Si6 0.479120 0.223216 0.218285
Si Si7 0.182161 0.246898 0.402504
O O1 0.915444 0.487679 0.981167
O O2 0.851294 0.254970 0.897807
O O3 0.094488 0.249770 0.926837
O O4 0.919700 0.984935 0.977452
O O5 0.726739 0.508955 0.626708
O O6 0.917962 0.731657 0.673533
O O7 0.738182 0.011749 0.628717
O O8 0.792783 0.261275 0.443554
O O9 0.738714 0.248850 0.540270
O O10 0.846124 0.509215 0.356909
O O11 0.671234 0.755193 0.300749
O O12 0.839288 0.014212 0.356814
O O13 0.474281 0.743816 0.905868
O O14 0.504475 0.433484 0.261513
#
# Coordination Sequence:
#
# PCOD8156935 Si02
#       7
#     4   4   4   4   4   4   4
#     4   9  19  36  57  78 116 151 200 248 292 330
#     4  11  24  39  59  90 124 153 191 258 316 345
#     4  10  21  36  55  84 111 163 216 245 266 335
#     4   9  19  38  60  87 114 154 191 248 297 356
#     4  10  21  37  58  82 124 169 206 228 292 359
#     4  11  22  41  72  97 113 143 198 262 318 369
#     4  12  24  37  57  86 124 171 196 249 291 350
#
# _framework density 20.151603999999999
#
# number of rings (size 3 to 8) (size 9 to 14) (size 15 to 20)
#    0.000    1.714    0.000    4.286    4.000    4.571 
#    0.000    0.000    0.000   17.143    0.000    0.000 
#    0.000    0.000    0.000    0.000    0.000    0.000 
#
# Total GULP energy -347304.416120 kJ/mol
# GULP energy per Si atom -12403.729147 kJ/mol
# Density = 2.010574 g / cm^3
# Si number density = 20.151604 Si / 1000 Ang^3
#
#
#
# Elastic Constant Matrix: (Units=GPa)
#
#
# Indices 1 2 3 4 5 6 
#
# 1 103.6179 45.1541 23.9844 0.0000 0.0000 0.0000
# 2 45.1541 153.3919 19.6080 0.0000 0.0000 0.0000
# 3 23.9844 19.6080 64.7172 0.0000 0.0000 0.0000
# 4 0.0000 0.0000 0.0000 17.3522 0.0000 0.0000
# 5 0.0000 0.0000 0.0000 0.0000 25.1466 0.0000
# 6 0.0000 0.0000 0.0000 0.0000 0.0000 30.3690
#
#
#
# Elastic Compliance Matrix: (Units=1/GPa)
#
#
# Indices 1 2 3 4 5 6 
#
# 1 0.011766 -0.003023 -0.003444 0.000000 0.000000 0.000000
# 2 -0.003023 0.007559 -0.001170 0.000000 0.000000 0.000000
# 3 -0.003444 -0.001170 0.017083 0.000000 0.000000 0.000000
# 4 0.000000 0.000000 0.000000 0.057629 0.000000 0.000000
# 5 0.000000 0.000000 0.000000 0.000000 0.039767 0.000000
# 6 0.000000 0.000000 0.000000 0.000000 0.000000 0.032928
#
#
# Mechanical properties :
#
#
# Convention : Reuss Voigt Hill
#
# Bulk Modulus (GPa) = 47.32063 55.46888 51.39476
# Shear Modulus (GPa) = 26.44800 30.10560 28.27680
#
# Velocity S-wave (km/s) = 3.62671 3.86937 3.75000
# Velocity P-wave (km/s) = 6.40864 6.89552 6.65653
#
# Compressibility (1/GPa) = 0.02113243
#
# Stress axis : x y z
#
# Youngs Moduli (GPa) = 84.99417 132.29789 58.53858
#
# Poissons Ratio (x) = 0.39995 0.20163
# Poissons Ratio (y) = 0.25695 0.06848
# Poissons Ratio (z) = 0.29275 0.15476
#
# Static dielectric constant tensor:
#      x y z
#    x 3.553010 0.000000 0.000000 
#    y 0.000000 4.074940 0.000000 
#    z 0.000000 0.000000 3.438750 
# 
# 
# High freq. dielectric constant tensor:
#      x y z
#    x 1.783040 0.000000 0.000000 
#    y 0.000000 1.809110 0.000000 
#    z 0.000000 0.000000 1.761250 
# 
# From -- ./inp_files/7330.got.cif
#   From: 2010.03.12/outbox.cif.g09.slc.cpg/sg19_4_cif.got.tgz:7330.got - 2010.04.10 18:59:41.
