data_PCOD8156195
_publ_section_title
;
Structure prediction by ZEFSAII (Michael W. Deem and Ramdas Pophale) SiO2 
 PCOD8156195
Probable space group: P 21 21 2
;
_chemical_formula_sum "Si O2"
_cell_formula_units_Z 14
_cell_length_a 7.208480
_cell_length_b 6.690238
_cell_length_c 15.409228
_cell_angle_alpha 90.000000
_cell_angle_beta 90.000000
_cell_angle_gamma 90.000000
_cell_volume 743.132315
_symmetry_space_group_name_H-M "P 21 21 2"
_symmetry_group_IT_number 18
_symmetry_cell_setting 'orthorhombic'
loop_
_space_group_symop_operation_xyz
x,y,z
-x,-y,z
1/2+x,1/2-y,-z
1/2-x,1/2+y,-z
loop_
_atom_site_type_symbol
_atom_site_label
_atom_site_fract_x
_atom_site_fract_y
_atom_site_fract_z
Si Si1 0.341799 0.640472 0.903310
Si Si2 0.500000 0.500000 0.737263
Si Si3 0.500000 0.500000 0.459251
Si Si4 0.500000 0.000000 0.994653
Si Si5 0.866152 0.310160 0.401141
O O1 0.500000 0.500000 0.947079
O O2 0.344845 0.606041 0.798777
O O3 0.139617 0.605654 0.940262
O O4 0.390785 0.864044 0.927591
O O5 0.398530 0.328961 0.682194
O O6 0.655123 0.391663 0.400229
O O7 0.399436 0.327932 0.514976
O O8 0.000000 0.500000 0.400892
#
# Coordination Sequence:
#
# PCOD8156195 Si02
#       5
#     4   2   2   2   4
#     4  10  22  39  62  95 122 163 204 254 298 372
#     4   9  24  42  56  95 134 156 202 257 318 356
#     4  11  22  40  68  89 118 164 216 245 308 368
#     4  12  20  42  70  88 124 166 212 248 300 364
#     4  11  22  41  63  92 123 164 202 263 300 372
#
# _framework density 18.839175000000001
#
# number of rings (size 3 to 8) (size 9 to 14) (size 15 to 20)
#    0.857    0.571    5.714    0.000    2.000    0.000 
#    5.143    0.000    0.000    0.000    0.000    0.000 
#    0.000    0.000    0.000    0.000    0.000    0.000 
#
# Total GULP energy -173495.395350 kJ/mol
# GULP energy per Si atom -12392.528239 kJ/mol
# Density = 1.879630 g / cm^3
# Si number density = 18.839175 Si / 1000 Ang^3
#
#
#
# Elastic Constant Matrix: (Units=GPa)
#
#
# Indices 1 2 3 4 5 6 
#
# 1 118.9821 71.7170 44.0084 0.0000 0.0000 0.0000
# 2 71.7170 126.1217 70.5756 0.0000 0.0000 0.0000
# 3 44.0084 70.5756 114.1727 0.0000 0.0000 0.0000
# 4 0.0000 0.0000 0.0000 137.0385 0.0000 0.0000
# 5 0.0000 0.0000 0.0000 0.0000 40.2414 0.0000
# 6 0.0000 0.0000 0.0000 0.0000 0.0000 43.7058
#
#
#
# Elastic Compliance Matrix: (Units=1/GPa)
#
#
# Indices 1 2 3 4 5 6 
#
# 1 0.012820 -0.006918 -0.000666 0.000000 0.000000 0.000000
# 2 -0.006918 0.015855 -0.007134 0.000000 0.000000 0.000000
# 3 -0.000666 -0.007134 0.013425 0.000000 0.000000 0.000000
# 4 0.000000 0.000000 0.000000 0.007297 0.000000 0.000000
# 5 0.000000 0.000000 0.000000 0.000000 0.024850 0.000000
# 6 0.000000 0.000000 0.000000 0.000000 0.000000 0.022880
#
#
# Mechanical properties :
#
#
# Convention : Reuss Voigt Hill
#
# Bulk Modulus (GPa) = 78.95408 81.31983 80.13695
# Shear Modulus (GPa) = 38.23098 55.72885 46.97991
#
# Velocity S-wave (km/s) = 4.50970 5.44478 4.99915
# Velocity P-wave (km/s) = 8.31367 9.09870 8.71503
#
# Compressibility (1/GPa) = 0.01266559
#
# Stress axis : x y z
#
# Youngs Moduli (GPa) = 78.00018 63.07335 74.48762
#
# Poissons Ratio (x) = 0.43632 0.04957
# Poissons Ratio (y) = 0.53958 0.53139
# Poissons Ratio (z) = 0.05191 0.44996
#
# Static dielectric constant tensor:
#      x y z
#    x 2.385270 0.000000 0.000000 
#    y 0.000000 3.554020 0.000000 
#    z 0.000000 0.000000 3.264570 
# 
# 
# High freq. dielectric constant tensor:
#      x y z
#    x 1.729390 0.000000 0.000000 
#    y 0.000000 1.750150 0.000000 
#    z 0.000000 0.000000 1.714790 
# 
# From -- ./inp_files/6599.got.cif
#   From: 2010.03.12/outbox.cif.g09.slc.cpg/sg18_4_cif.got.tgz:6599.got - 2010.04.10 18:53:55.
