data_PCOD8156620
_publ_section_title
;
Structure prediction by ZEFSAII (Michael W. Deem and Ramdas Pophale) SiO2 
 PCOD8156620
Probable space group: P 21 21 21
;
_chemical_formula_sum "Si O2"
_cell_formula_units_Z 32
_cell_length_a 9.057413
_cell_length_b 20.294421
_cell_length_c 8.525806
_cell_angle_alpha 90.000000
_cell_angle_beta 90.000000
_cell_angle_gamma 90.000000
_cell_volume 1567.170626
_symmetry_space_group_name_H-M "P 21 21 21"
_symmetry_group_IT_number 19
_symmetry_cell_setting 'orthorhombic'
loop_
_space_group_symop_operation_xyz
x,y,z
1/2-x,-y,1/2+z
1/2+x,1/2-y,-z
-x,1/2+y,1/2-z
loop_
_atom_site_type_symbol
_atom_site_label
_atom_site_fract_x
_atom_site_fract_y
_atom_site_fract_z
Si Si1 0.404826 0.751153 0.137245
Si Si2 0.081558 0.631478 0.775052
Si Si3 0.065009 0.737503 0.183877
Si Si4 0.106612 0.009031 0.760579
Si Si5 0.887348 0.097817 0.361607
Si Si6 0.414320 0.639222 0.731560
Si Si7 0.063111 0.394000 0.595405
Si Si8 0.080710 0.978233 0.398513
O O1 0.481690 0.803390 0.254656
O O2 0.228832 0.761505 0.138406
O O3 0.452716 0.676652 0.182491
O O4 0.453605 0.763957 0.960855
O O5 0.240283 0.643829 0.696526
O O6 0.006683 0.567587 0.696449
O O7 0.096281 0.621509 0.960099
O O8 0.075035 0.661858 0.247837
O O9 0.992072 0.789963 0.303979
O O10 0.108071 0.994931 0.577570
O O11 0.267910 0.033001 0.808085
O O12 0.067056 0.942865 0.854926
O O13 0.717670 0.074445 0.344734
O O14 0.993518 0.038228 0.314480
O O15 0.483111 0.587317 0.610878
O O16 0.445581 0.615213 0.908634
#
# Coordination Sequence:
#
# PCOD8156620 Si02
#       8
#     4   4   4   4   4   4   4   4
#     4   9  16  28  49  78 105 132 170 214 255 300
#     4   9  18  32  52  78 104 134 174 217 258 304
#     4   9  16  28  50  78 106 133 171 217 256 302
#     4  11  22  35  53  76 106 138 174 218 260 310
#     4   8  17  32  51  77 104 133 171 212 254 302
#     4  10  19  33  55  79 103 133 170 214 264 312
#     4   9  18  33  54  78 103 132 166 210 259 308
#     4  11  22  35  52  76 105 137 174 216 260 308
#
# _framework density 20.418963000000002
#
# number of rings (size 3 to 8) (size 9 to 14) (size 15 to 20)
#    0.000    2.500    0.000    4.500    0.000    6.000 
#    0.000    1.250    0.000   10.500    0.000    0.000 
#    0.000    0.000    0.000    0.000    0.000    0.000 
#
# Total GULP energy -396684.037032 kJ/mol
# GULP energy per Si atom -12396.376157 kJ/mol
# Density = 2.037249 g / cm^3
# Si number density = 20.418963 Si / 1000 Ang^3
#
#
#
# Elastic Constant Matrix: (Units=GPa)
#
#
# Indices 1 2 3 4 5 6 
#
# 1 92.0733 7.8810 -0.2880 0.0000 0.0000 0.0000
# 2 7.8810 56.2952 -3.0325 0.0000 0.0000 0.0000
# 3 -0.2880 -3.0325 17.3874 0.0000 0.0000 0.0000
# 4 0.0000 0.0000 0.0000 22.4039 0.0000 0.0000
# 5 0.0000 0.0000 0.0000 0.0000 19.1594 0.0000
# 6 0.0000 0.0000 0.0000 0.0000 0.0000 44.7453
#
#
#
# Elastic Compliance Matrix: (Units=1/GPa)
#
#
# Indices 1 2 3 4 5 6 
#
# 1 0.010993 -0.001544 -0.000087 0.000000 0.000000 0.000000
# 2 -0.001544 0.018149 0.003140 0.000000 0.000000 0.000000
# 3 -0.000087 0.003140 0.058059 0.000000 0.000000 0.000000
# 4 0.000000 0.000000 0.000000 0.044635 0.000000 0.000000
# 5 0.000000 0.000000 0.000000 0.000000 0.052194 0.000000
# 6 0.000000 0.000000 0.000000 0.000000 0.000000 0.022349
#
#
# Mechanical properties :
#
#
# Convention : Reuss Voigt Hill
#
# Bulk Modulus (GPa) = 11.08419 19.43076 15.25747
# Shear Modulus (GPa) = 21.41941 28.00809 24.71375
#
# Velocity S-wave (km/s) = 3.24233 3.70762 3.48276
# Velocity P-wave (km/s) = 4.41103 5.27876 4.86428
#
# Compressibility (1/GPa) = 0.09021861
#
# Stress axis : x y z
#
# Youngs Moduli (GPa) = 90.96895 55.10027 17.22380
#
# Poissons Ratio (x) = 0.08505 0.00150
# Poissons Ratio (y) = 0.14042 -0.05408
# Poissons Ratio (z) = 0.00793 -0.17300
#
# Static dielectric constant tensor:
#      x y z
#    x 3.867660 0.000000 0.000000 
#    y 0.000000 4.151780 0.000000 
#    z 0.000000 0.000000 3.030570 
# 
# 
# High freq. dielectric constant tensor:
#      x y z
#    x 1.812070 0.000000 0.000000 
#    y 0.000000 1.815060 0.000000 
#    z 0.000000 0.000000 1.733890 
# 
# From -- ./inp_files/3186.got.cif
#   From: 2010.03.12/outbox.cif.g09.slc.cpg/sg19_2_cif.got.tgz:3186.got - 2010.04.10 18:59:41.
