data_PCOD8156699
_publ_section_title
;
Structure prediction by ZEFSAII (Michael W. Deem and Ramdas Pophale) SiO2 
 PCOD8156699
Probable space group: P 21 21 21
;
_chemical_formula_sum "Si O2"
_cell_formula_units_Z 28
_cell_length_a 12.024005
_cell_length_b 6.883233
_cell_length_c 13.833232
_cell_angle_alpha 90.000000
_cell_angle_beta 90.000000
_cell_angle_gamma 90.000000
_cell_volume 1144.894001
_symmetry_space_group_name_H-M "P 21 21 21"
_symmetry_group_IT_number 19
_symmetry_cell_setting 'orthorhombic'
loop_
_space_group_symop_operation_xyz
x,y,z
1/2-x,-y,1/2+z
1/2+x,1/2-y,-z
-x,1/2+y,1/2-z
loop_
_atom_site_type_symbol
_atom_site_label
_atom_site_fract_x
_atom_site_fract_y
_atom_site_fract_z
Si Si1 0.574042 0.048365 0.864808
Si Si2 0.045731 0.036574 0.539024
Si Si3 0.812596 0.962152 0.837788
Si Si4 0.355732 0.612745 0.949328
Si Si5 0.360380 0.303757 0.335078
Si Si6 0.449294 0.107051 0.677914
Si Si7 0.710415 0.492193 0.304157
O O1 0.700937 0.098122 0.837597
O O2 0.578850 0.813547 0.867392
O O3 0.489657 0.139689 0.787798
O O4 0.531639 0.106927 0.973599
O O5 0.120678 0.157702 0.463276
O O6 0.129926 0.922543 0.610929
O O7 0.971444 0.192912 0.600371
O O8 0.799443 0.740737 0.802094
O O9 0.890221 0.064870 0.758677
O O10 0.858336 0.985306 0.945716
O O11 0.237685 0.594555 0.896385
O O12 0.450932 0.509677 0.884093
O O13 0.326620 0.087434 0.298165
O O14 0.341876 0.964108 0.674412
#
# Coordination Sequence:
#
# PCOD8156699 Si02
#       7
#     4   4   4   4   4   4   4
#     4  10  19  39  65  89 127 166 215 264 314 381
#     4  10  23  39  65  92 126 170 210 268 326 378
#     4  10  22  42  64  98 128 163 217 264 316 382
#     4  10  21  41  68  91 129 172 211 267 321 379
#     4  12  23  44  70  91 129 177 208 260 336 378
#     4  10  20  38  65  91 121 173 210 261 318 378
#     4  10  24  41  61  94 132 165 215 264 317 382
#
# _framework density 24.456412
#
# number of rings (size 3 to 8) (size 9 to 14) (size 15 to 20)
#    0.000    1.714    2.857    1.714    6.000    0.000 
#    2.571    2.857    3.143    0.000    0.000    0.000 
#    0.000    0.000    0.000    0.000    0.000    0.000 
#
# Total GULP energy -346999.978006 kJ/mol
# GULP energy per Si atom -12392.856357 kJ/mol
# Density = 2.440075 g / cm^3
# Si number density = 24.456412 Si / 1000 Ang^3
#
#
#
# Elastic Constant Matrix: (Units=GPa)
#
#
# Indices 1 2 3 4 5 6 
#
# 1 112.9946 -10.1018 47.2165 0.0000 0.0000 0.0000
# 2 -10.1018 21.0858 8.1979 0.0000 0.0000 0.0000
# 3 47.2165 8.1979 138.1225 0.0000 0.0000 0.0000
# 4 0.0000 0.0000 0.0000 30.9085 0.0000 0.0000
# 5 0.0000 0.0000 0.0000 0.0000 48.4423 0.0000
# 6 0.0000 0.0000 0.0000 0.0000 0.0000 12.3398
#
#
#
# Elastic Compliance Matrix: (Units=1/GPa)
#
#
# Indices 1 2 3 4 5 6 
#
# 1 0.011265 0.007057 -0.004270 0.000000 0.000000 0.000000
# 2 0.007057 0.052966 -0.005556 0.000000 0.000000 0.000000
# 3 -0.004270 -0.005556 0.009029 0.000000 0.000000 0.000000
# 4 0.000000 0.000000 0.000000 0.032354 0.000000 0.000000
# 5 0.000000 0.000000 0.000000 0.000000 0.020643 0.000000
# 6 0.000000 0.000000 0.000000 0.000000 0.000000 0.081039
#
#
# Mechanical properties :
#
#
# Convention : Reuss Voigt Hill
#
# Bulk Modulus (GPa) = 14.76606 40.31425 27.54016
# Shear Modulus (GPa) = 21.23972 33.46414 27.35193
#
# Velocity S-wave (km/s) = 2.95018 3.70309 3.34787
# Velocity P-wave (km/s) = 4.20185 5.89947 5.12149
#
# Compressibility (1/GPa) = 0.06772286
#
# Stress axis : x y z
#
# Youngs Moduli (GPa) = 88.77018 18.87992 110.75046
#
# Poissons Ratio (x) = -0.13323 0.47288
# Poissons Ratio (y) = -0.62644 0.61534
# Poissons Ratio (z) = 0.37903 0.10490
#
# Static dielectric constant tensor:
#      x y z
#    x 4.795810 0.000000 0.000000 
#    y 0.000000 3.784780 0.000000 
#    z 0.000000 0.000000 4.462310 
# 
# 
# High freq. dielectric constant tensor:
#      x y z
#    x 1.981780 0.000000 0.000000 
#    y 0.000000 1.936120 0.000000 
#    z 0.000000 0.000000 1.978550 
# 
# From -- ./inp_files/3548.got.cif
#   From: 2010.03.12/outbox.cif.g09.slc.cpg/sg19_2_cif.got.tgz:3548.got - 2010.04.10 18:59:41.
