data_PCOD8156664
_publ_section_title
;
Structure prediction by ZEFSAII (Michael W. Deem and Ramdas Pophale) SiO2 
 PCOD8156664
Probable space group: P 21 21 21
;
_chemical_formula_sum "Si O2"
_cell_formula_units_Z 24
_cell_length_a 11.516253
_cell_length_b 8.215763
_cell_length_c 11.542029
_cell_angle_alpha 90.000000
_cell_angle_beta 90.000000
_cell_angle_gamma 90.000000
_cell_volume 1092.046827
_symmetry_space_group_name_H-M "P 21 21 21"
_symmetry_group_IT_number 19
_symmetry_cell_setting 'orthorhombic'
loop_
_space_group_symop_operation_xyz
x,y,z
1/2-x,-y,1/2+z
1/2+x,1/2-y,-z
-x,1/2+y,1/2-z
loop_
_atom_site_type_symbol
_atom_site_label
_atom_site_fract_x
_atom_site_fract_y
_atom_site_fract_z
Si Si1 0.950367 0.550177 0.356097
Si Si2 0.782449 0.289171 0.352290
Si Si3 0.076876 0.073079 0.531355
Si Si4 0.684708 0.965517 0.041253
Si Si5 0.625538 0.206168 0.676753
Si Si6 0.345114 0.248307 0.915909
O O1 0.863540 0.423729 0.418948
O O2 0.866758 0.661537 0.277438
O O3 0.043187 0.442358 0.280996
O O4 0.031287 0.659878 0.439534
O O5 0.649459 0.351304 0.361240
O O6 0.797752 0.116797 0.415926
O O7 0.824303 0.276318 0.220786
O O8 0.064580 0.212688 0.434838
O O9 0.950170 0.020000 0.575487
O O10 0.150180 0.922586 0.480094
O O11 0.747351 0.860674 0.142475
O O12 0.739599 0.145755 0.031778
#
# Coordination Sequence:
#
# PCOD8156664 Si02
#       6
#     4   4   4   4   4   4
#     4  11  18  37  67  94 120 165 220 271 317 379
#     4  11  23  41  67  95 127 172 220 266 332 393
#     4  11  22  43  62  94 136 170 217 277 332 389
#     4  10  24  43  62  99 136 168 217 276 333 388
#     4  10  19  36  67  93 126 165 212 274 315 389
#     4  11  24  42  67  97 131 170 228 272 323 400
#
# _framework density 21.977077999999999
#
# number of rings (size 3 to 8) (size 9 to 14) (size 15 to 20)
#    0.000    1.333    5.000    0.000    2.333    0.000 
#    3.000    0.000    0.000    0.000    0.000    0.000 
#    0.000    0.000    0.000    0.000    0.000    0.000 
#
# Total GULP energy -297475.130983 kJ/mol
# GULP energy per Si atom -12394.797124 kJ/mol
# Density = 2.192706 g / cm^3
# Si number density = 21.977078 Si / 1000 Ang^3
#
#
#
# Elastic Constant Matrix: (Units=GPa)
#
#
# Indices 1 2 3 4 5 6 
#
# 1 140.2648 33.8034 21.2872 0.0000 0.0000 0.0000
# 2 33.8034 101.3775 20.1882 0.0000 0.0000 0.0000
# 3 21.2872 20.1882 32.8524 0.0000 0.0000 0.0000
# 4 0.0000 0.0000 0.0000 29.6841 0.0000 0.0000
# 5 0.0000 0.0000 0.0000 0.0000 23.7113 0.0000
# 6 0.0000 0.0000 0.0000 0.0000 0.0000 45.7895
#
#
#
# Elastic Compliance Matrix: (Units=1/GPa)
#
#
# Indices 1 2 3 4 5 6 
#
# 1 0.008221 -0.001915 -0.004150 0.000000 0.000000 0.000000
# 2 -0.001915 0.011685 -0.005940 0.000000 0.000000 0.000000
# 3 -0.004150 -0.005940 0.036779 0.000000 0.000000 0.000000
# 4 0.000000 0.000000 0.000000 0.033688 0.000000 0.000000
# 5 0.000000 0.000000 0.000000 0.000000 0.042174 0.000000
# 6 0.000000 0.000000 0.000000 0.000000 0.000000 0.021839
#
#
# Mechanical properties :
#
#
# Convention : Reuss Voigt Hill
#
# Bulk Modulus (GPa) = 30.60465 47.22804 38.91634
# Shear Modulus (GPa) = 26.41485 33.11805 29.76645
#
# Velocity S-wave (km/s) = 3.47064 3.88614 3.68425
# Velocity P-wave (km/s) = 5.47873 6.45542 5.98702
#
# Compressibility (1/GPa) = 0.03267478
#
# Stress axis : x y z
#
# Youngs Moduli (GPa) = 121.64507 85.57630 27.18966
#
# Poissons Ratio (x) = 0.16385 0.11284
# Poissons Ratio (y) = 0.23291 0.16151
# Poissons Ratio (z) = 0.50484 0.50834
#
# Static dielectric constant tensor:
#      x y z
#    x 4.095810 0.000000 0.000000 
#    y 0.000000 4.366140 0.000000 
#    z 0.000000 0.000000 3.365310 
# 
# 
# High freq. dielectric constant tensor:
#      x y z
#    x 1.872180 0.000000 0.000000 
#    y 0.000000 1.891640 0.000000 
#    z 0.000000 0.000000 1.805640 
# 
# From -- ./inp_files/3382.got.cif
#   From: 2010.03.12/outbox.cif.g09.slc.cpg/sg19_2_cif.got.tgz:3382.got - 2010.04.10 18:59:41.
