data_PCOD8156828
_publ_section_title
;
Structure prediction by ZEFSAII (Michael W. Deem and Ramdas Pophale) SiO2 
 PCOD8156828
Probable space group: P 21 21 21
;
_chemical_formula_sum "Si O2"
_cell_formula_units_Z 28
_cell_length_a 15.407440
_cell_length_b 14.611347
_cell_length_c 6.701926
_cell_angle_alpha 90.000000
_cell_angle_beta 90.000000
_cell_angle_gamma 90.000000
_cell_volume 1508.760718
_symmetry_space_group_name_H-M "P 21 21 21"
_symmetry_group_IT_number 19
_symmetry_cell_setting 'orthorhombic'
loop_
_space_group_symop_operation_xyz
x,y,z
1/2-x,-y,1/2+z
1/2+x,1/2-y,-z
-x,1/2+y,1/2-z
loop_
_atom_site_type_symbol
_atom_site_label
_atom_site_fract_x
_atom_site_fract_y
_atom_site_fract_z
Si Si1 0.857137 0.319361 0.589033
Si Si2 0.857288 0.802225 0.390560
Si Si3 0.219175 0.110425 0.108414
Si Si4 0.493322 0.118523 0.100935
Si Si5 0.827875 0.946808 0.687790
Si Si6 0.857051 0.440110 0.206827
Si Si7 0.742598 0.863279 0.065595
O O1 0.781560 0.373600 0.703121
O O2 0.942064 0.325227 0.729867
O O3 0.874427 0.362186 0.371755
O O4 0.832034 0.213703 0.555434
O O5 0.828803 0.702164 0.459879
O O6 0.803140 0.883933 0.498272
O O7 0.830403 0.820342 0.162247
O O8 0.959048 0.810947 0.446782
O O9 0.147777 0.036561 0.177942
O O10 0.267261 0.077338 0.908834
O O11 0.566480 0.056645 0.212775
O O12 0.432384 0.056289 0.960152
O O13 0.799270 0.051227 0.679790
O O14 0.773145 0.896413 0.854259
#
# Coordination Sequence:
#
# PCOD8156828 Si02
#       7
#     4   4   4   4   4   4   4
#     4  10  22  39  60  87 114 155 195 244 281 357
#     4   9  21  39  58  87 116 152 192 246 285 351
#     4  10  20  38  63  85 114 156 200 228 289 351
#     4   9  23  39  54  88 124 145 193 248 297 331
#     4  10  20  39  60  88 116 154 195 244 286 352
#     4  11  20  39  59  86 119 154 193 244 286 348
#     4  11  20  39  66  83 115 158 202 232 294 344
#
# _framework density 18.558275999999999
#
# number of rings (size 3 to 8) (size 9 to 14) (size 15 to 20)
#    0.857    1.143    2.857    0.857    2.000    0.000 
#    5.143    0.000    0.000    0.000    0.000    0.000 
#    0.000    0.000    0.000    0.000    0.000    0.000 
#
# Total GULP energy -346893.856363 kJ/mol
# GULP energy per Si atom -12389.066299 kJ/mol
# Density = 1.851604 g / cm^3
# Si number density = 18.558276 Si / 1000 Ang^3
#
#
#
# Elastic Constant Matrix: (Units=GPa)
#
#
# Indices 1 2 3 4 5 6 
#
# 1 85.7159 36.1834 26.7214 0.0000 0.0000 0.0000
# 2 36.1834 118.3908 27.3953 0.0000 0.0000 0.0000
# 3 26.7214 27.3953 65.6854 0.0000 0.0000 0.0000
# 4 0.0000 0.0000 0.0000 27.8283 0.0000 0.0000
# 5 0.0000 0.0000 0.0000 0.0000 30.0585 0.0000
# 6 0.0000 0.0000 0.0000 0.0000 0.0000 12.8692
#
#
#
# Elastic Compliance Matrix: (Units=1/GPa)
#
#
# Indices 1 2 3 4 5 6 
#
# 1 0.014496 -0.003393 -0.004482 0.000000 0.000000 0.000000
# 2 -0.003393 0.010143 -0.002850 0.000000 0.000000 0.000000
# 3 -0.004482 -0.002850 0.018236 0.000000 0.000000 0.000000
# 4 0.000000 0.000000 0.000000 0.035935 0.000000 0.000000
# 5 0.000000 0.000000 0.000000 0.000000 0.033268 0.000000
# 6 0.000000 0.000000 0.000000 0.000000 0.000000 0.077705
#
#
# Mechanical properties :
#
#
# Convention : Reuss Voigt Hill
#
# Bulk Modulus (GPa) = 46.67466 50.04360 48.35913
# Shear Modulus (GPa) = 22.89639 26.11734 24.50686
#
# Velocity S-wave (km/s) = 3.51630 3.75549 3.63786
# Velocity P-wave (km/s) = 6.45683 6.76972 6.61513
#
# Compressibility (1/GPa) = 0.02142490
#
# Stress axis : x y z
#
# Youngs Moduli (GPa) = 68.98426 98.58863 54.83663
#
# Poissons Ratio (x) = 0.33454 0.24577
# Poissons Ratio (y) = 0.23408 0.15628
# Poissons Ratio (z) = 0.30918 0.28098
#
# Static dielectric constant tensor:
#      x y z
#    x 3.257290 0.000000 0.000000 
#    y 0.000000 3.455730 0.000000 
#    z 0.000000 0.000000 3.355290 
# 
# 
# High freq. dielectric constant tensor:
#      x y z
#    x 1.705110 0.000000 0.000000 
#    y 0.000000 1.717500 0.000000 
#    z 0.000000 0.000000 1.726120 
# 
# From -- ./inp_files/1769.got.cif
#   From: 2010.03.12/outbox.cif.g09.slc.cpg/sg19_1_cif.got.tgz:1769.got - 2010.04.10 18:59:41.
