data_PCOD8156503
_publ_section_title
;
Structure prediction by ZEFSAII (Michael W. Deem and Ramdas Pophale) SiO2 
 PCOD8156503
Probable space group: P 21 21 2
;
_chemical_formula_sum "Si O2"
_cell_formula_units_Z 18
_cell_length_a 8.622821
_cell_length_b 7.904173
_cell_length_c 11.392352
_cell_angle_alpha 90.000000
_cell_angle_beta 90.000000
_cell_angle_gamma 90.000000
_cell_volume 776.460207
_symmetry_space_group_name_H-M "P 21 21 2"
_symmetry_group_IT_number 18
_symmetry_cell_setting 'orthorhombic'
loop_
_space_group_symop_operation_xyz
x,y,z
-x,-y,z
1/2+x,1/2-y,-z
1/2-x,1/2+y,-z
loop_
_atom_site_type_symbol
_atom_site_label
_atom_site_fract_x
_atom_site_fract_y
_atom_site_fract_z
Si Si1 0.000000 0.000000 0.260055
Si Si2 0.927611 0.674294 0.415539
Si Si3 0.050593 0.742180 0.898553
Si Si4 0.252569 0.433257 0.934572
Si Si5 0.923046 0.180026 0.635198
O O1 0.976891 0.834618 0.338782
O O2 0.152344 0.963831 0.184240
O O3 0.744607 0.652670 0.419978
O O4 0.000000 0.500000 0.364545
O O5 0.979894 0.699686 0.549585
O O6 0.142510 0.590722 0.962147
O O7 0.086225 0.731593 0.761084
O O8 0.865847 0.727465 0.921985
O O9 0.124968 0.908731 0.958664
O O10 0.000000 0.000000 0.652042
#
# Coordination Sequence:
#
# PCOD8156503 Si02
#       5
#     2   4   4   4   4
#     4  12  26  52  76 112 160 214 264 332 390 476
#     4  12  29  49  80 116 158 212 268 324 401 473
#     4  11  27  46  78 110 155 207 259 324 391 472
#     4  11  26  49  74 111 154 200 266 323 393 466
#     4  12  28  50  79 114 158 209 263 329 397 479
#
# _framework density 23.182129
#
# number of rings (size 3 to 8) (size 9 to 14) (size 15 to 20)
#    0.000    0.444    3.333    2.667   14.000    0.000 
#    0.000    0.000    0.000    0.000    0.000    0.000 
#    0.000    0.000    0.000    0.000    0.000    0.000 
#
# Total GULP energy -223250.044935 kJ/mol
# GULP energy per Si atom -12402.780274 kJ/mol
# Density = 2.312937 g / cm^3
# Si number density = 23.182129 Si / 1000 Ang^3
#
#
#
# Elastic Constant Matrix: (Units=GPa)
#
#
# Indices 1 2 3 4 5 6 
#
# 1 157.1810 44.9794 59.5457 0.0000 0.0000 0.0000
# 2 44.9794 98.4676 32.5431 0.0000 0.0000 0.0000
# 3 59.5457 32.5431 146.0958 0.0000 0.0000 0.0000
# 4 0.0000 0.0000 0.0000 22.3268 0.0000 0.0000
# 5 0.0000 0.0000 0.0000 0.0000 50.6728 0.0000
# 6 0.0000 0.0000 0.0000 0.0000 0.0000 49.8725
#
#
#
# Elastic Compliance Matrix: (Units=1/GPa)
#
#
# Indices 1 2 3 4 5 6 
#
# 1 0.008205 -0.002853 -0.002709 0.000000 0.000000 0.000000
# 2 -0.002853 0.011954 -0.001500 0.000000 0.000000 0.000000
# 3 -0.002709 -0.001500 0.008283 0.000000 0.000000 0.000000
# 4 0.000000 0.000000 0.000000 0.044789 0.000000 0.000000
# 5 0.000000 0.000000 0.000000 0.000000 0.019734 0.000000
# 6 0.000000 0.000000 0.000000 0.000000 0.000000 0.020051
#
#
# Mechanical properties :
#
#
# Convention : Reuss Voigt Hill
#
# Bulk Modulus (GPa) = 69.83642 75.09786 72.46714
# Shear Modulus (GPa) = 37.90390 42.21951 40.06171
#
# Velocity S-wave (km/s) = 4.04796 4.27219 4.16159
# Velocity P-wave (km/s) = 7.21377 7.53661 7.37696
#
# Compressibility (1/GPa) = 0.01431918
#
# Stress axis : x y z
#
# Youngs Moduli (GPa) = 121.88431 83.65062 120.72981
#
# Poissons Ratio (x) = 0.23862 0.32701
# Poissons Ratio (y) = 0.34769 0.18112
# Poissons Ratio (z) = 0.33013 0.12549
#
# Static dielectric constant tensor:
#      x y z
#    x 4.521860 0.000000 0.000000 
#    y 0.000000 4.267850 0.000000 
#    z 0.000000 0.000000 4.069710 
# 
# 
# High freq. dielectric constant tensor:
#      x y z
#    x 1.943010 0.000000 0.000000 
#    y 0.000000 1.930070 0.000000 
#    z 0.000000 0.000000 1.909610 
# 
# From -- ./inp_files/5357.got.cif
#   From: 2010.03.12/outbox.cif.g09.slc.cpg/sg18_3_cif.got.tgz:5357.got - 2010.04.10 18:53:55.
