data_PCOD8156044
_publ_section_title
;
Structure prediction by ZEFSAII (Michael W. Deem and Ramdas Pophale) SiO2 
 PCOD8156044
Probable space group: P 21 21 2
;
_chemical_formula_sum "Si O2"
_cell_formula_units_Z 26
_cell_length_a 13.635229
_cell_length_b 13.914064
_cell_length_c 6.587069
_cell_angle_alpha 90.000000
_cell_angle_beta 90.000000
_cell_angle_gamma 90.000000
_cell_volume 1249.708275
_symmetry_space_group_name_H-M "P 21 21 2"
_symmetry_group_IT_number 18
_symmetry_cell_setting 'orthorhombic'
loop_
_space_group_symop_operation_xyz
x,y,z
-x,-y,z
1/2+x,1/2-y,-z
1/2-x,1/2+y,-z
loop_
_atom_site_type_symbol
_atom_site_label
_atom_site_fract_x
_atom_site_fract_y
_atom_site_fract_z
Si Si1 0.654262 0.460455 0.319430
Si Si2 0.683436 0.916639 0.378830
Si Si3 0.393651 0.235697 0.679581
Si Si4 0.035389 0.292724 0.990904
Si Si5 0.735767 0.313149 0.014051
Si Si6 0.500000 0.000000 0.177978
Si Si7 0.957281 0.144358 0.671856
O O1 0.726174 0.472406 0.513572
O O2 0.706798 0.411241 0.128269
O O3 0.563230 0.395646 0.393030
O O4 0.612975 0.561901 0.234892
O O5 0.629307 0.857952 0.551946
O O6 0.601032 0.991222 0.304059
O O7 0.722983 0.844780 0.204235
O O8 0.315191 0.247532 0.859640
O O9 0.399092 0.326190 0.530925
O O10 0.499703 0.226713 0.781804
O O11 0.147825 0.262415 0.997810
O O12 0.017187 0.405275 0.954996
O O13 0.972037 0.232625 0.826215
#
# Coordination Sequence:
#
# PCOD8156044 Si02
#       7
#     4   4   4   4   4   2   4
#     4   9  22  39  69  93 129 170 216 269 328 389
#     4  11  23  44  61  96 131 167 224 266 325 403
#     4  11  21  41  64  91 131 168 214 268 324 386
#     4  11  24  43  65  91 133 175 215 272 331 387
#     4  10  22  43  64  95 131 173 217 271 325 396
#     4  12  24  44  62  94 132 168 220 268 320 398
#     4  10  20  42  64  99 127 167 221 268 325 396
#
# _framework density 20.804855
#
# number of rings (size 3 to 8) (size 9 to 14) (size 15 to 20)
#    0.000    1.538    3.077    0.923    2.154    1.846 
#    2.769    3.077    0.000    0.000    0.000    0.000 
#    0.000    0.000    0.000    0.000    0.000    0.000 
#
# Total GULP energy -322291.670581 kJ/mol
# GULP energy per Si atom -12395.833484 kJ/mol
# Density = 2.075750 g / cm^3
# Si number density = 20.804855 Si / 1000 Ang^3
#
#
#
# Elastic Constant Matrix: (Units=GPa)
#
#
# Indices 1 2 3 4 5 6 
#
# 1 82.6183 29.2568 31.3679 0.0000 0.0000 0.0000
# 2 29.2568 104.2989 26.1570 0.0000 0.0000 0.0000
# 3 31.3679 26.1570 87.2888 0.0000 0.0000 0.0000
# 4 0.0000 0.0000 0.0000 13.5660 0.0000 0.0000
# 5 0.0000 0.0000 0.0000 0.0000 37.4477 0.0000
# 6 0.0000 0.0000 0.0000 0.0000 0.0000 33.2669
#
#
#
# Elastic Compliance Matrix: (Units=1/GPa)
#
#
# Indices 1 2 3 4 5 6 
#
# 1 0.014868 -0.003061 -0.004426 0.000000 0.000000 0.000000
# 2 -0.003061 0.010997 -0.002195 0.000000 0.000000 0.000000
# 3 -0.004426 -0.002195 0.013705 0.000000 0.000000 0.000000
# 4 0.000000 0.000000 0.000000 0.073714 0.000000 0.000000
# 5 0.000000 0.000000 0.000000 0.000000 0.026704 0.000000
# 6 0.000000 0.000000 0.000000 0.000000 0.000000 0.030060
#
#
# Mechanical properties :
#
#
# Convention : Reuss Voigt Hill
#
# Bulk Modulus (GPa) = 49.49100 49.75217 49.62159
# Shear Modulus (GPa) = 25.49117 29.35108 27.42112
#
# Velocity S-wave (km/s) = 3.50416 3.76011 3.63439
# Velocity P-wave (km/s) = 6.34129 6.54346 6.44317
#
# Compressibility (1/GPa) = 0.02020569
#
# Stress axis : x y z
#
# Youngs Moduli (GPa) = 67.25822 90.93406 72.96837
#
# Poissons Ratio (x) = 0.27832 0.32294
# Poissons Ratio (y) = 0.20586 0.16020
# Poissons Ratio (z) = 0.29767 0.19964
#
# Static dielectric constant tensor:
#      x y z
#    x 4.108310 0.000000 0.000000 
#    y 0.000000 3.607360 0.000000 
#    z 0.000000 0.000000 3.802860 
# 
# 
# High freq. dielectric constant tensor:
#      x y z
#    x 1.834110 0.000000 0.000000 
#    y 0.000000 1.804760 0.000000 
#    z 0.000000 0.000000 1.812270 
# 
# From -- ./inp_files/1540.got.cif
#   From: 2010.03.12/outbox.cif.g09.slc.cpg/sg18_1_cif.got.tgz:1540.got - 2010.04.10 18:53:55.
