data_PCOD8156526
_publ_section_title
;
Structure prediction by ZEFSAII (Michael W. Deem and Ramdas Pophale) SiO2 
 PCOD8156526
Probable space group: P 21 21 2
;
_chemical_formula_sum "Si O2"
_cell_formula_units_Z 18
_cell_length_a 6.786528
_cell_length_b 11.515554
_cell_length_c 8.248955
_cell_angle_alpha 90.000000
_cell_angle_beta 90.000000
_cell_angle_gamma 90.000000
_cell_volume 644.661027
_symmetry_space_group_name_H-M "P 21 21 2"
_symmetry_group_IT_number 18
_symmetry_cell_setting 'orthorhombic'
loop_
_space_group_symop_operation_xyz
x,y,z
-x,-y,z
1/2+x,1/2-y,-z
1/2-x,1/2+y,-z
loop_
_atom_site_type_symbol
_atom_site_label
_atom_site_fract_x
_atom_site_fract_y
_atom_site_fract_z
Si Si1 0.158706 0.654307 0.280205
Si Si2 0.179242 0.196559 0.370240
Si Si3 0.000000 0.000000 0.194818
Si Si4 0.269378 0.938246 0.928992
Si Si5 0.505003 0.226609 0.127543
O O1 0.286297 0.677441 0.441978
O O2 0.262610 0.746680 0.157434
O O3 0.924053 0.679680 0.318116
O O4 0.188782 0.520714 0.224388
O O5 0.385852 0.174001 0.278468
O O6 0.007430 0.109853 0.313469
O O7 0.798326 0.992179 0.089381
O O8 0.522877 0.133356 0.974753
O O9 0.086014 0.852307 0.905505
#
# Coordination Sequence:
#
# PCOD8156526 Si02
#       5
#     4   4   2   4   4
#     4  12  27  54  85 126 174 233 299 375 452 539
#     4  12  29  51  83 125 177 228 299 369 454 539
#     4  12  26  46  78 122 168 230 292 366 440 538
#     4  12  28  54  85 125 174 237 300 370 450 529
#     4  12  27  53  83 123 174 227 301 367 446 544
#
# _framework density 27.92165
#
# number of rings (size 3 to 8) (size 9 to 14) (size 15 to 20)
#    0.000    0.000    6.667    1.333    3.111    3.556 
#    4.000    2.222    0.000    0.000    0.000    0.000 
#    0.000    0.000    0.000    0.000    0.000    0.000 
#
# Total GULP energy -223134.790421 kJ/mol
# GULP energy per Si atom -12396.377246 kJ/mol
# Density = 2.785810 g / cm^3
# Si number density = 27.921650 Si / 1000 Ang^3
#
#
#
# Elastic Constant Matrix: (Units=GPa)
#
#
# Indices 1 2 3 4 5 6 
#
# 1 156.7044 41.8064 26.1965 0.0000 0.0000 0.0000
# 2 41.8064 137.3801 71.5781 0.0000 0.0000 0.0000
# 3 26.1965 71.5781 110.2966 0.0000 0.0000 0.0000
# 4 0.0000 0.0000 0.0000 49.4728 0.0000 0.0000
# 5 0.0000 0.0000 0.0000 0.0000 58.8416 0.0000
# 6 0.0000 0.0000 0.0000 0.0000 0.0000 56.9066
#
#
#
# Elastic Compliance Matrix: (Units=1/GPa)
#
#
# Indices 1 2 3 4 5 6 
#
# 1 0.006958 -0.001898 -0.000421 0.000000 0.000000 0.000000
# 2 -0.001898 0.011515 -0.007022 0.000000 0.000000 0.000000
# 3 -0.000421 -0.007022 0.013724 0.000000 0.000000 0.000000
# 4 0.000000 0.000000 0.000000 0.020213 0.000000 0.000000
# 5 0.000000 0.000000 0.000000 0.000000 0.016995 0.000000
# 6 0.000000 0.000000 0.000000 0.000000 0.000000 0.017573
#
#
# Mechanical properties :
#
#
# Convention : Reuss Voigt Hill
#
# Bulk Modulus (GPa) = 73.99317 75.94923 74.97120
# Shear Modulus (GPa) = 45.38643 50.69756 48.04199
#
# Velocity S-wave (km/s) = 4.03611 4.26574 4.15251
# Velocity P-wave (km/s) = 6.94824 7.17787 7.06399
#
# Compressibility (1/GPa) = 0.01351476
#
# Stress axis : x y z
#
# Youngs Moduli (GPa) = 143.71528 86.83981 72.86755
#
# Poissons Ratio (x) = 0.16484 0.03066
# Poissons Ratio (y) = 0.27281 0.51169
# Poissons Ratio (z) = 0.06047 0.60981
#
# Static dielectric constant tensor:
#      x y z
#    x 5.432030 0.000000 0.000000 
#    y 0.000000 5.138650 0.000000 
#    z 0.000000 0.000000 5.173330 
# 
# 
# High freq. dielectric constant tensor:
#      x y z
#    x 2.152620 0.000000 0.000000 
#    y 0.000000 2.138700 0.000000 
#    z 0.000000 0.000000 2.134130 
# 
# From -- ./inp_files/2897.got.cif
#   From: 2010.03.12/outbox.cif.g09.slc.cpg/sg18_2_cif.got.tgz:2897.got - 2010.04.10 18:53:55.
