data_PCOD8156856
_publ_section_title
;
Structure prediction by ZEFSAII (Michael W. Deem and Ramdas Pophale) SiO2 
 PCOD8156856
Probable space group: P 21 21 21
;
_chemical_formula_sum "Si O2"
_cell_formula_units_Z 24
_cell_length_a 15.725232
_cell_length_b 9.004305
_cell_length_c 7.887514
_cell_angle_alpha 90.000000
_cell_angle_beta 90.000000
_cell_angle_gamma 90.000000
_cell_volume 1116.830850
_symmetry_space_group_name_H-M "P 21 21 21"
_symmetry_group_IT_number 19
_symmetry_cell_setting 'orthorhombic'
loop_
_space_group_symop_operation_xyz
x,y,z
1/2-x,-y,1/2+z
1/2+x,1/2-y,-z
-x,1/2+y,1/2-z
loop_
_atom_site_type_symbol
_atom_site_label
_atom_site_fract_x
_atom_site_fract_y
_atom_site_fract_z
Si Si1 0.019759 0.979562 0.465866
Si Si2 0.561568 0.252022 0.752707
Si Si3 0.566855 0.694015 0.231708
Si Si4 0.997184 0.069147 0.958653
Si Si5 0.832036 0.010537 0.167315
Si Si6 0.841824 0.080733 0.533433
O O1 0.011122 0.873392 0.298042
O O2 0.086547 0.909201 0.601799
O O3 0.927170 0.981859 0.558539
O O4 0.041613 0.148127 0.413052
O O5 0.648254 0.161581 0.718763
O O6 0.567143 0.363017 0.912949
O O7 0.521574 0.598429 0.085716
O O8 0.504177 0.827074 0.291450
O O9 0.650614 0.768138 0.145932
O O10 0.902134 0.071434 0.036883
O O11 0.833774 0.116532 0.332804
O O12 0.738781 0.017113 0.087697
#
# Coordination Sequence:
#
# PCOD8156856 Si02
#       6
#     4   4   4   4   4   4
#     4  10  21  39  66  94 124 160 218 253 309 370
#     4  10  20  39  64  94 119 166 208 260 303 374
#     4  11  23  37  64  97 123 162 211 259 308 376
#     4  11  22  38  66  94 126 163 214 259 303 379
#     4  11  24  40  65  91 130 163 214 258 320 370
#     4  11  22  41  59  94 126 166 205 263 311 375
#
# _framework density 21.489376
#
# number of rings (size 3 to 8) (size 9 to 14) (size 15 to 20)
#    0.000    1.333    5.000    2.000    0.000    0.000 
#    0.000    1.667    0.000    2.000    0.000    0.000 
#    0.000    0.000    0.000    0.000    0.000    0.000 
#
# Total GULP energy -297342.787666 kJ/mol
# GULP energy per Si atom -12389.282819 kJ/mol
# Density = 2.144046 g / cm^3
# Si number density = 21.489376 Si / 1000 Ang^3
#
#
#
# Elastic Constant Matrix: (Units=GPa)
#
#
# Indices 1 2 3 4 5 6 
#
# 1 52.4964 20.0971 31.2152 0.0000 0.0000 0.0000
# 2 20.0971 113.4843 45.0290 0.0000 0.0000 0.0000
# 3 31.2152 45.0290 80.7861 0.0000 0.0000 0.0000
# 4 0.0000 0.0000 0.0000 55.6175 0.0000 0.0000
# 5 0.0000 0.0000 0.0000 0.0000 30.2152 0.0000
# 6 0.0000 0.0000 0.0000 0.0000 0.0000 20.2329
#
#
#
# Elastic Compliance Matrix: (Units=1/GPa)
#
#
# Indices 1 2 3 4 5 6 
#
# 1 0.024782 -0.000757 -0.009154 0.000000 0.000000 0.000000
# 2 -0.000757 0.011337 -0.006027 0.000000 0.000000 0.000000
# 3 -0.009154 -0.006027 0.019275 0.000000 0.000000 0.000000
# 4 0.000000 0.000000 0.000000 0.017980 0.000000 0.000000
# 5 0.000000 0.000000 0.000000 0.000000 0.033096 0.000000
# 6 0.000000 0.000000 0.000000 0.000000 0.000000 0.049424
#
#
# Mechanical properties :
#
#
# Convention : Reuss Voigt Hill
#
# Bulk Modulus (GPa) = 42.51873 48.82770 45.67321
# Shear Modulus (GPa) = 25.56141 31.24150 28.40145
#
# Velocity S-wave (km/s) = 3.45264 3.81702 3.63940
# Velocity P-wave (km/s) = 5.97689 6.49595 6.24182
#
# Compressibility (1/GPa) = 0.02351905
#
# Stress axis : x y z
#
# Youngs Moduli (GPa) = 40.35267 88.20579 51.88186
#
# Poissons Ratio (x) = 0.06673 0.47491
# Poissons Ratio (y) = 0.03053 0.31268
# Poissons Ratio (z) = 0.36938 0.53160
#
# Static dielectric constant tensor:
#      x y z
#    x 3.328120 0.000000 0.000000 
#    y 0.000000 4.067510 0.000000 
#    z 0.000000 0.000000 4.220770 
# 
# 
# High freq. dielectric constant tensor:
#      x y z
#    x 1.774000 0.000000 0.000000 
#    y 0.000000 1.848160 0.000000 
#    z 0.000000 0.000000 1.873540 
# 
# From -- ./inp_files/4105.got.cif
#   From: 2010.03.12/outbox.cif.g09.slc.cpg/sg19_3_cif.got.tgz:4105.got - 2010.04.10 18:59:41.
