data_PCOD8156139
_publ_section_title
;
Structure prediction by ZEFSAII (Michael W. Deem and Ramdas Pophale) SiO2 
 PCOD8156139
Probable space group: P 21 21 2
;
_chemical_formula_sum "Si O2"
_cell_formula_units_Z 22
_cell_length_a 8.138082
_cell_length_b 9.304970
_cell_length_c 13.656224
_cell_angle_alpha 90.000000
_cell_angle_beta 90.000000
_cell_angle_gamma 90.000000
_cell_volume 1034.112221
_symmetry_space_group_name_H-M "P 21 21 2"
_symmetry_group_IT_number 18
_symmetry_cell_setting 'orthorhombic'
loop_
_space_group_symop_operation_xyz
x,y,z
-x,-y,z
1/2+x,1/2-y,-z
1/2-x,1/2+y,-z
loop_
_atom_site_type_symbol
_atom_site_label
_atom_site_fract_x
_atom_site_fract_y
_atom_site_fract_z
Si Si1 0.756286 0.485573 0.120288
Si Si2 0.015701 0.166726 0.415866
Si Si3 0.848161 0.416974 0.326190
Si Si4 0.533011 0.717728 0.168294
Si Si5 0.639842 0.674205 0.378268
Si Si6 0.000000 0.500000 0.948542
O O1 0.867635 0.424275 0.208478
O O2 0.712230 0.654010 0.139364
O O3 0.594888 0.390202 0.120069
O O4 0.842197 0.475020 0.015933
O O5 0.868198 0.251490 0.359247
O O6 0.980739 0.188814 0.530396
O O7 0.197031 0.226386 0.389051
O O8 0.000000 0.000000 0.384879
O O9 0.685793 0.503874 0.362663
O O10 0.000000 0.500000 0.376250
O O11 0.528763 0.726709 0.286506
O O12 0.487110 0.868997 0.124448
#
# Coordination Sequence:
#
# PCOD8156139 Si02
#       6
#     4   4   4   4   4   2
#     4  10  21  41  69  86 123 175 211 254 338 402
#     4  11  23  38  64  96 128 172 226 270 320 381
#     4   9  19  39  61  89 123 169 217 258 315 394
#     4  10  24  40  63  96 128 165 214 269 331 392
#     4  10  23  41  62  91 131 176 213 264 334 396
#     4  12  22  42  68  94 122 156 222 280 320 384
#
# _framework density 21.274287000000001
#
# number of rings (size 3 to 8) (size 9 to 14) (size 15 to 20)
#    0.000    1.818    0.909    2.182    7.636    1.455 
#    4.909    0.000    0.000    0.000    0.000    0.000 
#    0.000    0.000    0.000    0.000    0.000    0.000 
#
# Total GULP energy -272645.223232 kJ/mol
# GULP energy per Si atom -12392.964692 kJ/mol
# Density = 2.122587 g / cm^3
# Si number density = 21.274287 Si / 1000 Ang^3
#
#
#
# Elastic Constant Matrix: (Units=GPa)
#
#
# Indices 1 2 3 4 5 6 
#
# 1 59.5412 39.5394 43.4352 0.0000 0.0000 0.0000
# 2 39.5394 157.2814 73.7092 0.0000 0.0000 0.0000
# 3 43.4352 73.7092 137.5215 0.0000 0.0000 0.0000
# 4 0.0000 0.0000 0.0000 31.4642 0.0000 0.0000
# 5 0.0000 0.0000 0.0000 0.0000 27.8346 0.0000
# 6 0.0000 0.0000 0.0000 0.0000 0.0000 27.5142
#
#
#
# Elastic Compliance Matrix: (Units=1/GPa)
#
#
# Indices 1 2 3 4 5 6 
#
# 1 0.022947 -0.003168 -0.005550 0.000000 0.000000 0.000000
# 2 -0.003168 0.008928 -0.003785 0.000000 0.000000 0.000000
# 3 -0.005550 -0.003785 0.011053 0.000000 0.000000 0.000000
# 4 0.000000 0.000000 0.000000 0.031782 0.000000 0.000000
# 5 0.000000 0.000000 0.000000 0.000000 0.035926 0.000000
# 6 0.000000 0.000000 0.000000 0.000000 0.000000 0.036345
#
#
# Mechanical properties :
#
#
# Convention : Reuss Voigt Hill
#
# Bulk Modulus (GPa) = 55.79249 74.19019 64.99134
# Shear Modulus (GPa) = 28.09595 30.53996 29.31795
#
# Velocity S-wave (km/s) = 3.63802 3.79295 3.71630
# Velocity P-wave (km/s) = 6.62791 7.35737 7.00214
#
# Compressibility (1/GPa) = 0.01792356
#
# Stress axis : x y z
#
# Youngs Moduli (GPa) = 43.57789 112.00549 90.47292
#
# Poissons Ratio (x) = 0.35482 0.50211
# Poissons Ratio (y) = 0.13805 0.34242
# Poissons Ratio (z) = 0.24185 0.42391
#
# Static dielectric constant tensor:
#      x y z
#    x 3.764040 0.000000 0.000000 
#    y 0.000000 4.628580 0.000000 
#    z 0.000000 0.000000 3.735040 
# 
# 
# High freq. dielectric constant tensor:
#      x y z
#    x 1.840400 0.000000 0.000000 
#    y 0.000000 1.829360 0.000000 
#    z 0.000000 0.000000 1.829100 
# 
# From -- ./inp_files/6642.got.cif
#   From: 2010.03.12/outbox.cif.g09.slc.cpg/sg18_4_cif.got.tgz:6642.got - 2010.04.10 18:53:55.
