data_PCOD8156432
_publ_section_title
;
Structure prediction by ZEFSAII (Michael W. Deem and Ramdas Pophale) SiO2 
 PCOD8156432
Probable space group: P 21 21 2
;
_chemical_formula_sum "Si O2"
_cell_formula_units_Z 32
_cell_length_a 11.170042
_cell_length_b 16.600035
_cell_length_c 8.119065
_cell_angle_alpha 90.000000
_cell_angle_beta 90.000000
_cell_angle_gamma 90.000000
_cell_volume 1505.462105
_symmetry_space_group_name_H-M "P 21 21 2"
_symmetry_group_IT_number 18
_symmetry_cell_setting 'orthorhombic'
loop_
_space_group_symop_operation_xyz
x,y,z
-x,-y,z
1/2+x,1/2-y,-z
1/2-x,1/2+y,-z
loop_
_atom_site_type_symbol
_atom_site_label
_atom_site_fract_x
_atom_site_fract_y
_atom_site_fract_z
Si Si1 0.367110 0.226997 0.126829
Si Si2 0.256822 0.735140 0.394014
Si Si3 0.911907 0.927756 0.173803
Si Si4 0.293210 0.840897 0.675517
Si Si5 0.297641 0.637212 0.115287
Si Si6 0.011035 0.757722 0.200865
Si Si7 0.867209 0.483128 0.313960
Si Si8 0.814009 0.396779 0.635213
O O1 0.323133 0.304306 0.232256
O O2 0.407876 0.152036 0.245963
O O3 0.250730 0.193112 0.031967
O O4 0.468624 0.252646 0.997318
O O5 0.293878 0.819349 0.478444
O O6 0.349571 0.698517 0.256473
O O7 0.130146 0.739911 0.302499
O O8 0.259557 0.673068 0.544045
O O9 0.783767 0.947067 0.259069
O O10 0.968099 0.846558 0.248684
O O11 0.895981 0.919031 0.973868
O O12 0.000000 0.000000 0.214129
O O13 0.416814 0.810642 0.753365
O O14 0.286355 0.936908 0.692428
O O15 0.193181 0.583897 0.199088
O O16 0.879995 0.453441 0.503794
O O17 0.000000 0.500000 0.246134
#
# Coordination Sequence:
#
# PCOD8156432 Si02
#       8
#     4   4   4   4   4   4   4   4
#     4   9  19  39  63  85 116 159 201 252 300 363
#     4   9  19  38  64  85 116 159 202 254 301 360
#     4  11  23  39  62  88 126 164 199 251 311 371
#     4  11  21  40  61  94 121 155 211 254 297 368
#     4   9  19  42  59  86 125 158 192 255 313 346
#     4  11  21  40  65  88 118 163 209 250 308 364
#     4  11  23  39  62  89 124 161 202 247 307 367
#     4   9  19  43  58  88 128 154 192 261 311 348
#
# _framework density 21.255932000000001
#
# number of rings (size 3 to 8) (size 9 to 14) (size 15 to 20)
#    0.000    2.000    3.750    2.250    3.500    0.000 
#    6.750    7.500    0.000    0.000    0.000    0.000 
#    0.000    0.000    0.000    0.000    0.000    0.000 
#
# Total GULP energy -396523.863667 kJ/mol
# GULP energy per Si atom -12391.370740 kJ/mol
# Density = 2.120755 g / cm^3
# Si number density = 21.255932 Si / 1000 Ang^3
#
#
#
# Elastic Constant Matrix: (Units=GPa)
#
#
# Indices 1 2 3 4 5 6 
#
# 1 34.9493 2.5455 7.9466 0.0000 0.0000 0.0000
# 2 2.5455 88.5930 21.3149 0.0000 0.0000 0.0000
# 3 7.9466 21.3149 98.4348 0.0000 0.0000 0.0000
# 4 0.0000 0.0000 0.0000 34.4663 0.0000 0.0000
# 5 0.0000 0.0000 0.0000 0.0000 32.7817 0.0000
# 6 0.0000 0.0000 0.0000 0.0000 0.0000 26.7720
#
#
#
# Elastic Compliance Matrix: (Units=1/GPa)
#
#
# Indices 1 2 3 4 5 6 
#
# 1 0.029155 -0.000286 -0.002292 0.000000 0.000000 0.000000
# 2 -0.000286 0.011911 -0.002556 0.000000 0.000000 0.000000
# 3 -0.002292 -0.002556 0.010897 0.000000 0.000000 0.000000
# 4 0.000000 0.000000 0.000000 0.029014 0.000000 0.000000
# 5 0.000000 0.000000 0.000000 0.000000 0.030505 0.000000
# 6 0.000000 0.000000 0.000000 0.000000 0.000000 0.037352
#
#
# Mechanical properties :
#
#
# Convention : Reuss Voigt Hill
#
# Bulk Modulus (GPa) = 23.98366 31.73233 27.85799
# Shear Modulus (GPa) = 28.90165 31.48202 30.19184
#
# Velocity S-wave (km/s) = 3.69141 3.85267 3.77290
# Velocity P-wave (km/s) = 5.42922 5.89507 5.66694
#
# Compressibility (1/GPa) = 0.04169505
#
# Stress axis : x y z
#
# Youngs Moduli (GPa) = 34.29968 83.95769 91.76425
#
# Poissons Ratio (x) = 0.02404 0.21029
# Poissons Ratio (y) = 0.00982 0.23455
# Poissons Ratio (z) = 0.07860 0.21460
#
# Static dielectric constant tensor:
#      x y z
#    x 3.448840 0.000000 0.000000 
#    y 0.000000 3.861470 0.000000 
#    z 0.000000 0.000000 4.277080 
# 
# 
# High freq. dielectric constant tensor:
#      x y z
#    x 1.801260 0.000000 0.000000 
#    y 0.000000 1.829740 0.000000 
#    z 0.000000 0.000000 1.847980 
# 
# From -- ./inp_files/4025.got.cif
#   From: 2010.03.12/outbox.cif.g09.slc.cpg/sg18_3_cif.got.tgz:4025.got - 2010.04.10 18:53:55.
