data_PCOD8156353
_publ_section_title
;
Structure prediction by ZEFSAII (Michael W. Deem and Ramdas Pophale) SiO2 
 PCOD8156353
Probable space group: P 21 21 2
;
_chemical_formula_sum "Si O2"
_cell_formula_units_Z 20
_cell_length_a 9.215360
_cell_length_b 8.017756
_cell_length_c 11.475523
_cell_angle_alpha 90.000000
_cell_angle_beta 90.000000
_cell_angle_gamma 90.000000
_cell_volume 847.886321
_symmetry_space_group_name_H-M "P 21 21 2"
_symmetry_group_IT_number 18
_symmetry_cell_setting 'orthorhombic'
loop_
_space_group_symop_operation_xyz
x,y,z
-x,-y,z
1/2+x,1/2-y,-z
1/2-x,1/2+y,-z
loop_
_atom_site_type_symbol
_atom_site_label
_atom_site_fract_x
_atom_site_fract_y
_atom_site_fract_z
Si Si1 0.843963 0.913221 0.844191
Si Si2 0.160464 0.072354 0.226919
Si Si3 0.663312 0.057467 0.030231
Si Si4 0.762460 0.712174 0.628351
Si Si5 0.451726 0.816582 0.599332
O O1 0.831783 0.742279 0.917754
O O2 0.801432 0.871103 0.710160
O O3 0.000000 0.000000 0.848048
O O4 0.729937 0.045644 0.899476
O O5 0.145945 0.248579 0.293391
O O6 0.239211 0.078100 0.102258
O O7 0.272353 0.959328 0.301035
O O8 0.000000 0.000000 0.207185
O O9 0.500000 0.000000 0.025262
O O10 0.598242 0.712625 0.581942
O O11 0.869270 0.701295 0.521064
O O12 0.500000 0.000000 0.632193
#
# Coordination Sequence:
#
# PCOD8156353 Si02
#       5
#     4   4   4   4   4
#     4  11  25  45  69 100 139 183 232 284 347 417
#     4   9  21  42  63  90 134 181 224 281 346 409
#     4  11  24  43  68  98 134 179 232 287 345 409
#     4  10  24  42  64  97 136 180 225 279 346 413
#     4  11  23  40  67  97 132 177 231 287 343 408
#
# _framework density 23.588066999999999
#
# number of rings (size 3 to 8) (size 9 to 14) (size 15 to 20)
#    0.000    1.600    0.000    3.000    0.000   17.600 
#    0.000    0.000    0.000    0.000    0.000    0.000 
#    0.000    0.000    0.000    0.000    0.000    0.000 
#
# Total GULP energy -247902.042242 kJ/mol
# GULP energy per Si atom -12395.102112 kJ/mol
# Density = 2.353438 g / cm^3
# Si number density = 23.588067 Si / 1000 Ang^3
#
#
#
# Elastic Constant Matrix: (Units=GPa)
#
#
# Indices 1 2 3 4 5 6 
#
# 1 139.7954 26.7528 71.0577 0.0000 0.0000 0.0000
# 2 26.7528 78.8205 48.2680 0.0000 0.0000 0.0000
# 3 71.0577 48.2680 119.3952 0.0000 0.0000 0.0000
# 4 0.0000 0.0000 0.0000 36.8892 0.0000 0.0000
# 5 0.0000 0.0000 0.0000 0.0000 27.6623 0.0000
# 6 0.0000 0.0000 0.0000 0.0000 0.0000 41.0924
#
#
#
# Elastic Compliance Matrix: (Units=1/GPa)
#
#
# Indices 1 2 3 4 5 6 
#
# 1 0.010263 0.000342 -0.006246 0.000000 0.000000 0.000000
# 2 0.000342 0.016873 -0.007024 0.000000 0.000000 0.000000
# 3 -0.006246 -0.007024 0.014933 0.000000 0.000000 0.000000
# 4 0.000000 0.000000 0.000000 0.027108 0.000000 0.000000
# 5 0.000000 0.000000 0.000000 0.000000 0.036150 0.000000
# 6 0.000000 0.000000 0.000000 0.000000 0.000000 0.024335
#
#
# Mechanical properties :
#
#
# Convention : Reuss Voigt Hill
#
# Bulk Modulus (GPa) = 61.68864 70.01867 65.85366
# Shear Modulus (GPa) = 31.07076 33.92429 32.49753
#
# Velocity S-wave (km/s) = 3.63330 3.79647 3.71578
# Velocity P-wave (km/s) = 6.61894 6.99757 6.81089
#
# Compressibility (1/GPa) = 0.01621044
#
# Stress axis : x y z
#
# Youngs Moduli (GPa) = 97.43997 59.26718 66.96777
#
# Poissons Ratio (x) = -0.02024 0.41827
# Poissons Ratio (y) = -0.03328 0.47041
# Poissons Ratio (z) = 0.60860 0.41632
#
# Static dielectric constant tensor:
#      x y z
#    x 4.253070 0.000000 0.000000 
#    y 0.000000 4.559260 0.000000 
#    z 0.000000 0.000000 4.398950 
# 
# 
# High freq. dielectric constant tensor:
#      x y z
#    x 1.939150 0.000000 0.000000 
#    y 0.000000 1.935330 0.000000 
#    z 0.000000 0.000000 1.943840 
# 
# From -- ./inp_files/5401.got.cif
#   From: 2010.03.12/outbox.cif.g09.slc.cpg/sg18_3_cif.got.tgz:5401.got - 2010.04.10 18:53:55.
