data_PCOD8156947
_publ_section_title
;
Structure prediction by ZEFSAII (Michael W. Deem and Ramdas Pophale) SiO2 
 PCOD8156947
Probable space group: P 21 21 21
;
_chemical_formula_sum "Si O2"
_cell_formula_units_Z 32
_cell_length_a 9.791229
_cell_length_b 10.996276
_cell_length_c 13.411642
_cell_angle_alpha 90.000000
_cell_angle_beta 90.000000
_cell_angle_gamma 90.000000
_cell_volume 1443.992016
_symmetry_space_group_name_H-M "P 21 21 21"
_symmetry_group_IT_number 19
_symmetry_cell_setting 'orthorhombic'
loop_
_space_group_symop_operation_xyz
x,y,z
1/2-x,-y,1/2+z
1/2+x,1/2-y,-z
-x,1/2+y,1/2-z
loop_
_atom_site_type_symbol
_atom_site_label
_atom_site_fract_x
_atom_site_fract_y
_atom_site_fract_z
Si Si1 0.114704 0.158002 0.639433
Si Si2 0.289296 0.496827 0.604623
Si Si3 0.903861 0.838780 0.141666
Si Si4 0.526997 0.637596 0.658402
Si Si5 0.777802 0.188274 0.222151
Si Si6 0.698744 0.416646 0.574011
Si Si7 0.353915 0.480314 0.378871
Si Si8 0.008116 0.411421 0.571079
O O1 0.212888 0.186277 0.733266
O O2 0.198874 0.113027 0.543512
O O3 0.034989 0.282388 0.620485
O O4 0.001306 0.056448 0.664171
O O5 0.368842 0.625513 0.621119
O O6 0.334886 0.395326 0.686667
O O7 0.339568 0.448520 0.496357
O O8 0.123748 0.508473 0.609857
O O9 0.021095 0.867145 0.221606
O O10 0.864274 0.697257 0.132899
O O11 0.766037 0.907241 0.176912
O O12 0.971072 0.898999 0.045893
O O13 0.601650 0.768548 0.644582
O O14 0.608833 0.532010 0.602882
O O15 0.667680 0.120830 0.151581
O O16 0.855412 0.449656 0.601545
#
# Coordination Sequence:
#
# PCOD8156947 Si02
#       8
#     4   4   4   4   4   4   4   4
#     4  10  21  39  67  93 136 176 225 282 338 400
#     4  10  22  44  68  96 141 178 225 282 348 405
#     4  10  21  36  65  97 132 176 229 277 344 410
#     4  12  23  39  65  98 136 181 220 287 339 412
#     4  11  25  41  68 101 136 181 235 282 339 415
#     4  11  21  39  69 100 131 175 237 281 339 412
#     4  11  21  43  69  99 136 187 222 291 342 404
#     4   9  20  37  67 100 124 174 231 280 335 404
#
# _framework density 22.160785000000001
#
# number of rings (size 3 to 8) (size 9 to 14) (size 15 to 20)
#    0.000    1.500    3.750    2.250    1.750    2.000 
#    0.000    3.750    2.750    0.000    0.000    0.000 
#    0.000    0.000    0.000    0.000    0.000    0.000 
#
# Total GULP energy -396425.525646 kJ/mol
# GULP energy per Si atom -12388.297676 kJ/mol
# Density = 2.211035 g / cm^3
# Si number density = 22.160785 Si / 1000 Ang^3
#
#
#
# Elastic Constant Matrix: (Units=GPa)
#
#
# Indices 1 2 3 4 5 6 
#
# 1 126.8936 40.0862 26.1710 0.0000 0.0000 0.0000
# 2 40.0862 68.8771 34.9248 0.0000 0.0000 0.0000
# 3 26.1710 34.9248 43.6244 0.0000 0.0000 0.0000
# 4 0.0000 0.0000 0.0000 30.2419 0.0000 0.0000
# 5 0.0000 0.0000 0.0000 0.0000 32.3487 0.0000
# 6 0.0000 0.0000 0.0000 0.0000 0.0000 40.8747
#
#
#
# Elastic Compliance Matrix: (Units=1/GPa)
#
#
# Indices 1 2 3 4 5 6 
#
# 1 0.009780 -0.004574 -0.002206 0.000000 0.000000 0.000000
# 2 -0.004574 0.026579 -0.018534 0.000000 0.000000 0.000000
# 3 -0.002206 -0.018534 0.039085 0.000000 0.000000 0.000000
# 4 0.000000 0.000000 0.000000 0.033067 0.000000 0.000000
# 5 0.000000 0.000000 0.000000 0.000000 0.030913 0.000000
# 6 0.000000 0.000000 0.000000 0.000000 0.000000 0.024465
#
#
# Mechanical properties :
#
#
# Convention : Reuss Voigt Hill
#
# Bulk Modulus (GPa) = 40.29718 49.08436 44.69077
# Shear Modulus (GPa) = 22.44284 29.90727 26.17506
#
# Velocity S-wave (km/s) = 3.18579 3.67762 3.44050
# Velocity P-wave (km/s) = 5.63523 6.34275 5.99943
#
# Compressibility (1/GPa) = 0.02481563
#
# Stress axis : x y z
#
# Youngs Moduli (GPa) = 102.24537 37.62432 25.58553
#
# Poissons Ratio (x) = 0.17208 0.05644
# Poissons Ratio (y) = 0.46764 0.47421
# Poissons Ratio (z) = 0.22554 0.69735
#
# Static dielectric constant tensor:
#      x y z
#    x 4.370920 0.000000 0.000000 
#    y 0.000000 3.804080 0.000000 
#    z 0.000000 0.000000 4.038220 
# 
# 
# High freq. dielectric constant tensor:
#      x y z
#    x 1.886370 0.000000 0.000000 
#    y 0.000000 1.834830 0.000000 
#    z 0.000000 0.000000 1.865020 
# 
# From -- ./inp_files/5912.got.cif
#   From: 2010.03.12/outbox.cif.g09.slc.cpg/sg19_3_cif.got.tgz:5912.got - 2010.04.10 18:59:41.
