data_PCOD8156966
_publ_section_title
;
Structure prediction by ZEFSAII (Michael W. Deem and Ramdas Pophale) SiO2 
 PCOD8156966
Probable space group: P 21 21 21
;
_chemical_formula_sum "Si O2"
_cell_formula_units_Z 32
_cell_length_a 9.064346
_cell_length_b 7.850350
_cell_length_c 20.474847
_cell_angle_alpha 90.000000
_cell_angle_beta 90.000000
_cell_angle_gamma 90.000000
_cell_volume 1456.955072
_symmetry_space_group_name_H-M "P 21 21 21"
_symmetry_group_IT_number 19
_symmetry_cell_setting 'orthorhombic'
loop_
_space_group_symop_operation_xyz
x,y,z
1/2-x,-y,1/2+z
1/2+x,1/2-y,-z
-x,1/2+y,1/2-z
loop_
_atom_site_type_symbol
_atom_site_label
_atom_site_fract_x
_atom_site_fract_y
_atom_site_fract_z
Si Si1 0.365952 0.692821 0.182492
Si Si2 0.383977 0.867498 0.527706
Si Si3 0.468644 0.189120 0.447179
Si Si4 0.693358 0.404231 0.631725
Si Si5 0.372688 0.046171 0.243470
Si Si6 0.054201 0.769099 0.208878
Si Si7 0.438506 0.047132 0.990760
Si Si8 0.884957 0.651226 0.323103
O O1 0.407693 0.650530 0.107611
O O2 0.394992 0.891207 0.194215
O O3 0.463433 0.598604 0.236596
O O4 0.193663 0.644470 0.193379
O O5 0.209303 0.893285 0.527071
O O6 0.438336 0.691513 0.493924
O O7 0.425661 0.837403 0.602310
O O8 0.468980 0.030903 0.497970
O O9 0.308333 0.201538 0.413358
O O10 0.502838 0.364770 0.484340
O O11 0.781557 0.499940 0.689755
O O12 0.579747 0.268723 0.660703
O O13 0.603333 0.536050 0.586187
O O14 0.283647 0.194122 0.201709
O O15 0.006339 0.759361 0.284475
O O16 0.107931 0.958206 0.201043
#
# Coordination Sequence:
#
# PCOD8156966 Si02
#       8
#     4   4   4   4   4   4   4   4
#     4  10  21  40  65  95 126 169 216 269 335 397
#     4  11  26  44  65 101 132 179 231 276 334 403
#     4  10  23  47  66  92 136 181 221 279 336 400
#     4   9  21  41  65  92 132 166 219 272 334 398
#     4   9  20  40  61  91 128 165 208 268 334 392
#     4  10  21  37  65  94 125 165 211 274 335 393
#     4  11  24  43  68  95 132 180 224 277 332 404
#     4  10  22  40  59  92 129 163 214 273 326 399
#
# _framework density 21.963615000000001
#
# number of rings (size 3 to 8) (size 9 to 14) (size 15 to 20)
#    0.000    2.000    0.000    2.250    5.250    8.000 
#   13.500    0.000    0.000    0.000    0.000    0.000 
#    0.000    0.000    0.000    0.000    0.000    0.000 
#
# Total GULP energy -396584.772144 kJ/mol
# GULP energy per Si atom -12393.274130 kJ/mol
# Density = 2.191363 g / cm^3
# Si number density = 21.963615 Si / 1000 Ang^3
#
#
#
# Elastic Constant Matrix: (Units=GPa)
#
#
# Indices 1 2 3 4 5 6 
#
# 1 87.7928 24.9131 27.6029 0.0000 0.0000 0.0000
# 2 24.9131 70.3478 19.1179 0.0000 0.0000 0.0000
# 3 27.6029 19.1179 106.0038 0.0000 0.0000 0.0000
# 4 0.0000 0.0000 0.0000 30.6143 0.0000 0.0000
# 5 0.0000 0.0000 0.0000 0.0000 26.3439 0.0000
# 6 0.0000 0.0000 0.0000 0.0000 0.0000 441.0430
#
#
#
# Elastic Compliance Matrix: (Units=1/GPa)
#
#
# Indices 1 2 3 4 5 6 
#
# 1 0.013393 -0.003991 -0.002768 0.000000 0.000000 0.000000
# 2 -0.003991 0.016137 -0.001871 0.000000 0.000000 0.000000
# 3 -0.002768 -0.001871 0.010492 0.000000 0.000000 0.000000
# 4 0.000000 0.000000 0.000000 0.032664 0.000000 0.000000
# 5 0.000000 0.000000 0.000000 0.000000 0.037959 0.000000
# 6 0.000000 0.000000 0.000000 0.000000 0.000000 0.002267
#
#
# Mechanical properties :
#
#
# Convention : Reuss Voigt Hill
#
# Bulk Modulus (GPa) = 43.93217 45.26802 44.60010
# Shear Modulus (GPa) = 36.29498 112.43429 74.36464
#
# Velocity S-wave (km/s) = 4.06951 7.16256 5.82508
# Velocity P-wave (km/s) = 6.49052 9.43707 8.09892
#
# Compressibility (1/GPa) = 0.02276236
#
# Stress axis : x y z
#
# Youngs Moduli (GPa) = 74.66492 61.96969 95.31262
#
# Poissons Ratio (x) = 0.24732 0.26380
# Poissons Ratio (y) = 0.29798 0.17834
# Poissons Ratio (z) = 0.20665 0.11595
#
# Static dielectric constant tensor:
#      x y z
#    x 4.668620 0.000000 0.000000 
#    y 0.000000 3.695790 0.000000 
#    z 0.000000 0.000000 -14.855240 
# 
# 
# High freq. dielectric constant tensor:
#      x y z
#    x 1.878470 0.000000 0.000000 
#    y 0.000000 1.841000 0.000000 
#    z 0.000000 0.000000 1.873640 
# 
# From -- ./inp_files/7064.got.cif
#   From: 2010.03.12/outbox.cif.g09.slc.cpg/sg19_4_cif.got.tgz:7064.got - 2010.04.10 18:59:41.
