data_PCOD8156686
_publ_section_title
;
Structure prediction by ZEFSAII (Michael W. Deem and Ramdas Pophale) SiO2 
 PCOD8156686
Probable space group: P 21 21 21
;
_chemical_formula_sum "Si O2"
_cell_formula_units_Z 24
_cell_length_a 13.912415
_cell_length_b 9.199394
_cell_length_c 9.201245
_cell_angle_alpha 90.000000
_cell_angle_beta 90.000000
_cell_angle_gamma 90.000000
_cell_volume 1177.628583
_symmetry_space_group_name_H-M "P 21 21 21"
_symmetry_group_IT_number 19
_symmetry_cell_setting 'orthorhombic'
loop_
_space_group_symop_operation_xyz
x,y,z
1/2-x,-y,1/2+z
1/2+x,1/2-y,-z
-x,1/2+y,1/2-z
loop_
_atom_site_type_symbol
_atom_site_label
_atom_site_fract_x
_atom_site_fract_y
_atom_site_fract_z
Si Si1 0.964353 0.591080 0.471635
Si Si2 0.035686 0.908906 0.471522
Si Si3 0.884116 0.999941 0.249944
Si Si4 0.785674 0.721514 0.341140
Si Si5 0.285634 0.221627 0.841129
Si Si6 0.634079 0.499944 0.250058
O O1 0.874987 0.611187 0.361400
O O2 0.933209 0.494039 0.608645
O O3 0.000013 0.750015 0.523663
O O4 0.049538 0.503845 0.393275
O O5 0.125044 0.888704 0.361289
O O6 0.950508 0.996110 0.393117
O O7 0.066851 0.006031 0.608464
O O8 0.816893 0.858432 0.244008
O O9 0.816835 0.141388 0.255919
O O10 0.750012 0.773741 0.499983
O O11 0.700472 0.643144 0.253960
O O12 0.200425 0.143304 0.753918
#
# Coordination Sequence:
#
# PCOD8156686 Si02
#       6
#     4   4   4   4   4   4
#     4   9  19  37  58  82 114 148 184 229 277 328
#     4   9  19  37  58  82 114 148 184 229 277 328
#     4  10  19  38  61  82 112 148 184 230 279 326
#     4   9  19  37  58  82 114 148 184 229 277 328
#     4   9  19  37  58  82 114 148 184 229 277 328
#     4  10  19  38  61  82 112 148 184 230 279 326
#
# _framework density 20.379942
#
# number of rings (size 3 to 8) (size 9 to 14) (size 15 to 20)
#    0.000    2.667    0.000    1.000    0.000    0.000 
#    0.000   45.000    0.000    0.000    0.000    0.000 
#    0.000    0.000    0.000    0.000    0.000    0.000 
#
# Total GULP energy -297614.087459 kJ/mol
# GULP energy per Si atom -12400.586977 kJ/mol
# Density = 2.033356 g / cm^3
# Si number density = 20.379942 Si / 1000 Ang^3
#
#
#
# Elastic Constant Matrix: (Units=GPa)
#
#
# Indices 1 2 3 4 5 6 
#
# 1 107.7301 61.2973 61.3816 0.0000 0.0000 0.0000
# 2 61.2973 104.4004 93.9002 0.0000 0.0000 0.0000
# 3 61.3816 93.9002 104.6102 0.0000 0.0000 0.0000
# 4 0.0000 0.0000 0.0000 32.6299 0.0000 0.0000
# 5 0.0000 0.0000 0.0000 0.0000 40.3224 0.0000
# 6 0.0000 0.0000 0.0000 0.0000 0.0000 40.2846
#
#
#
# Elastic Compliance Matrix: (Units=1/GPa)
#
#
# Indices 1 2 3 4 5 6 
#
# 1 0.014326 -0.004416 -0.004442 0.000000 0.000000 0.000000
# 2 -0.004416 0.051079 -0.043258 0.000000 0.000000 0.000000
# 3 -0.004442 -0.043258 0.050995 0.000000 0.000000 0.000000
# 4 0.000000 0.000000 0.000000 0.030647 0.000000 0.000000
# 5 0.000000 0.000000 0.000000 0.000000 0.024800 0.000000
# 6 0.000000 0.000000 0.000000 0.000000 0.000000 0.024823
#
#
# Mechanical properties :
#
#
# Convention : Reuss Voigt Hill
#
# Bulk Modulus (GPa) = 82.18676 83.32211 82.75444
# Shear Modulus (GPa) = 16.39569 29.32482 22.86026
#
# Velocity S-wave (km/s) = 2.83945 3.79741 3.35282
# Velocity P-wave (km/s) = 7.15296 7.75888 7.46207
#
# Compressibility (1/GPa) = 0.01216741
#
# Stress axis : x y z
#
# Youngs Moduli (GPa) = 69.80244 19.57768 19.60975
#
# Poissons Ratio (x) = 0.08645 0.08711
# Poissons Ratio (y) = 0.30825 0.84828
# Poissons Ratio (z) = 0.31008 0.84689
#
# Static dielectric constant tensor:
#      x y z
#    x 4.068320 0.000000 0.000000 
#    y 0.000000 3.456600 0.000000 
#    z 0.000000 0.000000 3.457490 
# 
# 
# High freq. dielectric constant tensor:
#      x y z
#    x 1.815530 0.000000 0.000000 
#    y 0.000000 1.776040 0.000000 
#    z 0.000000 0.000000 1.776120 
# 
# From -- ./inp_files/2745.got.cif
#   From: 2010.03.12/outbox.cif.g09.slc.cpg/sg19_2_cif.got.tgz:2745.got - 2010.04.10 18:59:41.
