data_PCOD8156366
_publ_section_title
;
Structure prediction by ZEFSAII (Michael W. Deem and Ramdas Pophale) SiO2 
 PCOD8156366
Probable space group: P 21 21 2
;
_chemical_formula_sum "Si O2"
_cell_formula_units_Z 20
_cell_length_a 18.105362
_cell_length_b 8.554916
_cell_length_c 4.830314
_cell_angle_alpha 90.000000
_cell_angle_beta 90.000000
_cell_angle_gamma 90.000000
_cell_volume 748.166616
_symmetry_space_group_name_H-M "P 21 21 2"
_symmetry_group_IT_number 18
_symmetry_cell_setting 'orthorhombic'
loop_
_space_group_symop_operation_xyz
x,y,z
-x,-y,z
1/2+x,1/2-y,-z
1/2-x,1/2+y,-z
loop_
_atom_site_type_symbol
_atom_site_label
_atom_site_fract_x
_atom_site_fract_y
_atom_site_fract_z
Si Si1 0.621442 0.311646 0.412715
Si Si2 0.727055 0.837705 0.808165
Si Si3 0.628887 0.558722 0.859194
Si Si4 0.352900 0.039998 0.303463
Si Si5 0.547790 0.686423 0.355805
O O1 0.683568 0.366901 0.181740
O O2 0.637876 0.388936 0.712935
O O3 0.631925 0.126429 0.439783
O O4 0.538442 0.342653 0.310122
O O5 0.705945 0.656545 0.873487
O O6 0.703725 0.864615 0.492937
O O7 0.685835 0.962213 0.003262
O O8 0.569616 0.656007 0.673896
O O9 0.593156 0.558764 0.168492
O O10 0.429662 0.136755 0.274697
#
# Coordination Sequence:
#
# PCOD8156366 Si02
#       5
#     4   4   4   4   4
#     4  12  24  42  75 102 131 187 242 282 346 422
#     4  10  24  44  66  97 141 180 228 291 353 411
#     4  10  24  44  64  96 139 175 219 285 347 408
#     4  10  24  45  67 101 140 182 232 292 348 416
#     4  10  24  45  66  96 139 178 223 284 348 409
#
# _framework density 26.732012000000001
#
# number of rings (size 3 to 8) (size 9 to 14) (size 15 to 20)
#    0.000    1.600    0.000    2.400    0.000   16.000 
#    0.000    8.000    0.000    0.000    0.000    0.000 
#    0.000    0.000    0.000    0.000    0.000    0.000 
#
# Total GULP energy -247988.297520 kJ/mol
# GULP energy per Si atom -12399.414876 kJ/mol
# Density = 2.667117 g / cm^3
# Si number density = 26.732012 Si / 1000 Ang^3
#
#
#
# Elastic Constant Matrix: (Units=GPa)
#
#
# Indices 1 2 3 4 5 6 
#
# 1 188.2746 40.2856 28.7197 0.0000 0.0000 0.0000
# 2 40.2856 149.9453 3.6638 0.0000 0.0000 0.0000
# 3 28.7197 3.6638 97.1321 0.0000 0.0000 0.0000
# 4 0.0000 0.0000 0.0000 40.6036 0.0000 0.0000
# 5 0.0000 0.0000 0.0000 0.0000 22.5318 0.0000
# 6 0.0000 0.0000 0.0000 0.0000 0.0000 52.6602
#
#
#
# Elastic Compliance Matrix: (Units=1/GPa)
#
#
# Indices 1 2 3 4 5 6 
#
# 1 0.005899 -0.001544 -0.001686 0.000000 0.000000 0.000000
# 2 -0.001544 0.007079 0.000189 0.000000 0.000000 0.000000
# 3 -0.001686 0.000189 0.010787 0.000000 0.000000 0.000000
# 4 0.000000 0.000000 0.000000 0.024628 0.000000 0.000000
# 5 0.000000 0.000000 0.000000 0.000000 0.044382 0.000000
# 6 0.000000 0.000000 0.000000 0.000000 0.000000 0.018990
#
#
# Mechanical properties :
#
#
# Convention : Reuss Voigt Hill
#
# Bulk Modulus (GPa) = 56.54735 64.52115 60.53425
# Shear Modulus (GPa) = 40.40745 47.33798 43.87271
#
# Velocity S-wave (km/s) = 3.89212 4.21269 4.05557
# Velocity P-wave (km/s) = 6.43408 6.91745 6.68014
#
# Compressibility (1/GPa) = 0.01768430
#
# Stress axis : x y z
#
# Youngs Moduli (GPa) = 169.52416 141.25894 92.70762
#
# Poissons Ratio (x) = 0.21805 0.15630
# Poissons Ratio (y) = 0.26169 -0.01756
# Poissons Ratio (z) = 0.28581 -0.02675
#
# Static dielectric constant tensor:
#      x y z
#    x 4.881090 0.000000 0.000000 
#    y 0.000000 4.969870 0.000000 
#    z 0.000000 0.000000 4.600760 
# 
# 
# High freq. dielectric constant tensor:
#      x y z
#    x 2.082290 0.000000 0.000000 
#    y 0.000000 2.092020 0.000000 
#    z 0.000000 0.000000 2.075290 
# 
# From -- ./inp_files/1745.got.cif
#   From: 2010.03.12/outbox.cif.g09.slc.cpg/sg18_1_cif.got.tgz:1745.got - 2010.04.10 18:53:55.
