data_PCOD8156977
_publ_section_title
;
Structure prediction by ZEFSAII (Michael W. Deem and Ramdas Pophale) SiO2 
 PCOD8156977
Probable space group: P 21 21 21
;
_chemical_formula_sum "Si O2"
_cell_formula_units_Z 32
_cell_length_a 14.927585
_cell_length_b 8.849417
_cell_length_c 11.611282
_cell_angle_alpha 90.000000
_cell_angle_beta 90.000000
_cell_angle_gamma 90.000000
_cell_volume 1533.855281
_symmetry_space_group_name_H-M "P 21 21 21"
_symmetry_group_IT_number 19
_symmetry_cell_setting 'orthorhombic'
loop_
_space_group_symop_operation_xyz
x,y,z
1/2-x,-y,1/2+z
1/2+x,1/2-y,-z
-x,1/2+y,1/2-z
loop_
_atom_site_type_symbol
_atom_site_label
_atom_site_fract_x
_atom_site_fract_y
_atom_site_fract_z
Si Si1 0.089148 0.795083 0.474162
Si Si2 0.660604 0.613143 0.295879
Si Si3 0.637383 0.412509 0.782277
Si Si4 0.075014 0.130057 0.971500
Si Si5 0.495108 0.404712 0.596236
Si Si6 0.156118 0.740101 0.233025
Si Si7 0.141251 0.230334 0.742326
Si Si8 0.527818 0.688162 0.117531
O O1 0.161074 0.848716 0.568385
O O2 0.143710 0.722206 0.369629
O O3 0.029756 0.667447 0.532962
O O4 0.018676 0.923347 0.432806
O O5 0.760908 0.622747 0.245804
O O6 0.622651 0.443084 0.292005
O O7 0.598031 0.727230 0.221037
O O8 0.574522 0.344636 0.680982
O O9 0.623722 0.591944 0.800694
O O10 0.614764 0.334055 0.902896
O O11 0.129500 0.234126 0.880994
O O12 0.075751 0.953557 0.942125
O O13 0.401453 0.385783 0.665110
O O14 0.485851 0.317070 0.476673
O O15 0.260541 0.713632 0.204351
O O16 0.068960 0.337070 0.678044
#
# Coordination Sequence:
#
# PCOD8156977 Si02
#       8
#     4   4   4   4   4   4   4   4
#     4  11  21  38  65  86 122 160 201 250 309 361
#     4  10  21  38  64  92 118 159 210 250 298 366
#     4  10  21  38  64  92 118 159 210 250 298 366
#     4  11  21  38  65  86 122 160 201 250 309 361
#     4  11  22  38  63  90 122 159 201 250 306 360
#     4  10  21  38  61  89 120 159 205 254 303 363
#     4  10  21  38  61  89 120 159 205 254 303 363
#     4  11  22  38  63  90 122 159 201 250 306 360
#
# _framework density 20.862463999999999
#
# number of rings (size 3 to 8) (size 9 to 14) (size 15 to 20)
#    0.000    1.500    5.000    0.750    0.000    2.000 
#    0.000    2.500    0.000    0.000    0.000    0.000 
#    0.000    0.000    0.000    0.000    0.000    0.000 
#
# Total GULP energy -396653.165797 kJ/mol
# GULP energy per Si atom -12395.411431 kJ/mol
# Density = 2.081498 g / cm^3
# Si number density = 20.862464 Si / 1000 Ang^3
#
#
#
# Elastic Constant Matrix: (Units=GPa)
#
#
# Indices 1 2 3 4 5 6 
#
# 1 117.5230 9.6888 34.3475 0.0000 0.0000 0.0000
# 2 9.6888 15.0863 9.5815 0.0000 0.0000 0.0000
# 3 34.3475 9.5815 117.5357 0.0000 0.0000 0.0000
# 4 0.0000 0.0000 0.0000 25.2732 0.0000 0.0000
# 5 0.0000 0.0000 0.0000 0.0000 31.7866 0.0000
# 6 0.0000 0.0000 0.0000 0.0000 0.0000 28.4899
#
#
#
# Elastic Compliance Matrix: (Units=1/GPa)
#
#
# Indices 1 2 3 4 5 6 
#
# 1 0.009600 -0.004623 -0.002429 0.000000 0.000000 0.000000
# 2 -0.004623 0.072131 -0.004529 0.000000 0.000000 0.000000
# 3 -0.002429 -0.004529 0.009587 0.000000 0.000000 0.000000
# 4 0.000000 0.000000 0.000000 0.039568 0.000000 0.000000
# 5 0.000000 0.000000 0.000000 0.000000 0.031460 0.000000
# 6 0.000000 0.000000 0.000000 0.000000 0.000000 0.035100
#
#
# Mechanical properties :
#
#
# Convention : Reuss Voigt Hill
#
# Bulk Modulus (GPa) = 14.67209 39.70895 27.19052
# Shear Modulus (GPa) = 20.54863 30.21176 25.38019
#
# Velocity S-wave (km/s) = 3.14181 3.80957 3.49169
# Velocity P-wave (km/s) = 4.49548 6.19883 5.41455
#
# Compressibility (1/GPa) = 0.06815660
#
# Stress axis : x y z
#
# Youngs Moduli (GPa) = 104.16828 13.86368 104.30845
#
# Poissons Ratio (x) = 0.06409 0.25331
# Poissons Ratio (y) = 0.48156 0.47243
# Poissons Ratio (z) = 0.25297 0.06279
#
# Static dielectric constant tensor:
#      x y z
#    x 3.705310 0.000000 0.000000 
#    y 0.000000 3.380610 0.000000 
#    z 0.000000 0.000000 3.996750 
# 
# 
# High freq. dielectric constant tensor:
#      x y z
#    x 1.817970 0.000000 0.000000 
#    y 0.000000 1.773050 0.000000 
#    z 0.000000 0.000000 1.836950 
# 
# From -- ./inp_files/3630.got.cif
#   From: 2010.03.12/outbox.cif.g09.slc.cpg/sg19_2_cif.got.tgz:3630.got - 2010.04.10 18:59:41.
