data_PCOD8156008
_publ_section_title
;
Structure prediction by ZEFSAII (Michael W. Deem and Ramdas Pophale) SiO2 
 PCOD8156008
Probable space group: P 21 21 2
;
_chemical_formula_sum "Si O2"
_cell_formula_units_Z 28
_cell_length_a 20.465823
_cell_length_b 9.987136
_cell_length_c 5.171160
_cell_angle_alpha 90.000000
_cell_angle_beta 90.000000
_cell_angle_gamma 90.000000
_cell_volume 1056.959029
_symmetry_space_group_name_H-M "P 21 21 2"
_symmetry_group_IT_number 18
_symmetry_cell_setting 'orthorhombic'
loop_
_space_group_symop_operation_xyz
x,y,z
-x,-y,z
1/2+x,1/2-y,-z
1/2-x,1/2+y,-z
loop_
_atom_site_type_symbol
_atom_site_label
_atom_site_fract_x
_atom_site_fract_y
_atom_site_fract_z
Si Si1 0.566165 0.580769 0.015143
Si Si2 0.009838 0.338136 0.914824
Si Si3 0.769316 0.679631 0.264980
Si Si4 0.290576 0.064902 0.047607
Si Si5 0.583425 0.154749 0.592099
Si Si6 0.635309 0.605157 0.508337
Si Si7 0.130275 0.608572 0.456149
O O1 0.500000 0.500000 0.973973
O O2 0.616226 0.541108 0.782831
O O3 0.554544 0.743426 0.044000
O O4 0.603409 0.524383 0.270061
O O5 0.047047 0.287269 0.657122
O O6 0.000000 0.500000 0.910801
O O7 0.055854 0.285120 0.145499
O O8 0.762046 0.830844 0.161955
O O9 0.837720 0.673135 0.417127
O O10 0.712553 0.633487 0.466898
O O11 0.762963 0.582871 0.014216
O O12 0.345156 0.051486 0.267051
O O13 0.315744 0.118117 0.769771
O O14 0.571833 0.992813 0.614818
O O15 0.597981 0.748201 0.505066
#
# Coordination Sequence:
#
# PCOD8156008 Si02
#       7
#     4   4   4   4   4   4   4
#     4  12  27  47  68  97 135 181 234 279 326 400
#     4  12  25  45  72  97 131 181 230 281 338 397
#     4  10  24  44  71 106 139 178 222 281 354 408
#     4  10  22  38  62  97 142 177 214 262 332 419
#     4  11  23  41  70 104 136 164 223 296 341 392
#     4  11  23  44  72  94 134 185 227 270 337 420
#     4  10  20  39  65  97 132 176 219 267 332 410
#
# _framework density 26.491092999999999
#
# number of rings (size 3 to 8) (size 9 to 14) (size 15 to 20)
#    0.000    1.143    0.000    6.857    0.000   12.571 
#    0.000    8.571    0.000    1.714    0.000    0.000 
#    0.000    0.000    0.000    0.000    0.000    0.000 
#
# Total GULP energy -346877.798847 kJ/mol
# GULP energy per Si atom -12388.492816 kJ/mol
# Density = 2.643080 g / cm^3
# Si number density = 26.491093 Si / 1000 Ang^3
#
#
#
# Elastic Constant Matrix: (Units=GPa)
#
#
# Indices 1 2 3 4 5 6 
#
# 1 111.4757 -11.6924 67.0001 0.0000 0.0000 0.0000
# 2 -11.6924 42.9019 -6.1021 0.0000 0.0000 0.0000
# 3 67.0001 -6.1021 204.9523 0.0000 0.0000 0.0000
# 4 0.0000 0.0000 0.0000 22.0314 0.0000 0.0000
# 5 0.0000 0.0000 0.0000 0.0000 44.5372 0.0000
# 6 0.0000 0.0000 0.0000 0.0000 0.0000 32.7868
#
#
#
# Elastic Compliance Matrix: (Units=1/GPa)
#
#
# Indices 1 2 3 4 5 6 
#
# 1 0.011445 0.002598 -0.003664 0.000000 0.000000 0.000000
# 2 0.002598 0.023998 -0.000135 0.000000 0.000000 0.000000
# 3 -0.003664 -0.000135 0.006073 0.000000 0.000000 0.000000
# 4 0.000000 0.000000 0.000000 0.045390 0.000000 0.000000
# 5 0.000000 0.000000 0.000000 0.000000 0.022453 0.000000
# 6 0.000000 0.000000 0.000000 0.000000 0.000000 0.030500
#
#
# Mechanical properties :
#
#
# Convention : Reuss Voigt Hill
#
# Bulk Modulus (GPa) = 25.56598 50.86010 38.21304
# Shear Modulus (GPa) = 32.19590 40.54604 36.37097
#
# Velocity S-wave (km/s) = 3.48997 3.91647 3.70935
# Velocity P-wave (km/s) = 5.09034 6.30018 5.72730
#
# Compressibility (1/GPa) = 0.03911447
#
# Stress axis : x y z
#
# Youngs Moduli (GPa) = 87.37158 41.67029 164.66283
#
# Poissons Ratio (x) = -0.10827 0.60336
# Poissons Ratio (y) = -0.22700 0.02220
# Poissons Ratio (z) = 0.32015 0.00562
#
# Static dielectric constant tensor:
#      x y z
#    x 4.477560 0.000000 0.000000 
#    y 0.000000 4.923770 0.000000 
#    z 0.000000 0.000000 5.128370 
# 
# 
# High freq. dielectric constant tensor:
#      x y z
#    x 2.050290 0.000000 0.000000 
#    y 0.000000 2.048270 0.000000 
#    z 0.000000 0.000000 2.089460 
# 
# From -- ./inp_files/1967.got.cif
#   From: 2010.03.12/outbox.cif.g09.slc.cpg/sg18_1_cif.got.tgz:1967.got - 2010.04.10 18:53:55.
