data_PCOD8156235
_publ_section_title
;
Structure prediction by ZEFSAII (Michael W. Deem and Ramdas Pophale) SiO2 
 PCOD8156235
Probable space group: P 21 21 2
;
_chemical_formula_sum "Si O2"
_cell_formula_units_Z 20
_cell_length_a 12.820967
_cell_length_b 13.477532
_cell_length_c 5.128594
_cell_angle_alpha 90.000000
_cell_angle_beta 90.000000
_cell_angle_gamma 90.000000
_cell_volume 886.195364
_symmetry_space_group_name_H-M "P 21 21 2"
_symmetry_group_IT_number 18
_symmetry_cell_setting 'orthorhombic'
loop_
_space_group_symop_operation_xyz
x,y,z
-x,-y,z
1/2+x,1/2-y,-z
1/2-x,1/2+y,-z
loop_
_atom_site_type_symbol
_atom_site_label
_atom_site_fract_x
_atom_site_fract_y
_atom_site_fract_z
Si Si1 0.788736 0.447218 0.890157
Si Si2 0.000000 0.000000 0.813548
Si Si3 0.288737 0.447219 0.390157
Si Si4 0.000000 0.500000 0.686455
Si Si5 0.115624 0.187016 0.005980
Si Si6 0.884377 0.687016 0.494005
O O1 0.739796 0.472160 0.608193
O O2 0.914037 0.445252 0.867500
O O3 0.738987 0.340541 0.967387
O O4 0.760204 0.527839 0.108193
O O5 0.085962 0.945252 0.632502
O O6 0.053140 0.083197 0.995291
O O7 0.238987 0.340542 0.467386
O O8 0.946860 0.583197 0.504714
O O9 0.074993 0.250005 0.249983
O O10 0.096220 0.249994 0.749982
#
# Coordination Sequence:
#
# PCOD8156235 Si02
#       6
#     4   2   4   2   4   4
#     4  10  22  42  65  91 128 170 217 274 329 385
#     4  10  24  46  72  96 134 180 222 272 334 396
#     4  10  22  42  65  91 128 170 217 274 329 385
#     4  10  24  46  72  96 134 180 222 272 334 396
#     4  11  24  43  67 100 137 176 224 274 330 393
#     4  11  24  43  67 100 137 176 224 274 330 393
#
# _framework density 22.568387999999999
#
# number of rings (size 3 to 8) (size 9 to 14) (size 15 to 20)
#    0.000    1.600    0.000    4.800    0.000   16.000 
#    0.000   16.000    0.000    0.000    0.000    0.000 
#    0.000    0.000    0.000    0.000    0.000    0.000 
#
# Total GULP energy -247949.092673 kJ/mol
# GULP energy per Si atom -12397.454634 kJ/mol
# Density = 2.251702 g / cm^3
# Si number density = 22.568388 Si / 1000 Ang^3
#
#
#
# Elastic Constant Matrix: (Units=GPa)
#
#
# Indices 1 2 3 4 5 6 
#
# 1 144.6326 45.7745 47.4222 0.0000 0.0000 0.0000
# 2 45.7745 137.2713 58.1008 0.0000 0.0000 0.0000
# 3 47.4222 58.1008 142.6089 0.0000 0.0000 0.0000
# 4 0.0000 0.0000 0.0000 27.4967 0.0000 0.0000
# 5 0.0000 0.0000 0.0000 0.0000 22.2111 0.0000
# 6 0.0000 0.0000 0.0000 0.0000 0.0000 28.9912
#
#
#
# Elastic Compliance Matrix: (Units=1/GPa)
#
#
# Indices 1 2 3 4 5 6 
#
# 1 0.008150 -0.001898 -0.001937 0.000000 0.000000 0.000000
# 2 -0.001898 0.009245 -0.003135 0.000000 0.000000 0.000000
# 3 -0.001937 -0.003135 0.008934 0.000000 0.000000 0.000000
# 4 0.000000 0.000000 0.000000 0.036368 0.000000 0.000000
# 5 0.000000 0.000000 0.000000 0.000000 0.045022 0.000000
# 6 0.000000 0.000000 0.000000 0.000000 0.000000 0.034493
#
#
# Mechanical properties :
#
#
# Convention : Reuss Voigt Hill
#
# Bulk Modulus (GPa) = 80.72285 80.78978 80.75631
# Shear Modulus (GPa) = 31.19514 33.95415 32.57465
#
# Velocity S-wave (km/s) = 3.72189 3.88300 3.80330
# Velocity P-wave (km/s) = 7.36992 7.48191 7.42613
#
# Compressibility (1/GPa) = 0.01238807
#
# Stress axis : x y z
#
# Youngs Moduli (GPa) = 122.70281 108.16956 111.93647
#
# Poissons Ratio (x) = 0.20529 0.21681
# Poissons Ratio (y) = 0.23287 0.35096
# Poissons Ratio (z) = 0.23766 0.33915
#
# Static dielectric constant tensor:
#      x y z
#    x 4.318750 0.000000 0.000000 
#    y 0.000000 4.120620 0.000000 
#    z 0.000000 0.000000 4.118810 
# 
# 
# High freq. dielectric constant tensor:
#      x y z
#    x 1.888910 0.000000 0.000000 
#    y 0.000000 1.878980 0.000000 
#    z 0.000000 0.000000 1.899830 
# 
# From -- ./inp_files/1005.got.cif
#   From: 2010.03.12/outbox.cif.g09.slc.cpg/sg18_1_cif.got.tgz:1005.got - 2010.04.10 18:53:55.
