data_PCOD8156621
_publ_section_title
;
Structure prediction by ZEFSAII (Michael W. Deem and Ramdas Pophale) SiO2 
 PCOD8156621
Probable space group: P 21 21 21
;
_chemical_formula_sum "Si O2"
_cell_formula_units_Z 32
_cell_length_a 11.469027
_cell_length_b 18.386034
_cell_length_c 8.112507
_cell_angle_alpha 90.000000
_cell_angle_beta 90.000000
_cell_angle_gamma 90.000000
_cell_volume 1710.683705
_symmetry_space_group_name_H-M "P 21 21 21"
_symmetry_group_IT_number 19
_symmetry_cell_setting 'orthorhombic'
loop_
_space_group_symop_operation_xyz
x,y,z
1/2-x,-y,1/2+z
1/2+x,1/2-y,-z
-x,1/2+y,1/2-z
loop_
_atom_site_type_symbol
_atom_site_label
_atom_site_fract_x
_atom_site_fract_y
_atom_site_fract_z
Si Si1 0.222236 0.100734 0.045824
Si Si2 0.964578 0.218729 0.695471
Si Si3 0.450725 0.776702 0.558866
Si Si4 0.178933 0.953631 0.884591
Si Si5 0.822527 0.667930 0.962111
Si Si6 0.000743 0.358866 0.477092
Si Si7 0.352698 0.195855 0.798476
Si Si8 0.798188 0.795877 0.198341
O O1 0.102202 0.142869 0.089800
O O2 0.285029 0.063856 0.199333
O O3 0.312027 0.158198 0.967765
O O4 0.190372 0.039309 0.912208
O O5 0.956046 0.290771 0.584799
O O6 0.836814 0.182930 0.719256
O O7 0.043548 0.159811 0.597115
O O8 0.024784 0.238224 0.867759
O O9 0.573501 0.768639 0.657646
O O10 0.361770 0.712919 0.623719
O O11 0.265863 0.910692 0.008536
O O12 0.043525 0.930157 0.923244
O O13 0.758109 0.713859 0.816249
O O14 0.812246 0.714182 0.128335
O O15 0.935272 0.359220 0.301818
O O16 0.138165 0.352999 0.428701
#
# Coordination Sequence:
#
# PCOD8156621 Si02
#       8
#     4   4   4   4   4   4   4   4
#     4  12  23  36  58  91 118 160 189 248 296 354
#     4  11  19  31  55  82 116 148 195 239 294 342
#     4  11  21  32  54  83 117 148 195 240 294 340
#     4  11  21  37  56  84 122 148 199 236 300 355
#     4  10  19  33  55  81 114 147 192 238 294 341
#     4   9  19  34  55  81 112 154 186 241 288 349
#     4  10  19  35  51  83 115 142 195 239 292 343
#     4  10  19  34  52  85 114 155 187 243 292 342
#
# _framework density 18.705973
#
# number of rings (size 3 to 8) (size 9 to 14) (size 15 to 20)
#    0.000    1.500    5.000    3.000    0.000    0.000 
#    0.000    0.000    0.000    0.000   19.500    0.000 
#    0.000    0.000    0.000    0.000    0.000    0.000 
#
# Total GULP energy -396485.273148 kJ/mol
# GULP energy per Si atom -12390.164786 kJ/mol
# Density = 1.866340 g / cm^3
# Si number density = 18.705973 Si / 1000 Ang^3
#
#
#
# Elastic Constant Matrix: (Units=GPa)
#
#
# Indices 1 2 3 4 5 6 
#
# 1 110.4250 24.3641 35.9105 0.0000 0.0000 0.0000
# 2 24.3641 57.8530 18.7847 0.0000 0.0000 0.0000
# 3 35.9105 18.7847 92.0435 0.0000 0.0000 0.0000
# 4 0.0000 0.0000 0.0000 22.9508 0.0000 0.0000
# 5 0.0000 0.0000 0.0000 0.0000 30.2307 0.0000
# 6 0.0000 0.0000 0.0000 0.0000 0.0000 23.2191
#
#
#
# Elastic Compliance Matrix: (Units=1/GPa)
#
#
# Indices 1 2 3 4 5 6 
#
# 1 0.010984 -0.003464 -0.003578 0.000000 0.000000 0.000000
# 2 -0.003464 0.019604 -0.002650 0.000000 0.000000 0.000000
# 3 -0.003578 -0.002650 0.012801 0.000000 0.000000 0.000000
# 4 0.000000 0.000000 0.000000 0.043571 0.000000 0.000000
# 5 0.000000 0.000000 0.000000 0.000000 0.033079 0.000000
# 6 0.000000 0.000000 0.000000 0.000000 0.000000 0.043068
#
#
# Mechanical properties :
#
#
# Convention : Reuss Voigt Hill
#
# Bulk Modulus (GPa) = 41.65652 46.49334 44.07493
# Shear Modulus (GPa) = 26.24765 27.36427 26.80596
#
# Velocity S-wave (km/s) = 3.74995 3.82889 3.78963
# Velocity P-wave (km/s) = 6.40835 6.66753 6.53923
#
# Compressibility (1/GPa) = 0.02400584
#
# Stress axis : x y z
#
# Youngs Moduli (GPa) = 91.04248 51.00940 78.11725
#
# Poissons Ratio (x) = 0.17669 0.27954
# Poissons Ratio (y) = 0.31536 0.20697
# Poissons Ratio (z) = 0.32579 0.13515
#
# Static dielectric constant tensor:
#      x y z
#    x 3.738120 0.000000 0.000000 
#    y 0.000000 3.041560 0.000000 
#    z 0.000000 0.000000 3.665000 
# 
# 
# High freq. dielectric constant tensor:
#      x y z
#    x 1.728860 0.000000 0.000000 
#    y 0.000000 1.664060 0.000000 
#    z 0.000000 0.000000 1.749350 
# 
# From -- ./inp_files/3761.got.cif
#   From: 2010.03.12/outbox.cif.g09.slc.cpg/sg19_2_cif.got.tgz:3761.got - 2010.04.10 18:59:41.
