data_PCOD8156051
_publ_section_title
;
Structure prediction by ZEFSAII (Michael W. Deem and Ramdas Pophale) SiO2 
 PCOD8156051
Probable space group: P 21 21 2
;
_chemical_formula_sum "Si O2"
_cell_formula_units_Z 18
_cell_length_a 12.631417
_cell_length_b 7.913762
_cell_length_c 8.524353
_cell_angle_alpha 90.000000
_cell_angle_beta 90.000000
_cell_angle_gamma 90.000000
_cell_volume 852.111612
_symmetry_space_group_name_H-M "P 21 21 2"
_symmetry_group_IT_number 18
_symmetry_cell_setting 'orthorhombic'
loop_
_space_group_symop_operation_xyz
x,y,z
-x,-y,z
1/2+x,1/2-y,-z
1/2-x,1/2+y,-z
loop_
_atom_site_type_symbol
_atom_site_label
_atom_site_fract_x
_atom_site_fract_y
_atom_site_fract_z
Si Si1 0.241498 0.347596 0.704838
Si Si2 0.845508 0.345056 0.562197
Si Si3 0.000000 0.500000 0.331339
Si Si4 0.512743 0.198499 0.196203
Si Si5 0.042447 0.820122 0.136666
O O1 0.223983 0.548951 0.686886
O O2 0.273992 0.285494 0.531539
O O3 0.331874 0.309662 0.832085
O O4 0.134297 0.256676 0.763087
O O5 0.938441 0.247660 0.657168
O O6 0.897394 0.479264 0.441009
O O7 0.982917 0.667269 0.225592
O O8 0.500000 0.000000 0.160396
O O9 0.477481 0.307308 0.047773
O O10 0.000000 0.000000 0.199855
#
# Coordination Sequence:
#
# PCOD8156051 Si02
#       5
#     4   4   2   4   4
#     4  10  23  39  65  96 123 179 216 262 338 381
#     4  10  21  40  67  91 129 173 220 270 324 385
#     4  10  20  44  64  88 134 172 196 286 316 372
#     4  10  21  44  62  89 138 172 215 266 333 391
#     4  11  25  40  65  99 132 167 222 268 318 396
#
# _framework density 21.123995000000001
#
# number of rings (size 3 to 8) (size 9 to 14) (size 15 to 20)
#    0.000    1.778    4.444    0.000    3.111    5.333 
#    0.000    1.111    0.000    0.000    0.000    0.000 
#    0.000    0.000    0.000    0.000    0.000    0.000 
#
# Total GULP energy -223205.161219 kJ/mol
# GULP energy per Si atom -12400.286734 kJ/mol
# Density = 2.107592 g / cm^3
# Si number density = 21.123995 Si / 1000 Ang^3
#
#
#
# Elastic Constant Matrix: (Units=GPa)
#
#
# Indices 1 2 3 4 5 6 
#
# 1 121.6749 18.6627 50.7296 0.0000 0.0000 0.0000
# 2 18.6627 77.1988 22.4956 0.0000 0.0000 0.0000
# 3 50.7296 22.4956 110.6841 0.0000 0.0000 0.0000
# 4 0.0000 0.0000 0.0000 29.2389 0.0000 0.0000
# 5 0.0000 0.0000 0.0000 0.0000 40.6610 0.0000
# 6 0.0000 0.0000 0.0000 0.0000 0.0000 23.9565
#
#
#
# Elastic Compliance Matrix: (Units=1/GPa)
#
#
# Indices 1 2 3 4 5 6 
#
# 1 0.010260 -0.001180 -0.004463 0.000000 0.000000 0.000000
# 2 -0.001180 0.013905 -0.002285 0.000000 0.000000 0.000000
# 3 -0.004463 -0.002285 0.011545 0.000000 0.000000 0.000000
# 4 0.000000 0.000000 0.000000 0.034201 0.000000 0.000000
# 5 0.000000 0.000000 0.000000 0.000000 0.024594 0.000000
# 6 0.000000 0.000000 0.000000 0.000000 0.000000 0.041742
#
#
# Mechanical properties :
#
#
# Convention : Reuss Voigt Hill
#
# Bulk Modulus (GPa) = 50.36839 54.81483 52.59161
# Shear Modulus (GPa) = 31.50199 33.28262 32.39230
#
# Velocity S-wave (km/s) = 3.86591 3.97367 3.92016
# Velocity P-wave (km/s) = 6.61989 6.85994 6.74098
#
# Compressibility (1/GPa) = 0.01985372
#
# Stress axis : x y z
#
# Youngs Moduli (GPa) = 97.46354 71.91802 86.62085
#
# Poissons Ratio (x) = 0.08486 0.38657
# Poissons Ratio (y) = 0.11500 0.19795
# Poissons Ratio (z) = 0.43495 0.16435
#
# Static dielectric constant tensor:
#      x y z
#    x 3.844010 0.000000 0.000000 
#    y 0.000000 3.576160 0.000000 
#    z 0.000000 0.000000 3.807530 
# 
# 
# High freq. dielectric constant tensor:
#      x y z
#    x 1.831170 0.000000 0.000000 
#    y 0.000000 1.809080 0.000000 
#    z 0.000000 0.000000 1.828890 
# 
# From -- ./inp_files/2880.got.cif
#   From: 2010.03.12/outbox.cif.g09.slc.cpg/sg18_2_cif.got.tgz:2880.got - 2010.04.10 18:53:55.
