data_PCOD8156039
_publ_section_title
;
Structure prediction by ZEFSAII (Michael W. Deem and Ramdas Pophale) SiO2 
 PCOD8156039
Probable space group: P 21 21 2
;
_chemical_formula_sum "Si O2"
_cell_formula_units_Z 24
_cell_length_a 14.438829
_cell_length_b 8.029094
_cell_length_c 9.376848
_cell_angle_alpha 90.000000
_cell_angle_beta 90.000000
_cell_angle_gamma 90.000000
_cell_volume 1087.064696
_symmetry_space_group_name_H-M "P 21 21 2"
_symmetry_group_IT_number 18
_symmetry_cell_setting 'orthorhombic'
loop_
_space_group_symop_operation_xyz
x,y,z
-x,-y,z
1/2+x,1/2-y,-z
1/2-x,1/2+y,-z
loop_
_atom_site_type_symbol
_atom_site_label
_atom_site_fract_x
_atom_site_fract_y
_atom_site_fract_z
Si Si1 0.422489 0.128048 0.674031
Si Si2 0.226093 0.370912 0.415318
Si Si3 0.345610 0.645720 0.340067
Si Si4 0.285806 0.157752 0.183843
Si Si5 0.717707 0.714136 0.871870
Si Si6 0.967774 0.311854 0.626786
O O1 0.382340 0.246531 0.798884
O O2 0.456002 0.239797 0.540314
O O3 0.500000 0.000000 0.736297
O O4 0.341834 0.024086 0.599472
O O5 0.329292 0.459148 0.405356
O O6 0.208002 0.285545 0.565998
O O7 0.208600 0.240773 0.286530
O O8 0.294923 0.656607 0.186418
O O9 0.453565 0.684220 0.317390
O O10 0.380578 0.188066 0.269191
O O11 0.255878 0.969880 0.157452
O O12 0.293825 0.260342 0.039016
O O13 0.000000 0.500000 0.626917
#
# Coordination Sequence:
#
# PCOD8156039 Si02
#       6
#     4   4   4   4   4   4
#     4  10  20  41  69  99 130 173 219 271 336 400
#     4  11  22  39  69  92 131 171 221 279 336 410
#     4  11  21  41  69 101 128 174 223 276 342 407
#     4  12  25  44  64  95 133 181 228 284 339 412
#     4  11  23  41  66  92 134 179 228 269 342 406
#     4  11  21  41  69 100 133 171 222 281 342 401
#
# _framework density 22.077804
#
# number of rings (size 3 to 8) (size 9 to 14) (size 15 to 20)
#    0.000    1.000    5.000    5.000    0.000    1.333 
#    3.000    0.833    0.000    0.000    0.000    0.000 
#    0.000    0.000    0.000    0.000    0.000    0.000 
#
# Total GULP energy -297431.022134 kJ/mol
# GULP energy per Si atom -12392.959256 kJ/mol
# Density = 2.202755 g / cm^3
# Si number density = 22.077804 Si / 1000 Ang^3
#
#
#
# Elastic Constant Matrix: (Units=GPa)
#
#
# Indices 1 2 3 4 5 6 
#
# 1 80.5820 31.2792 17.1633 0.0000 0.0000 0.0000
# 2 31.2792 84.5941 23.0590 0.0000 0.0000 0.0000
# 3 17.1633 23.0590 83.7893 0.0000 0.0000 0.0000
# 4 0.0000 0.0000 0.0000 31.6896 0.0000 0.0000
# 5 0.0000 0.0000 0.0000 0.0000 19.8624 0.0000
# 6 0.0000 0.0000 0.0000 0.0000 0.0000 41.3092
#
#
#
# Elastic Compliance Matrix: (Units=1/GPa)
#
#
# Indices 1 2 3 4 5 6 
#
# 1 0.014694 -0.004987 -0.001638 0.000000 0.000000 0.000000
# 2 -0.004987 0.014472 -0.002961 0.000000 0.000000 0.000000
# 3 -0.001638 -0.002961 0.013085 0.000000 0.000000 0.000000
# 4 0.000000 0.000000 0.000000 0.031556 0.000000 0.000000
# 5 0.000000 0.000000 0.000000 0.000000 0.050346 0.000000
# 6 0.000000 0.000000 0.000000 0.000000 0.000000 0.024208
#
#
# Mechanical properties :
#
#
# Convention : Reuss Voigt Hill
#
# Bulk Modulus (GPa) = 43.32732 43.55204 43.43968
# Shear Modulus (GPa) = 28.53448 30.40318 29.46883
#
# Velocity S-wave (km/s) = 3.59897 3.71495 3.65742
# Velocity P-wave (km/s) = 6.07763 6.17823 6.12813
#
# Compressibility (1/GPa) = 0.02308013
#
# Stress axis : x y z
#
# Youngs Moduli (GPa) = 68.05384 69.09750 76.42294
#
# Poissons Ratio (x) = 0.34458 0.12515
# Poissons Ratio (y) = 0.33938 0.22631
# Poissons Ratio (z) = 0.11144 0.20462
#
# Static dielectric constant tensor:
#      x y z
#    x 4.515440 0.000000 0.000000 
#    y 0.000000 4.370390 0.000000 
#    z 0.000000 0.000000 4.081750 
# 
# 
# High freq. dielectric constant tensor:
#      x y z
#    x 1.864960 0.000000 0.000000 
#    y 0.000000 1.879410 0.000000 
#    z 0.000000 0.000000 1.860380 
# 
# From -- ./inp_files/4185.got.cif
#   From: 2010.03.12/outbox.cif.g09.slc.cpg/sg18_3_cif.got.tgz:4185.got - 2010.04.10 18:53:55.
