data_PCOD8156170
_publ_section_title
;
Structure prediction by ZEFSAII (Michael W. Deem and Ramdas Pophale) SiO2 
 PCOD8156170
Probable space group: P 21 21 2
;
_chemical_formula_sum "Si O2"
_cell_formula_units_Z 20
_cell_length_a 9.621253
_cell_length_b 10.686976
_cell_length_c 8.935378
_cell_angle_alpha 90.000000
_cell_angle_beta 90.000000
_cell_angle_gamma 90.000000
_cell_volume 918.754329
_symmetry_space_group_name_H-M "P 21 21 2"
_symmetry_group_IT_number 18
_symmetry_cell_setting 'orthorhombic'
loop_
_space_group_symop_operation_xyz
x,y,z
-x,-y,z
1/2+x,1/2-y,-z
1/2-x,1/2+y,-z
loop_
_atom_site_type_symbol
_atom_site_label
_atom_site_fract_x
_atom_site_fract_y
_atom_site_fract_z
Si Si1 0.826900 0.887153 0.703276
Si Si2 0.064586 0.735154 0.391401
Si Si3 0.159110 0.389715 0.186478
Si Si4 0.080533 0.729162 0.744951
Si Si5 0.500000 0.000000 0.075010
Si Si6 0.500000 0.500000 0.546977
O O1 0.725318 0.775979 0.652934
O O2 0.957285 0.826415 0.793474
O O3 0.733720 0.976862 0.803299
O O4 0.869390 0.971709 0.560813
O O5 0.054416 0.714645 0.568486
O O6 0.963481 0.637052 0.307104
O O7 0.026519 0.878794 0.349897
O O8 0.271490 0.281210 0.202918
O O9 0.091763 0.402631 0.022572
O O10 0.083802 0.592634 0.817306
#
# Coordination Sequence:
#
# PCOD8156170 Si02
#       6
#     4   4   4   4   2   2
#     4  11  21  42  70  95 135 174 223 285 339 391
#     4  11  23  42  74 101 139 168 234 289 345 406
#     4  12  24  47  66 102 136 182 228 287 343 400
#     4  11  26  45  69 101 134 183 232 277 345 412
#     4  12  30  42  70  98 144 190 228 276 346 416
#     4  10  22  36  64 110 128 174 218 286 350 388
#
# _framework density 21.768605000000001
#
# number of rings (size 3 to 8) (size 9 to 14) (size 15 to 20)
#    0.000    0.800    6.000    2.400    5.600    1.600 
#    0.000    0.000    0.000    0.000    0.000    0.000 
#    0.000    0.000    0.000    0.000    0.000    0.000 
#
# Total GULP energy -247856.499247 kJ/mol
# GULP energy per Si atom -12392.824962 kJ/mol
# Density = 2.171906 g / cm^3
# Si number density = 21.768605 Si / 1000 Ang^3
#
#
#
# Elastic Constant Matrix: (Units=GPa)
#
#
# Indices 1 2 3 4 5 6 
#
# 1 128.7341 35.0120 29.2705 0.0000 0.0000 0.0000
# 2 35.0120 101.8711 48.0307 0.0000 0.0000 0.0000
# 3 29.2705 48.0307 66.7649 0.0000 0.0000 0.0000
# 4 0.0000 0.0000 0.0000 26.1332 0.0000 0.0000
# 5 0.0000 0.0000 0.0000 0.0000 7.7795 0.0000
# 6 0.0000 0.0000 0.0000 0.0000 0.0000 52.2905
#
#
#
# Elastic Compliance Matrix: (Units=1/GPa)
#
#
# Indices 1 2 3 4 5 6 
#
# 1 0.008849 -0.001834 -0.002560 0.000000 0.000000 0.000000
# 2 -0.001834 0.015235 -0.010156 0.000000 0.000000 0.000000
# 3 -0.002560 -0.010156 0.023406 0.000000 0.000000 0.000000
# 4 0.000000 0.000000 0.000000 0.038266 0.000000 0.000000
# 5 0.000000 0.000000 0.000000 0.000000 0.128542 0.000000
# 6 0.000000 0.000000 0.000000 0.000000 0.000000 0.019124
#
#
# Mechanical properties :
#
#
# Convention : Reuss Voigt Hill
#
# Bulk Modulus (GPa) = 54.37697 57.99961 56.18829
# Shear Modulus (GPa) = 18.61140 29.57777 24.09459
#
# Velocity S-wave (km/s) = 2.92715 3.69010 3.33055
# Velocity P-wave (km/s) = 6.03805 6.69756 6.37634
#
# Compressibility (1/GPa) = 0.01839014
#
# Stress axis : x y z
#
# Youngs Moduli (GPa) = 113.00879 65.63764 42.72339
#
# Poissons Ratio (x) = 0.12040 0.10936
# Poissons Ratio (y) = 0.20730 0.43390
# Poissons Ratio (z) = 0.28928 0.66661
#
# Static dielectric constant tensor:
#      x y z
#    x 4.270290 0.000000 0.000000 
#    y 0.000000 4.663250 0.000000 
#    z 0.000000 0.000000 3.579450 
# 
# 
# High freq. dielectric constant tensor:
#      x y z
#    x 1.872910 0.000000 0.000000 
#    y 0.000000 1.869630 0.000000 
#    z 0.000000 0.000000 1.817980 
# 
# From -- ./inp_files/2980.got.cif
#   From: 2010.03.12/outbox.cif.g09.slc.cpg/sg18_2_cif.got.tgz:2980.got - 2010.04.10 18:53:55.
