data_PCOD8156654
_publ_section_title
;
Structure prediction by ZEFSAII (Michael W. Deem and Ramdas Pophale) SiO2 
 PCOD8156654
Probable space group: P 21 21 21
;
_chemical_formula_sum "Si O2"
_cell_formula_units_Z 28
_cell_length_a 13.603342
_cell_length_b 13.200623
_cell_length_c 8.412059
_cell_angle_alpha 90.000000
_cell_angle_beta 90.000000
_cell_angle_gamma 90.000000
_cell_volume 1510.575216
_symmetry_space_group_name_H-M "P 21 21 21"
_symmetry_group_IT_number 19
_symmetry_cell_setting 'orthorhombic'
loop_
_space_group_symop_operation_xyz
x,y,z
1/2-x,-y,1/2+z
1/2+x,1/2-y,-z
-x,1/2+y,1/2-z
loop_
_atom_site_type_symbol
_atom_site_label
_atom_site_fract_x
_atom_site_fract_y
_atom_site_fract_z
Si Si1 0.581377 0.803743 0.980357
Si Si2 0.805417 0.310113 0.730781
Si Si3 0.898755 0.609541 0.141630
Si Si4 0.456415 0.298431 0.862599
Si Si5 0.056311 0.909118 0.527843
Si Si6 0.201567 0.610976 0.581605
Si Si7 0.857879 0.993756 0.625934
O O1 0.462963 0.827007 0.989985
O O2 0.608083 0.776871 0.797308
O O3 0.610218 0.714265 0.100515
O O4 0.643036 0.903265 0.024765
O O5 0.715152 0.361227 0.637920
O O6 0.850857 0.387065 0.858799
O O7 0.766616 0.209224 0.817623
O O8 0.945475 0.637713 0.314803
O O9 0.909967 0.490423 0.104488
O O10 0.482705 0.190887 0.939280
O O11 0.398203 0.367041 0.986978
O O12 0.967317 0.949043 0.635922
O O13 0.287849 0.586466 0.459758
O O14 0.180819 0.515848 0.696748
#
# Coordination Sequence:
#
# PCOD8156654 Si02
#       7
#     4   4   4   4   4   4   4
#     4   8  19  37  57  80 117 147 196 236 286 346
#     4  10  20  39  57  86 118 155 195 242 295 352
#     4   9  20  39  60  81 121 155 193 241 288 359
#     4   9  19  39  58  83 115 158 188 245 292 346
#     4  10  21  37  58  84 120 152 197 243 293 354
#     4  10  20  35  60  83 118 146 195 246 293 348
#     4  10  19  36  56  87 111 149 196 243 289 347
#
# _framework density 18.535985
#
# number of rings (size 3 to 8) (size 9 to 14) (size 15 to 20)
#    0.857    1.714    0.000    1.714    0.000    1.143 
#   12.857    0.000    0.000    0.000    0.000    0.000 
#    0.000    0.000    0.000    0.000    0.000    0.000 
#
# Total GULP energy -347024.241664 kJ/mol
# GULP energy per Si atom -12393.722917 kJ/mol
# Density = 1.849380 g / cm^3
# Si number density = 18.535985 Si / 1000 Ang^3
#
#
#
# Elastic Constant Matrix: (Units=GPa)
#
#
# Indices 1 2 3 4 5 6 
#
# 1 94.5183 52.8685 30.4528 0.0000 0.0000 0.0000
# 2 52.8685 82.1201 40.5439 0.0000 0.0000 0.0000
# 3 30.4528 40.5439 82.9235 0.0000 0.0000 0.0000
# 4 0.0000 0.0000 0.0000 27.1214 0.0000 0.0000
# 5 0.0000 0.0000 0.0000 0.0000 30.4893 0.0000
# 6 0.0000 0.0000 0.0000 0.0000 0.0000 20.8370
#
#
#
# Elastic Compliance Matrix: (Units=1/GPa)
#
#
# Indices 1 2 3 4 5 6 
#
# 1 0.016617 -0.010130 -0.001149 0.000000 0.000000 0.000000
# 2 -0.010130 0.022228 -0.007148 0.000000 0.000000 0.000000
# 3 -0.001149 -0.007148 0.015976 0.000000 0.000000 0.000000
# 4 0.000000 0.000000 0.000000 0.036871 0.000000 0.000000
# 5 0.000000 0.000000 0.000000 0.000000 0.032798 0.000000
# 6 0.000000 0.000000 0.000000 0.000000 0.000000 0.047991
#
#
# Mechanical properties :
#
#
# Convention : Reuss Voigt Hill
#
# Bulk Modulus (GPa) = 55.66011 56.36580 56.01296
# Shear Modulus (GPa) = 23.22069 24.73599 23.97834
#
# Velocity S-wave (km/s) = 3.54324 3.65702 3.60058
# Velocity P-wave (km/s) = 6.84344 6.95030 6.89708
#
# Compressibility (1/GPa) = 0.01796619
#
# Stress axis : x y z
#
# Youngs Moduli (GPa) = 60.18089 44.98820 62.59342
#
# Poissons Ratio (x) = 0.45574 0.07194
# Poissons Ratio (y) = 0.60965 0.44740
# Poissons Ratio (z) = 0.06916 0.32156
#
# Static dielectric constant tensor:
#      x y z
#    x 3.159010 0.000000 0.000000 
#    y 0.000000 3.328530 0.000000 
#    z 0.000000 0.000000 3.374580 
# 
# 
# High freq. dielectric constant tensor:
#      x y z
#    x 1.706440 0.000000 0.000000 
#    y 0.000000 1.712750 0.000000 
#    z 0.000000 0.000000 1.713730 
# 
# From -- ./inp_files/3521.got.cif
#   From: 2010.03.12/outbox.cif.g09.slc.cpg/sg19_2_cif.got.tgz:3521.got - 2010.04.10 18:59:41.
