data_PCOD8156047
_publ_section_title
;
Structure prediction by ZEFSAII (Michael W. Deem and Ramdas Pophale) SiO2 
 PCOD8156047
Probable space group: P 21 21 2
;
_chemical_formula_sum "Si O2"
_cell_formula_units_Z 12
_cell_length_a 13.696521
_cell_length_b 4.915480
_cell_length_c 8.296844
_cell_angle_alpha 90.000000
_cell_angle_beta 90.000000
_cell_angle_gamma 90.000000
_cell_volume 558.584815
_symmetry_space_group_name_H-M "P 21 21 2"
_symmetry_group_IT_number 18
_symmetry_cell_setting 'orthorhombic'
loop_
_space_group_symop_operation_xyz
x,y,z
-x,-y,z
1/2+x,1/2-y,-z
1/2-x,1/2+y,-z
loop_
_atom_site_type_symbol
_atom_site_label
_atom_site_fract_x
_atom_site_fract_y
_atom_site_fract_z
Si Si1 0.064326 0.767876 0.184930
Si Si2 0.688389 0.888874 0.537690
Si Si3 0.000000 0.500000 0.668009
Si Si4 0.000000 0.000000 0.881802
O O1 0.164538 0.710963 0.280376
O O2 0.000000 0.500000 0.171621
O O3 0.000000 0.000000 0.277865
O O4 0.085457 0.882395 0.002290
O O5 0.762888 0.683841 0.452006
O O6 0.587735 0.894093 0.440933
O O7 0.960135 0.752116 0.774016
#
# Coordination Sequence:
#
# PCOD8156047 Si02
#       4
#     4   4   2   2
#     4  10  20  42  69  91 131 180 214 262 351 386
#     4  12  26  42  71 103 132 179 231 275 329 402
#     4  12  24  44  70 102 134 170 230 288 320 396
#     4  10  22  40  74  94 128 186 208 278 354 384
#
# _framework density 21.482859999999999
#
# number of rings (size 3 to 8) (size 9 to 14) (size 15 to 20)
#    1.000    0.000    3.333    4.000    2.333    0.000 
#    0.000    6.667    0.000    0.000    0.000    0.000 
#    0.000    0.000    0.000    0.000    0.000    0.000 
#
# Total GULP energy -148713.649817 kJ/mol
# GULP energy per Si atom -12392.804151 kJ/mol
# Density = 2.143396 g / cm^3
# Si number density = 21.482860 Si / 1000 Ang^3
#
#
#
# Elastic Constant Matrix: (Units=GPa)
#
#
# Indices 1 2 3 4 5 6 
#
# 1 80.4703 22.2273 32.7010 0.0000 0.0000 0.0000
# 2 22.2273 131.9608 31.5966 0.0000 0.0000 0.0000
# 3 32.7010 31.5966 97.4665 0.0000 0.0000 0.0000
# 4 0.0000 0.0000 0.0000 14.2038 0.0000 0.0000
# 5 0.0000 0.0000 0.0000 0.0000 6.3885 0.0000
# 6 0.0000 0.0000 0.0000 0.0000 0.0000 39.5635
#
#
#
# Elastic Compliance Matrix: (Units=1/GPa)
#
#
# Indices 1 2 3 4 5 6 
#
# 1 0.014622 -0.001397 -0.004453 0.000000 0.000000 0.000000
# 2 -0.001397 0.008349 -0.002238 0.000000 0.000000 0.000000
# 3 -0.004453 -0.002238 0.012480 0.000000 0.000000 0.000000
# 4 0.000000 0.000000 0.000000 0.070403 0.000000 0.000000
# 5 0.000000 0.000000 0.000000 0.000000 0.156531 0.000000
# 6 0.000000 0.000000 0.000000 0.000000 0.000000 0.025276
#
#
# Mechanical properties :
#
#
# Convention : Reuss Voigt Hill
#
# Bulk Modulus (GPa) = 51.87991 53.66082 52.77036
# Shear Modulus (GPa) = 16.11540 26.92267 21.51904
#
# Velocity S-wave (km/s) = 2.74186 3.54392 3.16837
# Velocity P-wave (km/s) = 5.85027 6.46363 6.16458
#
# Compressibility (1/GPa) = 0.01927528
#
# Stress axis : x y z
#
# Youngs Moduli (GPa) = 68.38823 119.77289 80.13117
#
# Poissons Ratio (x) = 0.16729 0.35684
# Poissons Ratio (y) = 0.09552 0.17933
# Poissons Ratio (z) = 0.30455 0.26805
#
# Static dielectric constant tensor:
#      x y z
#    x 3.769600 0.000000 0.000000 
#    y 0.000000 4.583090 0.000000 
#    z 0.000000 0.000000 4.054040 
# 
# 
# High freq. dielectric constant tensor:
#      x y z
#    x 1.791220 0.000000 0.000000 
#    y 0.000000 1.877560 0.000000 
#    z 0.000000 0.000000 1.845740 
# 
# From -- ./inp_files/2352.got.cif
#   From: 2010.03.12/outbox.cif.g09.slc.cpg/sg18_2_cif.got.tgz:2352.got - 2010.04.10 18:53:55.
