data_PCOD8156314
_publ_section_title
;
Structure prediction by ZEFSAII (Michael W. Deem and Ramdas Pophale) SiO2 
 PCOD8156314
Probable space group: P 21 21 2
;
_chemical_formula_sum "Si O2"
_cell_formula_units_Z 22
_cell_length_a 9.597491
_cell_length_b 7.630208
_cell_length_c 13.489377
_cell_angle_alpha 90.000000
_cell_angle_beta 90.000000
_cell_angle_gamma 90.000000
_cell_volume 987.838579
_symmetry_space_group_name_H-M "P 21 21 2"
_symmetry_group_IT_number 18
_symmetry_cell_setting 'orthorhombic'
loop_
_space_group_symop_operation_xyz
x,y,z
-x,-y,z
1/2+x,1/2-y,-z
1/2-x,1/2+y,-z
loop_
_atom_site_type_symbol
_atom_site_label
_atom_site_fract_x
_atom_site_fract_y
_atom_site_fract_z
Si Si1 0.808594 0.156264 0.048290
Si Si2 0.891050 0.768214 0.105363
Si Si3 0.529098 0.703771 0.377705
Si Si4 0.692966 0.118077 0.701389
Si Si5 0.000000 0.500000 0.464404
Si Si6 0.380093 0.635361 0.189607
O O1 0.675596 0.241134 0.103683
O O2 0.955158 0.264562 0.056163
O O3 0.840107 0.965974 0.089996
O O4 0.738017 0.148875 0.938442
O O5 0.905737 0.731549 0.224264
O O6 0.500000 0.500000 0.406037
O O7 0.687615 0.739569 0.345214
O O8 0.438285 0.752504 0.280962
O O9 0.498895 0.825082 0.470645
O O10 0.628857 0.017810 0.608348
O O11 0.748106 0.966003 0.770551
O O12 0.500000 0.500000 0.149126
#
# Coordination Sequence:
#
# PCOD8156314 Si02
#       6
#     4   4   4   4   2   4
#     4  11  25  43  72 100 144 186 232 294 354 436
#     4  11  26  44  66 108 139 189 238 287 360 429
#     4   9  24  43  65 102 134 180 232 290 348 419
#     4  10  23  43  64  99 134 172 235 285 344 423
#     4  12  24  42  74  90 140 184 226 288 360 410
#     4   9  21  44  68  93 138 174 231 294 347 422
#
# _framework density 22.270845000000001
#
# number of rings (size 3 to 8) (size 9 to 14) (size 15 to 20)
#    0.000    2.182    0.000    2.182   15.273    2.182 
#    6.545    0.000    0.000    0.000    0.000    0.000 
#    0.000    0.000    0.000    0.000    0.000    0.000 
#
# Total GULP energy -272545.061794 kJ/mol
# GULP energy per Si atom -12388.411900 kJ/mol
# Density = 2.222016 g / cm^3
# Si number density = 22.270845 Si / 1000 Ang^3
#
#
#
# Elastic Constant Matrix: (Units=GPa)
#
#
# Indices 1 2 3 4 5 6 
#
# 1 129.2187 34.1221 56.0304 0.0000 0.0000 0.0000
# 2 34.1221 56.3595 32.6914 0.0000 0.0000 0.0000
# 3 56.0304 32.6914 95.6781 0.0000 0.0000 0.0000
# 4 0.0000 0.0000 0.0000 -147.7722 0.0000 0.0000
# 5 0.0000 0.0000 0.0000 0.0000 -76.4844 0.0000
# 6 0.0000 0.0000 0.0000 0.0000 0.0000 21.7962
#
#
#
# Elastic Compliance Matrix: (Units=1/GPa)
#
#
# Indices 1 2 3 4 5 6 
#
# 1 0.010936 -0.003625 -0.005166 0.000000 0.000000 0.000000
# 2 -0.003625 0.023330 -0.005849 0.000000 0.000000 0.000000
# 3 -0.005166 -0.005849 0.015475 0.000000 0.000000 0.000000
# 4 0.000000 0.000000 0.000000 -0.006767 0.000000 0.000000
# 5 0.000000 0.000000 0.000000 0.000000 -0.013075 0.000000
# 6 0.000000 0.000000 0.000000 0.000000 0.000000 0.045880
#
#
# Mechanical properties :
#
#
# Convention : Reuss Voigt Hill
#
# Bulk Modulus (GPa) = 48.86861 58.54934 53.70898
# Shear Modulus (GPa) = 44.69113 -29.93128 7.37992
#
# Velocity S-wave (km/s) = 4.48449 -3.66999 1.82234
# Velocity P-wave (km/s) = 6.98604 2.89626 5.34757
#
# Compressibility (1/GPa) = 0.02046303
#
# Stress axis : x y z
#
# Youngs Moduli (GPa) = 91.44239 42.86254 64.61897
#
# Poissons Ratio (x) = 0.15536 0.33381
# Poissons Ratio (y) = 0.33144 0.37795
# Poissons Ratio (z) = 0.47237 0.25070
#
# Static dielectric constant tensor:
#      x y z
#    x 4.450260 0.000000 0.000000 
#    y 0.000000 3.735130 0.000000 
#    z 0.000000 0.000000 4.198880 
# 
# 
# High freq. dielectric constant tensor:
#      x y z
#    x 1.890800 0.000000 0.000000 
#    y 0.000000 1.853070 0.000000 
#    z 0.000000 0.000000 1.887620 
# 
# From -- ./inp_files/6618.got.cif
#   From: 2010.03.12/outbox.cif.g09.slc.cpg/sg18_4_cif.got.tgz:6618.got - 2010.04.10 18:53:55.
