data_PCOD8156201
_publ_section_title
;
Structure prediction by ZEFSAII (Michael W. Deem and Ramdas Pophale) SiO2 
 PCOD8156201
Probable space group: P 21 21 2
;
_chemical_formula_sum "Si O2"
_cell_formula_units_Z 18
_cell_length_a 8.792989
_cell_length_b 8.865438
_cell_length_c 10.928963
_cell_angle_alpha 90.000000
_cell_angle_beta 90.000000
_cell_angle_gamma 90.000000
_cell_volume 851.953090
_symmetry_space_group_name_H-M "P 21 21 2"
_symmetry_group_IT_number 18
_symmetry_cell_setting 'orthorhombic'
loop_
_space_group_symop_operation_xyz
x,y,z
-x,-y,z
1/2+x,1/2-y,-z
1/2-x,1/2+y,-z
loop_
_atom_site_type_symbol
_atom_site_label
_atom_site_fract_x
_atom_site_fract_y
_atom_site_fract_z
Si Si1 0.768390 0.629294 0.744827
Si Si2 0.489638 0.176231 0.446638
Si Si3 0.500000 0.000000 0.074886
Si Si4 0.161472 0.165026 0.347037
Si Si5 0.987821 0.333686 0.159682
O O1 0.891438 0.713878 0.660880
O O2 0.852042 0.517718 0.840594
O O3 0.660572 0.517053 0.665658
O O4 0.673065 0.758227 0.809695
O O5 0.322483 0.222182 0.400059
O O6 0.526104 0.278485 0.564219
O O7 0.500000 0.000000 0.481504
O O8 0.492551 0.149568 0.988354
O O9 0.127577 0.235816 0.212872
O O10 0.000000 0.500000 0.220568
#
# Coordination Sequence:
#
# PCOD8156201 Si02
#       5
#     4   4   2   4   4
#     4  11  22  46  68  98 137 183 227 284 347 406
#     4  10  22  39  68  94 143 173 230 281 350 411
#     4  10  24  42  70  96 136 186 226 292 330 418
#     4  11  21  41  67 103 131 184 222 288 345 415
#     4  10  25  40  67  96 137 171 236 273 341 401
#
# _framework density 21.127925000000001
#
# number of rings (size 3 to 8) (size 9 to 14) (size 15 to 20)
#    0.667    0.889    3.333    2.667    3.111    3.556 
#    0.000    5.556    0.000    0.000    0.000    0.000 
#    0.000    0.000    0.000    0.000    0.000    0.000 
#
# Total GULP energy -223143.775674 kJ/mol
# GULP energy per Si atom -12396.876426 kJ/mol
# Density = 2.107984 g / cm^3
# Si number density = 21.127925 Si / 1000 Ang^3
#
#
#
# Elastic Constant Matrix: (Units=GPa)
#
#
# Indices 1 2 3 4 5 6 
#
# 1 80.3702 38.1676 19.6152 0.0000 0.0000 0.0000
# 2 38.1676 75.2166 24.9291 0.0000 0.0000 0.0000
# 3 19.6152 24.9291 91.1749 0.0000 0.0000 0.0000
# 4 0.0000 0.0000 0.0000 34.4207 0.0000 0.0000
# 5 0.0000 0.0000 0.0000 0.0000 32.6917 0.0000
# 6 0.0000 0.0000 0.0000 0.0000 0.0000 44.1669
#
#
#
# Elastic Compliance Matrix: (Units=1/GPa)
#
#
# Indices 1 2 3 4 5 6 
#
# 1 0.016552 -0.007938 -0.001390 0.000000 0.000000 0.000000
# 2 -0.007938 0.018427 -0.003330 0.000000 0.000000 0.000000
# 3 -0.001390 -0.003330 0.012178 0.000000 0.000000 0.000000
# 4 0.000000 0.000000 0.000000 0.029052 0.000000 0.000000
# 5 0.000000 0.000000 0.000000 0.000000 0.030589 0.000000
# 6 0.000000 0.000000 0.000000 0.000000 0.000000 0.022641
#
#
# Mechanical properties :
#
#
# Convention : Reuss Voigt Hill
#
# Bulk Modulus (GPa) = 45.79150 45.79839 45.79494
# Shear Modulus (GPa) = 30.85737 33.19250 32.02494
#
# Velocity S-wave (km/s) = 3.82580 3.96792 3.89750
# Velocity P-wave (km/s) = 6.42154 6.53577 6.47890
#
# Compressibility (1/GPa) = 0.02183811
#
# Stress axis : x y z
#
# Youngs Moduli (GPa) = 60.41744 54.26877 82.11735
#
# Poissons Ratio (x) = 0.43079 0.11418
# Poissons Ratio (y) = 0.47959 0.27349
# Poissons Ratio (z) = 0.08401 0.18074
#
# Static dielectric constant tensor:
#      x y z
#    x 3.792190 0.000000 0.000000 
#    y 0.000000 3.548930 0.000000 
#    z 0.000000 0.000000 3.853480 
# 
# 
# High freq. dielectric constant tensor:
#      x y z
#    x 1.837570 0.000000 0.000000 
#    y 0.000000 1.811600 0.000000 
#    z 0.000000 0.000000 1.829710 
# 
# From -- ./inp_files/5371.got.cif
#   From: 2010.03.12/outbox.cif.g09.slc.cpg/sg18_3_cif.got.tgz:5371.got - 2010.04.10 18:53:55.
