data_PCOD8156070
_publ_section_title
;
Structure prediction by ZEFSAII (Michael W. Deem and Ramdas Pophale) SiO2 
 PCOD8156070
Probable space group: P 21 21 2
;
_chemical_formula_sum "Si O2"
_cell_formula_units_Z 30
_cell_length_a 8.355539
_cell_length_b 27.243193
_cell_length_c 6.449646
_cell_angle_alpha 90.000000
_cell_angle_beta 90.000000
_cell_angle_gamma 90.000000
_cell_volume 1468.142991
_symmetry_space_group_name_H-M "P 21 21 2"
_symmetry_group_IT_number 18
_symmetry_cell_setting 'orthorhombic'
loop_
_space_group_symop_operation_xyz
x,y,z
-x,-y,z
1/2+x,1/2-y,-z
1/2-x,1/2+y,-z
loop_
_atom_site_type_symbol
_atom_site_label
_atom_site_fract_x
_atom_site_fract_y
_atom_site_fract_z
Si Si1 0.758778 0.808320 0.168940
Si Si2 0.924455 0.326480 0.442928
Si Si3 0.587139 0.887484 0.943120
Si Si4 0.186767 0.347771 0.778661
Si Si5 0.597180 0.560769 0.746549
Si Si6 0.000000 0.000000 0.631019
Si Si7 0.409094 0.260305 0.876178
Si Si8 0.298582 0.527272 0.991454
O O1 0.731750 0.817415 0.413442
O O2 0.934491 0.792915 0.102982
O O3 0.731922 0.859029 0.052013
O O4 0.625621 0.769106 0.088454
O O5 0.904079 0.374728 0.300732
O O6 0.942888 0.277524 0.308811
O O7 0.080799 0.337654 0.577446
O O8 0.628357 0.944553 0.988728
O O9 0.416265 0.871212 0.034752
O O10 0.330083 0.385143 0.729926
O O11 0.257538 0.295308 0.841266
O O12 0.558575 0.544916 0.511909
O O13 0.435147 0.560684 0.881978
O O14 0.721776 0.522474 0.855922
O O15 0.148501 0.016007 0.773700
#
# Coordination Sequence:
#
# PCOD8156070 Si02
#       8
#     4   4   4   4   4   2   4   4
#     4  10  21  37  57  81 109 146 187 230 283 336
#     4  10  22  37  55  83 114 147 190 235 285 342
#     4  10  22  38  55  82 115 149 187 233 283 341
#     4  11  23  38  57  84 117 152 195 239 291 349
#     4   9  20  38  61  87 113 151 193 236 286 348
#     4   8  18  36  60  86 110 144 192 234 284 344
#     4  11  21  38  59  81 113 149 189 240 289 342
#     4   9  19  38  60  82 114 149 190 236 287 343
#
# _framework density 20.433978
#
# number of rings (size 3 to 8) (size 9 to 14) (size 15 to 20)
#    0.000    2.400    0.000    4.000    0.000    9.067 
#    0.000    1.333    0.000    0.000    0.000    0.000 
#    0.000    0.000    0.000    0.000    0.000    0.000 
#
# Total GULP energy -371877.083091 kJ/mol
# GULP energy per Si atom -12395.902770 kJ/mol
# Density = 2.038747 g / cm^3
# Si number density = 20.433978 Si / 1000 Ang^3
#
#
#
# Elastic Constant Matrix: (Units=GPa)
#
#
# Indices 1 2 3 4 5 6 
#
# 1 46.3108 4.0452 9.7085 0.0000 0.0000 0.0000
# 2 4.0452 70.7272 12.1202 0.0000 0.0000 0.0000
# 3 9.7085 12.1202 110.8774 0.0000 0.0000 0.0000
# 4 0.0000 0.0000 0.0000 18.2193 0.0000 0.0000
# 5 0.0000 0.0000 0.0000 0.0000 12.0915 0.0000
# 6 0.0000 0.0000 0.0000 0.0000 0.0000 50.7586
#
#
#
# Elastic Compliance Matrix: (Units=1/GPa)
#
#
# Indices 1 2 3 4 5 6 
#
# 1 0.022059 -0.000948 -0.001828 0.000000 0.000000 0.000000
# 2 -0.000948 0.014450 -0.001496 0.000000 0.000000 0.000000
# 3 -0.001828 -0.001496 0.009343 0.000000 0.000000 0.000000
# 4 0.000000 0.000000 0.000000 0.054887 0.000000 0.000000
# 5 0.000000 0.000000 0.000000 0.000000 0.082703 0.000000
# 6 0.000000 0.000000 0.000000 0.000000 0.000000 0.019701
#
#
# Mechanical properties :
#
#
# Convention : Reuss Voigt Hill
#
# Bulk Modulus (GPa) = 26.80542 31.07370 28.93956
# Shear Modulus (GPa) = 22.30919 29.68330 25.99624
#
# Velocity S-wave (km/s) = 3.30778 3.81549 3.57067
# Velocity P-wave (km/s) = 5.26641 5.88647 5.58505
#
# Compressibility (1/GPa) = 0.03730589
#
# Stress axis : x y z
#
# Youngs Moduli (GPa) = 45.33238 69.20647 107.03658
#
# Poissons Ratio (x) = 0.06564 0.19565
# Poissons Ratio (y) = 0.04300 0.16018
# Poissons Ratio (z) = 0.08286 0.10356
#
# Static dielectric constant tensor:
#      x y z
#    x 3.477330 0.000000 0.000000 
#    y 0.000000 3.731920 0.000000 
#    z 0.000000 0.000000 3.743230 
# 
# 
# High freq. dielectric constant tensor:
#      x y z
#    x 1.786390 0.000000 0.000000 
#    y 0.000000 1.801290 0.000000 
#    z 0.000000 0.000000 1.801260 
# 
# From -- ./inp_files/768.got.cif
#   From: 2010.03.12/outbox.cif.g09.slc.cpg/sg18_1_cif.got.tgz:768.got - 2010.04.10 18:53:55.
