data_PCOD8156808
_publ_section_title
;
Structure prediction by ZEFSAII (Michael W. Deem and Ramdas Pophale) SiO2 
 PCOD8156808
Probable space group: P 21 21 21
;
_chemical_formula_sum "Si O2"
_cell_formula_units_Z 28
_cell_length_a 9.982326
_cell_length_b 5.271765
_cell_length_c 24.483606
_cell_angle_alpha 90.000000
_cell_angle_beta 90.000000
_cell_angle_gamma 90.000000
_cell_volume 1288.436957
_symmetry_space_group_name_H-M "P 21 21 21"
_symmetry_group_IT_number 19
_symmetry_cell_setting 'orthorhombic'
loop_
_space_group_symop_operation_xyz
x,y,z
1/2-x,-y,1/2+z
1/2+x,1/2-y,-z
-x,1/2+y,1/2-z
loop_
_atom_site_type_symbol
_atom_site_label
_atom_site_fract_x
_atom_site_fract_y
_atom_site_fract_z
Si Si1 0.329546 0.796393 0.481816
Si Si2 0.044680 0.830917 0.776290
Si Si3 0.146300 0.421505 0.422523
Si Si4 0.950612 0.139694 0.181755
Si Si5 0.586926 0.688863 0.101637
Si Si6 0.157836 0.137941 0.268444
Si Si7 0.564220 0.465811 0.494204
O O1 0.227221 0.573824 0.467971
O O2 0.463739 0.697733 0.513297
O O3 0.389961 0.918909 0.426906
O O4 0.224790 0.979101 0.514646
O O5 0.010595 0.837140 0.840919
O O6 0.189942 0.939979 0.763906
O O7 0.044398 0.542422 0.753945
O O8 0.051923 0.590153 0.383355
O O9 0.263147 0.291768 0.385890
O O10 0.050514 0.230436 0.455724
O O11 0.905460 0.428866 0.190951
O O12 0.098046 0.107417 0.207343
O O13 0.859189 0.925125 0.210462
O O14 0.496316 0.864418 0.062434
#
# Coordination Sequence:
#
# PCOD8156808 Si02
#       7
#     4   4   4   4   4   4   4
#     4  10  21  40  68  93 135 172 223 273 334 406
#     4  12  26  42  68  96 132 179 228 270 330 410
#     4  10  20  37  67  99 121 175 217 271 334 403
#     4  10  20  37  70  91 130 160 222 278 324 387
#     4  10  22  41  67  90 132 176 223 270 334 402
#     4  10  21  40  62  98 123 171 217 275 328 382
#     4  10  22  39  66 101 127 177 222 277 336 412
#
# _framework density 21.731757999999999
#
# number of rings (size 3 to 8) (size 9 to 14) (size 15 to 20)
#    0.000    1.714    1.429    2.571    6.000    0.000 
#    0.000    7.143    6.286    0.000    0.000    0.000 
#    0.000    0.000    0.000    0.000    0.000    0.000 
#
# Total GULP energy -346886.713544 kJ/mol
# GULP energy per Si atom -12388.811198 kJ/mol
# Density = 2.168230 g / cm^3
# Si number density = 21.731758 Si / 1000 Ang^3
#
#
#
# Elastic Constant Matrix: (Units=GPa)
#
#
# Indices 1 2 3 4 5 6 
#
# 1 68.1066 15.3143 45.6909 0.0000 0.0000 0.0000
# 2 15.3143 83.1009 14.9925 0.0000 0.0000 0.0000
# 3 45.6909 14.9925 91.6027 0.0000 0.0000 0.0000
# 4 0.0000 0.0000 0.0000 28.4332 0.0000 0.0000
# 5 0.0000 0.0000 0.0000 0.0000 30.7341 0.0000
# 6 0.0000 0.0000 0.0000 0.0000 0.0000 34.7959
#
#
#
# Elastic Compliance Matrix: (Units=1/GPa)
#
#
# Indices 1 2 3 4 5 6 
#
# 1 0.022444 -0.002181 -0.010838 0.000000 0.000000 0.000000
# 2 -0.002181 0.012612 -0.000976 0.000000 0.000000 0.000000
# 3 -0.010838 -0.000976 0.016483 0.000000 0.000000 0.000000
# 4 0.000000 0.000000 0.000000 0.035170 0.000000 0.000000
# 5 0.000000 0.000000 0.000000 0.000000 0.032537 0.000000
# 6 0.000000 0.000000 0.000000 0.000000 0.000000 0.028739
#
#
# Mechanical properties :
#
#
# Convention : Reuss Voigt Hill
#
# Bulk Modulus (GPa) = 42.46685 43.86728 43.16706
# Shear Modulus (GPa) = 27.19985 29.91347 28.55666
#
# Velocity S-wave (km/s) = 3.54166 3.71413 3.62892
# Velocity P-wave (km/s) = 6.02563 6.21471 6.12090
#
# Compressibility (1/GPa) = 0.02354778
#
# Stress axis : x y z
#
# Youngs Moduli (GPa) = 44.55486 79.29206 60.67037
#
# Poissons Ratio (x) = 0.17292 0.65755
# Poissons Ratio (y) = 0.09716 0.05924
# Poissons Ratio (z) = 0.48289 0.07742
#
# Static dielectric constant tensor:
#      x y z
#    x 4.094830 0.000000 0.000000 
#    y 0.000000 4.111880 0.000000 
#    z 0.000000 0.000000 3.679430 
# 
# 
# High freq. dielectric constant tensor:
#      x y z
#    x 1.845730 0.000000 0.000000 
#    y 0.000000 1.871150 0.000000 
#    z 0.000000 0.000000 1.833430 
# 
# From -- ./inp_files/2137.got.cif
#   From: 2010.03.12/outbox.cif.g09.slc.cpg/sg19_2_cif.got.tgz:2137.got - 2010.04.10 18:59:41.
