data_PCOD8156962
_publ_section_title
;
Structure prediction by ZEFSAII (Michael W. Deem and Ramdas Pophale) SiO2 
 PCOD8156962
Probable space group: P 21 21 21
;
_chemical_formula_sum "Si O2"
_cell_formula_units_Z 32
_cell_length_a 11.018306
_cell_length_b 21.651877
_cell_length_c 6.842176
_cell_angle_alpha 90.000000
_cell_angle_beta 90.000000
_cell_angle_gamma 90.000000
_cell_volume 1632.317445
_symmetry_space_group_name_H-M "P 21 21 21"
_symmetry_group_IT_number 19
_symmetry_cell_setting 'orthorhombic'
loop_
_space_group_symop_operation_xyz
x,y,z
1/2-x,-y,1/2+z
1/2+x,1/2-y,-z
-x,1/2+y,1/2-z
loop_
_atom_site_type_symbol
_atom_site_label
_atom_site_fract_x
_atom_site_fract_y
_atom_site_fract_z
Si Si1 0.494189 0.565919 0.538325
Si Si2 0.152696 0.447781 0.650236
Si Si3 0.583674 0.967507 0.690228
Si Si4 0.360131 0.275149 0.252022
Si Si5 0.636769 0.148404 0.664473
Si Si6 0.069158 0.761605 0.167826
Si Si7 0.023468 0.160477 0.050285
Si Si8 0.303455 0.165722 0.983668
O O1 0.443822 0.562759 0.320738
O O2 0.622195 0.601863 0.533738
O O3 0.505672 0.498890 0.646226
O O4 0.394355 0.600473 0.666762
O O5 0.082913 0.496599 0.514311
O O6 0.184458 0.385599 0.529759
O O7 0.279524 0.472037 0.730297
O O8 0.539242 0.898746 0.646961
O O9 0.231092 0.307367 0.227389
O O10 0.380790 0.274085 0.482657
O O11 0.460691 0.318741 0.151849
O O12 0.354737 0.206025 0.164758
O O13 0.518571 0.184749 0.593622
O O14 0.989436 0.715831 0.298041
O O15 0.179992 0.791615 0.290797
O O16 0.164075 0.147036 0.008223
#
# Coordination Sequence:
#
# PCOD8156962 Si02
#       8
#     4   4   4   4   4   4   4   4
#     4  10  22  42  63  85 125 166 203 258 311 361
#     4  11  21  38  63  89 118 156 207 262 309 360
#     4  11  23  39  63  92 120 156 214 258 308 365
#     4  11  22  37  65  94 125 163 201 254 314 372
#     4  10  21  37  62  92 120 158 205 248 307 371
#     4  10  22  40  62  93 124 164 201 245 313 383
#     4  11  24  40  61  94 127 160 208 259 305 375
#     4  10  23  43  61  89 133 163 203 256 313 379
#
# _framework density 19.604030000000002
#
# number of rings (size 3 to 8) (size 9 to 14) (size 15 to 20)
#    0.000    1.500    2.500    2.250    3.500    2.000 
#    2.250    0.000    0.000    0.000    0.000    0.000 
#    0.000    0.000    0.000    0.000    0.000    0.000 
#
# Total GULP energy -396812.266095 kJ/mol
# GULP energy per Si atom -12400.383315 kJ/mol
# Density = 1.955941 g / cm^3
# Si number density = 19.604030 Si / 1000 Ang^3
#
#
#
# Elastic Constant Matrix: (Units=GPa)
#
#
# Indices 1 2 3 4 5 6 
#
# 1 80.0291 12.7678 25.2551 0.0000 0.0000 0.0000
# 2 12.7678 73.0774 22.6094 0.0000 0.0000 0.0000
# 3 25.2551 22.6094 108.7124 0.0000 0.0000 0.0000
# 4 0.0000 0.0000 0.0000 29.9800 0.0000 0.0000
# 5 0.0000 0.0000 0.0000 0.0000 18.1515 0.0000
# 6 0.0000 0.0000 0.0000 0.0000 0.0000 28.9792
#
#
#
# Elastic Compliance Matrix: (Units=1/GPa)
#
#
# Indices 1 2 3 4 5 6 
#
# 1 0.013636 -0.001499 -0.002856 0.000000 0.000000 0.000000
# 2 -0.001499 0.014790 -0.002728 0.000000 0.000000 0.000000
# 3 -0.002856 -0.002728 0.010429 0.000000 0.000000 0.000000
# 4 0.000000 0.000000 0.000000 0.033356 0.000000 0.000000
# 5 0.000000 0.000000 0.000000 0.000000 0.055092 0.000000
# 6 0.000000 0.000000 0.000000 0.000000 0.000000 0.034507
#
#
# Mechanical properties :
#
#
# Convention : Reuss Voigt Hill
#
# Bulk Modulus (GPa) = 40.50218 42.56482 41.53350
# Shear Modulus (GPa) = 27.14361 28.83457 27.98909
#
# Velocity S-wave (km/s) = 3.72505 3.83933 3.78262
# Velocity P-wave (km/s) = 6.26149 6.43532 6.34900
#
# Compressibility (1/GPa) = 0.02469003
#
# Stress axis : x y z
#
# Youngs Moduli (GPa) = 73.33600 67.61363 95.88306
#
# Poissons Ratio (x) = 0.10134 0.27385
# Poissons Ratio (y) = 0.10991 0.26154
# Poissons Ratio (z) = 0.20945 0.18443
#
# Static dielectric constant tensor:
#      x y z
#    x 3.321510 0.000000 0.000000 
#    y 0.000000 3.726230 0.000000 
#    z 0.000000 0.000000 3.646530 
# 
# 
# High freq. dielectric constant tensor:
#      x y z
#    x 1.750200 0.000000 0.000000 
#    y 0.000000 1.770430 0.000000 
#    z 0.000000 0.000000 1.774690 
# 
# From -- ./inp_files/1250.got.cif
#   From: 2010.03.12/outbox.cif.g09.slc.cpg/sg19_1_cif.got.tgz:1250.got - 2010.04.10 18:59:41.
