data_PCOD8156613
_publ_section_title
;
Structure prediction by ZEFSAII (Michael W. Deem and Ramdas Pophale) SiO2 
 PCOD8156613
Probable space group: P 21 21 21
;
_chemical_formula_sum "Si O2"
_cell_formula_units_Z 28
_cell_length_a 25.445615
_cell_length_b 12.245485
_cell_length_c 5.148955
_cell_angle_alpha 90.000000
_cell_angle_beta 90.000000
_cell_angle_gamma 90.000000
_cell_volume 1604.382953
_symmetry_space_group_name_H-M "P 21 21 21"
_symmetry_group_IT_number 19
_symmetry_cell_setting 'orthorhombic'
loop_
_space_group_symop_operation_xyz
x,y,z
1/2-x,-y,1/2+z
1/2+x,1/2-y,-z
-x,1/2+y,1/2-z
loop_
_atom_site_type_symbol
_atom_site_label
_atom_site_fract_x
_atom_site_fract_y
_atom_site_fract_z
Si Si1 0.536282 0.295079 0.000369
Si Si2 0.828569 0.184807 0.872049
Si Si3 0.037916 0.948838 0.008988
Si Si4 0.929967 0.323959 0.981665
Si Si5 0.932402 0.827347 0.001847
Si Si6 0.777639 0.131231 0.363090
Si Si7 0.671095 0.042093 0.553348
O O1 0.474898 0.268031 0.038660
O O2 0.569925 0.232259 0.221884
O O3 0.545638 0.422867 0.004731
O O4 0.553964 0.261889 0.715087
O O5 0.874518 0.265308 0.953705
O O6 0.804851 0.205029 0.586871
O O7 0.847900 0.058198 0.870444
O O8 0.783158 0.198218 0.092759
O O9 0.066306 0.893283 0.254586
O O10 0.976007 0.922404 0.004898
O O11 0.066203 0.906674 0.753856
O O12 0.877421 0.877899 0.091362
O O13 0.716944 0.112384 0.420867
O O14 0.806841 0.012253 0.323173
#
# Coordination Sequence:
#
# PCOD8156613 Si02
#       7
#     4   4   4   4   4   4   4
#     4  10  21  36  49  80 103 138 181 214 254 323
#     4  10  19  32  50  80 103 138 168 211 260 321
#     4  10  20  37  51  76 108 140 171 226 245 314
#     4  10  20  34  55  75 105 139 180 210 267 306
#     4  10  22  32  56  76 105 143 174 204 275 311
#     4  10  20  31  52  77 114 133 169 212 275 310
#     4  10  20  34  51  80 114 135 165 221 264 329
#
# _framework density 17.452190999999999
#
# number of rings (size 3 to 8) (size 9 to 14) (size 15 to 20)
#    0.857    1.143    1.429    2.571    2.000    0.000 
#    2.571    0.000    0.000    0.000    0.000   20.000 
#    0.000    0.000    0.000    0.000    0.000    0.000 
#
# Total GULP energy -346988.275609 kJ/mol
# GULP energy per Si atom -12392.438415 kJ/mol
# Density = 1.741247 g / cm^3
# Si number density = 17.452191 Si / 1000 Ang^3
#
#
#
# Elastic Constant Matrix: (Units=GPa)
#
#
# Indices 1 2 3 4 5 6 
#
# 1 75.5350 18.0032 7.9725 0.0000 0.0000 0.0000
# 2 18.0032 50.2173 1.9050 0.0000 0.0000 0.0000
# 3 7.9725 1.9050 101.9271 0.0000 0.0000 0.0000
# 4 0.0000 0.0000 0.0000 14.6243 0.0000 0.0000
# 5 0.0000 0.0000 0.0000 0.0000 22.2883 0.0000
# 6 0.0000 0.0000 0.0000 0.0000 0.0000 25.6675
#
#
#
# Elastic Compliance Matrix: (Units=1/GPa)
#
#
# Indices 1 2 3 4 5 6 
#
# 1 0.014586 -0.005190 -0.001044 0.000000 0.000000 0.000000
# 2 -0.005190 0.021774 -0.000001 0.000000 0.000000 0.000000
# 3 -0.001044 -0.000001 0.009893 0.000000 0.000000 0.000000
# 4 0.000000 0.000000 0.000000 0.068379 0.000000 0.000000
# 5 0.000000 0.000000 0.000000 0.000000 0.044867 0.000000
# 6 0.000000 0.000000 0.000000 0.000000 0.000000 0.038960
#
#
# Mechanical properties :
#
#
# Convention : Reuss Voigt Hill
#
# Bulk Modulus (GPa) = 29.60018 31.49344 30.54681
# Shear Modulus (GPa) = 22.50343 25.83594 24.16969
#
# Velocity S-wave (km/s) = 3.59476 3.85175 3.72547
# Velocity P-wave (km/s) = 5.85041 6.15354 6.00389
#
# Compressibility (1/GPa) = 0.03378358
#
# Stress axis : x y z
#
# Youngs Moduli (GPa) = 68.55899 45.92633 101.08561
#
# Poissons Ratio (x) = 0.23834 0.10552
# Poissons Ratio (y) = 0.35579 0.00010
# Poissons Ratio (z) = 0.07157 0.00005
#
# Static dielectric constant tensor:
#      x y z
#    x 2.996840 0.000000 0.000000 
#    y 0.000000 2.928490 0.000000 
#    z 0.000000 0.000000 3.433620 
# 
# 
# High freq. dielectric constant tensor:
#      x y z
#    x 1.658170 0.000000 0.000000 
#    y 0.000000 1.648330 0.000000 
#    z 0.000000 0.000000 1.693760 
# 
# From -- ./inp_files/2156.got.cif
#   From: 2010.03.12/outbox.cif.g09.slc.cpg/sg19_2_cif.got.tgz:2156.got - 2010.04.10 18:59:41.
