data_PCOD8156906
_publ_section_title
;
Structure prediction by ZEFSAII (Michael W. Deem and Ramdas Pophale) SiO2 
 PCOD8156906
Probable space group: P 21 21 21
;
_chemical_formula_sum "Si O2"
_cell_formula_units_Z 32
_cell_length_a 12.844699
_cell_length_b 13.693232
_cell_length_c 8.569805
_cell_angle_alpha 90.000000
_cell_angle_beta 90.000000
_cell_angle_gamma 90.000000
_cell_volume 1507.303952
_symmetry_space_group_name_H-M "P 21 21 21"
_symmetry_group_IT_number 19
_symmetry_cell_setting 'orthorhombic'
loop_
_space_group_symop_operation_xyz
x,y,z
1/2-x,-y,1/2+z
1/2+x,1/2-y,-z
-x,1/2+y,1/2-z
loop_
_atom_site_type_symbol
_atom_site_label
_atom_site_fract_x
_atom_site_fract_y
_atom_site_fract_z
Si Si1 0.554685 0.268915 0.742666
Si Si2 0.058167 0.647591 0.520673
Si Si3 0.174748 0.577170 0.957733
Si Si4 0.215779 0.387157 0.147505
Si Si5 0.996456 0.796929 0.762290
Si Si6 0.510822 0.482022 0.270932
Si Si7 0.368794 0.219093 0.549308
Si Si8 0.149779 0.152219 0.565246
O O1 0.634236 0.203013 0.845141
O O2 0.469006 0.199364 0.658266
O O3 0.616905 0.334907 0.616185
O O4 0.484498 0.343451 0.845023
O O5 0.182889 0.640558 0.544243
O O6 0.022583 0.747534 0.600138
O O7 0.997568 0.553334 0.591579
O O8 0.265558 0.580375 0.827424
O O9 0.068174 0.589505 0.862038
O O10 0.168711 0.480459 0.060726
O O11 0.178846 0.671562 0.069026
O O12 0.971109 0.908252 0.717290
O O13 0.897633 0.744684 0.841357
O O14 0.098619 0.798324 0.870456
O O15 0.618128 0.452437 0.357110
O O16 0.274078 0.146962 0.586536
#
# Coordination Sequence:
#
# PCOD8156906 Si02
#       8
#     4   4   4   4   4   4   4   4
#     4  11  22  40  63  93 133 170 206 269 325 386
#     4  10  22  39  59  98 127 160 220 269 318 383
#     4  11  22  39  63 100 121 160 223 271 325 379
#     4  11  24  39  65  97 130 166 216 279 328 375
#     4  10  20  42  64  82 128 169 210 263 321 382
#     4  10  21  40  62  90 121 172 213 256 322 390
#     4  11  22  42  62  89 129 173 206 262 332 383
#     4  10  21  41  64  87 127 168 210 263 323 382
#
# _framework density 21.229958
#
# number of rings (size 3 to 8) (size 9 to 14) (size 15 to 20)
#    0.000    1.500    6.250    0.750    5.250    2.000 
#    0.000    5.000    0.000    0.000    0.000    0.000 
#    0.000    0.000    0.000    0.000    0.000    0.000 
#
# Total GULP energy -396576.664230 kJ/mol
# GULP energy per Si atom -12393.020757 kJ/mol
# Density = 2.118164 g / cm^3
# Si number density = 21.229958 Si / 1000 Ang^3
#
#
#
# Elastic Constant Matrix: (Units=GPa)
#
#
# Indices 1 2 3 4 5 6 
#
# 1 85.1683 -14.1497 15.3804 0.0000 0.0000 0.0000
# 2 -14.1497 50.7776 2.6912 0.0000 0.0000 0.0000
# 3 15.3804 2.6912 52.4630 0.0000 0.0000 0.0000
# 4 0.0000 0.0000 0.0000 29.9559 0.0000 0.0000
# 5 0.0000 0.0000 0.0000 0.0000 27.9689 0.0000
# 6 0.0000 0.0000 0.0000 0.0000 0.0000 21.8097
#
#
#
# Elastic Compliance Matrix: (Units=1/GPa)
#
#
# Indices 1 2 3 4 5 6 
#
# 1 0.013114 0.003869 -0.004043 0.000000 0.000000 0.000000
# 2 0.003869 0.020889 -0.002206 0.000000 0.000000 0.000000
# 3 -0.004043 -0.002206 0.020360 0.000000 0.000000 0.000000
# 4 0.000000 0.000000 0.000000 0.033382 0.000000 0.000000
# 5 0.000000 0.000000 0.000000 0.000000 0.035754 0.000000
# 6 0.000000 0.000000 0.000000 0.000000 0.000000 0.045851
#
#
# Mechanical properties :
#
#
# Convention : Reuss Voigt Hill
#
# Bulk Modulus (GPa) = 20.16036 21.80586 20.98311
# Shear Modulus (GPa) = 26.22685 28.24604 27.23645
#
# Velocity S-wave (km/s) = 3.51860 3.65153 3.58568
# Velocity P-wave (km/s) = 5.10139 5.29828 5.20077
#
# Compressibility (1/GPa) = 0.04960229
#
# Stress axis : x y z
#
# Youngs Moduli (GPa) = 76.25241 47.87284 49.11711
#
# Poissons Ratio (x) = -0.18521 0.19859
# Poissons Ratio (y) = -0.29500 0.10834
# Poissons Ratio (z) = 0.30830 0.10559
#
# Static dielectric constant tensor:
#      x y z
#    x 3.802230 0.000000 0.000000 
#    y 0.000000 3.573740 0.000000 
#    z 0.000000 0.000000 3.838570 
# 
# 
# High freq. dielectric constant tensor:
#      x y z
#    x 1.829680 0.000000 0.000000 
#    y 0.000000 1.813820 0.000000 
#    z 0.000000 0.000000 1.830990 
# 
# From -- ./inp_files/3621.got.cif
#   From: 2010.03.12/outbox.cif.g09.slc.cpg/sg19_2_cif.got.tgz:3621.got - 2010.04.10 18:59:41.
