data_PCOD8156973
_publ_section_title
;
Structure prediction by ZEFSAII (Michael W. Deem and Ramdas Pophale) SiO2 
 PCOD8156973
Probable space group: P 21 21 21
;
_chemical_formula_sum "Si O2"
_cell_formula_units_Z 32
_cell_length_a 11.624925
_cell_length_b 8.528613
_cell_length_c 15.216798
_cell_angle_alpha 90.000000
_cell_angle_beta 90.000000
_cell_angle_gamma 90.000000
_cell_volume 1508.661624
_symmetry_space_group_name_H-M "P 21 21 21"
_symmetry_group_IT_number 19
_symmetry_cell_setting 'orthorhombic'
loop_
_space_group_symop_operation_xyz
x,y,z
1/2-x,-y,1/2+z
1/2+x,1/2-y,-z
-x,1/2+y,1/2-z
loop_
_atom_site_type_symbol
_atom_site_label
_atom_site_fract_x
_atom_site_fract_y
_atom_site_fract_z
Si Si1 0.002136 0.557540 0.669553
Si Si2 0.304548 0.246547 0.901433
Si Si3 0.721243 0.590134 0.901283
Si Si4 0.502136 0.942460 0.669553
Si Si5 0.221243 0.909866 0.901283
Si Si6 0.195452 0.753453 0.598567
Si Si7 0.844846 0.785059 0.239261
Si Si8 0.655154 0.214941 0.260739
O O1 0.911186 0.461061 0.611574
O O2 0.938505 0.647945 0.748353
O O3 0.066760 0.686799 0.609701
O O4 0.097232 0.444260 0.709376
O O5 0.433240 0.313201 0.890299
O O6 0.218709 0.324125 0.830828
O O7 0.304805 0.059028 0.885546
O O8 0.259925 0.283669 0.000000
O O9 0.588814 0.538939 0.888426
O O10 0.804805 0.440972 0.885546
O O11 0.753679 0.727445 0.833779
O O12 0.735468 0.655765 1.000000
O O13 0.438505 0.852055 0.748353
O O14 0.597232 0.055740 0.709376
O O15 0.253679 0.772555 0.833779
O O16 0.281291 0.675875 0.669172
#
# Coordination Sequence:
#
# PCOD8156973 Si02
#       8
#     4   4   4   4   4   4   4   4
#     4  11  21  38  61  85 116 156 192 238 291 344
#     4  10  21  38  60  84 113 152 196 240 289 345
#     4  10  22  39  58  84 118 153 193 240 288 343
#     4  11  21  38  61  85 116 156 192 238 291 344
#     4  10  22  39  58  84 118 153 193 240 288 343
#     4  10  21  38  60  84 113 152 196 240 289 345
#     4  11  22  39  59  87 119 153 193 240 288 344
#     4  11  22  39  59  87 119 153 193 240 288 344
#
# _framework density 21.210854000000001
#
# number of rings (size 3 to 8) (size 9 to 14) (size 15 to 20)
#    0.000    1.500    0.000    7.500    0.000    3.000 
#    0.000    1.250    0.000    0.000    0.000    0.000 
#    0.000    0.000    0.000    0.000    0.000    0.000 
#
# Total GULP energy -396855.285795 kJ/mol
# GULP energy per Si atom -12401.727681 kJ/mol
# Density = 2.116258 g / cm^3
# Si number density = 21.210854 Si / 1000 Ang^3
#
#
#
# Elastic Constant Matrix: (Units=GPa)
#
#
# Indices 1 2 3 4 5 6 
#
# 1 106.3368 40.0961 50.5542 0.0000 0.0000 0.0000
# 2 40.0961 49.9152 36.5906 0.0000 0.0000 0.0000
# 3 50.5542 36.5906 139.9700 0.0000 0.0000 0.0000
# 4 0.0000 0.0000 0.0000 20.7794 0.0000 0.0000
# 5 0.0000 0.0000 0.0000 0.0000 23.2249 0.0000
# 6 0.0000 0.0000 0.0000 0.0000 0.0000 52.2350
#
#
#
# Elastic Compliance Matrix: (Units=1/GPa)
#
#
# Indices 1 2 3 4 5 6 
#
# 1 0.014251 -0.009494 -0.002665 0.000000 0.000000 0.000000
# 2 -0.009494 0.031108 -0.004703 0.000000 0.000000 0.000000
# 3 -0.002665 -0.004703 0.009337 0.000000 0.000000 0.000000
# 4 0.000000 0.000000 0.000000 0.048125 0.000000 0.000000
# 5 0.000000 0.000000 0.000000 0.000000 0.043057 0.000000
# 6 0.000000 0.000000 0.000000 0.000000 0.000000 0.019144
#
#
# Mechanical properties :
#
#
# Convention : Reuss Voigt Hill
#
# Bulk Modulus (GPa) = 47.68525 61.18930 54.43727
# Shear Modulus (GPa) = 24.30293 30.51327 27.40810
#
# Velocity S-wave (km/s) = 3.38861 3.79696 3.59858
# Velocity P-wave (km/s) = 6.15147 6.93782 6.55644
#
# Compressibility (1/GPa) = 0.02097085
#
# Stress axis : x y z
#
# Youngs Moduli (GPa) = 70.17044 32.14617 107.10614
#
# Poissons Ratio (x) = 0.30519 0.28547
# Poissons Ratio (y) = 0.66618 0.50374
# Poissons Ratio (z) = 0.18703 0.15119
#
# Static dielectric constant tensor:
#      x y z
#    x 3.856420 0.000000 0.000000 
#    y 0.000000 3.682820 0.000000 
#    z 0.000000 0.000000 3.915510 
# 
# 
# High freq. dielectric constant tensor:
#      x y z
#    x 1.831960 0.000000 0.000000 
#    y 0.000000 1.821060 0.000000 
#    z 0.000000 0.000000 1.834420 
# 
# From -- ./inp_files/6097.got.cif
#   From: 2010.03.12/outbox.cif.g09.slc.cpg/sg19_4_cif.got.tgz:6097.got - 2010.04.10 18:59:41.
