data_PCOD8156629
_publ_section_title
;
Structure prediction by ZEFSAII (Michael W. Deem and Ramdas Pophale) SiO2 
 PCOD8156629
Probable space group: P 21 21 21
;
_chemical_formula_sum "Si O2"
_cell_formula_units_Z 24
_cell_length_a 23.478512
_cell_length_b 7.643904
_cell_length_c 5.335486
_cell_angle_alpha 90.000000
_cell_angle_beta 90.000000
_cell_angle_gamma 90.000000
_cell_volume 957.546290
_symmetry_space_group_name_H-M "P 21 21 21"
_symmetry_group_IT_number 19
_symmetry_cell_setting 'orthorhombic'
loop_
_space_group_symop_operation_xyz
x,y,z
1/2-x,-y,1/2+z
1/2+x,1/2-y,-z
-x,1/2+y,1/2-z
loop_
_atom_site_type_symbol
_atom_site_label
_atom_site_fract_x
_atom_site_fract_y
_atom_site_fract_z
Si Si1 0.136225 0.299880 0.999999
Si Si2 0.753914 0.243653 0.500002
Si Si3 0.271424 0.353566 0.999998
Si Si4 0.860850 0.600322 0.000001
Si Si5 0.947504 0.317608 0.000001
Si Si6 0.452226 0.406841 0.499999
O O1 0.203495 0.327103 0.999999
O O2 0.116642 0.195476 0.751457
O O3 0.106542 0.487203 0.999999
O O4 0.116642 0.195476 0.248541
O O5 0.794288 0.241864 0.252725
O O6 0.708948 0.403050 0.500002
O O7 0.715678 0.061388 0.500002
O O8 0.794288 0.241864 0.747278
O O9 0.884315 0.403080 0.000001
O O10 0.954973 0.205838 0.249129
O O11 0.954973 0.205835 0.750876
O O12 0.993503 0.469534 1.000000
#
# Coordination Sequence:
#
# PCOD8156629 Si02
#       6
#     4   4   4   4   4   4
#     4  10  19  34  55  79 106 136 173 214 256 301
#     4   8  14  25  45  73 101 130 167 208 245 289
#     4   8  14  25  45  73 101 130 167 208 245 289
#     4  10  19  34  55  79 106 136 173 214 256 301
#     4  12  24  39  57  78 105 136 173 214 261 312
#     4  12  24  39  57  78 105 136 173 214 261 312
#
# _framework density 25.064060000000001
#
# number of rings (size 3 to 8) (size 9 to 14) (size 15 to 20)
#    0.000    2.000    0.000    5.000    0.000    0.000 
#    0.000    0.000    0.000    2.000    0.000    0.000 
#    0.000    0.000    0.000    0.000    0.000    0.000 
#
# Total GULP energy -297456.178128 kJ/mol
# GULP energy per Si atom -12394.007422 kJ/mol
# Density = 2.500701 g / cm^3
# Si number density = 25.064060 Si / 1000 Ang^3
#
#
#
# Elastic Constant Matrix: (Units=GPa)
#
#
# Indices 1 2 3 4 5 6 
#
# 1 36.8369 11.2576 9.8881 0.0000 0.0000 0.0000
# 2 11.2576 75.1078 58.1409 0.0000 0.0000 0.0000
# 3 9.8881 58.1409 286.3668 0.0000 0.0000 0.0000
# 4 0.0000 0.0000 0.0000 50.9874 0.0000 0.0000
# 5 0.0000 0.0000 0.0000 0.0000 17.0756 0.0000
# 6 0.0000 0.0000 0.0000 0.0000 0.0000 44.4781
#
#
#
# Elastic Compliance Matrix: (Units=1/GPa)
#
#
# Indices 1 2 3 4 5 6 
#
# 1 0.028454 -0.004158 -0.000138 0.000000 0.000000 0.000000
# 2 -0.004158 0.016404 -0.003187 0.000000 0.000000 0.000000
# 3 -0.000138 -0.003187 0.004144 0.000000 0.000000 0.000000
# 4 0.000000 0.000000 0.000000 0.019613 0.000000 0.000000
# 5 0.000000 0.000000 0.000000 0.000000 0.058563 0.000000
# 6 0.000000 0.000000 0.000000 0.000000 0.000000 0.022483
#
#
# Mechanical properties :
#
#
# Convention : Reuss Voigt Hill
#
# Bulk Modulus (GPa) = 29.38028 61.87605 45.62816
# Shear Modulus (GPa) = 28.41340 43.77655 36.09497
#
# Velocity S-wave (km/s) = 3.37060 4.18375 3.79899
# Velocity P-wave (km/s) = 5.18608 6.93391 6.12269
#
# Compressibility (1/GPa) = 0.03403644
#
# Stress axis : x y z
#
# Youngs Moduli (GPa) = 35.14383 60.95904 241.32083
#
# Poissons Ratio (x) = 0.25346 0.03339
# Poissons Ratio (y) = 0.14612 0.76909
# Poissons Ratio (z) = 0.00486 0.19428
#
# Static dielectric constant tensor:
#      x y z
#    x 4.132780 0.000000 0.000000 
#    y 0.000000 4.436320 0.000000 
#    z 0.000000 0.000000 5.995440 
# 
# 
# High freq. dielectric constant tensor:
#      x y z
#    x 1.962860 0.000000 0.000000 
#    y 0.000000 1.993490 0.000000 
#    z 0.000000 0.000000 2.046190 
# 
# From -- ./inp_files/2290.got.cif
#   From: 2010.03.12/outbox.cif.g09.slc.cpg/sg19_2_cif.got.tgz:2290.got - 2010.04.10 18:59:41.
