data_PCOD8156671
_publ_section_title
;
Structure prediction by ZEFSAII (Michael W. Deem and Ramdas Pophale) SiO2 
 PCOD8156671
Probable space group: P 21 21 21
;
_chemical_formula_sum "Si O2"
_cell_formula_units_Z 28
_cell_length_a 13.831085
_cell_length_b 11.010565
_cell_length_c 8.193083
_cell_angle_alpha 90.000000
_cell_angle_beta 90.000000
_cell_angle_gamma 90.000000
_cell_volume 1247.708719
_symmetry_space_group_name_H-M "P 21 21 21"
_symmetry_group_IT_number 19
_symmetry_cell_setting 'orthorhombic'
loop_
_space_group_symop_operation_xyz
x,y,z
1/2-x,-y,1/2+z
1/2+x,1/2-y,-z
-x,1/2+y,1/2-z
loop_
_atom_site_type_symbol
_atom_site_label
_atom_site_fract_x
_atom_site_fract_y
_atom_site_fract_z
Si Si1 0.927611 0.840209 0.345139
Si Si2 0.836654 0.100714 0.628522
Si Si3 0.043951 0.423411 0.678133
Si Si4 0.975429 0.696632 0.020663
Si Si5 0.093376 0.944238 0.554922
Si Si6 0.727384 0.762146 0.447750
Si Si7 0.853462 0.020730 0.107554
O O1 0.964717 0.761934 0.192861
O O2 0.843063 0.768091 0.438941
O O3 0.887083 0.973817 0.286637
O O4 0.015294 0.857445 0.467057
O O5 0.820743 0.188573 0.781789
O O6 0.733703 0.069500 0.544647
O O7 0.911890 0.161206 0.503027
O O8 0.878370 0.969573 0.687600
O O9 0.057574 0.282515 0.629399
O O10 0.055995 0.504338 0.514717
O O11 0.937579 0.448451 0.753932
O O12 0.904980 0.579345 0.019453
O O13 0.196914 0.879185 0.531640
O O14 0.684745 0.840932 0.600548
#
# Coordination Sequence:
#
# PCOD8156671 Si02
#       7
#     4   4   4   4   4   4   4
#     4  10  23  39  58  91 125 149 206 255 285 351
#     4   9  17  34  62  90 110 150 202 244 297 342
#     4   9  18  35  57  86 113 152 191 242 293 350
#     4  10  20  38  58  83 123 156 192 246 298 361
#     4  11  22  37  62  88 120 165 192 241 310 352
#     4  10  19  37  61  86 119 153 199 245 297 358
#     4   9  19  36  64  88 114 147 202 259 288 334
#
# _framework density 22.441136
#
# number of rings (size 3 to 8) (size 9 to 14) (size 15 to 20)
#    0.000    2.286    1.429    1.714    2.000    0.000 
#    2.571    2.857    6.286    0.000    0.000    0.000 
#    0.000    0.000    0.000    0.000    0.000    0.000 
#
# Total GULP energy -346998.326122 kJ/mol
# GULP energy per Si atom -12392.797362 kJ/mol
# Density = 2.239006 g / cm^3
# Si number density = 22.441136 Si / 1000 Ang^3
#
#
#
# Elastic Constant Matrix: (Units=GPa)
#
#
# Indices 1 2 3 4 5 6 
#
# 1 50.1846 2.7497 13.6987 0.0000 0.0000 0.0000
# 2 2.7497 67.6806 1.1093 0.0000 0.0000 0.0000
# 3 13.6987 1.1093 31.6713 0.0000 0.0000 0.0000
# 4 0.0000 0.0000 0.0000 32.0870 0.0000 0.0000
# 5 0.0000 0.0000 0.0000 0.0000 25.3347 0.0000
# 6 0.0000 0.0000 0.0000 0.0000 0.0000 30.3683
#
#
#
# Elastic Compliance Matrix: (Units=1/GPa)
#
#
# Indices 1 2 3 4 5 6 
#
# 1 0.022633 -0.000760 -0.009763 0.000000 0.000000 0.000000
# 2 -0.000760 0.014809 -0.000190 0.000000 0.000000 0.000000
# 3 -0.009763 -0.000190 0.035804 0.000000 0.000000 0.000000
# 4 0.000000 0.000000 0.000000 0.031165 0.000000 0.000000
# 5 0.000000 0.000000 0.000000 0.000000 0.039472 0.000000
# 6 0.000000 0.000000 0.000000 0.000000 0.000000 0.032929
#
#
# Mechanical properties :
#
#
# Convention : Reuss Voigt Hill
#
# Bulk Modulus (GPa) = 19.29721 20.51687 19.90704
# Shear Modulus (GPa) = 23.20074 26.35660 24.77867
#
# Velocity S-wave (km/s) = 3.21884 3.43078 3.32650
# Velocity P-wave (km/s) = 4.73627 4.98559 4.86253
#
# Compressibility (1/GPa) = 0.05182095
#
# Stress axis : x y z
#
# Youngs Moduli (GPa) = 44.18339 67.52534 27.93006
#
# Poissons Ratio (x) = 0.05129 0.27268
# Poissons Ratio (y) = 0.03356 0.00531
# Poissons Ratio (z) = 0.43135 0.01284
#
# Static dielectric constant tensor:
#      x y z
#    x 3.914880 0.000000 0.000000 
#    y 0.000000 4.051880 0.000000 
#    z 0.000000 0.000000 3.969380 
# 
# 
# High freq. dielectric constant tensor:
#      x y z
#    x 1.862630 0.000000 0.000000 
#    y 0.000000 1.872490 0.000000 
#    z 0.000000 0.000000 1.877570 
# 
# From -- ./inp_files/3907.got.cif
#   From: 2010.03.12/outbox.cif.g09.slc.cpg/sg19_2_cif.got.tgz:3907.got - 2010.04.10 18:59:41.
