data_PCOD8156466
_publ_section_title
;
Structure prediction by ZEFSAII (Michael W. Deem and Ramdas Pophale) SiO2 
 PCOD8156466
Probable space group: P 21 21 2
;
_chemical_formula_sum "Si O2"
_cell_formula_units_Z 18
_cell_length_a 11.470371
_cell_length_b 7.662330
_cell_length_c 8.124817
_cell_angle_alpha 90.000000
_cell_angle_beta 90.000000
_cell_angle_gamma 90.000000
_cell_volume 714.088280
_symmetry_space_group_name_H-M "P 21 21 2"
_symmetry_group_IT_number 18
_symmetry_cell_setting 'orthorhombic'
loop_
_space_group_symop_operation_xyz
x,y,z
-x,-y,z
1/2+x,1/2-y,-z
1/2-x,1/2+y,-z
loop_
_atom_site_type_symbol
_atom_site_label
_atom_site_fract_x
_atom_site_fract_y
_atom_site_fract_z
Si Si1 0.367591 0.729014 0.704297
Si Si2 0.132404 0.770998 0.204295
Si Si3 0.315075 0.066936 0.492740
Si Si4 0.000000 0.500000 0.750003
Si Si5 0.684932 0.066922 0.007260
O O1 0.499996 0.685937 0.750004
O O2 0.306683 0.562947 0.612709
O O3 0.354338 0.888037 0.576376
O O4 0.300722 0.781510 0.871411
O O5 0.199270 0.718506 0.371414
O O6 0.193311 0.937069 0.112711
O O7 0.145668 0.611978 0.076370
O O8 0.417081 0.121373 0.364075
O O9 0.082924 0.378633 0.864079
#
# Coordination Sequence:
#
# PCOD8156466 Si02
#       5
#     4   4   4   2   4
#     4  11  23  46  71 108 143 192 244 307 360 449
#     4  11  23  46  71 108 143 192 244 307 360 449
#     4  11  23  42  74 100 147 190 245 298 376 425
#     4  12  20  42  70 102 136 210 224 296 380 426
#     4  11  23  42  74 100 147 190 245 298 376 425
#
# _framework density 25.206966999999999
#
# number of rings (size 3 to 8) (size 9 to 14) (size 15 to 20)
#    0.000    0.889    4.444    4.000    0.000    0.000 
#    0.000   12.222    0.000    0.000    0.000    0.000 
#    0.000    0.000    0.000    0.000    0.000    0.000 
#
# Total GULP energy -223043.017050 kJ/mol
# GULP energy per Si atom -12391.278725 kJ/mol
# Density = 2.514959 g / cm^3
# Si number density = 25.206967 Si / 1000 Ang^3
#
#
#
# Elastic Constant Matrix: (Units=GPa)
#
#
# Indices 1 2 3 4 5 6 
#
# 1 212.7480 25.2331 91.4383 0.0000 0.0000 0.0000
# 2 25.2331 86.8221 35.2565 0.0000 0.0000 0.0000
# 3 91.4383 35.2565 169.8594 0.0000 0.0000 0.0000
# 4 0.0000 0.0000 0.0000 44.2577 0.0000 0.0000
# 5 0.0000 0.0000 0.0000 0.0000 59.3701 0.0000
# 6 0.0000 0.0000 0.0000 0.0000 0.0000 34.2343
#
#
#
# Elastic Compliance Matrix: (Units=1/GPa)
#
#
# Indices 1 2 3 4 5 6 
#
# 1 0.006134 -0.000482 -0.003202 0.000000 0.000000 0.000000
# 2 -0.000482 0.012616 -0.002359 0.000000 0.000000 0.000000
# 3 -0.003202 -0.002359 0.008100 0.000000 0.000000 0.000000
# 4 0.000000 0.000000 0.000000 0.022595 0.000000 0.000000
# 5 0.000000 0.000000 0.000000 0.000000 0.016843 0.000000
# 6 0.000000 0.000000 0.000000 0.000000 0.000000 0.029210
#
#
# Mechanical properties :
#
#
# Convention : Reuss Voigt Hill
#
# Bulk Modulus (GPa) = 67.73306 85.92058 76.82682
# Shear Modulus (GPa) = 44.44190 48.73918 46.59054
#
# Velocity S-wave (km/s) = 4.20346 4.40200 4.30387
# Velocity P-wave (km/s) = 7.10548 7.74576 7.43252
#
# Compressibility (1/GPa) = 0.01476384
#
# Stress axis : x y z
#
# Youngs Moduli (GPa) = 163.03318 79.26494 123.45087
#
# Poissons Ratio (x) = 0.03824 0.39526
# Poissons Ratio (y) = 0.07866 0.29120
# Poissons Ratio (z) = 0.52199 0.18698
#
# Static dielectric constant tensor:
#      x y z
#    x 4.514420 0.000000 0.000000 
#    y 0.000000 4.262750 0.000000 
#    z 0.000000 0.000000 5.328780 
# 
# 
# High freq. dielectric constant tensor:
#      x y z
#    x 2.001800 0.000000 0.000000 
#    y 0.000000 1.978940 0.000000 
#    z 0.000000 0.000000 2.053540 
# 
# From -- ./inp_files/3625.got.cif
#   From: 2010.03.12/outbox.cif.g09.slc.cpg/sg18_2_cif.got.tgz:3625.got - 2010.04.10 18:53:55.
