data_PCOD8156143
_publ_section_title
;
Structure prediction by ZEFSAII (Michael W. Deem and Ramdas Pophale) SiO2 
 PCOD8156143
Probable space group: P 21 21 2
;
_chemical_formula_sum "Si O2"
_cell_formula_units_Z 18
_cell_length_a 9.235988
_cell_length_b 9.343651
_cell_length_c 10.181015
_cell_angle_alpha 90.000000
_cell_angle_beta 90.000000
_cell_angle_gamma 90.000000
_cell_volume 878.599690
_symmetry_space_group_name_H-M "P 21 21 2"
_symmetry_group_IT_number 18
_symmetry_cell_setting 'orthorhombic'
loop_
_space_group_symop_operation_xyz
x,y,z
-x,-y,z
1/2+x,1/2-y,-z
1/2-x,1/2+y,-z
loop_
_atom_site_type_symbol
_atom_site_label
_atom_site_fract_x
_atom_site_fract_y
_atom_site_fract_z
Si Si1 0.075197 0.141443 0.895933
Si Si2 0.500000 0.500000 0.582428
Si Si3 0.196098 0.519434 0.695806
Si Si4 0.986830 0.746463 0.621711
Si Si5 0.614830 0.899177 0.015936
O O1 0.065445 0.152758 0.739597
O O2 0.978306 0.259666 0.962637
O O3 0.244062 0.143026 0.934332
O O4 0.000000 0.000000 0.947411
O O5 0.365587 0.500063 0.680054
O O6 0.491616 0.648352 0.502010
O O7 0.121524 0.389681 0.614949
O O8 0.155995 0.514842 0.850089
O O9 0.145768 0.674911 0.640208
O O10 0.500000 0.000000 0.936956
#
# Coordination Sequence:
#
# PCOD8156143 Si02
#       5
#     4   2   4   4   4
#     4  11  22  37  64  88 120 157 197 246 302 354
#     4  12  22  36  66  88 110 160 210 242 288 358
#     4  10  22  40  61  85 122 158 196 245 303 352
#     4  10  21  42  58  84 123 157 192 250 300 342
#     4  11  22  41  62  86 123 157 196 247 304 362
#
# _framework density 20.487145999999999
#
# number of rings (size 3 to 8) (size 9 to 14) (size 15 to 20)
#    0.000    1.333    5.556    2.667    1.556    0.000 
#    0.000    0.000    4.889    0.000    0.000    0.000 
#    0.000    0.000    0.000    0.000    0.000    0.000 
#
# Total GULP energy -223042.167689 kJ/mol
# GULP energy per Si atom -12391.231538 kJ/mol
# Density = 2.044052 g / cm^3
# Si number density = 20.487146 Si / 1000 Ang^3
#
#
#
# Elastic Constant Matrix: (Units=GPa)
#
#
# Indices 1 2 3 4 5 6 
#
# 1 204.3632 60.7832 46.9924 0.0000 0.0000 0.0000
# 2 60.7832 112.6584 32.4701 0.0000 0.0000 0.0000
# 3 46.9924 32.4701 39.6574 0.0000 0.0000 0.0000
# 4 0.0000 0.0000 0.0000 172.5979 0.0000 0.0000
# 5 0.0000 0.0000 0.0000 0.0000 29.2471 0.0000
# 6 0.0000 0.0000 0.0000 0.0000 0.0000 35.6458
#
#
#
# Elastic Compliance Matrix: (Units=1/GPa)
#
#
# Indices 1 2 3 4 5 6 
#
# 1 0.006998 -0.001814 -0.006807 0.000000 0.000000 0.000000
# 2 -0.001814 0.012088 -0.007748 0.000000 0.000000 0.000000
# 3 -0.006807 -0.007748 0.039626 0.000000 0.000000 0.000000
# 4 0.000000 0.000000 0.000000 0.005794 0.000000 0.000000
# 5 0.000000 0.000000 0.000000 0.000000 0.034191 0.000000
# 6 0.000000 0.000000 0.000000 0.000000 0.000000 0.028054
#
#
# Mechanical properties :
#
#
# Convention : Reuss Voigt Hill
#
# Bulk Modulus (GPa) = 38.50000 70.79672 54.64836
# Shear Modulus (GPa) = 29.73568 61.92703 45.83136
#
# Velocity S-wave (km/s) = 3.81390 5.50390 4.73491
# Velocity P-wave (km/s) = 6.18284 8.66153 7.52495
#
# Compressibility (1/GPa) = 0.02597402
#
# Stress axis : x y z
#
# Youngs Moduli (GPa) = 142.89777 82.72598 25.23567
#
# Poissons Ratio (x) = 0.15004 0.17179
# Poissons Ratio (y) = 0.25917 0.19553
# Poissons Ratio (z) = 0.97276 0.64098
#
# Static dielectric constant tensor:
#      x y z
#    x 3.524520 0.000000 0.000000 
#    y 0.000000 3.934230 0.000000 
#    z 0.000000 0.000000 3.362270 
# 
# 
# High freq. dielectric constant tensor:
#      x y z
#    x 1.814940 0.000000 0.000000 
#    y 0.000000 1.824660 0.000000 
#    z 0.000000 0.000000 1.762850 
# 
# From -- ./inp_files/5362.got.cif
#   From: 2010.03.12/outbox.cif.g09.slc.cpg/sg18_3_cif.got.tgz:5362.got - 2010.04.10 18:53:55.
