data_PCOD8156687
_publ_section_title
;
Structure prediction by ZEFSAII (Michael W. Deem and Ramdas Pophale) SiO2 
 PCOD8156687
Probable space group: P 21 21 21
;
_chemical_formula_sum "Si O2"
_cell_formula_units_Z 32
_cell_length_a 14.410705
_cell_length_b 8.012861
_cell_length_c 13.174005
_cell_angle_alpha 90.000000
_cell_angle_beta 90.000000
_cell_angle_gamma 90.000000
_cell_volume 1521.215216
_symmetry_space_group_name_H-M "P 21 21 21"
_symmetry_group_IT_number 19
_symmetry_cell_setting 'orthorhombic'
loop_
_space_group_symop_operation_xyz
x,y,z
1/2-x,-y,1/2+z
1/2+x,1/2-y,-z
-x,1/2+y,1/2-z
loop_
_atom_site_type_symbol
_atom_site_label
_atom_site_fract_x
_atom_site_fract_y
_atom_site_fract_z
Si Si1 0.333479 0.559535 0.896301
Si Si2 0.624872 0.216042 0.236762
Si Si3 0.811623 0.257542 0.725371
Si Si4 0.219185 0.518693 0.611979
Si Si5 0.018174 0.588885 0.850165
Si Si6 0.205054 0.906936 0.310611
Si Si7 0.564372 0.393706 0.569889
Si Si8 0.392657 0.370855 0.709352
O O1 0.245587 0.613033 0.830952
O O2 0.387291 0.716776 0.940277
O O3 0.396906 0.443895 0.824344
O O4 0.297231 0.457571 0.992935
O O5 0.659077 0.131406 0.340703
O O6 0.568403 0.379797 0.274391
O O7 0.712749 0.272157 0.165632
O O8 0.561718 0.090199 0.173685
O O9 0.911658 0.246661 0.669024
O O10 0.760100 0.432250 0.729063
O O11 0.816252 0.194319 0.841313
O O12 0.327273 0.478911 0.634652
O O13 0.988676 0.571453 0.966427
O O14 0.141966 0.822296 0.221771
O O15 0.140869 0.961518 0.405853
O O16 0.495217 0.380489 0.665041
#
# Coordination Sequence:
#
# PCOD8156687 Si02
#       8
#     4   4   4   4   4   4   4   4
#     4  10  19  38  61  87 125 167 208 257 326 382
#     4  10  21  39  65  91 128 164 215 279 326 383
#     4   9  20  36  62  88 125 163 210 270 321 381
#     4   9  18  37  60  88 115 166 211 258 325 376
#     4  11  21  40  68  96 123 171 223 274 327 393
#     4  10  22  42  60  92 135 172 207 273 331 389
#     4  11  22  39  66  92 127 174 216 259 333 398
#     4  10  21  37  62  90 130 165 214 262 313 392
#
# _framework density 21.035814999999999
#
# number of rings (size 3 to 8) (size 9 to 14) (size 15 to 20)
#    0.000    2.000    1.250    3.000    0.000    0.000 
#    6.750    0.000    5.500    0.000    0.000    0.000 
#    0.000    0.000    0.000    0.000    0.000    0.000 
#
# Total GULP energy -396602.296542 kJ/mol
# GULP energy per Si atom -12393.821767 kJ/mol
# Density = 2.098794 g / cm^3
# Si number density = 21.035815 Si / 1000 Ang^3
#
#
#
# Elastic Constant Matrix: (Units=GPa)
#
#
# Indices 1 2 3 4 5 6 
#
# 1 84.7418 24.5938 29.6585 0.0000 0.0000 0.0000
# 2 24.5938 72.8317 30.8666 0.0000 0.0000 0.0000
# 3 29.6585 30.8666 115.1384 0.0000 0.0000 0.0000
# 4 0.0000 0.0000 0.0000 20.5190 0.0000 0.0000
# 5 0.0000 0.0000 0.0000 0.0000 26.0285 0.0000
# 6 0.0000 0.0000 0.0000 0.0000 0.0000 29.4379
#
#
#
# Elastic Compliance Matrix: (Units=1/GPa)
#
#
# Indices 1 2 3 4 5 6 
#
# 1 0.013734 -0.003541 -0.002589 0.000000 0.000000 0.000000
# 2 -0.003541 0.016403 -0.003485 0.000000 0.000000 0.000000
# 3 -0.002589 -0.003485 0.010286 0.000000 0.000000 0.000000
# 4 0.000000 0.000000 0.000000 0.048735 0.000000 0.000000
# 5 0.000000 0.000000 0.000000 0.000000 0.038419 0.000000
# 6 0.000000 0.000000 0.000000 0.000000 0.000000 0.033970
#
#
# Mechanical properties :
#
#
# Convention : Reuss Voigt Hill
#
# Bulk Modulus (GPa) = 47.18244 49.21661 48.19953
# Shear Modulus (GPa) = 26.61813 27.70328 27.16071
#
# Velocity S-wave (km/s) = 3.56107 3.63293 3.59718
# Velocity P-wave (km/s) = 6.27587 6.40663 6.34159
#
# Compressibility (1/GPa) = 0.02119433
#
# Stress axis : x y z
#
# Youngs Moduli (GPa) = 72.81152 60.96445 97.21631
#
# Poissons Ratio (x) = 0.21585 0.25165
# Poissons Ratio (y) = 0.25780 0.33883
# Poissons Ratio (z) = 0.18848 0.21248
#
# Static dielectric constant tensor:
#      x y z
#    x 4.038580 0.000000 0.000000 
#    y 0.000000 3.884510 0.000000 
#    z 0.000000 0.000000 3.529520 
# 
# 
# High freq. dielectric constant tensor:
#      x y z
#    x 1.836100 0.000000 0.000000 
#    y 0.000000 1.823510 0.000000 
#    z 0.000000 0.000000 1.804130 
# 
# From -- ./inp_files/5252.got.cif
#   From: 2010.03.12/outbox.cif.g09.slc.cpg/sg19_3_cif.got.tgz:5252.got - 2010.04.10 18:59:41.
