data_PCOD8156326
_publ_section_title
;
Structure prediction by ZEFSAII (Michael W. Deem and Ramdas Pophale) SiO2 
 PCOD8156326
Probable space group: P 21 21 2
;
_chemical_formula_sum "Si O2"
_cell_formula_units_Z 22
_cell_length_a 15.375646
_cell_length_b 12.196431
_cell_length_c 5.511804
_cell_angle_alpha 90.000000
_cell_angle_beta 90.000000
_cell_angle_gamma 90.000000
_cell_volume 1033.617611
_symmetry_space_group_name_H-M "P 21 21 2"
_symmetry_group_IT_number 18
_symmetry_cell_setting 'orthorhombic'
loop_
_space_group_symop_operation_xyz
x,y,z
-x,-y,z
1/2+x,1/2-y,-z
1/2-x,1/2+y,-z
loop_
_atom_site_type_symbol
_atom_site_label
_atom_site_fract_x
_atom_site_fract_y
_atom_site_fract_z
Si Si1 0.626604 0.896889 0.576364
Si Si2 0.157593 0.166632 0.161985
Si Si3 0.990125 0.297997 0.055730
Si Si4 0.690354 0.457918 0.325224
Si Si5 0.000000 0.500000 0.750851
Si Si6 0.168540 0.791321 0.764525
O O1 0.545343 0.881941 0.747854
O O2 0.706565 0.951374 0.716181
O O3 0.592611 0.980931 0.376562
O O4 0.653691 0.779000 0.474936
O O5 0.065727 0.227628 0.179174
O O6 0.165520 0.095486 0.411707
O O7 0.238282 0.251239 0.127242
O O8 0.148049 0.096644 0.913479
O O9 0.028515 0.384686 0.867748
O O10 0.910358 0.224432 0.954859
O O11 0.664961 0.584530 0.325733
#
# Coordination Sequence:
#
# PCOD8156326 Si02
#       6
#     4   4   4   4   2   4
#     4  10  23  44  66 104 137 181 236 296 344 411
#     4  11  27  45  72 103 139 187 235 288 347 422
#     4  11  24  45  68 104 141 180 239 288 350 413
#     4  11  26  47  70 102 142 189 232 282 364 408
#     4  10  24  38  72 104 132 180 230 302 346 406
#     4  10  25  45  70  99 143 180 235 292 345 421
#
# _framework density 21.284469000000001
#
# number of rings (size 3 to 8) (size 9 to 14) (size 15 to 20)
#    0.000    1.455    1.818    0.545   12.727    2.182 
#    0.000    0.000    0.000    0.000    0.000    0.000 
#    0.000    0.000    0.000    0.000    0.000    0.000 
#
# Total GULP energy -272576.140217 kJ/mol
# GULP energy per Si atom -12389.824555 kJ/mol
# Density = 2.123602 g / cm^3
# Si number density = 21.284469 Si / 1000 Ang^3
#
#
#
# Elastic Constant Matrix: (Units=GPa)
#
#
# Indices 1 2 3 4 5 6 
#
# 1 131.0775 65.4712 36.3885 0.0000 0.0000 0.0000
# 2 65.4712 128.5925 47.4383 0.0000 0.0000 0.0000
# 3 36.3885 47.4383 111.7602 0.0000 0.0000 0.0000
# 4 0.0000 0.0000 0.0000 353.9634 0.0000 0.0000
# 5 0.0000 0.0000 0.0000 0.0000 -127.7979 0.0000
# 6 0.0000 0.0000 0.0000 0.0000 0.0000 32.8408
#
#
#
# Elastic Compliance Matrix: (Units=1/GPa)
#
#
# Indices 1 2 3 4 5 6 
#
# 1 0.010400 -0.004797 -0.001350 0.000000 0.000000 0.000000
# 2 -0.004797 0.011433 -0.003291 0.000000 0.000000 0.000000
# 3 -0.001350 -0.003291 0.010784 0.000000 0.000000 0.000000
# 4 0.000000 0.000000 0.000000 0.002825 0.000000 0.000000
# 5 0.000000 0.000000 0.000000 0.000000 -0.007825 0.000000
# 6 0.000000 0.000000 0.000000 0.000000 0.000000 0.030450
#
#
# Mechanical properties :
#
#
# Convention : Reuss Voigt Hill
#
# Bulk Modulus (GPa) = 72.77465 74.44735 73.61100
# Shear Modulus (GPa) = 61.33218 66.61006 63.97112
#
# Velocity S-wave (km/s) = 5.37383 5.60028 5.48822
# Velocity P-wave (km/s) = 8.53051 8.76759 8.64987
#
# Compressibility (1/GPa) = 0.01374105
#
# Stress axis : x y z
#
# Youngs Moduli (GPa) = 96.15536 87.46725 92.72822
#
# Poissons Ratio (x) = 0.41957 0.12518
# Poissons Ratio (y) = 0.46125 0.30517
# Poissons Ratio (z) = 0.12981 0.28785
#
# Static dielectric constant tensor:
#      x y z
#    x 3.130840 0.000000 0.000000 
#    y 0.000000 3.913410 0.000000 
#    z 0.000000 0.000000 4.049240 
# 
# 
# High freq. dielectric constant tensor:
#      x y z
#    x 1.841630 0.000000 0.000000 
#    y 0.000000 1.836700 0.000000 
#    z 0.000000 0.000000 1.841050 
# 
# From -- ./inp_files/1042.got.cif
#   From: 2010.03.12/outbox.cif.g09.slc.cpg/sg18_1_cif.got.tgz:1042.got - 2010.04.10 18:53:55.
