data_PCOD8156007
_publ_section_title
;
Structure prediction by ZEFSAII (Michael W. Deem and Ramdas Pophale) SiO2 
 PCOD8156007
Probable space group: P 21 21 2
;
_chemical_formula_sum "Si O2"
_cell_formula_units_Z 32
_cell_length_a 10.256374
_cell_length_b 14.511953
_cell_length_c 11.192198
_cell_angle_alpha 90.000000
_cell_angle_beta 90.000000
_cell_angle_gamma 90.000000
_cell_volume 1665.846945
_symmetry_space_group_name_H-M "P 21 21 2"
_symmetry_group_IT_number 18
_symmetry_cell_setting 'orthorhombic'
loop_
_space_group_symop_operation_xyz
x,y,z
-x,-y,z
1/2+x,1/2-y,-z
1/2-x,1/2+y,-z
loop_
_atom_site_type_symbol
_atom_site_label
_atom_site_fract_x
_atom_site_fract_y
_atom_site_fract_z
Si Si1 0.971329 0.751004 0.397247
Si Si2 0.810186 0.893982 0.971184
Si Si3 0.396995 0.926920 0.743782
Si Si4 0.861496 0.964570 0.722478
Si Si5 0.114954 0.444396 0.987479
Si Si6 0.249513 0.789728 0.141820
Si Si7 0.490838 0.608510 0.807812
Si Si8 0.230367 0.213608 0.603757
O O1 0.920574 0.670068 0.314983
O O2 0.957137 0.844097 0.318933
O O3 0.875499 0.752927 0.509100
O O4 0.120520 0.731696 0.439642
O O5 0.893401 0.919432 0.852239
O O6 0.724445 0.804622 0.933068
O O7 0.889950 0.867089 0.087952
O O8 0.733966 0.985571 0.004939
O O9 0.500000 0.000000 0.688081
O O10 0.245384 0.954427 0.729867
O O11 0.432858 0.913608 0.881996
O O12 0.797057 0.893330 0.629779
O O13 0.000000 0.000000 0.670859
O O14 0.137824 0.350868 0.916045
O O15 0.000000 0.500000 0.921024
O O16 0.293966 0.770932 0.276326
O O17 0.122407 0.851565 0.138454
O O18 0.500000 0.500000 0.783664
#
# Coordination Sequence:
#
# PCOD8156007 Si02
#       8
#     4   4   4   4   4   4   4   4
#     4  11  24  44  64  87 122 171 215 264 318 374
#     4  10  21  37  60  94 124 159 197 243 311 378
#     4  10  20  39  64  89 121 163 207 254 317 376
#     4  10  21  37  64  95 121 155 207 264 305 371
#     4  10  21  36  61  92 124 156 199 241 304 382
#     4  10  22  40  61  86 128 163 194 256 306 363
#     4  11  22  41  63  91 128 162 202 253 317 373
#     4  10  24  44  61  88 123 164 219 262 311 373
#
# _framework density 19.209447999999998
#
# number of rings (size 3 to 8) (size 9 to 14) (size 15 to 20)
#    0.000    1.750    2.500    1.125   10.500    0.500 
#    4.500    0.625    0.000    0.000    0.000    0.000 
#    0.000    0.000    0.000    0.000    0.000    0.000 
#
# Total GULP energy -396645.743996 kJ/mol
# GULP energy per Si atom -12395.179500 kJ/mol
# Density = 1.916573 g / cm^3
# Si number density = 19.209448 Si / 1000 Ang^3
#
#
#
# Elastic Constant Matrix: (Units=GPa)
#
#
# Indices 1 2 3 4 5 6 
#
# 1 109.8344 38.7892 49.6235 0.0000 0.0000 0.0000
# 2 38.7892 115.9559 37.8901 0.0000 0.0000 0.0000
# 3 49.6235 37.8901 83.1358 0.0000 0.0000 0.0000
# 4 0.0000 0.0000 0.0000 18.6656 0.0000 0.0000
# 5 0.0000 0.0000 0.0000 0.0000 30.5555 0.0000
# 6 0.0000 0.0000 0.0000 0.0000 0.0000 33.1687
#
#
#
# Elastic Compliance Matrix: (Units=1/GPa)
#
#
# Indices 1 2 3 4 5 6 
#
# 1 0.012893 -0.002113 -0.006733 0.000000 0.000000 0.000000
# 2 -0.002113 0.010479 -0.003515 0.000000 0.000000 0.000000
# 3 -0.006733 -0.003515 0.017649 0.000000 0.000000 0.000000
# 4 0.000000 0.000000 0.000000 0.053575 0.000000 0.000000
# 5 0.000000 0.000000 0.000000 0.000000 0.032727 0.000000
# 6 0.000000 0.000000 0.000000 0.000000 0.000000 0.030149
#
#
# Mechanical properties :
#
#
# Convention : Reuss Voigt Hill
#
# Bulk Modulus (GPa) = 61.34845 62.39243 61.87044
# Shear Modulus (GPa) = 26.64876 28.65284 27.65080
#
# Velocity S-wave (km/s) = 3.72865 3.86632 3.79811
# Velocity P-wave (km/s) = 7.10936 7.24443 7.17722
#
# Compressibility (1/GPa) = 0.01630033
#
# Stress axis : x y z
#
# Youngs Moduli (GPa) = 77.56388 95.42634 56.65992
#
# Poissons Ratio (x) = 0.20162 0.38147
# Poissons Ratio (y) = 0.16388 0.19916
# Poissons Ratio (z) = 0.52221 0.33542
#
# Static dielectric constant tensor:
#      x y z
#    x 3.642640 0.000000 0.000000 
#    y 0.000000 3.683870 0.000000 
#    z 0.000000 0.000000 3.474950 
# 
# 
# High freq. dielectric constant tensor:
#      x y z
#    x 1.746960 0.000000 0.000000 
#    y 0.000000 1.760820 0.000000 
#    z 0.000000 0.000000 1.730490 
# 
# From -- ./inp_files/5688.got.cif
#   From: 2010.03.12/outbox.cif.g09.slc.cpg/sg18_3_cif.got.tgz:5688.got - 2010.04.10 18:53:55.
