data_PCOD8156622
_publ_section_title
;
Structure prediction by ZEFSAII (Michael W. Deem and Ramdas Pophale) SiO2 
 PCOD8156622
Probable space group: P 21 21 21
;
_chemical_formula_sum "Si O2"
_cell_formula_units_Z 28
_cell_length_a 28.616974
_cell_length_b 5.067208
_cell_length_c 9.110371
_cell_angle_alpha 90.000000
_cell_angle_beta 90.000000
_cell_angle_gamma 90.000000
_cell_volume 1321.078132
_symmetry_space_group_name_H-M "P 21 21 21"
_symmetry_group_IT_number 19
_symmetry_cell_setting 'orthorhombic'
loop_
_space_group_symop_operation_xyz
x,y,z
1/2-x,-y,1/2+z
1/2+x,1/2-y,-z
-x,1/2+y,1/2-z
loop_
_atom_site_type_symbol
_atom_site_label
_atom_site_fract_x
_atom_site_fract_y
_atom_site_fract_z
Si Si1 0.730400 0.260529 0.495979
Si Si2 0.626299 0.230082 0.563433
Si Si3 0.885106 0.274977 0.880752
Si Si4 0.978681 0.038281 0.803712
Si Si5 0.441492 0.694658 0.678619
Si Si6 0.218358 0.754327 0.699037
Si Si7 0.019998 0.812964 0.083627
O O1 0.680342 0.311255 0.571649
O O2 0.742579 0.505438 0.389196
O O3 0.765944 0.235608 0.631656
O O4 0.731578 0.006371 0.391389
O O5 0.600901 0.444776 0.456439
O O6 0.605256 0.215646 0.725846
O O7 0.621894 0.932670 0.509952
O O8 0.926941 0.160781 0.779543
O O9 0.837568 0.299358 0.788011
O O10 0.010862 0.305079 0.814210
O O11 0.984371 0.863114 0.950662
O O12 0.446245 0.441975 0.572365
O O13 0.488904 0.703131 0.772586
O O14 0.441977 0.954386 0.580211
#
# Coordination Sequence:
#
# PCOD8156622 Si02
#       7
#     4   4   4   4   4   4   4
#     4  10  21  38  64  94 122 158 198 250 302 367
#     4  10  19  35  61  87 112 148 200 242 286 354
#     4  10  21  37  59  83 114 156 205 234 279 358
#     4  12  24  38  56  78 117 159 201 240 276 349
#     4  10  19  33  56  80 106 137 185 248 281 330
#     4  10  21  40  64  93 122 158 202 246 308 361
#     4  10  21  33  52  79 107 144 185 238 294 313
#
# _framework density 21.194807999999998
#
# number of rings (size 3 to 8) (size 9 to 14) (size 15 to 20)
#    0.000    1.714    1.429    3.429    4.000    0.000 
#    0.000    4.286    0.000    0.000    0.000    0.000 
#    0.000    0.000    0.000    0.000    0.000    0.000 
#
# Total GULP energy -346904.246786 kJ/mol
# GULP energy per Si atom -12389.437385 kJ/mol
# Density = 2.114657 g / cm^3
# Si number density = 21.194808 Si / 1000 Ang^3
#
#
#
# Elastic Constant Matrix: (Units=GPa)
#
#
# Indices 1 2 3 4 5 6 
#
# 1 64.8734 24.9779 23.0185 0.0000 0.0000 0.0000
# 2 24.9779 146.8512 33.7942 0.0000 0.0000 0.0000
# 3 23.0185 33.7942 59.8658 0.0000 0.0000 0.0000
# 4 0.0000 0.0000 0.0000 30.6962 0.0000 0.0000
# 5 0.0000 0.0000 0.0000 0.0000 33.3147 0.0000
# 6 0.0000 0.0000 0.0000 0.0000 0.0000 23.6838
#
#
#
# Elastic Compliance Matrix: (Units=1/GPa)
#
#
# Indices 1 2 3 4 5 6 
#
# 1 0.018215 -0.001708 -0.006039 0.000000 0.000000 0.000000
# 2 -0.001708 0.007987 -0.003852 0.000000 0.000000 0.000000
# 3 -0.006039 -0.003852 0.021200 0.000000 0.000000 0.000000
# 4 0.000000 0.000000 0.000000 0.032577 0.000000 0.000000
# 5 0.000000 0.000000 0.000000 0.000000 0.030017 0.000000
# 6 0.000000 0.000000 0.000000 0.000000 0.000000 0.042223
#
#
# Mechanical properties :
#
#
# Convention : Reuss Voigt Hill
#
# Bulk Modulus (GPa) = 41.31629 48.35242 44.83436
# Shear Modulus (GPa) = 27.25006 30.19226 28.72116
#
# Velocity S-wave (km/s) = 3.58955 3.77837 3.68517
# Velocity P-wave (km/s) = 6.05935 6.47283 6.26950
#
# Compressibility (1/GPa) = 0.02420353
#
# Stress axis : x y z
#
# Youngs Moduli (GPa) = 54.89876 125.21084 47.16898
#
# Poissons Ratio (x) = 0.21391 0.28487
# Poissons Ratio (y) = 0.09379 0.18167
# Poissons Ratio (z) = 0.33156 0.48225
#
# Static dielectric constant tensor:
#      x y z
#    x 3.732600 0.000000 0.000000 
#    y 0.000000 4.349370 0.000000 
#    z 0.000000 0.000000 3.504000 
# 
# 
# High freq. dielectric constant tensor:
#      x y z
#    x 1.806650 0.000000 0.000000 
#    y 0.000000 1.864320 0.000000 
#    z 0.000000 0.000000 1.806080 
# 
# From -- ./inp_files/4388.got.cif
#   From: 2010.03.12/outbox.cif.g09.slc.cpg/sg19_3_cif.got.tgz:4388.got - 2010.04.10 18:59:41.
