data_PCOD8156132
_publ_section_title
;
Structure prediction by ZEFSAII (Michael W. Deem and Ramdas Pophale) SiO2 
 PCOD8156132
Probable space group: P 21 21 2
;
_chemical_formula_sum "Si O2"
_cell_formula_units_Z 32
_cell_length_a 14.252457
_cell_length_b 9.643372
_cell_length_c 10.942960
_cell_angle_alpha 90.000000
_cell_angle_beta 90.000000
_cell_angle_gamma 90.000000
_cell_volume 1504.019515
_symmetry_space_group_name_H-M "P 21 21 2"
_symmetry_group_IT_number 18
_symmetry_cell_setting 'orthorhombic'
loop_
_space_group_symop_operation_xyz
x,y,z
-x,-y,z
1/2+x,1/2-y,-z
1/2-x,1/2+y,-z
loop_
_atom_site_type_symbol
_atom_site_label
_atom_site_fract_x
_atom_site_fract_y
_atom_site_fract_z
Si Si1 0.889886 0.746152 0.624944
Si Si2 0.145302 0.693191 0.977978
Si Si3 0.784019 0.576913 0.080959
Si Si4 0.022220 0.344075 0.158700
Si Si5 0.072690 0.124262 0.364575
Si Si6 0.088071 0.697663 0.703162
Si Si7 0.685859 0.523625 0.325356
Si Si8 0.763391 0.497877 0.594175
O O1 0.912508 0.787518 0.486380
O O2 0.868102 0.881394 0.706557
O O3 0.798037 0.649204 0.635854
O O4 0.979020 0.665233 0.679571
O O5 0.204349 0.834015 0.984885
O O6 0.107834 0.662162 0.843195
O O7 0.214828 0.568806 0.012220
O O8 0.061022 0.709014 0.072890
O O9 0.885066 0.651054 0.074451
O O10 0.763174 0.558244 0.224419
O O11 0.034907 0.231542 0.264696
O O12 0.000000 0.500000 0.209537
O O13 0.172784 0.053964 0.328226
O O14 0.000000 0.000000 0.386181
O O15 0.151937 0.608690 0.612471
O O16 0.107407 0.857529 0.669314
O O17 0.739943 0.503985 0.451692
#
# Coordination Sequence:
#
# PCOD8156132 Si02
#       8
#     4   4   4   4   4   4   4   4
#     4  11  23  39  63  92 125 164 201 251 320 386
#     4  10  24  42  63  89 124 166 211 259 311 374
#     4  10  22  42  64  88 123 165 209 263 315 374
#     4  10  23  42  66  92 125 169 217 267 320 383
#     4  11  24  42  64  96 131 164 213 271 323 385
#     4  11  23  41  62  91 128 164 208 260 310 378
#     4  10  21  41  64  88 122 163 209 256 314 377
#     4  11  23  39  63  94 127 161 201 257 321 383
#
# _framework density 21.276319999999998
#
# number of rings (size 3 to 8) (size 9 to 14) (size 15 to 20)
#    0.000    1.500    0.000    6.000    0.000   12.000 
#    0.000    2.500    0.000    0.000    0.000    0.000 
#    0.000    0.000    0.000    0.000    0.000    0.000 
#
# Total GULP energy -396882.024398 kJ/mol
# GULP energy per Si atom -12402.563262 kJ/mol
# Density = 2.122789 g / cm^3
# Si number density = 21.276320 Si / 1000 Ang^3
#
#
#
# Elastic Constant Matrix: (Units=GPa)
#
#
# Indices 1 2 3 4 5 6 
#
# 1 130.1666 50.9196 43.6912 0.0000 0.0000 0.0000
# 2 50.9196 100.0800 55.6798 0.0000 0.0000 0.0000
# 3 43.6912 55.6798 89.0266 0.0000 0.0000 0.0000
# 4 0.0000 0.0000 0.0000 31.9299 0.0000 0.0000
# 5 0.0000 0.0000 0.0000 0.0000 25.6259 0.0000
# 6 0.0000 0.0000 0.0000 0.0000 0.0000 41.9834
#
#
#
# Elastic Compliance Matrix: (Units=1/GPa)
#
#
# Indices 1 2 3 4 5 6 
#
# 1 0.009981 -0.003609 -0.002641 0.000000 0.000000 0.000000
# 2 -0.003609 0.016629 -0.008629 0.000000 0.000000 0.000000
# 3 -0.002641 -0.008629 0.017926 0.000000 0.000000 0.000000
# 4 0.000000 0.000000 0.000000 0.031319 0.000000 0.000000
# 5 0.000000 0.000000 0.000000 0.000000 0.039023 0.000000
# 6 0.000000 0.000000 0.000000 0.000000 0.000000 0.023819
#
#
# Mechanical properties :
#
#
# Convention : Reuss Voigt Hill
#
# Bulk Modulus (GPa) = 67.67166 68.87273 68.27220
# Shear Modulus (GPa) = 28.83844 31.17335 30.00590
#
# Velocity S-wave (km/s) = 3.68560 3.83190 3.75946
# Velocity P-wave (km/s) = 7.07013 7.21241 7.14162
#
# Compressibility (1/GPa) = 0.01477723
#
# Stress axis : x y z
#
# Youngs Moduli (GPa) = 100.19385 60.13628 55.78555
#
# Poissons Ratio (x) = 0.21701 0.14734
# Poissons Ratio (y) = 0.36156 0.48139
# Poissons Ratio (z) = 0.26464 0.51893
#
# Static dielectric constant tensor:
#      x y z
#    x 4.129700 0.000000 0.000000 
#    y 0.000000 4.074460 0.000000 
#    z 0.000000 0.000000 3.661140 
# 
# 
# High freq. dielectric constant tensor:
#      x y z
#    x 1.848740 0.000000 0.000000 
#    y 0.000000 1.848440 0.000000 
#    z 0.000000 0.000000 1.820550 
# 
# From -- ./inp_files/5704.got.cif
#   From: 2010.03.12/outbox.cif.g09.slc.cpg/sg18_3_cif.got.tgz:5704.got - 2010.04.10 18:53:55.
