data_PCOD8156762
_publ_section_title
;
Structure prediction by ZEFSAII (Michael W. Deem and Ramdas Pophale) SiO2 
 PCOD8156762
Probable space group: P 21 21 21
;
_chemical_formula_sum "Si O2"
_cell_formula_units_Z 24
_cell_length_a 5.046371
_cell_length_b 28.481310
_cell_length_c 8.010205
_cell_angle_alpha 90.000000
_cell_angle_beta 90.000000
_cell_angle_gamma 90.000000
_cell_volume 1151.284791
_symmetry_space_group_name_H-M "P 21 21 21"
_symmetry_group_IT_number 19
_symmetry_cell_setting 'orthorhombic'
loop_
_space_group_symop_operation_xyz
x,y,z
1/2-x,-y,1/2+z
1/2+x,1/2-y,-z
-x,1/2+y,1/2-z
loop_
_atom_site_type_symbol
_atom_site_label
_atom_site_fract_x
_atom_site_fract_y
_atom_site_fract_z
Si Si1 0.535317 0.525419 0.542292
Si Si2 0.478862 0.418526 0.054287
Si Si3 0.945174 0.160141 0.692613
Si Si4 0.277214 0.939041 0.771102
Si Si5 0.553614 0.644919 0.027657
Si Si6 0.840437 0.257110 0.602807
O O1 0.249139 0.543929 0.592933
O O2 0.582579 0.528518 0.342148
O O3 0.561580 0.471637 0.600501
O O4 0.754021 0.558865 0.632662
O O5 0.411756 0.368574 0.136171
O O6 0.516611 0.412070 0.853250
O O7 0.738045 0.142625 0.552115
O O8 0.897767 0.215538 0.737295
O O9 0.237844 0.151810 0.621806
O O10 0.099025 0.902431 0.871255
O O11 0.581034 0.689683 0.155754
O O12 0.530454 0.255527 0.555437
#
# Coordination Sequence:
#
# PCOD8156762 Si02
#       6
#     4   4   4   4   4   4
#     4  10  25  39  56  82 116 156 192 246 285 347
#     4  10  24  38  58  83 116 149 197 235 295 343
#     4  10  20  35  63  85 114 149 193 238 288 345
#     4  10  26  38  60  82 122 151 202 238 295 346
#     4  10  21  35  63  85 114 150 193 239 288 343
#     4   8  16  33  54  87 110 141 187 234 281 344
#
# _framework density 20.846274000000001
#
# number of rings (size 3 to 8) (size 9 to 14) (size 15 to 20)
#    1.000    1.333    0.000    1.000    9.333    0.000 
#    0.000    0.000    3.667    0.000    0.000    0.000 
#    0.000    0.000    0.000    0.000    0.000    0.000 
#
# Total GULP energy -297336.564352 kJ/mol
# GULP energy per Si atom -12389.023515 kJ/mol
# Density = 2.079883 g / cm^3
# Si number density = 20.846274 Si / 1000 Ang^3
#
#
#
# Elastic Constant Matrix: (Units=GPa)
#
#
# Indices 1 2 3 4 5 6 
#
# 1 84.0192 -8.9784 0.7050 0.0000 0.0000 0.0000
# 2 -8.9784 58.8675 20.9291 0.0000 0.0000 0.0000
# 3 0.7050 20.9291 44.5353 0.0000 0.0000 0.0000
# 4 0.0000 0.0000 0.0000 30.6985 0.0000 0.0000
# 5 0.0000 0.0000 0.0000 0.0000 16.0359 0.0000
# 6 0.0000 0.0000 0.0000 0.0000 0.0000 26.6760
#
#
#
# Elastic Compliance Matrix: (Units=1/GPa)
#
#
# Indices 1 2 3 4 5 6 
#
# 1 0.012159 0.002309 -0.001277 0.000000 0.000000 0.000000
# 2 0.002309 0.020833 -0.009827 0.000000 0.000000 0.000000
# 3 -0.001277 -0.009827 0.027092 0.000000 0.000000 0.000000
# 4 0.000000 0.000000 0.000000 0.032575 0.000000 0.000000
# 5 0.000000 0.000000 0.000000 0.000000 0.062360 0.000000
# 6 0.000000 0.000000 0.000000 0.000000 0.000000 0.037487
#
#
# Mechanical properties :
#
#
# Convention : Reuss Voigt Hill
#
# Bulk Modulus (GPa) = 23.53290 23.63703 23.58497
# Shear Modulus (GPa) = 22.29526 26.33318 24.31422
#
# Velocity S-wave (km/s) = 3.27388 3.55802 3.41890
# Velocity P-wave (km/s) = 5.06007 5.31438 5.18879
#
# Compressibility (1/GPa) = 0.04249370
#
# Stress axis : x y z
#
# Youngs Moduli (GPa) = 82.24044 48.00022 36.91063
#
# Poissons Ratio (x) = -0.11082 0.04715
# Poissons Ratio (y) = -0.18987 0.36272
# Poissons Ratio (z) = 0.10506 0.47170
#
# Static dielectric constant tensor:
#      x y z
#    x 3.775010 0.000000 0.000000 
#    y 0.000000 3.939700 0.000000 
#    z 0.000000 0.000000 3.232610 
# 
# 
# High freq. dielectric constant tensor:
#      x y z
#    x 1.830150 0.000000 0.000000 
#    y 0.000000 1.824190 0.000000 
#    z 0.000000 0.000000 1.757910 
# 
# From -- ./inp_files/2231.got.cif
#   From: 2010.03.12/outbox.cif.g09.slc.cpg/sg19_2_cif.got.tgz:2231.got - 2010.04.10 18:59:41.
