data_PCOD8156368
_publ_section_title
;
Structure prediction by ZEFSAII (Michael W. Deem and Ramdas Pophale) SiO2 
 PCOD8156368
Probable space group: P 21 21 2
;
_chemical_formula_sum "Si O2"
_cell_formula_units_Z 20
_cell_length_a 10.111096
_cell_length_b 13.342568
_cell_length_c 6.245720
_cell_angle_alpha 90.000000
_cell_angle_beta 90.000000
_cell_angle_gamma 90.000000
_cell_volume 842.597506
_symmetry_space_group_name_H-M "P 21 21 2"
_symmetry_group_IT_number 18
_symmetry_cell_setting 'orthorhombic'
loop_
_space_group_symop_operation_xyz
x,y,z
-x,-y,z
1/2+x,1/2-y,-z
1/2-x,1/2+y,-z
loop_
_atom_site_type_symbol
_atom_site_label
_atom_site_fract_x
_atom_site_fract_y
_atom_site_fract_z
Si Si1 0.724178 0.228854 0.148183
Si Si2 0.235165 0.494460 0.824082
Si Si3 0.500000 0.500000 0.052356
Si Si4 0.555067 0.712970 0.186913
Si Si5 0.869522 0.356659 0.464259
Si Si6 0.500000 0.000000 0.841078
O O1 0.752988 0.120288 0.253140
O O2 0.573302 0.240050 0.070098
O O3 0.747947 0.315247 0.324337
O O4 0.817926 0.248866 0.945679
O O5 0.184169 0.560894 0.629361
O O6 0.376354 0.535761 0.906545
O O7 0.130912 0.489820 0.017644
O O8 0.546542 0.592345 0.201123
O O9 0.563132 0.761531 0.421068
O O10 0.982247 0.403921 0.313195
#
# Coordination Sequence:
#
# PCOD8156368 Si02
#       6
#     4   4   2   4   4   2
#     4  11  25  43  69  99 133 176 221 278 336 394
#     4  11  25  47  69  99 138 175 222 279 336 397
#     4  10  24  44  66  94 144 180 206 280 352 392
#     4  11  24  44  67 100 137 176 224 276 334 398
#     4  12  25  42  73 102 129 177 233 274 326 401
#     4  12  24  46  72  98 134 180 228 278 330 392
#
# _framework density 23.736124
#
# number of rings (size 3 to 8) (size 9 to 14) (size 15 to 20)
#    0.000    0.800    0.000    7.800    0.000   12.800 
#    0.000    4.000    0.000    0.000    0.000    0.000 
#    0.000    0.000    0.000    0.000    0.000    0.000 
#
# Total GULP energy -248063.102770 kJ/mol
# GULP energy per Si atom -12403.155139 kJ/mol
# Density = 2.368210 g / cm^3
# Si number density = 23.736124 Si / 1000 Ang^3
#
#
#
# Elastic Constant Matrix: (Units=GPa)
#
#
# Indices 1 2 3 4 5 6 
#
# 1 138.4540 -4.1368 32.9477 0.0000 0.0000 0.0000
# 2 -4.1368 81.9338 45.3456 0.0000 0.0000 0.0000
# 3 32.9477 45.3456 103.9495 0.0000 0.0000 0.0000
# 4 0.0000 0.0000 0.0000 43.3442 0.0000 0.0000
# 5 0.0000 0.0000 0.0000 0.0000 23.5153 0.0000
# 6 0.0000 0.0000 0.0000 0.0000 0.0000 39.2963
#
#
#
# Elastic Compliance Matrix: (Units=1/GPa)
#
#
# Indices 1 2 3 4 5 6 
#
# 1 0.008163 0.002431 -0.003648 0.000000 0.000000 0.000000
# 2 0.002431 0.016813 -0.008105 0.000000 0.000000 0.000000
# 3 -0.003648 -0.008105 0.014312 0.000000 0.000000 0.000000
# 4 0.000000 0.000000 0.000000 0.023071 0.000000 0.000000
# 5 0.000000 0.000000 0.000000 0.000000 0.042526 0.000000
# 6 0.000000 0.000000 0.000000 0.000000 0.000000 0.025448
#
#
# Mechanical properties :
#
#
# Convention : Reuss Voigt Hill
#
# Bulk Modulus (GPa) = 48.43807 52.51672 50.47740
# Shear Modulus (GPa) = 32.08039 37.90987 34.99513
#
# Velocity S-wave (km/s) = 3.68032 4.00076 3.84388
# Velocity P-wave (km/s) = 6.20571 6.59656 6.40412
#
# Compressibility (1/GPa) = 0.02064492
#
# Stress axis : x y z
#
# Youngs Moduli (GPa) = 122.49870 59.47639 69.87170
#
# Poissons Ratio (x) = -0.14459 0.25489
# Poissons Ratio (y) = -0.29781 0.56631
# Poissons Ratio (z) = 0.44687 0.48206
#
# Static dielectric constant tensor:
#      x y z
#    x 4.370530 0.000000 0.000000 
#    y 0.000000 4.583460 0.000000 
#    z 0.000000 0.000000 4.038020 
# 
# 
# High freq. dielectric constant tensor:
#      x y z
#    x 1.950720 0.000000 0.000000 
#    y 0.000000 1.964300 0.000000 
#    z 0.000000 0.000000 1.919990 
# 
# From -- ./inp_files/1000.got.cif
#   From: 2010.03.12/outbox.cif.g09.slc.cpg/sg18_1_cif.got.tgz:1000.got - 2010.04.10 18:53:55.
