data_PCOD8156924
_publ_section_title
;
Structure prediction by ZEFSAII (Michael W. Deem and Ramdas Pophale) SiO2 
 PCOD8156924
Probable space group: P 21 21 21
;
_chemical_formula_sum "Si O2"
_cell_formula_units_Z 32
_cell_length_a 10.059303
_cell_length_b 9.682718
_cell_length_c 13.506256
_cell_angle_alpha 90.000000
_cell_angle_beta 90.000000
_cell_angle_gamma 90.000000
_cell_volume 1315.528165
_symmetry_space_group_name_H-M "P 21 21 21"
_symmetry_group_IT_number 19
_symmetry_cell_setting 'orthorhombic'
loop_
_space_group_symop_operation_xyz
x,y,z
1/2-x,-y,1/2+z
1/2+x,1/2-y,-z
-x,1/2+y,1/2-z
loop_
_atom_site_type_symbol
_atom_site_label
_atom_site_fract_x
_atom_site_fract_y
_atom_site_fract_z
Si Si1 0.047896 0.510389 0.913279
Si Si2 0.780999 0.520622 0.682916
Si Si3 0.182392 0.456435 0.500959
Si Si4 0.410568 0.823828 0.933144
Si Si5 0.424697 0.447448 0.181817
Si Si6 0.815242 0.336810 0.866716
Si Si7 0.527943 0.399156 0.875830
Si Si8 0.439120 0.177631 0.730968
O O1 0.176155 0.473289 0.978708
O O2 0.086856 0.531954 0.798953
O O3 0.943548 0.386691 0.927864
O O4 0.977103 0.644646 0.960815
O O5 0.679000 0.453186 0.603376
O O6 0.819052 0.398872 0.757083
O O7 0.715421 0.652899 0.739320
O O8 0.923352 0.573764 0.643086
O O9 0.182644 0.310135 0.444509
O O10 0.145883 0.430732 0.617179
O O11 0.073437 0.568303 0.463416
O O12 0.533727 0.781440 0.860777
O O13 0.327611 0.324984 0.147570
O O14 0.678690 0.389375 0.918846
O O15 0.506831 0.249251 0.825845
O O16 0.508754 0.522411 0.794130
#
# Coordination Sequence:
#
# PCOD8156924 Si02
#       8
#     4   4   4   4   4   4   4   4
#     4  11  28  45  74 110 143 204 252 318 381 462
#     4  10  23  45  76 110 149 204 240 325 382 457
#     4  11  28  45  74 110 147 204 253 320 379 480
#     4  11  24  45  77 107 158 196 258 308 392 462
#     4  11  27  47  74 102 156 194 257 321 388 445
#     4  10  23  47  69 103 151 194 244 318 379 445
#     4  10  23  43  75 109 152 197 252 311 383 455
#     4  10  20  43  75 113 148 201 246 309 378 454
#
# _framework density 24.324832000000001
#
# number of rings (size 3 to 8) (size 9 to 14) (size 15 to 20)
#    0.000    1.500    2.500    0.750   10.500    7.000 
#    0.000    0.000    0.000    0.000    0.000    0.000 
#    0.000    0.000    0.000    0.000    0.000    0.000 
#
# Total GULP energy -396446.933556 kJ/mol
# GULP energy per Si atom -12388.966674 kJ/mol
# Density = 2.426947 g / cm^3
# Si number density = 24.324832 Si / 1000 Ang^3
#
#
#
# Elastic Constant Matrix: (Units=GPa)
#
#
# Indices 1 2 3 4 5 6 
#
# 1 141.8784 20.3161 45.7937 0.0000 0.0000 0.0000
# 2 20.3161 55.1396 7.8747 0.0000 0.0000 0.0000
# 3 45.7937 7.8747 100.3063 0.0000 0.0000 0.0000
# 4 0.0000 0.0000 0.0000 26.8535 0.0000 0.0000
# 5 0.0000 0.0000 0.0000 0.0000 37.8336 0.0000
# 6 0.0000 0.0000 0.0000 0.0000 0.0000 34.2178
#
#
#
# Elastic Compliance Matrix: (Units=1/GPa)
#
#
# Indices 1 2 3 4 5 6 
#
# 1 0.008632 -0.002647 -0.003733 0.000000 0.000000 0.000000
# 2 -0.002647 0.019153 -0.000295 0.000000 0.000000 0.000000
# 3 -0.003733 -0.000295 0.011697 0.000000 0.000000 0.000000
# 4 0.000000 0.000000 0.000000 0.037239 0.000000 0.000000
# 5 0.000000 0.000000 0.000000 0.000000 0.026432 0.000000
# 6 0.000000 0.000000 0.000000 0.000000 0.000000 0.029225
#
#
# Mechanical properties :
#
#
# Convention : Reuss Voigt Hill
#
# Bulk Modulus (GPa) = 38.26805 49.47703 43.87254
# Shear Modulus (GPa) = 32.37517 34.67032 33.52274
#
# Velocity S-wave (km/s) = 3.65218 3.77942 3.71634
# Velocity P-wave (km/s) = 5.79230 6.27930 6.04071
#
# Compressibility (1/GPa) = 0.02613146
#
# Stress axis : x y z
#
# Youngs Moduli (GPa) = 115.84367 52.21021 85.49234
#
# Poissons Ratio (x) = 0.13822 0.31916
# Poissons Ratio (y) = 0.30669 0.02522
# Poissons Ratio (z) = 0.43246 0.01540
#
# Static dielectric constant tensor:
#      x y z
#    x 4.636360 0.000000 0.000000 
#    y 0.000000 4.164940 0.000000 
#    z 0.000000 0.000000 4.346910 
# 
# 
# High freq. dielectric constant tensor:
#      x y z
#    x 1.971770 0.000000 0.000000 
#    y 0.000000 1.952980 0.000000 
#    z 0.000000 0.000000 1.960410 
# 
# From -- ./inp_files/6157.got.cif
#   From: 2010.03.12/outbox.cif.g09.slc.cpg/sg19_4_cif.got.tgz:6157.got - 2010.04.10 18:59:41.
