data_PCOD8156252
_publ_section_title
;
Structure prediction by ZEFSAII (Michael W. Deem and Ramdas Pophale) SiO2 
 PCOD8156252
Probable space group: P 21 21 2
;
_chemical_formula_sum "Si O2"
_cell_formula_units_Z 18
_cell_length_a 9.035804
_cell_length_b 11.415273
_cell_length_c 7.250570
_cell_angle_alpha 90.000000
_cell_angle_beta 90.000000
_cell_angle_gamma 90.000000
_cell_volume 747.868522
_symmetry_space_group_name_H-M "P 21 21 2"
_symmetry_group_IT_number 18
_symmetry_cell_setting 'orthorhombic'
loop_
_space_group_symop_operation_xyz
x,y,z
-x,-y,z
1/2+x,1/2-y,-z
1/2-x,1/2+y,-z
loop_
_atom_site_type_symbol
_atom_site_label
_atom_site_fract_x
_atom_site_fract_y
_atom_site_fract_z
Si Si1 0.294634 0.414982 0.746622
Si Si2 0.959746 0.753201 0.332163
Si Si3 0.655194 0.863111 0.386721
Si Si4 0.549604 0.243348 0.101939
Si Si5 0.500000 0.500000 0.043448
O O1 0.438920 0.368621 0.638342
O O2 0.197992 0.499797 0.617176
O O3 0.203987 0.302004 0.816616
O O4 0.351081 0.490032 0.921155
O O5 0.035800 0.650011 0.449608
O O6 0.798815 0.780367 0.417462
O O7 0.953801 0.721894 0.116742
O O8 0.584149 0.829910 0.190061
O O9 0.526442 0.380527 0.159176
#
# Coordination Sequence:
#
# PCOD8156252 Si02
#       5
#     4   4   4   4   2
#     4  11  22  47  74 103 146 190 247 311 353 440
#     4  11  24  45  72 103 147 190 243 301 375 428
#     4  12  24  46  72 106 145 192 247 305 364 441
#     4  11  24  46  75 106 142 191 243 304 373 439
#     4  10  22  42  76 104 148 186 238 302 370 428
#
# _framework density 24.068401999999999
#
# number of rings (size 3 to 8) (size 9 to 14) (size 15 to 20)
#    0.000    0.889    4.444    4.667    0.000    0.000 
#    8.000    8.889    0.000    0.000    0.000    0.000 
#    0.000    0.000    0.000    0.000    0.000    0.000 
#
# Total GULP energy -223200.133405 kJ/mol
# GULP energy per Si atom -12400.007411 kJ/mol
# Density = 2.401362 g / cm^3
# Si number density = 24.068402 Si / 1000 Ang^3
#
#
#
# Elastic Constant Matrix: (Units=GPa)
#
#
# Indices 1 2 3 4 5 6 
#
# 1 123.8480 24.7494 32.6712 0.0000 0.0000 0.0000
# 2 24.7494 55.4874 15.4681 0.0000 0.0000 0.0000
# 3 32.6712 15.4681 90.8258 0.0000 0.0000 0.0000
# 4 0.0000 0.0000 0.0000 30.8165 0.0000 0.0000
# 5 0.0000 0.0000 0.0000 0.0000 37.5051 0.0000
# 6 0.0000 0.0000 0.0000 0.0000 0.0000 53.6174
#
#
#
# Elastic Compliance Matrix: (Units=1/GPa)
#
#
# Indices 1 2 3 4 5 6 
#
# 1 0.009512 -0.003453 -0.002834 0.000000 0.000000 0.000000
# 2 -0.003453 0.020174 -0.002194 0.000000 0.000000 0.000000
# 3 -0.002834 -0.002194 0.012403 0.000000 0.000000 0.000000
# 4 0.000000 0.000000 0.000000 0.032450 0.000000 0.000000
# 5 0.000000 0.000000 0.000000 0.000000 0.026663 0.000000
# 6 0.000000 0.000000 0.000000 0.000000 0.000000 0.018651
#
#
# Mechanical properties :
#
#
# Convention : Reuss Voigt Hill
#
# Bulk Modulus (GPa) = 39.79531 46.21542 43.00537
# Shear Modulus (GPa) = 34.43798 37.53928 35.98863
#
# Velocity S-wave (km/s) = 3.78675 3.95358 3.87106
# Velocity P-wave (km/s) = 5.97406 6.33123 6.15523
#
# Compressibility (1/GPa) = 0.02512859
#
# Stress axis : x y z
#
# Youngs Moduli (GPa) = 105.13158 49.56953 80.62604
#
# Poissons Ratio (x) = 0.17115 0.22846
# Poissons Ratio (y) = 0.36299 0.17687
# Poissons Ratio (z) = 0.29789 0.10874
#
# Static dielectric constant tensor:
#      x y z
#    x 4.676850 0.000000 0.000000 
#    y 0.000000 4.292400 0.000000 
#    z 0.000000 0.000000 4.079240 
# 
# 
# High freq. dielectric constant tensor:
#      x y z
#    x 1.979850 0.000000 0.000000 
#    y 0.000000 1.951860 0.000000 
#    z 0.000000 0.000000 1.931010 
# 
# From -- ./inp_files/2892.got.cif
#   From: 2010.03.12/outbox.cif.g09.slc.cpg/sg18_2_cif.got.tgz:2892.got - 2010.04.10 18:53:55.
