data_PCOD8156755
_publ_section_title
;
Structure prediction by ZEFSAII (Michael W. Deem and Ramdas Pophale) SiO2 
 PCOD8156755
Probable space group: P 21 21 21
;
_chemical_formula_sum "Si O2"
_cell_formula_units_Z 32
_cell_length_a 11.210380
_cell_length_b 11.467537
_cell_length_c 13.283505
_cell_angle_alpha 90.000000
_cell_angle_beta 90.000000
_cell_angle_gamma 90.000000
_cell_volume 1707.666929
_symmetry_space_group_name_H-M "P 21 21 21"
_symmetry_group_IT_number 19
_symmetry_cell_setting 'orthorhombic'
loop_
_space_group_symop_operation_xyz
x,y,z
1/2-x,-y,1/2+z
1/2+x,1/2-y,-z
-x,1/2+y,1/2-z
loop_
_atom_site_type_symbol
_atom_site_label
_atom_site_fract_x
_atom_site_fract_y
_atom_site_fract_z
Si Si1 0.775509 0.427361 0.297832
Si Si2 0.076421 0.289207 0.448842
Si Si3 0.349989 0.354299 0.901225
Si Si4 0.200460 0.565111 0.966199
Si Si5 0.201197 0.913203 0.425690
Si Si6 0.936872 0.569787 0.924556
Si Si7 0.126021 0.680920 0.171237
Si Si8 0.431043 0.984055 0.532791
O O1 0.816794 0.458960 0.186705
O O2 0.636239 0.455789 0.321965
O O3 0.788607 0.291889 0.325049
O O4 0.860595 0.508273 0.363069
O O5 0.205044 0.343017 0.417779
O O6 0.101430 0.196609 0.535788
O O7 0.008741 0.225716 0.355522
O O8 0.994236 0.393032 0.493669
O O9 0.249109 0.435507 0.950494
O O10 0.312306 0.224971 0.929434
O O11 0.367950 0.379158 0.781323
O O12 0.473759 0.380901 0.957119
O O13 0.077699 0.569740 0.903231
O O14 0.173460 0.592837 0.084237
O O15 0.100172 0.972274 0.493586
O O16 0.336396 0.950088 0.448474
#
# Coordination Sequence:
#
# PCOD8156755 Si02
#       8
#     4   4   4   4   4   4   4   4
#     4   9  18  37  57  84 110 149 199 235 289 351
#     4   9  18  36  61  86 106 144 193 246 287 329
#     4  10  22  38  58  84 121 158 194 238 290 355
#     4  10  20  36  61  87 118 144 198 251 292 337
#     4  10  22  37  59  79 120 159 185 233 301 355
#     4  10  20  35  61  84 114 146 195 242 296 339
#     4   9  18  36  62  83 115 153 195 241 289 347
#     4   9  20  37  59  81 114 149 195 234 288 349
#
# _framework density 18.739017
#
# number of rings (size 3 to 8) (size 9 to 14) (size 15 to 20)
#    0.000    2.500    1.250    0.000    7.000    0.000 
#    4.500    0.000    0.000    0.000    0.000    0.000 
#    0.000    0.000    0.000    0.000    0.000    0.000 
#
# Total GULP energy -396587.714397 kJ/mol
# GULP energy per Si atom -12393.366075 kJ/mol
# Density = 1.869637 g / cm^3
# Si number density = 18.739017 Si / 1000 Ang^3
#
#
#
# Elastic Constant Matrix: (Units=GPa)
#
#
# Indices 1 2 3 4 5 6 
#
# 1 118.0130 35.9639 14.3127 0.0000 0.0000 0.0000
# 2 35.9639 84.2180 24.9337 0.0000 0.0000 0.0000
# 3 14.3127 24.9337 48.1132 0.0000 0.0000 0.0000
# 4 0.0000 0.0000 0.0000 25.3375 0.0000 0.0000
# 5 0.0000 0.0000 0.0000 0.0000 14.4613 0.0000
# 6 0.0000 0.0000 0.0000 0.0000 0.0000 26.7960
#
#
#
# Elastic Compliance Matrix: (Units=1/GPa)
#
#
# Indices 1 2 3 4 5 6 
#
# 1 0.009773 -0.003913 -0.000879 0.000000 0.000000 0.000000
# 2 -0.003913 0.015593 -0.006917 0.000000 0.000000 0.000000
# 3 -0.000879 -0.006917 0.024630 0.000000 0.000000 0.000000
# 4 0.000000 0.000000 0.000000 0.039467 0.000000 0.000000
# 5 0.000000 0.000000 0.000000 0.000000 0.069150 0.000000
# 6 0.000000 0.000000 0.000000 0.000000 0.000000 0.037319
#
#
# Mechanical properties :
#
#
# Convention : Reuss Voigt Hill
#
# Bulk Modulus (GPa) = 37.62522 44.52941 41.07732
# Shear Modulus (GPa) = 21.90973 24.99454 23.45214
#
# Velocity S-wave (km/s) = 3.42307 3.65612 3.54151
# Velocity P-wave (km/s) = 5.97874 6.45271 6.22024
#
# Compressibility (1/GPa) = 0.02657791
#
# Stress axis : x y z
#
# Youngs Moduli (GPa) = 102.32540 64.13292 40.60038
#
# Poissons Ratio (x) = 0.25095 0.03570
# Poissons Ratio (y) = 0.40039 0.28081
# Poissons Ratio (z) = 0.08998 0.44358
#
# Static dielectric constant tensor:
#      x y z
#    x 3.613000 0.000000 0.000000 
#    y 0.000000 3.407740 0.000000 
#    z 0.000000 0.000000 3.328510 
# 
# 
# High freq. dielectric constant tensor:
#      x y z
#    x 1.739340 0.000000 0.000000 
#    y 0.000000 1.726860 0.000000 
#    z 0.000000 0.000000 1.701410 
# 
# From -- ./inp_files/5086.got.cif
#   From: 2010.03.12/outbox.cif.g09.slc.cpg/sg19_3_cif.got.tgz:5086.got - 2010.04.10 18:59:41.
