data_PCOD8156974
_publ_section_title
;
Structure prediction by ZEFSAII (Michael W. Deem and Ramdas Pophale) SiO2 
 PCOD8156974
Probable space group: P 21 21 21
;
_chemical_formula_sum "Si O2"
_cell_formula_units_Z 32
_cell_length_a 22.561513
_cell_length_b 6.650646
_cell_length_c 10.448807
_cell_angle_alpha 90.000000
_cell_angle_beta 90.000000
_cell_angle_gamma 90.000000
_cell_volume 1567.829240
_symmetry_space_group_name_H-M "P 21 21 21"
_symmetry_group_IT_number 19
_symmetry_cell_setting 'orthorhombic'
loop_
_space_group_symop_operation_xyz
x,y,z
1/2-x,-y,1/2+z
1/2+x,1/2-y,-z
-x,1/2+y,1/2-z
loop_
_atom_site_type_symbol
_atom_site_label
_atom_site_fract_x
_atom_site_fract_y
_atom_site_fract_z
Si Si1 0.507607 0.633648 0.960046
Si Si2 0.328965 0.935156 0.974237
Si Si3 0.441682 0.942552 0.136326
Si Si4 0.392648 0.613305 0.814671
Si Si5 0.956398 0.751296 0.605214
Si Si6 0.109538 0.561059 0.051610
Si Si7 0.738694 0.870729 0.910835
Si Si8 0.208473 0.651964 0.381918
O O1 0.462373 0.607864 0.843281
O O2 0.562564 0.766695 0.913547
O O3 0.472499 0.749208 0.071884
O O4 0.530128 0.412112 0.996130
O O5 0.359767 0.813439 0.860332
O O6 0.293845 0.111034 0.903121
O O7 0.380262 0.007652 0.070755
O O8 0.280946 0.813632 0.055900
O O9 0.427555 0.871954 0.279267
O O10 0.481911 0.140974 0.140366
O O11 0.386046 0.603224 0.663274
O O12 0.359344 0.425676 0.881280
O O13 0.909699 0.926662 0.569456
O O14 0.172350 0.673090 0.036778
O O15 0.739400 0.904157 0.755604
O O16 0.758903 0.064291 0.992813
#
# Coordination Sequence:
#
# PCOD8156974 Si02
#       8
#     4   4   4   4   4   4   4   4
#     4  10  21  38  60  89 121 163 199 249 319 373
#     4  10  22  41  69  90 118 177 210 253 325 387
#     4  10  21  39  60  93 122 160 208 253 318 381
#     4   9  21  41  61  91 127 157 212 258 306 385
#     4  11  21  37  59  88 127 160 201 266 313 383
#     4  10  24  38  59  93 125 161 206 266 317 372
#     4  10  24  44  63  95 129 162 220 274 315 376
#     4  10  22  44  67  91 129 172 212 273 317 381
#
# _framework density 20.410385000000002
#
# number of rings (size 3 to 8) (size 9 to 14) (size 15 to 20)
#    0.000    2.000    1.250    0.750    3.500    6.000 
#    4.500    0.000    0.000    0.000    0.000    0.000 
#    0.000    0.000    0.000    0.000    0.000    0.000 
#
# Total GULP energy -396695.580842 kJ/mol
# GULP energy per Si atom -12396.736901 kJ/mol
# Density = 2.036393 g / cm^3
# Si number density = 20.410385 Si / 1000 Ang^3
#
#
#
# Elastic Constant Matrix: (Units=GPa)
#
#
# Indices 1 2 3 4 5 6 
#
# 1 108.1533 25.9406 46.1761 0.0000 0.0000 0.0000
# 2 25.9406 88.6213 38.5975 0.0000 0.0000 0.0000
# 3 46.1761 38.5975 99.6450 0.0000 0.0000 0.0000
# 4 0.0000 0.0000 0.0000 26.7376 0.0000 0.0000
# 5 0.0000 0.0000 0.0000 0.0000 26.0959 0.0000
# 6 0.0000 0.0000 0.0000 0.0000 0.0000 23.3017
#
#
#
# Elastic Compliance Matrix: (Units=1/GPa)
#
#
# Indices 1 2 3 4 5 6 
#
# 1 0.011645 -0.001273 -0.004903 0.000000 0.000000 0.000000
# 2 -0.001273 0.013713 -0.004722 0.000000 0.000000 0.000000
# 3 -0.004903 -0.004722 0.014137 0.000000 0.000000 0.000000
# 4 0.000000 0.000000 0.000000 0.037400 0.000000 0.000000
# 5 0.000000 0.000000 0.000000 0.000000 0.038320 0.000000
# 6 0.000000 0.000000 0.000000 0.000000 0.000000 0.042915
#
#
# Mechanical properties :
#
#
# Convention : Reuss Voigt Hill
#
# Bulk Modulus (GPa) = 56.50164 57.53868 57.02016
# Shear Modulus (GPa) = 26.90679 27.60739 27.25709
#
# Velocity S-wave (km/s) = 3.63476 3.68178 3.65835
# Velocity P-wave (km/s) = 6.73485 6.80633 6.77068
#
# Compressibility (1/GPa) = 0.01769860
#
# Stress axis : x y z
#
# Youngs Moduli (GPa) = 85.87443 72.92273 70.73737
#
# Poissons Ratio (x) = 0.09284 0.34684
# Poissons Ratio (y) = 0.10933 0.33401
# Poissons Ratio (z) = 0.42106 0.34433
#
# Static dielectric constant tensor:
#      x y z
#    x 3.863680 0.000000 0.000000 
#    y 0.000000 3.597900 0.000000 
#    z 0.000000 0.000000 3.621360 
# 
# 
# High freq. dielectric constant tensor:
#      x y z
#    x 1.800300 0.000000 0.000000 
#    y 0.000000 1.795340 0.000000 
#    z 0.000000 0.000000 1.794690 
# 
# From -- ./inp_files/5525.got.cif
#   From: 2010.03.12/outbox.cif.g09.slc.cpg/sg19_3_cif.got.tgz:5525.got - 2010.04.10 18:59:41.
