data_PCOD8156660
_publ_section_title
;
Structure prediction by ZEFSAII (Michael W. Deem and Ramdas Pophale) SiO2 
 PCOD8156660
Probable space group: P 21 21 21
;
_chemical_formula_sum "Si O2"
_cell_formula_units_Z 32
_cell_length_a 16.038959
_cell_length_b 11.365886
_cell_length_c 8.863492
_cell_angle_alpha 90.000000
_cell_angle_beta 90.000000
_cell_angle_gamma 90.000000
_cell_volume 1615.787820
_symmetry_space_group_name_H-M "P 21 21 21"
_symmetry_group_IT_number 19
_symmetry_cell_setting 'orthorhombic'
loop_
_space_group_symop_operation_xyz
x,y,z
1/2-x,-y,1/2+z
1/2+x,1/2-y,-z
-x,1/2+y,1/2-z
loop_
_atom_site_type_symbol
_atom_site_label
_atom_site_fract_x
_atom_site_fract_y
_atom_site_fract_z
Si Si1 0.156535 0.205953 0.454666
Si Si2 0.212095 0.395406 0.661377
Si Si3 0.572464 0.439617 0.064610
Si Si4 0.132992 0.980228 0.619425
Si Si5 0.294669 0.840531 0.631065
Si Si6 0.782121 0.130878 0.016099
Si Si7 0.448356 0.245532 0.094263
Si Si8 0.530432 0.158311 0.380891
O O1 0.224740 0.283588 0.547753
O O2 0.165810 0.218299 0.277516
O O3 0.062766 0.250201 0.493128
O O4 0.165945 0.068623 0.493541
O O5 0.239004 0.510802 0.569380
O O6 0.112835 0.394725 0.707475
O O7 0.274663 0.387936 0.803561
O O8 0.597629 0.444361 0.240956
O O9 0.528281 0.313906 0.029930
O O10 0.514185 0.551256 0.030824
O O11 0.650022 0.440829 0.950307
O O12 0.207739 0.898970 0.679977
O O13 0.065676 0.890485 0.540925
O O14 0.284580 0.732643 0.516177
O O15 0.871247 0.173187 0.953743
O O16 0.464332 0.226701 0.274608
#
# Coordination Sequence:
#
# PCOD8156660 Si02
#       8
#     4   4   4   4   4   4   4   4
#     4  10  20  40  59  87 124 160 211 254 314 378
#     4  10  21  38  65  91 125 168 208 263 319 385
#     4  11  19  40  62  86 122 163 214 259 321 371
#     4  10  21  36  62  87 117 164 213 251 325 380
#     4  11  23  36  62  91 126 162 208 271 311 376
#     4  11  21  37  63  97 122 164 215 260 323 378
#     4  10  19  36  62  87 117 166 207 259 314 387
#     4   9  20  37  65  84 119 171 206 255 315 389
#
# _framework density 19.804582
#
# number of rings (size 3 to 8) (size 9 to 14) (size 15 to 20)
#    0.750    1.000    2.500    3.000    0.000    1.000 
#    2.250    0.000   13.750    0.000    0.000    0.000 
#    0.000    0.000    0.000    0.000    0.000    0.000 
#
# Total GULP energy -396434.034688 kJ/mol
# GULP energy per Si atom -12388.563584 kJ/mol
# Density = 1.975951 g / cm^3
# Si number density = 19.804582 Si / 1000 Ang^3
#
#
#
# Elastic Constant Matrix: (Units=GPa)
#
#
# Indices 1 2 3 4 5 6 
#
# 1 59.1587 26.8101 16.9273 0.0000 0.0000 0.0000
# 2 26.8101 107.6860 32.0415 0.0000 0.0000 0.0000
# 3 16.9273 32.0415 74.2128 0.0000 0.0000 0.0000
# 4 0.0000 0.0000 0.0000 27.8041 0.0000 0.0000
# 5 0.0000 0.0000 0.0000 0.0000 27.4691 0.0000
# 6 0.0000 0.0000 0.0000 0.0000 0.0000 29.1273
#
#
#
# Elastic Compliance Matrix: (Units=1/GPa)
#
#
# Indices 1 2 3 4 5 6 
#
# 1 0.019514 -0.004055 -0.002700 0.000000 0.000000 0.000000
# 2 -0.004055 0.011498 -0.004039 0.000000 0.000000 0.000000
# 3 -0.002700 -0.004039 0.015835 0.000000 0.000000 0.000000
# 4 0.000000 0.000000 0.000000 0.035966 0.000000 0.000000
# 5 0.000000 0.000000 0.000000 0.000000 0.036405 0.000000
# 6 0.000000 0.000000 0.000000 0.000000 0.000000 0.034332
#
#
# Mechanical properties :
#
#
# Convention : Reuss Voigt Hill
#
# Bulk Modulus (GPa) = 39.59224 43.62391 41.60808
# Shear Modulus (GPa) = 27.23955 27.89867 27.56911
#
# Velocity S-wave (km/s) = 3.71268 3.75733 3.73508
# Velocity P-wave (km/s) = 6.19787 6.39519 6.29730
#
# Compressibility (1/GPa) = 0.02525747
#
# Stress axis : x y z
#
# Youngs Moduli (GPa) = 51.24541 86.97435 63.15274
#
# Poissons Ratio (x) = 0.35267 0.17053
# Poissons Ratio (y) = 0.20779 0.25509
# Poissons Ratio (z) = 0.13838 0.35131
#
# Static dielectric constant tensor:
#      x y z
#    x 3.503100 0.000000 0.000000 
#    y 0.000000 3.774820 0.000000 
#    z 0.000000 0.000000 3.166620 
# 
# 
# High freq. dielectric constant tensor:
#      x y z
#    x 1.759560 0.000000 0.000000 
#    y 0.000000 1.790400 0.000000 
#    z 0.000000 0.000000 1.740420 
# 
# From -- ./inp_files/4241.got.cif
#   From: 2010.03.12/outbox.cif.g09.slc.cpg/sg19_3_cif.got.tgz:4241.got - 2010.04.10 18:59:41.
