data_PCOD8156599
_publ_section_title
;
Structure prediction by ZEFSAII (Michael W. Deem and Ramdas Pophale) SiO2 
 PCOD8156599
Probable space group: P 21 21 21
;
_chemical_formula_sum "Si O2"
_cell_formula_units_Z 32
_cell_length_a 7.622768
_cell_length_b 17.852298
_cell_length_c 11.922820
_cell_angle_alpha 90.000000
_cell_angle_beta 90.000000
_cell_angle_gamma 90.000000
_cell_volume 1622.504154
_symmetry_space_group_name_H-M "P 21 21 21"
_symmetry_group_IT_number 19
_symmetry_cell_setting 'orthorhombic'
loop_
_space_group_symop_operation_xyz
x,y,z
1/2-x,-y,1/2+z
1/2+x,1/2-y,-z
-x,1/2+y,1/2-z
loop_
_atom_site_type_symbol
_atom_site_label
_atom_site_fract_x
_atom_site_fract_y
_atom_site_fract_z
Si Si1 0.150417 0.561772 0.820083
Si Si2 0.525948 0.515552 0.786895
Si Si3 0.722143 0.436970 0.963959
Si Si4 0.652123 0.230691 0.330044
Si Si5 0.174503 0.070351 0.396355
Si Si6 0.559436 0.822214 0.003200
Si Si7 0.828122 0.623606 0.701215
Si Si8 0.973821 0.408706 0.774241
O O1 0.353908 0.566796 0.783797
O O2 0.140025 0.602740 0.940510
O O3 0.029124 0.605876 0.732375
O O4 0.098077 0.474687 0.819434
O O5 0.547350 0.470997 0.904781
O O6 0.520017 0.452945 0.689871
O O7 0.699514 0.565586 0.763625
O O8 0.835689 0.390370 0.873260
O O9 0.828606 0.509858 0.004254
O O10 0.682509 0.381087 0.066533
O O11 0.810225 0.209909 0.411645
O O12 0.488096 0.259291 0.404978
O O13 0.720514 0.293796 0.243915
O O14 0.593815 0.162079 0.252672
O O15 0.366314 0.069503 0.338230
O O16 0.123476 0.151934 0.444379
#
# Coordination Sequence:
#
# PCOD8156599 Si02
#       8
#     4   4   4   4   4   4   4   4
#     4  11  21  37  65  95 120 156 218 263 309 377
#     4  10  21  34  65  95 116 163 216 266 309 376
#     4  10  18  39  64  85 123 170 202 269 323 356
#     4  11  25  39  61  92 136 167 210 268 326 387
#     4  10  19  38  64  89 122 161 208 267 312 372
#     4  11  23  39  62  95 125 170 210 264 325 378
#     4  10  22  44  59  90 137 165 210 268 318 383
#     4  11  21  40  62  93 127 160 216 267 310 381
#
# _framework density 19.722601000000001
#
# number of rings (size 3 to 8) (size 9 to 14) (size 15 to 20)
#    0.000    1.500    5.000    2.250    3.500    1.000 
#    0.000    3.750    2.750    0.000    0.000    0.000 
#    0.000    0.000    0.000    0.000    0.000    0.000 
#
# Total GULP energy -396692.349540 kJ/mol
# GULP energy per Si atom -12396.635923 kJ/mol
# Density = 1.967771 g / cm^3
# Si number density = 19.722601 Si / 1000 Ang^3
#
#
#
# Elastic Constant Matrix: (Units=GPa)
#
#
# Indices 1 2 3 4 5 6 
#
# 1 76.7192 14.4533 26.7133 0.0000 0.0000 0.0000
# 2 14.4533 96.8325 40.4010 0.0000 0.0000 0.0000
# 3 26.7133 40.4010 104.4212 0.0000 0.0000 0.0000
# 4 0.0000 0.0000 0.0000 41.0715 0.0000 0.0000
# 5 0.0000 0.0000 0.0000 0.0000 23.6487 0.0000
# 6 0.0000 0.0000 0.0000 0.0000 0.0000 24.7620
#
#
#
# Elastic Compliance Matrix: (Units=1/GPa)
#
#
# Indices 1 2 3 4 5 6 
#
# 1 0.014352 -0.000728 -0.003390 0.000000 0.000000 0.000000
# 2 -0.000728 0.012352 -0.004593 0.000000 0.000000 0.000000
# 3 -0.003390 -0.004593 0.012221 0.000000 0.000000 0.000000
# 4 0.000000 0.000000 0.000000 0.024348 0.000000 0.000000
# 5 0.000000 0.000000 0.000000 0.000000 0.042286 0.000000
# 6 0.000000 0.000000 0.000000 0.000000 0.000000 0.040385
#
#
# Mechanical properties :
#
#
# Convention : Reuss Voigt Hill
#
# Bulk Modulus (GPa) = 46.50389 49.01202 47.75796
# Shear Modulus (GPa) = 29.32002 30.99011 30.15506
#
# Velocity S-wave (km/s) = 3.85985 3.96826 3.91443
# Velocity P-wave (km/s) = 6.59506 6.77501 6.68564
#
# Compressibility (1/GPa) = 0.02150358
#
# Stress axis : x y z
#
# Youngs Moduli (GPa) = 69.67646 80.95850 81.82750
#
# Poissons Ratio (x) = 0.05892 0.27739
# Poissons Ratio (y) = 0.05071 0.37582
# Poissons Ratio (z) = 0.23620 0.37183
#
# Static dielectric constant tensor:
#      x y z
#    x 3.401200 0.000000 0.000000 
#    y 0.000000 3.576110 0.000000 
#    z 0.000000 0.000000 3.746110 
# 
# 
# High freq. dielectric constant tensor:
#      x y z
#    x 1.757130 0.000000 0.000000 
#    y 0.000000 1.757090 0.000000 
#    z 0.000000 0.000000 1.775610 
# 
# From -- ./inp_files/4808.got.cif
#   From: 2010.03.12/outbox.cif.g09.slc.cpg/sg19_3_cif.got.tgz:4808.got - 2010.04.10 18:59:41.
