data_PCOD8156567
_publ_section_title
;
Structure prediction by ZEFSAII (Michael W. Deem and Ramdas Pophale) SiO2 
 PCOD8156567
Probable space group: P 21 21 21
;
_chemical_formula_sum "Si O2"
_cell_formula_units_Z 24
_cell_length_a 13.701836
_cell_length_b 8.370582
_cell_length_c 10.697702
_cell_angle_alpha 90.000000
_cell_angle_beta 90.000000
_cell_angle_gamma 90.000000
_cell_volume 1226.944494
_symmetry_space_group_name_H-M "P 21 21 21"
_symmetry_group_IT_number 19
_symmetry_cell_setting 'orthorhombic'
loop_
_space_group_symop_operation_xyz
x,y,z
1/2-x,-y,1/2+z
1/2+x,1/2-y,-z
-x,1/2+y,1/2-z
loop_
_atom_site_type_symbol
_atom_site_label
_atom_site_fract_x
_atom_site_fract_y
_atom_site_fract_z
Si Si1 0.603143 0.243971 0.493834
Si Si2 0.100072 0.041860 0.261648
Si Si3 0.270534 0.229496 0.695350
Si Si4 0.281687 0.532021 0.840643
Si Si5 0.422732 0.643822 0.647070
Si Si6 0.601035 0.869822 0.019812
O O1 0.616200 0.366683 0.608106
O O2 0.667289 0.287193 0.373519
O O3 0.640224 0.070872 0.547056
O O4 0.491274 0.257293 0.445340
O O5 0.073841 0.163136 0.146788
O O6 0.200139 0.948138 0.236885
O O7 0.011426 0.916877 0.266278
O O8 0.264756 0.342340 0.819455
O O9 0.354469 0.295744 0.605234
O O10 0.318533 0.602453 0.709745
O O11 0.179210 0.622310 0.868879
O O12 0.428956 0.555302 0.512767
#
# Coordination Sequence:
#
# PCOD8156567 Si02
#       6
#     4   4   4   4   4   4
#     4   9  19  34  51  75 105 137 175 216 259 310
#     4  10  18  31  51  75 101 132 176 219 255 306
#     4  10  19  32  54  78 103 138 176 217 263 311
#     4   9  17  32  52  73  99 135 172 212 261 311
#     4   9  17  30  50  73  97 131 172 214 254 302
#     4   9  18  33  52  74 103 135 175 218 260 310
#
# _framework density 19.560786
#
# number of rings (size 3 to 8) (size 9 to 14) (size 15 to 20)
#    0.000    2.667    0.000    4.000    0.000    1.333 
#    0.000    5.000    0.000   10.000    0.000    0.000 
#    0.000    0.000    0.000    0.000    0.000    0.000 
#
# Total GULP energy -297323.825547 kJ/mol
# GULP energy per Si atom -12388.492731 kJ/mol
# Density = 1.951627 g / cm^3
# Si number density = 19.560786 Si / 1000 Ang^3
#
#
#
# Elastic Constant Matrix: (Units=GPa)
#
#
# Indices 1 2 3 4 5 6 
#
# 1 130.5259 35.9595 34.8703 0.0000 0.0000 0.0000
# 2 35.9595 85.2572 19.0798 0.0000 0.0000 0.0000
# 3 34.8703 19.0798 39.8997 0.0000 0.0000 0.0000
# 4 0.0000 0.0000 0.0000 18.3192 0.0000 0.0000
# 5 0.0000 0.0000 0.0000 0.0000 29.0346 0.0000
# 6 0.0000 0.0000 0.0000 0.0000 0.0000 27.4660
#
#
#
# Elastic Compliance Matrix: (Units=1/GPa)
#
#
# Indices 1 2 3 4 5 6 
#
# 1 0.010508 -0.002662 -0.007911 0.000000 0.000000 0.000000
# 2 -0.002662 0.013809 -0.004277 0.000000 0.000000 0.000000
# 3 -0.007911 -0.004277 0.034022 0.000000 0.000000 0.000000
# 4 0.000000 0.000000 0.000000 0.054588 0.000000 0.000000
# 5 0.000000 0.000000 0.000000 0.000000 0.034442 0.000000
# 6 0.000000 0.000000 0.000000 0.000000 0.000000 0.036409
#
#
# Mechanical properties :
#
#
# Convention : Reuss Voigt Hill
#
# Bulk Modulus (GPa) = 34.91666 48.38910 41.65288
# Shear Modulus (GPa) = 22.41930 26.01551 24.21740
#
# Velocity S-wave (km/s) = 3.38913 3.65085 3.52242
# Velocity P-wave (km/s) = 5.76230 6.52404 6.15496
#
# Compressibility (1/GPa) = 0.02863962
#
# Stress axis : x y z
#
# Youngs Moduli (GPa) = 95.16625 72.41619 29.39306
#
# Poissons Ratio (x) = 0.19275 0.23252
# Poissons Ratio (y) = 0.25330 0.12572
# Poissons Ratio (z) = 0.75282 0.30974
#
# Static dielectric constant tensor:
#      x y z
#    x 3.704720 0.000000 0.000000 
#    y 0.000000 3.768420 0.000000 
#    z 0.000000 0.000000 3.189940 
# 
# 
# High freq. dielectric constant tensor:
#      x y z
#    x 1.764730 0.000000 0.000000 
#    y 0.000000 1.753390 0.000000 
#    z 0.000000 0.000000 1.717260 
# 
# From -- ./inp_files/3391.got.cif
#   From: 2010.03.12/outbox.cif.g09.slc.cpg/sg19_2_cif.got.tgz:3391.got - 2010.04.10 18:59:41.
