data_PCOD8156701
_publ_section_title
;
Structure prediction by ZEFSAII (Michael W. Deem and Ramdas Pophale) SiO2 
 PCOD8156701
Probable space group: P 21 21 21
;
_chemical_formula_sum "Si O2"
_cell_formula_units_Z 32
_cell_length_a 12.243019
_cell_length_b 14.215718
_cell_length_c 8.626220
_cell_angle_alpha 90.000000
_cell_angle_beta 90.000000
_cell_angle_gamma 90.000000
_cell_volume 1501.335843
_symmetry_space_group_name_H-M "P 21 21 21"
_symmetry_group_IT_number 19
_symmetry_cell_setting 'orthorhombic'
loop_
_space_group_symop_operation_xyz
x,y,z
1/2-x,-y,1/2+z
1/2+x,1/2-y,-z
-x,1/2+y,1/2-z
loop_
_atom_site_type_symbol
_atom_site_label
_atom_site_fract_x
_atom_site_fract_y
_atom_site_fract_z
Si Si1 0.042407 0.913478 0.652195
Si Si2 0.070303 0.093204 0.139320
Si Si3 0.654536 0.907549 0.484455
Si Si4 0.734512 0.266954 0.346291
Si Si5 0.150083 0.913539 0.981697
Si Si6 0.771710 0.295195 0.990150
Si Si7 0.391932 0.908898 0.981500
Si Si8 0.188602 0.429159 0.752308
O O1 0.080900 0.905235 0.828085
O O2 0.113012 0.846752 0.541540
O O3 0.914600 0.885667 0.653044
O O4 0.045301 0.020618 0.594179
O O5 0.041988 0.104441 0.321520
O O6 0.966087 0.123704 0.038500
O O7 0.173913 0.158961 0.106151
O O8 0.094541 0.984444 0.102456
O O9 0.717099 0.812748 0.434453
O O10 0.717231 0.957794 0.627044
O O11 0.651498 0.979622 0.342421
O O12 0.839273 0.310213 0.438051
O O13 0.743310 0.301588 0.170143
O O14 0.624301 0.310689 0.424386
O O15 0.733208 0.154071 0.359942
O O16 0.271714 0.952400 0.940947
#
# Coordination Sequence:
#
# PCOD8156701 Si02
#       8
#     4   4   4   4   4   4   4   4
#     4  12  22  39  71  98 135 173 217 282 338 392
#     4  12  22  43  69 103 131 170 229 276 337 390
#     4  11  29  45  69  92 142 184 218 274 335 417
#     4   9  22  42  64  95 138 161 223 280 323 399
#     4  10  19  39  68 102 128 162 221 288 325 384
#     4  11  22  42  67 102 130 170 229 277 332 387
#     4  10  21  37  67 105 126 165 218 288 327 386
#     4  11  27  49  59  97 138 185 219 263 349 409
#
# _framework density 21.314350999999998
#
# number of rings (size 3 to 8) (size 9 to 14) (size 15 to 20)
#    0.750    0.500    3.750    1.500    5.250    2.000 
#    4.500    0.000    0.000    0.000    0.000    0.000 
#    0.000    0.000    0.000    0.000    0.000    0.000 
#
# Total GULP energy -396732.426023 kJ/mol
# GULP energy per Si atom -12397.888313 kJ/mol
# Density = 2.126584 g / cm^3
# Si number density = 21.314351 Si / 1000 Ang^3
#
#
#
# Elastic Constant Matrix: (Units=GPa)
#
#
# Indices 1 2 3 4 5 6 
#
# 1 88.0872 20.0274 8.2745 0.0000 0.0000 0.0000
# 2 20.0274 71.3323 19.2221 0.0000 0.0000 0.0000
# 3 8.2745 19.2221 69.7449 0.0000 0.0000 0.0000
# 4 0.0000 0.0000 0.0000 31.1664 0.0000 0.0000
# 5 0.0000 0.0000 0.0000 0.0000 32.7739 0.0000
# 6 0.0000 0.0000 0.0000 0.0000 0.0000 15.3515
#
#
#
# Elastic Compliance Matrix: (Units=1/GPa)
#
#
# Indices 1 2 3 4 5 6 
#
# 1 0.012145 -0.003264 -0.000541 0.000000 0.000000 0.000000
# 2 -0.003264 0.016021 -0.004028 0.000000 0.000000 0.000000
# 3 -0.000541 -0.004028 0.015512 0.000000 0.000000 0.000000
# 4 0.000000 0.000000 0.000000 0.032086 0.000000 0.000000
# 5 0.000000 0.000000 0.000000 0.000000 0.030512 0.000000
# 6 0.000000 0.000000 0.000000 0.000000 0.000000 0.065140
#
#
# Mechanical properties :
#
#
# Convention : Reuss Voigt Hill
#
# Bulk Modulus (GPa) = 35.69978 36.02360 35.86169
# Shear Modulus (GPa) = 25.45551 27.96772 26.71162
#
# Velocity S-wave (km/s) = 3.45960 3.62630 3.54393
# Velocity P-wave (km/s) = 5.72223 5.87121 5.79720
#
# Compressibility (1/GPa) = 0.02801138
#
# Stress axis : x y z
#
# Youngs Moduli (GPa) = 82.33603 62.41888 64.46466
#
# Poissons Ratio (x) = 0.20374 0.03490
# Poissons Ratio (y) = 0.26875 0.25967
# Poissons Ratio (z) = 0.04457 0.25143
#
# Static dielectric constant tensor:
#      x y z
#    x 3.819630 0.000000 0.000000 
#    y 0.000000 3.741340 0.000000 
#    z 0.000000 0.000000 3.717280 
# 
# 
# High freq. dielectric constant tensor:
#      x y z
#    x 1.827920 0.000000 0.000000 
#    y 0.000000 1.828590 0.000000 
#    z 0.000000 0.000000 1.834950 
# 
# From -- ./inp_files/3641.got.cif
#   From: 2010.03.12/outbox.cif.g09.slc.cpg/sg19_2_cif.got.tgz:3641.got - 2010.04.10 18:59:41.
