data_PCOD8156515
_publ_section_title
;
Structure prediction by ZEFSAII (Michael W. Deem and Ramdas Pophale) SiO2 
 PCOD8156515
Probable space group: P 21 21 2
;
_chemical_formula_sum "Si O2"
_cell_formula_units_Z 18
_cell_length_a 23.179511
_cell_length_b 6.210807
_cell_length_c 4.950128
_cell_angle_alpha 90.000000
_cell_angle_beta 90.000000
_cell_angle_gamma 90.000000
_cell_volume 712.637600
_symmetry_space_group_name_H-M "P 21 21 2"
_symmetry_group_IT_number 18
_symmetry_cell_setting 'orthorhombic'
loop_
_space_group_symop_operation_xyz
x,y,z
-x,-y,z
1/2+x,1/2-y,-z
1/2-x,1/2+y,-z
loop_
_atom_site_type_symbol
_atom_site_label
_atom_site_fract_x
_atom_site_fract_y
_atom_site_fract_z
Si Si1 0.191281 0.634345 0.791849
Si Si2 0.425517 0.347463 0.285405
Si Si3 0.000000 0.500000 0.008368
Si Si4 0.189774 0.354009 0.284864
Si Si5 0.573361 0.368689 0.778941
O O1 0.142057 0.793968 0.685498
O O2 0.198995 0.436357 0.587381
O O3 0.251134 0.757024 0.826454
O O4 0.171846 0.546963 0.084337
O O5 0.448437 0.448383 0.568019
O O6 0.459455 0.134699 0.194837
O O7 0.435010 0.538740 0.075850
O O8 0.036993 0.352646 0.215549
O O9 0.139910 0.176041 0.290142
#
# Coordination Sequence:
#
# PCOD8156515 Si02
#       5
#     4   4   2   4   4
#     4  12  24  46  76 112 154 195 249 320 382 459
#     4  12  28  51  78 113 153 205 260 316 388 455
#     4  12  30  54  76 116 160 206 266 324 376 468
#     4  12  24  46  76 112 154 195 249 320 382 459
#     4  12  28  51  78 113 153 205 260 316 388 455
#
# _framework density 25.258284
#
# number of rings (size 3 to 8) (size 9 to 14) (size 15 to 20)
#    0.000    0.000    2.222    7.333    0.000    5.333 
#    0.000    0.000    0.000    0.000    0.000    0.000 
#    0.000    0.000    0.000    0.000    0.000    0.000 
#
# Total GULP energy -223358.443388 kJ/mol
# GULP energy per Si atom -12408.802410 kJ/mol
# Density = 2.520079 g / cm^3
# Si number density = 25.258284 Si / 1000 Ang^3
#
#
#
# Elastic Constant Matrix: (Units=GPa)
#
#
# Indices 1 2 3 4 5 6 
#
# 1 142.2451 56.3522 16.9822 0.0000 0.0000 0.0000
# 2 56.3522 118.1920 28.0318 0.0000 0.0000 0.0000
# 3 16.9822 28.0318 103.1452 0.0000 0.0000 0.0000
# 4 0.0000 0.0000 0.0000 44.9179 0.0000 0.0000
# 5 0.0000 0.0000 0.0000 0.0000 8.5497 0.0000
# 6 0.0000 0.0000 0.0000 0.0000 0.0000 60.0541
#
#
#
# Elastic Compliance Matrix: (Units=1/GPa)
#
#
# Indices 1 2 3 4 5 6 
#
# 1 0.008677 -0.004060 -0.000325 0.000000 0.000000 0.000000
# 2 -0.004060 0.010943 -0.002306 0.000000 0.000000 0.000000
# 3 -0.000325 -0.002306 0.010375 0.000000 0.000000 0.000000
# 4 0.000000 0.000000 0.000000 0.022263 0.000000 0.000000
# 5 0.000000 0.000000 0.000000 0.000000 0.116963 0.000000
# 6 0.000000 0.000000 0.000000 0.000000 0.000000 0.016652
#
#
# Mechanical properties :
#
#
# Convention : Reuss Voigt Hill
#
# Bulk Modulus (GPa) = 60.18998 62.92386 61.55692
# Shear Modulus (GPa) = 24.41486 40.18542 32.30014
#
# Velocity S-wave (km/s) = 3.11241 3.99304 3.57990
# Velocity P-wave (km/s) = 6.06610 6.79892 6.44294
#
# Compressibility (1/GPa) = 0.01661406
#
# Stress axis : x y z
#
# Youngs Moduli (GPa) = 115.24160 91.37889 96.38341
#
# Poissons Ratio (x) = 0.37101 0.03135
# Poissons Ratio (y) = 0.46790 0.22222
# Poissons Ratio (z) = 0.03748 0.21069
#
# Static dielectric constant tensor:
#      x y z
#    x 5.063110 0.000000 0.000000 
#    y 0.000000 4.512640 0.000000 
#    z 0.000000 0.000000 4.409840 
# 
# 
# High freq. dielectric constant tensor:
#      x y z
#    x 2.031020 0.000000 0.000000 
#    y 0.000000 2.012700 0.000000 
#    z 0.000000 0.000000 2.012410 
# 
# From -- ./inp_files/2053.got.cif
#   From: 2010.03.12/outbox.cif.g09.slc.cpg/sg18_2_cif.got.tgz:2053.got - 2010.04.10 18:53:55.
