data_PCOD8156820
_publ_section_title
;
Structure prediction by ZEFSAII (Michael W. Deem and Ramdas Pophale) SiO2 
 PCOD8156820
Probable space group: P 21 21 21
;
_chemical_formula_sum "Si O2"
_cell_formula_units_Z 32
_cell_length_a 9.341858
_cell_length_b 19.542573
_cell_length_c 8.199072
_cell_angle_alpha 90.000000
_cell_angle_beta 90.000000
_cell_angle_gamma 90.000000
_cell_volume 1496.854904
_symmetry_space_group_name_H-M "P 21 21 21"
_symmetry_group_IT_number 19
_symmetry_cell_setting 'orthorhombic'
loop_
_space_group_symop_operation_xyz
x,y,z
1/2-x,-y,1/2+z
1/2+x,1/2-y,-z
-x,1/2+y,1/2-z
loop_
_atom_site_type_symbol
_atom_site_label
_atom_site_fract_x
_atom_site_fract_y
_atom_site_fract_z
Si Si1 0.521187 0.098805 0.198910
Si Si2 0.101460 0.623213 0.796395
Si Si3 0.384448 0.973636 0.060403
Si Si4 0.693098 0.936095 0.519098
Si Si5 0.631653 0.567903 0.738352
Si Si6 0.015317 0.687715 0.483796
Si Si7 0.872087 0.907205 0.056102
Si Si8 0.809580 0.315713 0.000882
O O1 0.651997 0.092381 0.071487
O O2 0.571525 0.114749 0.380178
O O3 0.414699 0.159278 0.143005
O O4 0.433319 0.028321 0.196108
O O5 0.173241 0.565608 0.676774
O O6 0.037813 0.683982 0.683190
O O7 0.237347 0.643339 0.909438
O O8 0.980863 0.593695 0.917022
O O9 0.220976 0.955459 0.103589
O O10 0.399976 0.002485 0.877460
O O11 0.571695 0.884174 0.594512
O O12 0.673887 0.013628 0.571935
O O13 0.489611 0.603937 0.804421
O O14 0.715339 0.624618 0.633552
O O15 0.116300 0.749050 0.419184
O O16 0.850233 0.701532 0.435753
#
# Coordination Sequence:
#
# PCOD8156820 Si02
#       8
#     4   4   4   4   4   4   4   4
#     4  11  22  35  63  91 132 168 204 259 318 383
#     4  10  21  38  60  91 124 163 204 259 309 379
#     4  11  20  38  55  93 128 160 206 256 324 382
#     4  10  20  38  60  97 124 167 204 254 319 377
#     4  11  25  36  64  92 129 168 205 267 327 378
#     4  10  23  42  69  90 123 164 229 257 315 384
#     4  12  22  37  61  97 136 161 208 260 324 386
#     4  11  23  42  68  89 122 175 218 270 310 385
#
# _framework density 21.378157999999999
#
# number of rings (size 3 to 8) (size 9 to 14) (size 15 to 20)
#    0.750    0.500    3.750    3.000    7.000    0.000 
#    0.000    0.000    5.500    0.000    0.000    0.000 
#    0.000    0.000    0.000    0.000    0.000    0.000 
#
# Total GULP energy -396580.864756 kJ/mol
# GULP energy per Si atom -12393.152024 kJ/mol
# Density = 2.132950 g / cm^3
# Si number density = 21.378158 Si / 1000 Ang^3
#
#
#
# Elastic Constant Matrix: (Units=GPa)
#
#
# Indices 1 2 3 4 5 6 
#
# 1 137.6968 21.2881 24.5245 0.0000 0.0000 0.0000
# 2 21.2881 48.5530 1.0606 0.0000 0.0000 0.0000
# 3 24.5245 1.0606 73.5538 0.0000 0.0000 0.0000
# 4 0.0000 0.0000 0.0000 14.4557 0.0000 0.0000
# 5 0.0000 0.0000 0.0000 0.0000 32.1198 0.0000
# 6 0.0000 0.0000 0.0000 0.0000 0.0000 31.8261
#
#
#
# Elastic Compliance Matrix: (Units=1/GPa)
#
#
# Indices 1 2 3 4 5 6 
#
# 1 0.008299 -0.003580 -0.002716 0.000000 0.000000 0.000000
# 2 -0.003580 0.022146 0.000874 0.000000 0.000000 0.000000
# 3 -0.002716 0.000874 0.014488 0.000000 0.000000 0.000000
# 4 0.000000 0.000000 0.000000 0.069177 0.000000 0.000000
# 5 0.000000 0.000000 0.000000 0.000000 0.031133 0.000000
# 6 0.000000 0.000000 0.000000 0.000000 0.000000 0.031421
#
#
# Mechanical properties :
#
#
# Convention : Reuss Voigt Hill
#
# Bulk Modulus (GPa) = 29.33224 39.28333 34.30778
# Shear Modulus (GPa) = 25.14190 29.87567 27.50879
#
# Velocity S-wave (km/s) = 3.43309 3.74235 3.59105
# Velocity P-wave (km/s) = 5.42819 6.09007 5.76863
#
# Compressibility (1/GPa) = 0.03409219
#
# Stress axis : x y z
#
# Youngs Moduli (GPa) = 120.49065 45.15401 69.02110
#
# Poissons Ratio (x) = 0.16163 0.18743
# Poissons Ratio (y) = 0.43130 -0.06034
# Poissons Ratio (z) = 0.32720 -0.03947
#
# Static dielectric constant tensor:
#      x y z
#    x 4.006430 0.000000 0.000000 
#    y 0.000000 3.516700 0.000000 
#    z 0.000000 0.000000 3.514600 
# 
# 
# High freq. dielectric constant tensor:
#      x y z
#    x 1.859010 0.000000 0.000000 
#    y 0.000000 1.804870 0.000000 
#    z 0.000000 0.000000 1.813620 
# 
# From -- ./inp_files/3169.got.cif
#   From: 2010.03.12/outbox.cif.g09.slc.cpg/sg19_2_cif.got.tgz:3169.got - 2010.04.10 18:59:41.
