data_PCOD8156422
_publ_section_title
;
Structure prediction by ZEFSAII (Michael W. Deem and Ramdas Pophale) SiO2 
 PCOD8156422
Probable space group: P 21 21 2
;
_chemical_formula_sum "Si O2"
_cell_formula_units_Z 20
_cell_length_a 15.402523
_cell_length_b 10.157655
_cell_length_c 5.345527
_cell_angle_alpha 90.000000
_cell_angle_beta 90.000000
_cell_angle_gamma 90.000000
_cell_volume 836.326487
_symmetry_space_group_name_H-M "P 21 21 2"
_symmetry_group_IT_number 18
_symmetry_cell_setting 'orthorhombic'
loop_
_space_group_symop_operation_xyz
x,y,z
-x,-y,z
1/2+x,1/2-y,-z
1/2-x,1/2+y,-z
loop_
_atom_site_type_symbol
_atom_site_label
_atom_site_fract_x
_atom_site_fract_y
_atom_site_fract_z
Si Si1 0.459639 0.264571 0.457099
Si Si2 0.667545 0.141338 0.057081
Si Si3 0.500000 0.000000 0.191174
Si Si4 0.640744 0.288945 0.573901
Si Si5 0.842186 0.053536 0.255842
Si Si6 0.000000 0.000000 0.915075
O O1 0.539264 0.272390 0.650753
O O2 0.372466 0.310263 0.606800
O O3 0.487279 0.367072 0.242218
O O4 0.453655 0.115277 0.355252
O O5 0.658254 0.223889 0.308934
O O6 0.755506 0.060479 0.094489
O O7 0.579865 0.053896 0.022708
O O8 0.690001 0.222019 0.806609
O O9 0.670946 0.440112 0.535349
O O10 0.914744 0.987151 0.082060
#
# Coordination Sequence:
#
# PCOD8156422 Si02
#       6
#     4   4   2   4   4   2
#     4  11  24  46  77 103 149 199 245 310 376 439
#     4  11  29  44  75 105 155 193 248 313 374 446
#     4  10  26  50  68 108 152 198 240 312 384 440
#     4  11  24  50  68 106 145 193 252 308 363 448
#     4  12  25  43  76 112 139 203 253 308 369 452
#     4  12  22  46  78 110 146 200 256 310 370 442
#
# _framework density 23.914106
#
# number of rings (size 3 to 8) (size 9 to 14) (size 15 to 20)
#    0.000    0.800    4.000    2.400    5.600    3.200 
#    3.600    0.000    0.000    0.000    0.000    0.000 
#    0.000    0.000    0.000    0.000    0.000    0.000 
#
# Total GULP energy -247818.223227 kJ/mol
# GULP energy per Si atom -12390.911161 kJ/mol
# Density = 2.385968 g / cm^3
# Si number density = 23.914106 Si / 1000 Ang^3
#
#
#
# Elastic Constant Matrix: (Units=GPa)
#
#
# Indices 1 2 3 4 5 6 
#
# 1 76.0075 -8.1209 -14.6738 0.0000 0.0000 0.0000
# 2 -8.1209 117.4841 16.8832 0.0000 0.0000 0.0000
# 3 -14.6738 16.8832 71.0895 0.0000 0.0000 0.0000
# 4 0.0000 0.0000 0.0000 15.7599 0.0000 0.0000
# 5 0.0000 0.0000 0.0000 0.0000 4.3543 0.0000
# 6 0.0000 0.0000 0.0000 0.0000 0.0000 26.7817
#
#
#
# Elastic Compliance Matrix: (Units=1/GPa)
#
#
# Indices 1 2 3 4 5 6 
#
# 1 0.013738 0.000561 0.002702 0.000000 0.000000 0.000000
# 2 0.000561 0.008835 -0.001983 0.000000 0.000000 0.000000
# 3 0.002702 -0.001983 0.015095 0.000000 0.000000 0.000000
# 4 0.000000 0.000000 0.000000 0.063452 0.000000 0.000000
# 5 0.000000 0.000000 0.000000 0.000000 0.229660 0.000000
# 6 0.000000 0.000000 0.000000 0.000000 0.000000 0.037339
#
#
# Mechanical properties :
#
#
# Convention : Reuss Voigt Hill
#
# Bulk Modulus (GPa) = 24.85602 28.08422 26.47012
# Shear Modulus (GPa) = 13.19370 27.41201 20.30286
#
# Velocity S-wave (km/s) = 2.35140 3.38933 2.91691
# Velocity P-wave (km/s) = 4.21765 5.20443 4.73680
#
# Compressibility (1/GPa) = 0.04023171
#
# Stress axis : x y z
#
# Youngs Moduli (GPa) = 72.78918 113.18001 66.24524
#
# Poissons Ratio (x) = -0.06353 -0.17903
# Poissons Ratio (y) = -0.04085 0.13133
# Poissons Ratio (z) = -0.19671 0.22438
#
# Static dielectric constant tensor:
#      x y z
#    x 4.798220 0.000000 0.000000 
#    y 0.000000 4.758040 0.000000 
#    z 0.000000 0.000000 4.132620 
# 
# 
# High freq. dielectric constant tensor:
#      x y z
#    x 1.947740 0.000000 0.000000 
#    y 0.000000 1.955240 0.000000 
#    z 0.000000 0.000000 1.943920 
# 
# From -- ./inp_files/1050.got.cif
#   From: 2010.03.12/outbox.cif.g09.slc.cpg/sg18_1_cif.got.tgz:1050.got - 2010.04.10 18:53:55.
