data_PCOD8156544
_publ_section_title
;
Structure prediction by ZEFSAII (Michael W. Deem and Ramdas Pophale) SiO2 
 PCOD8156544
Probable space group: P 21 21 21
;
_chemical_formula_sum "Si O2"
_cell_formula_units_Z 24
_cell_length_a 16.594062
_cell_length_b 13.929135
_cell_length_c 5.204415
_cell_angle_alpha 90.000000
_cell_angle_beta 90.000000
_cell_angle_gamma 90.000000
_cell_volume 1202.953322
_symmetry_space_group_name_H-M "P 21 21 21"
_symmetry_group_IT_number 19
_symmetry_cell_setting 'orthorhombic'
loop_
_space_group_symop_operation_xyz
x,y,z
1/2-x,-y,1/2+z
1/2+x,1/2-y,-z
-x,1/2+y,1/2-z
loop_
_atom_site_type_symbol
_atom_site_label
_atom_site_fract_x
_atom_site_fract_y
_atom_site_fract_z
Si Si1 0.220958 0.121749 0.077594
Si Si2 0.141538 0.311309 0.182076
Si Si3 0.000198 0.911391 0.097015
Si Si4 0.180603 0.903956 0.077634
Si Si5 0.432414 0.522165 0.411672
Si Si6 0.726803 0.944364 0.161216
O O1 0.150372 0.201173 0.096886
O O2 0.282770 0.133092 0.312156
O O3 0.177655 0.019379 0.086327
O O4 0.268248 0.138337 0.812595
O O5 0.227024 0.343175 0.309098
O O6 0.065900 0.325194 0.379264
O O7 0.122965 0.380824 0.938247
O O8 0.089200 0.866186 0.100334
O O9 0.989015 0.985915 0.336094
O O10 0.988372 0.971920 0.837305
O O11 0.369277 0.432767 0.397704
O O12 0.729532 0.001432 0.429250
#
# Coordination Sequence:
#
# PCOD8156544 Si02
#       6
#     4   4   4   4   4   4
#     4  10  22  39  59  79 105 154 190 227 260 333
#     4   9  21  32  60  81 115 140 186 223 279 325
#     4  10  19  34  57  78 108 145 173 234 275 321
#     4  10  22  40  58  78 110 147 192 225 276 314
#     4   9  18  31  55  80 111 145 170 215 286 327
#     4  10  16  30  49  80 111 145 175 206 270 344
#
# _framework density 19.950901000000002
#
# number of rings (size 3 to 8) (size 9 to 14) (size 15 to 20)
#    1.000    1.333    1.667    1.000    2.333    0.000 
#    0.000    3.333    0.000    0.000    0.000    0.000 
#    0.000    0.000    0.000    0.000    0.000    0.000 
#
# Total GULP energy -297376.171727 kJ/mol
# GULP energy per Si atom -12390.673822 kJ/mol
# Density = 1.990549 g / cm^3
# Si number density = 19.950901 Si / 1000 Ang^3
#
#
#
# Elastic Constant Matrix: (Units=GPa)
#
#
# Indices 1 2 3 4 5 6 
#
# 1 83.0138 8.4378 8.8162 0.0000 0.0000 0.0000
# 2 8.4378 46.0903 1.5371 0.0000 0.0000 0.0000
# 3 8.8162 1.5371 103.4267 0.0000 0.0000 0.0000
# 4 0.0000 0.0000 0.0000 11.0887 0.0000 0.0000
# 5 0.0000 0.0000 0.0000 0.0000 25.0553 0.0000
# 6 0.0000 0.0000 0.0000 0.0000 0.0000 13.6329
#
#
#
# Elastic Compliance Matrix: (Units=1/GPa)
#
#
# Indices 1 2 3 4 5 6 
#
# 1 0.012382 -0.002233 -0.001022 0.000000 0.000000 0.000000
# 2 -0.002233 0.022110 -0.000138 0.000000 0.000000 0.000000
# 3 -0.001022 -0.000138 0.009758 0.000000 0.000000 0.000000
# 4 0.000000 0.000000 0.000000 0.090182 0.000000 0.000000
# 5 0.000000 0.000000 0.000000 0.000000 0.039912 0.000000
# 6 0.000000 0.000000 0.000000 0.000000 0.000000 0.073352
#
#
# Mechanical properties :
#
#
# Convention : Reuss Voigt Hill
#
# Bulk Modulus (GPa) = 26.69294 30.01258 28.35276
# Shear Modulus (GPa) = 18.72875 24.20469 21.46672
#
# Velocity S-wave (km/s) = 3.06721 3.48690 3.28377
# Velocity P-wave (km/s) = 5.09432 5.59349 5.34973
#
# Compressibility (1/GPa) = 0.03746309
#
# Stress axis : x y z
#
# Youngs Moduli (GPa) = 80.76445 45.22867 102.48135
#
# Poissons Ratio (x) = 0.10098 0.10476
# Poissons Ratio (y) = 0.18032 0.01417
# Poissons Ratio (z) = 0.08256 0.00625
#
# Static dielectric constant tensor:
#      x y z
#    x 3.512010 0.000000 0.000000 
#    y 0.000000 3.141990 0.000000 
#    z 0.000000 0.000000 3.699720 
# 
# 
# High freq. dielectric constant tensor:
#      x y z
#    x 1.775720 0.000000 0.000000 
#    y 0.000000 1.722910 0.000000 
#    z 0.000000 0.000000 1.793360 
# 
# From -- ./inp_files/1455.got.cif
#   From: 2010.03.12/outbox.cif.g09.slc.cpg/sg19_1_cif.got.tgz:1455.got - 2010.04.10 18:59:41.
