data_PCOD8156642
_publ_section_title
;
Structure prediction by ZEFSAII (Michael W. Deem and Ramdas Pophale) SiO2 
 PCOD8156642
Probable space group: P 21 21 21
;
_chemical_formula_sum "Si O2"
_cell_formula_units_Z 32
_cell_length_a 8.479725
_cell_length_b 14.653919
_cell_length_c 13.533757
_cell_angle_alpha 90.000000
_cell_angle_beta 90.000000
_cell_angle_gamma 90.000000
_cell_volume 1681.720930
_symmetry_space_group_name_H-M "P 21 21 21"
_symmetry_group_IT_number 19
_symmetry_cell_setting 'orthorhombic'
loop_
_space_group_symop_operation_xyz
x,y,z
1/2-x,-y,1/2+z
1/2+x,1/2-y,-z
-x,1/2+y,1/2-z
loop_
_atom_site_type_symbol
_atom_site_label
_atom_site_fract_x
_atom_site_fract_y
_atom_site_fract_z
Si Si1 0.631677 0.710886 0.578558
Si Si2 0.214612 0.920142 0.256529
Si Si3 0.825234 0.678200 0.394520
Si Si4 0.122312 0.892273 0.773065
Si Si5 0.028446 0.505194 0.384798
Si Si6 0.500938 0.658507 0.020480
Si Si7 0.228661 0.753587 0.128143
Si Si8 0.225955 0.365373 0.803622
O O1 0.663533 0.617649 0.637141
O O2 0.673417 0.692384 0.464491
O O3 0.449143 0.738577 0.597057
O O4 0.753046 0.789552 0.612012
O O5 0.056038 0.953322 0.204092
O O6 0.294521 0.840063 0.190712
O O7 0.339543 0.000643 0.269897
O O8 0.755594 0.667333 0.283569
O O9 0.919348 0.587092 0.425288
O O10 0.116231 0.858935 0.886292
O O11 0.956229 0.880903 0.718384
O O12 0.059653 0.438092 0.477110
O O13 0.193757 0.541352 0.340792
O O14 0.356995 0.720518 0.051535
O O15 0.578772 0.717296 0.934360
O O16 0.185063 0.672203 0.204746
#
# Coordination Sequence:
#
# PCOD8156642 Si02
#       8
#     4   4   4   4   4   4   4   4
#     4  10  19  35  55  77 106 143 182 224 271 327
#     4   9  19  35  53  75 105 140 179 219 271 322
#     4  10  20  34  54  78 106 141 179 224 273 320
#     4  10  20  35  54  80 111 143 179 226 273 323
#     4   9  19  35  54  77 106 141 179 222 269 322
#     4  10  20  35  55  80 109 143 182 221 270 326
#     4   9  20  35  53  78 107 141 178 222 270 322
#     4   9  19  36  54  77 110 140 178 226 269 318
#
# _framework density 19.028127999999999
#
# number of rings (size 3 to 8) (size 9 to 14) (size 15 to 20)
#    0.000    2.500    0.000    1.500    0.000    6.000 
#    0.000   11.250    0.000    0.000    0.000    0.000 
#    0.000    0.000    0.000    0.000    0.000    0.000 
#
# Total GULP energy -396708.051160 kJ/mol
# GULP energy per Si atom -12397.126599 kJ/mol
# Density = 1.898482 g / cm^3
# Si number density = 19.028128 Si / 1000 Ang^3
#
#
#
# Elastic Constant Matrix: (Units=GPa)
#
#
# Indices 1 2 3 4 5 6 
#
# 1 73.6612 33.7479 29.2279 0.0000 0.0000 0.0000
# 2 33.7479 74.6066 35.4580 0.0000 0.0000 0.0000
# 3 29.2279 35.4580 91.6504 0.0000 0.0000 0.0000
# 4 0.0000 0.0000 0.0000 26.1878 0.0000 0.0000
# 5 0.0000 0.0000 0.0000 0.0000 26.5719 0.0000
# 6 0.0000 0.0000 0.0000 0.0000 0.0000 31.3543
#
#
#
# Elastic Compliance Matrix: (Units=1/GPa)
#
#
# Indices 1 2 3 4 5 6 
#
# 1 0.017835 -0.006573 -0.003145 0.000000 0.000000 0.000000
# 2 -0.006573 0.018846 -0.005195 0.000000 0.000000 0.000000
# 3 -0.003145 -0.005195 0.013924 0.000000 0.000000 0.000000
# 4 0.000000 0.000000 0.000000 0.038186 0.000000 0.000000
# 5 0.000000 0.000000 0.000000 0.000000 0.037634 0.000000
# 6 0.000000 0.000000 0.000000 0.000000 0.000000 0.031894
#
#
# Mechanical properties :
#
#
# Convention : Reuss Voigt Hill
#
# Bulk Modulus (GPa) = 48.12501 48.53175 48.32838
# Shear Modulus (GPa) = 25.63195 26.25510 25.94352
#
# Velocity S-wave (km/s) = 3.67421 3.71860 3.69647
# Velocity P-wave (km/s) = 6.58378 6.63310 6.60848
#
# Compressibility (1/GPa) = 0.02077922
#
# Stress axis : x y z
#
# Youngs Moduli (GPa) = 56.07005 53.06198 71.81975
#
# Poissons Ratio (x) = 0.34877 0.22585
# Poissons Ratio (y) = 0.36855 0.37310
# Poissons Ratio (z) = 0.17632 0.27566
#
# Static dielectric constant tensor:
#      x y z
#    x 3.258770 0.000000 0.000000 
#    y 0.000000 3.625920 0.000000 
#    z 0.000000 0.000000 3.575930 
# 
# 
# High freq. dielectric constant tensor:
#      x y z
#    x 1.723000 0.000000 0.000000 
#    y 0.000000 1.741110 0.000000 
#    z 0.000000 0.000000 1.748140 
# 
# From -- ./inp_files/3587.got.cif
#   From: 2010.03.12/outbox.cif.g09.slc.cpg/sg19_2_cif.got.tgz:3587.got - 2010.04.10 18:59:41.
