data_PCOD8156587
_publ_section_title
;
Structure prediction by ZEFSAII (Michael W. Deem and Ramdas Pophale) SiO2 
 PCOD8156587
Probable space group: P 21 21 21
;
_chemical_formula_sum "Si O2"
_cell_formula_units_Z 32
_cell_length_a 9.001197
_cell_length_b 18.873925
_cell_length_c 9.635742
_cell_angle_alpha 90.000000
_cell_angle_beta 90.000000
_cell_angle_gamma 90.000000
_cell_volume 1636.996138
_symmetry_space_group_name_H-M "P 21 21 21"
_symmetry_group_IT_number 19
_symmetry_cell_setting 'orthorhombic'
loop_
_space_group_symop_operation_xyz
x,y,z
1/2-x,-y,1/2+z
1/2+x,1/2-y,-z
-x,1/2+y,1/2-z
loop_
_atom_site_type_symbol
_atom_site_label
_atom_site_fract_x
_atom_site_fract_y
_atom_site_fract_z
Si Si1 0.499885 0.923055 0.191283
Si Si2 0.499885 0.076945 0.308717
Si Si3 0.154531 0.742948 0.188659
Si Si4 0.881051 0.804242 0.604913
Si Si5 0.250001 0.139321 0.500000
Si Si6 0.250000 0.621938 0.000000
Si Si7 0.618948 0.804243 0.395086
Si Si8 0.154532 0.257053 0.311342
O O1 0.351006 0.905684 0.105288
O O2 0.536095 0.869488 0.319308
O O3 0.470571 0.000000 0.250000
O O4 0.639588 0.927405 0.087616
O O5 0.536096 0.130512 0.180692
O O6 0.351007 0.094316 0.394712
O O7 0.639589 0.072595 0.412383
O O8 0.300182 0.745736 0.282525
O O9 0.143982 0.810040 0.088099
O O10 0.152964 0.670321 0.102096
O O11 0.999999 0.750000 0.275184
O O12 0.750000 0.831084 0.499999
O O13 1.000000 0.750000 0.535204
O O14 0.143983 0.189960 0.411902
O O15 0.347036 0.670320 0.897904
O O16 0.699817 0.754264 0.282523
#
# Coordination Sequence:
#
# PCOD8156587 Si02
#       8
#     4   4   4   4   4   4   4   4
#     4  11  24  42  63  91 127 169 207 257 314 375
#     4  11  24  42  63  91 127 169 207 257 314 375
#     4  10  18  34  65  94 117 155 212 268 300 352
#     4  11  23  41  63  95 131 164 202 258 319 375
#     4  11  20  40  64  90 125 160 222 256 307 370
#     4   9  20  34  62  90 117 160 208 256 305 362
#     4  11  23  41  63  95 131 164 202 258 319 375
#     4  10  18  34  65  94 117 155 212 268 300 352
#
# _framework density 19.547999000000001
#
# number of rings (size 3 to 8) (size 9 to 14) (size 15 to 20)
#    0.000    1.500    5.000    0.750    1.750    0.000 
#    2.250    1.250    0.000    0.000    0.000    0.000 
#    0.000    0.000    0.000    0.000    0.000    0.000 
#
# Total GULP energy -396437.996464 kJ/mol
# GULP energy per Si atom -12388.687390 kJ/mol
# Density = 1.950351 g / cm^3
# Si number density = 19.547999 Si / 1000 Ang^3
#
#
#
# Elastic Constant Matrix: (Units=GPa)
#
#
# Indices 1 2 3 4 5 6 
#
# 1 109.8273 53.7765 36.8776 0.0000 0.0000 0.0000
# 2 53.7765 106.4569 45.4926 0.0000 0.0000 0.0000
# 3 36.8776 45.4926 88.9578 0.0000 0.0000 0.0000
# 4 0.0000 0.0000 0.0000 81.9892 0.0000 0.0000
# 5 0.0000 0.0000 0.0000 0.0000 49.8572 0.0000
# 6 0.0000 0.0000 0.0000 0.0000 0.0000 36.2109
#
#
#
# Elastic Compliance Matrix: (Units=1/GPa)
#
#
# Indices 1 2 3 4 5 6 
#
# 1 0.012518 -0.005254 -0.002502 0.000000 0.000000 0.000000
# 2 -0.005254 0.014226 -0.005097 0.000000 0.000000 0.000000
# 3 -0.002502 -0.005097 0.014885 0.000000 0.000000 0.000000
# 4 0.000000 0.000000 0.000000 0.012197 0.000000 0.000000
# 5 0.000000 0.000000 0.000000 0.000000 0.020057 0.000000
# 6 0.000000 0.000000 0.000000 0.000000 0.000000 0.027616
#
#
# Mechanical properties :
#
#
# Convention : Reuss Voigt Hill
#
# Bulk Modulus (GPa) = 62.80576 64.17062 63.48819
# Shear Modulus (GPa) = 37.73209 44.88447 41.30828
#
# Velocity S-wave (km/s) = 4.39820 4.79698 4.60191
# Velocity P-wave (km/s) = 7.61518 7.97369 7.79650
#
# Compressibility (1/GPa) = 0.01592211
#
# Stress axis : x y z
#
# Youngs Moduli (GPa) = 79.88403 70.29571 67.18089
#
# Poissons Ratio (x) = 0.36934 0.16812
# Poissons Ratio (y) = 0.41972 0.34241
# Poissons Ratio (z) = 0.19991 0.35828
#
# Static dielectric constant tensor:
#      x y z
#    x 3.476390 0.000000 0.000000 
#    y 0.000000 3.164890 0.000000 
#    z 0.000000 0.000000 3.629630 
# 
# 
# High freq. dielectric constant tensor:
#      x y z
#    x 1.781250 0.000000 0.000000 
#    y 0.000000 1.729050 0.000000 
#    z 0.000000 0.000000 1.760460 
# 
# From -- ./inp_files/4792.got.cif
#   From: 2010.03.12/outbox.cif.g09.slc.cpg/sg19_3_cif.got.tgz:4792.got - 2010.04.10 18:59:41.
