data_PCOD8156290
_publ_section_title
;
Structure prediction by ZEFSAII (Michael W. Deem and Ramdas Pophale) SiO2 
 PCOD8156290
Probable space group: P 21 21 2
;
_chemical_formula_sum "Si O2"
_cell_formula_units_Z 18
_cell_length_a 13.155919
_cell_length_b 8.891015
_cell_length_c 7.322419
_cell_angle_alpha 90.000000
_cell_angle_beta 90.000000
_cell_angle_gamma 90.000000
_cell_volume 856.499493
_symmetry_space_group_name_H-M "P 21 21 2"
_symmetry_group_IT_number 18
_symmetry_cell_setting 'orthorhombic'
loop_
_space_group_symop_operation_xyz
x,y,z
-x,-y,z
1/2+x,1/2-y,-z
1/2-x,1/2+y,-z
loop_
_atom_site_type_symbol
_atom_site_label
_atom_site_fract_x
_atom_site_fract_y
_atom_site_fract_z
Si Si1 0.790851 0.436359 0.397750
Si Si2 0.343284 0.443610 0.079332
Si Si3 0.787237 0.631752 0.730609
Si Si4 0.500000 0.000000 0.779829
Si Si5 0.038014 0.241102 0.935973
O O1 0.717977 0.531154 0.264761
O O2 0.776637 0.483166 0.608782
O O3 0.765075 0.261808 0.386924
O O4 0.906907 0.462465 0.348980
O O5 0.426882 0.316102 0.125340
O O6 0.394175 0.597297 0.005994
O O7 0.267477 0.385802 0.924403
O O8 0.905596 0.672357 0.769780
O O9 0.526234 0.146519 0.896731
#
# Coordination Sequence:
#
# PCOD8156290 Si02
#       5
#     4   4   4   2   4
#     4  11  26  40  65 100 132 173 217 270 334 393
#     4  10  22  47  66  91 135 178 219 267 335 390
#     4  11  24  43  67  97 134 174 216 275 329 394
#     4  12  22  40  64 100 126 164 226 268 324 386
#     4  10  23  42  69  95 127 178 219 272 323 391
#
# _framework density 21.015774
#
# number of rings (size 3 to 8) (size 9 to 14) (size 15 to 20)
#    0.000    1.333    4.444    0.000    3.111    4.444 
#    0.000    2.222    0.000    0.000    0.000    0.000 
#    0.000    0.000    0.000    0.000    0.000    0.000 
#
# Total GULP energy -223236.447653 kJ/mol
# GULP energy per Si atom -12402.024870 kJ/mol
# Density = 2.096794 g / cm^3
# Si number density = 21.015774 Si / 1000 Ang^3
#
#
#
# Elastic Constant Matrix: (Units=GPa)
#
#
# Indices 1 2 3 4 5 6 
#
# 1 103.3458 4.1776 17.4871 0.0000 0.0000 0.0000
# 2 4.1776 46.2625 7.4152 0.0000 0.0000 0.0000
# 3 17.4871 7.4152 57.9106 0.0000 0.0000 0.0000
# 4 0.0000 0.0000 0.0000 32.9624 0.0000 0.0000
# 5 0.0000 0.0000 0.0000 0.0000 18.6340 0.0000
# 6 0.0000 0.0000 0.0000 0.0000 0.0000 -9.6374
#
#
#
# Elastic Compliance Matrix: (Units=1/GPa)
#
#
# Indices 1 2 3 4 5 6 
#
# 1 0.010206 -0.000437 -0.003026 0.000000 0.000000 0.000000
# 2 -0.000437 0.022087 -0.002696 0.000000 0.000000 0.000000
# 3 -0.003026 -0.002696 0.018527 0.000000 0.000000 0.000000
# 4 0.000000 0.000000 0.000000 0.030338 0.000000 0.000000
# 5 0.000000 0.000000 0.000000 0.000000 0.053665 0.000000
# 6 0.000000 0.000000 0.000000 0.000000 0.000000 -0.103762
#
#
# Mechanical properties :
#
#
# Convention : Reuss Voigt Hill
#
# Bulk Modulus (GPa) = 25.97236 29.51986 27.74611
# Shear Modulus (GPa) = 88.94760 20.28773 54.61766
#
# Velocity S-wave (km/s) = 6.51276 3.11039 5.10346
# Velocity P-wave (km/s) = 8.30302 5.19388 6.92519
#
# Compressibility (1/GPa) = 0.03850246
#
# Stress axis : x y z
#
# Youngs Moduli (GPa) = 97.98236 45.27474 53.97530
#
# Poissons Ratio (x) = 0.01977 0.16333
# Poissons Ratio (y) = 0.04278 0.14554
# Poissons Ratio (z) = 0.29649 0.12208
#
# Static dielectric constant tensor:
#      x y z
#    x 4.153360 0.000000 0.000000 
#    y 0.000000 4.216750 0.000000 
#    z 0.000000 0.000000 3.442990 
# 
# 
# High freq. dielectric constant tensor:
#      x y z
#    x 1.841660 0.000000 0.000000 
#    y 0.000000 1.836200 0.000000 
#    z 0.000000 0.000000 1.804010 
# 
# From -- ./inp_files/964.got.cif
#   From: 2010.03.12/outbox.cif.g09.slc.cpg/sg18_1_cif.got.tgz:964.got - 2010.04.10 18:53:55.
