data_PCOD8156371
_publ_section_title
;
Structure prediction by ZEFSAII (Michael W. Deem and Ramdas Pophale) SiO2 
 PCOD8156371
Probable space group: P 21 21 2
;
_chemical_formula_sum "Si O2"
_cell_formula_units_Z 30
_cell_length_a 6.006178
_cell_length_b 17.115753
_cell_length_c 13.041843
_cell_angle_alpha 90.000000
_cell_angle_beta 90.000000
_cell_angle_gamma 90.000000
_cell_volume 1340.704840
_symmetry_space_group_name_H-M "P 21 21 2"
_symmetry_group_IT_number 18
_symmetry_cell_setting 'orthorhombic'
loop_
_space_group_symop_operation_xyz
x,y,z
-x,-y,z
1/2+x,1/2-y,-z
1/2-x,1/2+y,-z
loop_
_atom_site_type_symbol
_atom_site_label
_atom_site_fract_x
_atom_site_fract_y
_atom_site_fract_z
Si Si1 0.775745 0.646641 0.921816
Si Si2 0.964617 0.275209 0.535308
Si Si3 0.320926 0.559991 0.679722
Si Si4 0.466555 0.716886 0.752713
Si Si5 0.653619 0.933234 0.534193
Si Si6 0.000000 0.500000 0.840352
Si Si7 0.080193 0.787666 0.882845
Si Si8 0.341220 0.679149 0.310337
O O1 0.632090 0.666492 0.822577
O O2 0.858108 0.557148 0.913532
O O3 0.977259 0.708528 0.929602
O O4 0.631500 0.652645 0.025411
O O5 0.209198 0.239078 0.502986
O O6 0.963011 0.238950 0.650375
O O7 0.002507 0.367009 0.518901
O O8 0.500000 0.500000 0.725437
O O9 0.374335 0.652662 0.672408
O O10 0.277322 0.529478 0.564057
O O11 0.127738 0.558002 0.763790
O O12 0.302243 0.765044 0.823481
O O13 0.598021 0.779383 0.682237
O O14 0.819787 0.900911 0.623341
O O15 0.500000 0.000000 0.585354
O O16 0.908265 0.834680 0.808157
#
# Coordination Sequence:
#
# PCOD8156371 Si02
#       8
#     4   4   4   4   4   2   4   4
#     4  11  23  41  71 103 140 171 232 297 366 435
#     4  10  24  44  70 101 139 188 248 303 362 432
#     4  12  25  41  66 104 142 181 228 293 372 437
#     4  11  23  41  71  96 138 176 233 296 354 439
#     4  11  26  43  67 100 146 192 240 295 364 443
#     4  12  24  44  64 110 148 176 224 302 380 428
#     4  11  22  42  72 104 131 184 240 292 361 446
#     4  10  26  42  69 100 137 191 247 296 354 440
#
# _framework density 22.376290999999998
#
# number of rings (size 3 to 8) (size 9 to 14) (size 15 to 20)
#    0.000    1.067    4.667    0.800   14.933    0.000 
#    0.000    0.000    1.467    1.600    0.000    0.000 
#    0.000    0.000    0.000    0.000    0.000    0.000 
#
# Total GULP energy -371686.863929 kJ/mol
# GULP energy per Si atom -12389.562131 kJ/mol
# Density = 2.232536 g / cm^3
# Si number density = 22.376291 Si / 1000 Ang^3
#
#
#
# Elastic Constant Matrix: (Units=GPa)
#
#
# Indices 1 2 3 4 5 6 
#
# 1 75.2193 21.5959 15.9183 0.0000 0.0000 0.0000
# 2 21.5959 95.0989 37.4163 0.0000 0.0000 0.0000
# 3 15.9183 37.4163 93.1862 0.0000 0.0000 0.0000
# 4 0.0000 0.0000 0.0000 35.2170 0.0000 0.0000
# 5 0.0000 0.0000 0.0000 0.0000 28.2557 0.0000
# 6 0.0000 0.0000 0.0000 0.0000 0.0000 34.7056
#
#
#
# Elastic Compliance Matrix: (Units=1/GPa)
#
#
# Indices 1 2 3 4 5 6 
#
# 1 0.014365 -0.002728 -0.001359 0.000000 0.000000 0.000000
# 2 -0.002728 0.013006 -0.004756 0.000000 0.000000 0.000000
# 3 -0.001359 -0.004756 0.012873 0.000000 0.000000 0.000000
# 4 0.000000 0.000000 0.000000 0.028395 0.000000 0.000000
# 5 0.000000 0.000000 0.000000 0.000000 0.035391 0.000000
# 6 0.000000 0.000000 0.000000 0.000000 0.000000 0.028814
#
#
# Mechanical properties :
#
#
# Convention : Reuss Voigt Hill
#
# Bulk Modulus (GPa) = 44.32801 45.92949 45.12875
# Shear Modulus (GPa) = 31.63570 32.20727 31.92149
#
# Velocity S-wave (km/s) = 3.76414 3.79799 3.78110
# Velocity P-wave (km/s) = 6.22454 6.30900 6.26691
#
# Compressibility (1/GPa) = 0.02255910
#
# Stress axis : x y z
#
# Youngs Moduli (GPa) = 69.61317 76.88688 77.68167
#
# Poissons Ratio (x) = 0.20972 0.10555
# Poissons Ratio (y) = 0.18988 0.36948
# Poissons Ratio (z) = 0.09458 0.36570
#
# Static dielectric constant tensor:
#      x y z
#    x 4.241910 0.000000 0.000000 
#    y 0.000000 3.875790 0.000000 
#    z 0.000000 0.000000 4.205330 
# 
# 
# High freq. dielectric constant tensor:
#      x y z
#    x 1.889860 0.000000 0.000000 
#    y 0.000000 1.858950 0.000000 
#    z 0.000000 0.000000 1.886630 
# 
# From -- ./inp_files/6542.got.cif
#   From: 2010.03.12/outbox.cif.g09.slc.cpg/sg18_4_cif.got.tgz:6542.got - 2010.04.10 18:53:55.
