data_PCOD8156853
_publ_section_title
;
Structure prediction by ZEFSAII (Michael W. Deem and Ramdas Pophale) SiO2 
 PCOD8156853
Probable space group: P 21 21 21
;
_chemical_formula_sum "Si O2"
_cell_formula_units_Z 32
_cell_length_a 11.125805
_cell_length_b 12.318260
_cell_length_c 10.601182
_cell_angle_alpha 90.000000
_cell_angle_beta 90.000000
_cell_angle_gamma 90.000000
_cell_volume 1452.897916
_symmetry_space_group_name_H-M "P 21 21 21"
_symmetry_group_IT_number 19
_symmetry_cell_setting 'orthorhombic'
loop_
_space_group_symop_operation_xyz
x,y,z
1/2-x,-y,1/2+z
1/2+x,1/2-y,-z
-x,1/2+y,1/2-z
loop_
_atom_site_type_symbol
_atom_site_label
_atom_site_fract_x
_atom_site_fract_y
_atom_site_fract_z
Si Si1 0.758186 0.767062 0.347105
Si Si2 0.565040 0.038748 0.087077
Si Si3 0.677536 0.534744 0.305090
Si Si4 0.284808 0.331443 0.424427
Si Si5 0.952392 0.943995 0.099181
Si Si6 0.197887 0.649529 0.396144
Si Si7 0.480356 0.167433 0.848619
Si Si8 0.187236 0.915303 0.978149
O O1 0.705150 0.649239 0.369308
O O2 0.705420 0.824798 0.225346
O O3 0.710239 0.847663 0.453498
O O4 0.902727 0.754708 0.346171
O O5 0.466589 0.016213 0.195983
O O6 0.666503 0.118650 0.149795
O O7 0.623886 0.926832 0.034051
O O8 0.491699 0.090876 0.970621
O O9 0.729391 0.536878 0.159686
O O10 0.732855 0.447211 0.401194
O O11 0.147625 0.362941 0.458240
O O12 0.316506 0.215788 0.484389
O O13 0.022572 0.901767 0.221850
O O14 0.893615 0.056153 0.142852
O O15 0.052582 0.960810 0.992679
O O16 0.144100 0.763324 0.346505
#
# Coordination Sequence:
#
# PCOD8156853 Si02
#       8
#     4   4   4   4   4   4   4   4
#     4   9  19  39  64  89 131 173 224 284 330 396
#     4  10  22  40  68  98 132 175 223 282 336 408
#     4  11  24  44  65  99 131 175 227 275 340 398
#     4   9  22  43  63  96 137 171 220 286 345 389
#     4  10  23  41  61  97 129 177 221 274 339 403
#     4  10  20  39  63  95 130 178 228 278 334 402
#     4  10  20  39  66  93 129 176 225 276 330 404
#     4  11  26  43  68  95 135 177 222 283 332 408
#
# _framework density 22.024947000000001
#
# number of rings (size 3 to 8) (size 9 to 14) (size 15 to 20)
#    0.000    2.000    1.250    0.750    5.250    1.000 
#    4.500    0.000    0.000    0.000    0.000    0.000 
#    0.000    0.000    0.000    0.000    0.000    0.000 
#
# Total GULP energy -396585.557560 kJ/mol
# GULP energy per Si atom -12393.298674 kJ/mol
# Density = 2.197482 g / cm^3
# Si number density = 22.024947 Si / 1000 Ang^3
#
#
#
# Elastic Constant Matrix: (Units=GPa)
#
#
# Indices 1 2 3 4 5 6 
#
# 1 93.2635 34.4225 36.7978 0.0000 0.0000 0.0000
# 2 34.4225 88.5393 36.6255 0.0000 0.0000 0.0000
# 3 36.7978 36.6255 75.2186 0.0000 0.0000 0.0000
# 4 0.0000 0.0000 0.0000 27.6623 0.0000 0.0000
# 5 0.0000 0.0000 0.0000 0.0000 28.2842 0.0000
# 6 0.0000 0.0000 0.0000 0.0000 0.0000 32.4557
#
#
#
# Elastic Compliance Matrix: (Units=1/GPa)
#
#
# Indices 1 2 3 4 5 6 
#
# 1 0.014004 -0.003269 -0.005259 0.000000 0.000000 0.000000
# 2 -0.003269 0.014906 -0.005659 0.000000 0.000000 0.000000
# 3 -0.005259 -0.005659 0.018623 0.000000 0.000000 0.000000
# 4 0.000000 0.000000 0.000000 0.036150 0.000000 0.000000
# 5 0.000000 0.000000 0.000000 0.000000 0.035355 0.000000
# 6 0.000000 0.000000 0.000000 0.000000 0.000000 0.030811
#
#
# Mechanical properties :
#
#
# Convention : Reuss Voigt Hill
#
# Bulk Modulus (GPa) = 52.19502 52.52367 52.35935
# Shear Modulus (GPa) = 27.08409 27.62549 27.35479
#
# Velocity S-wave (km/s) = 3.51051 3.54543 3.52801
# Velocity P-wave (km/s) = 6.33886 6.37646 6.35769
#
# Compressibility (1/GPa) = 0.01915892
#
# Stress axis : x y z
#
# Youngs Moduli (GPa) = 71.40876 67.08610 53.69735
#
# Poissons Ratio (x) = 0.21930 0.28240
# Poissons Ratio (y) = 0.23343 0.30387
# Poissons Ratio (z) = 0.37555 0.37964
#
# Static dielectric constant tensor:
#      x y z
#    x 4.076840 0.000000 0.000000 
#    y 0.000000 4.070330 0.000000 
#    z 0.000000 0.000000 3.800580 
# 
# 
# High freq. dielectric constant tensor:
#      x y z
#    x 1.872890 0.000000 0.000000 
#    y 0.000000 1.861190 0.000000 
#    z 0.000000 0.000000 1.854580 
# 
# From -- ./inp_files/5041.got.cif
#   From: 2010.03.12/outbox.cif.g09.slc.cpg/sg19_3_cif.got.tgz:5041.got - 2010.04.10 18:59:41.
