data_PCOD8156589
_publ_section_title
;
Structure prediction by ZEFSAII (Michael W. Deem and Ramdas Pophale) SiO2 
 PCOD8156589
Probable space group: P 21 21 21
;
_chemical_formula_sum "Si O2"
_cell_formula_units_Z 24
_cell_length_a 16.244823
_cell_length_b 8.997894
_cell_length_c 9.763206
_cell_angle_alpha 90.000000
_cell_angle_beta 90.000000
_cell_angle_gamma 90.000000
_cell_volume 1427.079966
_symmetry_space_group_name_H-M "P 21 21 21"
_symmetry_group_IT_number 19
_symmetry_cell_setting 'orthorhombic'
loop_
_space_group_symop_operation_xyz
x,y,z
1/2-x,-y,1/2+z
1/2+x,1/2-y,-z
-x,1/2+y,1/2-z
loop_
_atom_site_type_symbol
_atom_site_label
_atom_site_fract_x
_atom_site_fract_y
_atom_site_fract_z
Si Si1 0.037966 0.603394 0.626079
Si Si2 0.509275 0.388882 0.603241
Si Si3 0.155232 0.480421 0.046814
Si Si4 0.014696 0.285679 0.121127
Si Si5 0.693867 0.016524 0.261413
Si Si6 0.937618 0.777568 0.847783
O O1 0.131182 0.612730 0.686040
O O2 0.010896 0.429562 0.621215
O O3 0.035051 0.671947 0.474515
O O4 0.976650 0.694204 0.720420
O O5 0.412357 0.386787 0.559863
O O6 0.536366 0.559378 0.634233
O O7 0.526004 0.285494 0.731539
O O8 0.564476 0.328039 0.479263
O O9 0.105641 0.323796 0.059929
O O10 0.217400 0.494043 0.173114
O O11 0.202933 0.490977 0.903004
O O12 0.655875 0.176461 0.306947
#
# Coordination Sequence:
#
# PCOD8156589 Si02
#       6
#     4   4   4   4   4   4
#     4  10  18  35  58  83 107 148 189 232 273 334
#     4  10  20  35  56  87 111 144 194 233 273 336
#     4  10  22  36  56  88 115 146 193 223 283 348
#     4  10  20  35  56  87 111 144 194 233 273 336
#     4  10  22  34  60  84 115 150 187 229 283 344
#     4  10  18  35  58  83 107 148 189 232 273 334
#
# _framework density 16.817557999999998
#
# number of rings (size 3 to 8) (size 9 to 14) (size 15 to 20)
#    2.000    0.000    3.333    2.000    4.667    0.000 
#    0.000    0.000    0.000   12.000    0.000    0.000 
#    0.000    0.000    0.000    0.000    0.000    0.000 
#
# Total GULP energy -297362.467536 kJ/mol
# GULP energy per Si atom -12390.102814 kJ/mol
# Density = 1.677928 g / cm^3
# Si number density = 16.817558 Si / 1000 Ang^3
#
#
#
# Elastic Constant Matrix: (Units=GPa)
#
#
# Indices 1 2 3 4 5 6 
#
# 1 28.9847 -15.9619 15.6822 0.0000 0.0000 0.0000
# 2 -15.9619 40.6702 0.9629 0.0000 0.0000 0.0000
# 3 15.6822 0.9629 93.5251 0.0000 0.0000 0.0000
# 4 0.0000 0.0000 0.0000 35.7039 0.0000 0.0000
# 5 0.0000 0.0000 0.0000 0.0000 33.7882 0.0000
# 6 0.0000 0.0000 0.0000 0.0000 0.0000 18.5175
#
#
#
# Elastic Compliance Matrix: (Units=1/GPa)
#
#
# Indices 1 2 3 4 5 6 
#
# 1 0.050096 0.019865 -0.008605 0.000000 0.000000 0.000000
# 2 0.019865 0.032471 -0.003665 0.000000 0.000000 0.000000
# 3 -0.008605 -0.003665 0.012173 0.000000 0.000000 0.000000
# 4 0.000000 0.000000 0.000000 0.028008 0.000000 0.000000
# 5 0.000000 0.000000 0.000000 0.000000 0.029596 0.000000
# 6 0.000000 0.000000 0.000000 0.000000 0.000000 0.054003
#
#
# Mechanical properties :
#
#
# Convention : Reuss Voigt Hill
#
# Bulk Modulus (GPa) = 9.09665 18.28295 13.68980
# Shear Modulus (GPa) = 21.94899 28.43503 25.19201
#
# Velocity S-wave (km/s) = 3.61657 4.11639 3.87455
# Velocity P-wave (km/s) = 4.78123 5.78687 5.30792
#
# Compressibility (1/GPa) = 0.10993053
#
# Stress axis : x y z
#
# Youngs Moduli (GPa) = 19.96161 30.79644 82.14982
#
# Poissons Ratio (x) = -0.61177 0.70687
# Poissons Ratio (y) = -0.39654 0.30110
# Poissons Ratio (z) = 0.17176 0.11288
#
# Static dielectric constant tensor:
#      x y z
#    x 2.785590 0.000000 0.000000 
#    y 0.000000 3.088870 0.000000 
#    z 0.000000 0.000000 3.223820 
# 
# 
# High freq. dielectric constant tensor:
#      x y z
#    x 1.612660 0.000000 0.000000 
#    y 0.000000 1.636320 0.000000 
#    z 0.000000 0.000000 1.667310 
# 
# From -- ./inp_files/3051.got.cif
#   From: 2010.03.12/outbox.cif.g09.slc.cpg/sg19_2_cif.got.tgz:3051.got - 2010.04.10 18:59:41.
