data_PCOD8156871
_publ_section_title
;
Structure prediction by ZEFSAII (Michael W. Deem and Ramdas Pophale) SiO2 
 PCOD8156871
Probable space group: P 21 21 21
;
_chemical_formula_sum "Si O2"
_cell_formula_units_Z 32
_cell_length_a 15.846609
_cell_length_b 10.207507
_cell_length_c 9.988876
_cell_angle_alpha 90.000000
_cell_angle_beta 90.000000
_cell_angle_gamma 90.000000
_cell_volume 1615.744367
_symmetry_space_group_name_H-M "P 21 21 21"
_symmetry_group_IT_number 19
_symmetry_cell_setting 'orthorhombic'
loop_
_space_group_symop_operation_xyz
x,y,z
1/2-x,-y,1/2+z
1/2+x,1/2-y,-z
-x,1/2+y,1/2-z
loop_
_atom_site_type_symbol
_atom_site_label
_atom_site_fract_x
_atom_site_fract_y
_atom_site_fract_z
Si Si1 0.642617 0.475279 0.043853
Si Si2 0.884303 0.716093 0.775546
Si Si3 0.258490 0.410759 0.673720
Si Si4 0.936760 0.256966 0.613714
Si Si5 0.432722 0.286618 0.687006
Si Si6 0.263615 0.370317 0.376368
Si Si7 0.939820 0.508292 0.263569
Si Si8 0.680865 0.395299 0.542033
O O1 0.629147 0.345006 0.129639
O O2 0.588650 0.591217 0.109586
O O3 0.740766 0.507683 0.040078
O O4 0.614608 0.451684 0.891954
O O5 0.831530 0.850836 0.783596
O O6 0.983687 0.744697 0.788833
O O7 0.851825 0.618223 0.890443
O O8 0.331295 0.301466 0.698329
O O9 0.261985 0.449614 0.516973
O O10 0.275436 0.540566 0.759852
O O11 0.962396 0.206330 0.466811
O O12 0.858181 0.171145 0.666851
O O13 0.475101 0.405239 0.768499
O O14 0.461347 0.145753 0.743094
O O15 0.204358 0.244494 0.394443
O O16 0.891376 0.540068 0.128513
#
# Coordination Sequence:
#
# PCOD8156871 Si02
#       8
#     4   4   4   4   4   4   4   4
#     4  10  22  38  60  89 118 148 210 250 289 366
#     4  11  21  38  62  86 120 163 190 253 312 359
#     4  10  22  39  62  87 125 161 205 251 307 364
#     4   9  20  40  57  84 121 164 191 239 314 371
#     4  10  22  41  62  89 121 162 208 250 305 367
#     4   9  21  38  61  87 121 160 202 246 302 369
#     4  11  22  40  66  88 123 158 209 254 295 365
#     4  10  20  40  64  84 119 168 193 241 322 359
#
# _framework density 19.805112999999999
#
# number of rings (size 3 to 8) (size 9 to 14) (size 15 to 20)
#    0.000    2.000    1.250    3.750    3.500    2.000 
#    4.500    1.250    0.000    0.000    0.000    0.000 
#    0.000    0.000    0.000    0.000    0.000    0.000 
#
# Total GULP energy -396882.300379 kJ/mol
# GULP energy per Si atom -12402.571887 kJ/mol
# Density = 1.976004 g / cm^3
# Si number density = 19.805113 Si / 1000 Ang^3
#
#
#
# Elastic Constant Matrix: (Units=GPa)
#
#
# Indices 1 2 3 4 5 6 
#
# 1 69.7605 16.3974 0.7217 0.0000 0.0000 0.0000
# 2 16.3974 59.9080 14.4264 0.0000 0.0000 0.0000
# 3 0.7217 14.4264 37.9813 0.0000 0.0000 0.0000
# 4 0.0000 0.0000 0.0000 35.0271 0.0000 0.0000
# 5 0.0000 0.0000 0.0000 0.0000 22.0665 0.0000
# 6 0.0000 0.0000 0.0000 0.0000 0.0000 27.8036
#
#
#
# Elastic Compliance Matrix: (Units=1/GPa)
#
#
# Indices 1 2 3 4 5 6 
#
# 1 0.015392 -0.004559 0.001439 0.000000 0.000000 0.000000
# 2 -0.004559 0.019723 -0.007405 0.000000 0.000000 0.000000
# 3 0.001439 -0.007405 0.029114 0.000000 0.000000 0.000000
# 4 0.000000 0.000000 0.000000 0.028549 0.000000 0.000000
# 5 0.000000 0.000000 0.000000 0.000000 0.045318 0.000000
# 6 0.000000 0.000000 0.000000 0.000000 0.000000 0.035967
#
#
# Mechanical properties :
#
#
# Convention : Reuss Voigt Hill
#
# Bulk Modulus (GPa) = 23.15941 25.63789 24.39865
# Shear Modulus (GPa) = 23.86574 26.05306 24.95940
#
# Velocity S-wave (km/s) = 3.47512 3.63088 3.55385
# Velocity P-wave (km/s) = 5.27456 5.52729 5.40240
#
# Compressibility (1/GPa) = 0.04317899
#
# Stress axis : x y z
#
# Youngs Moduli (GPa) = 64.97063 50.70120 34.34773
#
# Poissons Ratio (x) = 0.23117 -0.04944
# Poissons Ratio (y) = 0.29623 0.25434
# Poissons Ratio (z) = -0.09352 0.37544
#
# Static dielectric constant tensor:
#      x y z
#    x 3.614510 0.000000 0.000000 
#    y 0.000000 3.450630 0.000000 
#    z 0.000000 0.000000 3.488050 
# 
# 
# High freq. dielectric constant tensor:
#      x y z
#    x 1.781390 0.000000 0.000000 
#    y 0.000000 1.760900 0.000000 
#    z 0.000000 0.000000 1.763250 
# 
# From -- ./inp_files/5294.got.cif
#   From: 2010.03.12/outbox.cif.g09.slc.cpg/sg19_3_cif.got.tgz:5294.got - 2010.04.10 18:59:41.
