data_PCOD8156293
_publ_section_title
;
Structure prediction by ZEFSAII (Michael W. Deem and Ramdas Pophale) SiO2 
 PCOD8156293
Probable space group: P 21 21 2
;
_chemical_formula_sum "Si O2"
_cell_formula_units_Z 14
_cell_length_a 11.084120
_cell_length_b 6.619564
_cell_length_c 7.177446
_cell_angle_alpha 90.000000
_cell_angle_beta 90.000000
_cell_angle_gamma 90.000000
_cell_volume 526.623867
_symmetry_space_group_name_H-M "P 21 21 2"
_symmetry_group_IT_number 18
_symmetry_cell_setting 'orthorhombic'
loop_
_space_group_symop_operation_xyz
x,y,z
-x,-y,z
1/2+x,1/2-y,-z
1/2-x,1/2+y,-z
loop_
_atom_site_type_symbol
_atom_site_label
_atom_site_fract_x
_atom_site_fract_y
_atom_site_fract_z
Si Si1 0.379216 0.619365 0.325783
Si Si2 0.300920 0.295151 0.048162
Si Si3 0.358058 0.534826 0.725743
Si Si4 0.000000 0.500000 0.808454
O O1 0.500000 0.500000 0.367946
O O2 0.321298 0.519105 0.140442
O O3 0.305475 0.575703 0.518808
O O4 0.413201 0.856662 0.313507
O O5 0.177208 0.225040 0.144117
O O6 0.412166 0.142335 0.070977
O O7 0.290412 0.339406 0.823369
O O8 0.500000 0.500000 0.742300
#
# Coordination Sequence:
#
# PCOD8156293 Si02
#       4
#     4   4   4   2
#     4   9  22  47  70 102 139 184 240 301 365 436
#     4  11  26  43  73 103 149 188 244 312 362 430
#     4  11  26  47  70 105 146 190 248 299 364 433
#     4  10  22  48  78 100 140 192 238 312 372 430
#
# _framework density 26.584436
#
# number of rings (size 3 to 8) (size 9 to 14) (size 15 to 20)
#    0.000    1.714    0.000    2.571   12.000    0.000 
#   10.286    2.857    0.000    0.000    0.000    0.000 
#    0.000    0.000    0.000    0.000    0.000    0.000 
#
# Total GULP energy -173436.015823 kJ/mol
# GULP energy per Si atom -12388.286844 kJ/mol
# Density = 2.652393 g / cm^3
# Si number density = 26.584436 Si / 1000 Ang^3
#
#
#
# Elastic Constant Matrix: (Units=GPa)
#
#
# Indices 1 2 3 4 5 6 
#
# 1 86.2594 18.0204 28.1772 0.0000 0.0000 0.0000
# 2 18.0204 173.0963 52.2328 0.0000 0.0000 0.0000
# 3 28.1772 52.2328 206.9438 0.0000 0.0000 0.0000
# 4 0.0000 0.0000 0.0000 -2.3225 0.0000 0.0000
# 5 0.0000 0.0000 0.0000 0.0000 13.1402 0.0000
# 6 0.0000 0.0000 0.0000 0.0000 0.0000 43.7109
#
#
#
# Elastic Compliance Matrix: (Units=1/GPa)
#
#
# Indices 1 2 3 4 5 6 
#
# 1 0.012243 -0.000835 -0.001456 0.000000 0.000000 0.000000
# 2 -0.000835 0.006310 -0.001479 0.000000 0.000000 0.000000
# 3 -0.001456 -0.001479 0.005404 0.000000 0.000000 0.000000
# 4 0.000000 0.000000 0.000000 -0.430567 0.000000 0.000000
# 5 0.000000 0.000000 0.000000 0.000000 0.076102 0.000000
# 6 0.000000 0.000000 0.000000 0.000000 0.000000 0.022878
#
#
# Mechanical properties :
#
#
# Convention : Reuss Voigt Hill
#
# Bulk Modulus (GPa) = 60.91438 73.68448 67.29943
# Shear Modulus (GPa) = -16.97121 35.43033 9.22956
#
# Velocity S-wave (km/s) = -2.52938 3.65464 1.86530
# Velocity P-wave (km/s) = 3.79907 6.75173 5.47808
#
# Compressibility (1/GPa) = 0.01641649
#
# Stress axis : x y z
#
# Youngs Moduli (GPa) = 81.67875 158.46903 185.05449
#
# Poissons Ratio (x) = 0.13235 0.26948
# Poissons Ratio (y) = 0.06821 0.27370
# Poissons Ratio (z) = 0.11894 0.23438
#
# Static dielectric constant tensor:
#      x y z
#    x 4.939870 0.000000 0.000000 
#    y 0.000000 5.469130 0.000000 
#    z 0.000000 0.000000 5.381740 
# 
# 
# High freq. dielectric constant tensor:
#      x y z
#    x 2.072410 0.000000 0.000000 
#    y 0.000000 2.089000 0.000000 
#    z 0.000000 0.000000 2.070050 
# 
# From -- ./inp_files/3558.got.cif
#   From: 2010.03.12/outbox.cif.g09.slc.cpg/sg18_2_cif.got.tgz:3558.got - 2010.04.10 18:53:55.
