data_PCOD8156576
_publ_section_title
;
Structure prediction by ZEFSAII (Michael W. Deem and Ramdas Pophale) SiO2 
 PCOD8156576
Probable space group: P 21 21 21
;
_chemical_formula_sum "Si O2"
_cell_formula_units_Z 24
_cell_length_a 8.183006
_cell_length_b 10.353577
_cell_length_c 16.718008
_cell_angle_alpha 90.000000
_cell_angle_beta 90.000000
_cell_angle_gamma 90.000000
_cell_volume 1416.406190
_symmetry_space_group_name_H-M "P 21 21 21"
_symmetry_group_IT_number 19
_symmetry_cell_setting 'orthorhombic'
loop_
_space_group_symop_operation_xyz
x,y,z
1/2-x,-y,1/2+z
1/2+x,1/2-y,-z
-x,1/2+y,1/2-z
loop_
_atom_site_type_symbol
_atom_site_label
_atom_site_fract_x
_atom_site_fract_y
_atom_site_fract_z
Si Si1 0.634351 0.939438 0.780172
Si Si2 0.331656 0.954302 0.675613
Si Si3 0.720064 0.795631 0.246531
Si Si4 0.700129 0.636498 0.956329
Si Si5 0.847839 0.701865 0.801608
Si Si6 0.917005 0.694897 0.098586
O O1 0.518336 0.942993 0.702952
O O2 0.763889 0.826196 0.761512
O O3 0.529501 0.914805 0.860885
O O4 0.728259 0.073902 0.791472
O O5 0.236591 0.821127 0.690575
O O6 0.326141 0.992015 0.580945
O O7 0.245280 0.070484 0.726637
O O8 0.534812 0.807012 0.220337
O O9 0.833705 0.776363 0.169223
O O10 0.825907 0.713564 0.897983
O O11 0.526223 0.710335 0.956075
O O12 0.776999 0.628292 0.044540
#
# Coordination Sequence:
#
# PCOD8156576 Si02
#       6
#     4   4   4   4   4   4
#     4  10  18  33  52  80 109 141 179 221 277 311
#     4   9  18  33  50  77 108 138 179 220 264 319
#     4  11  18  31  54  81 108 143 175 230 269 319
#     4   9  18  34  49  81 105 137 186 216 267 314
#     4   9  19  31  52  81 106 138 185 222 262 319
#     4  10  19  32  57  76 112 141 180 227 263 316
#
# _framework density 16.944292000000001
#
# number of rings (size 3 to 8) (size 9 to 14) (size 15 to 20)
#    1.000    1.333    1.667    3.000    0.000    0.000 
#    0.000    0.000    0.000   10.000    0.000    0.000 
#    0.000    0.000    0.000    0.000    0.000    0.000 
#
# Total GULP energy -297393.692239 kJ/mol
# GULP energy per Si atom -12391.403843 kJ/mol
# Density = 1.690573 g / cm^3
# Si number density = 16.944292 Si / 1000 Ang^3
#
#
#
# Elastic Constant Matrix: (Units=GPa)
#
#
# Indices 1 2 3 4 5 6 
#
# 1 92.3067 43.4800 30.7599 0.0000 0.0000 0.0000
# 2 43.4800 119.6173 17.2552 0.0000 0.0000 0.0000
# 3 30.7599 17.2552 46.9089 0.0000 0.0000 0.0000
# 4 0.0000 0.0000 0.0000 17.2683 0.0000 0.0000
# 5 0.0000 0.0000 0.0000 0.0000 32.3854 0.0000
# 6 0.0000 0.0000 0.0000 0.0000 0.0000 30.2453
#
#
#
# Elastic Compliance Matrix: (Units=1/GPa)
#
#
# Indices 1 2 3 4 5 6 
#
# 1 0.015872 -0.004507 -0.008750 0.000000 0.000000 0.000000
# 2 -0.004507 0.010108 -0.000763 0.000000 0.000000 0.000000
# 3 -0.008750 -0.000763 0.027336 0.000000 0.000000 0.000000
# 4 0.000000 0.000000 0.000000 0.057910 0.000000 0.000000
# 5 0.000000 0.000000 0.000000 0.000000 0.030878 0.000000
# 6 0.000000 0.000000 0.000000 0.000000 0.000000 0.033063
#
#
# Mechanical properties :
#
#
# Convention : Reuss Voigt Hill
#
# Bulk Modulus (GPa) = 39.56205 49.09146 44.32675
# Shear Modulus (GPa) = 23.62573 27.13564 25.38069
#
# Velocity S-wave (km/s) = 3.73811 4.00617 3.87446
# Velocity P-wave (km/s) = 6.48307 7.10171 6.79943
#
# Compressibility (1/GPa) = 0.02527675
#
# Stress axis : x y z
#
# Youngs Moduli (GPa) = 63.00240 98.92778 36.58145
#
# Poissons Ratio (x) = 0.44589 0.32009
# Poissons Ratio (y) = 0.28397 0.02790
# Poissons Ratio (z) = 0.55128 0.07546
#
# Static dielectric constant tensor:
#      x y z
#    x 3.194940 0.000000 0.000000 
#    y 0.000000 3.193420 0.000000 
#    z 0.000000 0.000000 2.846550 
# 
# 
# High freq. dielectric constant tensor:
#      x y z
#    x 1.666530 0.000000 0.000000 
#    y 0.000000 1.646480 0.000000 
#    z 0.000000 0.000000 1.617250 
# 
# From -- ./inp_files/2889.got.cif
#   From: 2010.03.12/outbox.cif.g09.slc.cpg/sg19_2_cif.got.tgz:2889.got - 2010.04.10 18:59:41.
