data_PCOD8156757
_publ_section_title
;
Structure prediction by ZEFSAII (Michael W. Deem and Ramdas Pophale) SiO2 
 PCOD8156757
Probable space group: P 21 21 21
;
_chemical_formula_sum "Si O2"
_cell_formula_units_Z 32
_cell_length_a 8.123872
_cell_length_b 15.760936
_cell_length_c 12.409098
_cell_angle_alpha 90.000000
_cell_angle_beta 90.000000
_cell_angle_gamma 90.000000
_cell_volume 1588.858757
_symmetry_space_group_name_H-M "P 21 21 21"
_symmetry_group_IT_number 19
_symmetry_cell_setting 'orthorhombic'
loop_
_space_group_symop_operation_xyz
x,y,z
1/2-x,-y,1/2+z
1/2+x,1/2-y,-z
-x,1/2+y,1/2-z
loop_
_atom_site_type_symbol
_atom_site_label
_atom_site_fract_x
_atom_site_fract_y
_atom_site_fract_z
Si Si1 0.213805 0.988537 0.830257
Si Si2 0.172735 0.312042 0.220619
Si Si3 0.665619 0.370856 0.485426
Si Si4 0.175284 0.273199 0.790749
Si Si5 0.491527 0.393758 0.273816
Si Si6 0.616006 0.644625 0.590483
Si Si7 0.416902 0.258709 0.616382
Si Si8 0.143636 0.857422 0.654705
O O1 0.235539 0.936883 0.940055
O O2 0.234453 0.927774 0.727033
O O3 0.340033 0.067520 0.828073
O O4 0.036773 0.035919 0.817207
O O5 0.294507 0.384411 0.267817
O O6 0.270749 0.229687 0.185113
O O7 0.077762 0.341424 0.112002
O O8 0.042507 0.297934 0.315355
O O9 0.574929 0.421631 0.388057
O O10 0.514403 0.326099 0.545977
O O11 0.804987 0.302716 0.456046
O O12 0.284424 0.232148 0.886403
O O13 0.296771 0.309431 0.698359
O O14 0.064181 0.199050 0.743039
O O15 0.054161 0.349262 0.826124
O O16 0.662709 0.618020 0.469810
#
# Coordination Sequence:
#
# PCOD8156757 Si02
#       8
#     4   4   4   4   4   4   4   4
#     4  11  23  39  57  89 124 167 195 257 309 369
#     4  10  20  40  62  92 117 160 209 262 297 374
#     4  11  21  37  63  88 122 162 204 247 315 362
#     4   8  19  36  59  88 117 152 204 254 295 366
#     4   9  20  39  58  83 125 157 195 252 315 352
#     4  10  21  38  62  88 127 162 202 252 321 364
#     4  10  20  35  61  94 115 151 207 260 300 364
#     4  11  20  38  64  86 119 165 210 254 304 369
#
# _framework density 20.140241
#
# number of rings (size 3 to 8) (size 9 to 14) (size 15 to 20)
#    0.000    2.000    1.250    3.000    3.500    0.000 
#    2.250    1.250    0.000    0.000    0.000    0.000 
#    0.000    0.000    0.000    0.000    0.000    0.000 
#
# Total GULP energy -396468.919628 kJ/mol
# GULP energy per Si atom -12389.653738 kJ/mol
# Density = 2.009440 g / cm^3
# Si number density = 20.140241 Si / 1000 Ang^3
#
#
#
# Elastic Constant Matrix: (Units=GPa)
#
#
# Indices 1 2 3 4 5 6 
#
# 1 111.3973 37.8886 45.2597 0.0000 0.0000 0.0000
# 2 37.8886 69.2510 32.8111 0.0000 0.0000 0.0000
# 3 45.2597 32.8111 101.5337 0.0000 0.0000 0.0000
# 4 0.0000 0.0000 0.0000 30.6513 0.0000 0.0000
# 5 0.0000 0.0000 0.0000 0.0000 34.5648 0.0000
# 6 0.0000 0.0000 0.0000 0.0000 0.0000 21.2222
#
#
#
# Elastic Compliance Matrix: (Units=1/GPa)
#
#
# Indices 1 2 3 4 5 6 
#
# 1 0.012196 -0.004837 -0.003873 0.000000 0.000000 0.000000
# 2 -0.004837 0.018970 -0.003974 0.000000 0.000000 0.000000
# 3 -0.003873 -0.003974 0.012860 0.000000 0.000000 0.000000
# 4 0.000000 0.000000 0.000000 0.032625 0.000000 0.000000
# 5 0.000000 0.000000 0.000000 0.000000 0.028931 0.000000
# 6 0.000000 0.000000 0.000000 0.000000 0.000000 0.047121
#
#
# Mechanical properties :
#
#
# Convention : Reuss Voigt Hill
#
# Bulk Modulus (GPa) = 53.60135 57.12232 55.36183
# Shear Modulus (GPa) = 27.13123 28.36917 27.75020
#
# Velocity S-wave (km/s) = 3.67429 3.75718 3.71597
# Velocity P-wave (km/s) = 6.68374 6.87355 6.77931
#
# Compressibility (1/GPa) = 0.01865625
#
# Stress axis : x y z
#
# Youngs Moduli (GPa) = 81.99519 52.71570 77.76293
#
# Poissons Ratio (x) = 0.25501 0.30119
# Poissons Ratio (y) = 0.39665 0.30901
# Poissons Ratio (z) = 0.31758 0.20948
#
# Static dielectric constant tensor:
#      x y z
#    x 4.068850 0.000000 0.000000 
#    y 0.000000 3.502790 0.000000 
#    z 0.000000 0.000000 3.775580 
# 
# 
# High freq. dielectric constant tensor:
#      x y z
#    x 1.789050 0.000000 0.000000 
#    y 0.000000 1.767110 0.000000 
#    z 0.000000 0.000000 1.788190 
# 
# From -- ./inp_files/4728.got.cif
#   From: 2010.03.12/outbox.cif.g09.slc.cpg/sg19_3_cif.got.tgz:4728.got - 2010.04.10 18:59:41.
