data_PCOD8156540
_publ_section_title
;
Structure prediction by ZEFSAII (Michael W. Deem and Ramdas Pophale) SiO2 
 PCOD8156540
Probable space group: P 21 21 21
;
_chemical_formula_sum "Si O2"
_cell_formula_units_Z 28
_cell_length_a 31.321296
_cell_length_b 5.206007
_cell_length_c 6.442888
_cell_angle_alpha 90.000000
_cell_angle_beta 90.000000
_cell_angle_gamma 90.000000
_cell_volume 1050.570141
_symmetry_space_group_name_H-M "P 21 21 21"
_symmetry_group_IT_number 19
_symmetry_cell_setting 'orthorhombic'
loop_
_space_group_symop_operation_xyz
x,y,z
1/2-x,-y,1/2+z
1/2+x,1/2-y,-z
-x,1/2+y,1/2-z
loop_
_atom_site_type_symbol
_atom_site_label
_atom_site_fract_x
_atom_site_fract_y
_atom_site_fract_z
Si Si1 0.855998 0.992429 0.967392
Si Si2 0.311527 0.004569 0.091865
Si Si3 0.286024 0.991364 0.630860
Si Si4 0.670040 0.991265 0.947900
Si Si5 0.554857 0.049554 0.619037
Si Si6 0.923213 0.115300 0.540694
Si Si7 0.963445 0.618023 0.488426
O O1 0.833927 0.760459 0.839908
O O2 0.907447 0.957283 0.945461
O O3 0.839804 0.247850 0.847748
O O4 0.842627 0.992552 0.207239
O O5 0.310672 0.999850 0.844522
O O6 0.263954 0.023325 0.185635
O O7 0.302820 0.748335 0.496438
O O8 0.299243 0.247548 0.503752
O O9 0.626216 0.965584 0.083276
O O10 0.549664 0.323159 0.744293
O O11 0.568607 0.841835 0.792469
O O12 0.512488 0.964102 0.499926
O O13 0.935808 0.401792 0.613525
O O14 0.954764 0.883641 0.615803
#
# Coordination Sequence:
#
# PCOD8156540 Si02
#       7
#     4   4   4   4   4   4   4
#     4   9  19  27  44  60  89 116 159 173 224 268
#     4  10  20  33  46  68  84 123 148 194 221 274
#     4  10  19  32  48  64  89 112 155 183 236 264
#     4   9  17  28  44  61  83 116 146 186 220 269
#     4   9  17  23  36  55  84 118 152 172 210 260
#     4   9  16  23  35  54  79 110 148 171 215 252
#     4  10  16  22  35  54  84 115 152 175 204 261
#
# _framework density 26.652199
#
# number of rings (size 3 to 8) (size 9 to 14) (size 15 to 20)
#    0.857    1.714    1.429    1.714    6.000    0.000 
#    0.000    0.000    0.000    0.000    0.000    0.000 
#    0.000    0.000    0.000   25.714    2.857    0.000 
#
# Total GULP energy -346999.256841 kJ/mol
# GULP energy per Si atom -12392.830601 kJ/mol
# Density = 2.659154 g / cm^3
# Si number density = 26.652199 Si / 1000 Ang^3
#
#
#
# Elastic Constant Matrix: (Units=GPa)
#
#
# Indices 1 2 3 4 5 6 
#
# 1 211.1561 101.9712 20.0524 0.0000 0.0000 0.0000
# 2 101.9712 251.8112 0.5559 0.0000 0.0000 0.0000
# 3 20.0524 0.5559 31.6209 0.0000 0.0000 0.0000
# 4 0.0000 0.0000 0.0000 -28.6491 0.0000 0.0000
# 5 0.0000 0.0000 0.0000 0.0000 40.5693 0.0000
# 6 0.0000 0.0000 0.0000 0.0000 0.0000 46.9525
#
#
#
# Elastic Compliance Matrix: (Units=1/GPa)
#
#
# Indices 1 2 3 4 5 6 
#
# 1 0.006352 -0.002563 -0.003983 0.000000 0.000000 0.000000
# 2 -0.002563 0.005006 0.001538 0.000000 0.000000 0.000000
# 3 -0.003983 0.001538 0.034123 0.000000 0.000000 0.000000
# 4 0.000000 0.000000 0.000000 -0.034905 0.000000 0.000000
# 5 0.000000 0.000000 0.000000 0.000000 0.024649 0.000000
# 6 0.000000 0.000000 0.000000 0.000000 0.000000 0.021298
#
#
# Mechanical properties :
#
#
# Convention : Reuss Voigt Hill
#
# Bulk Modulus (GPa) = 28.19797 82.19416 55.19606
# Shear Modulus (GPa) = 63.80588 36.57511 50.19050
#
# Velocity S-wave (km/s) = 4.89818 3.70849 4.34425
# Velocity P-wave (km/s) = 6.52629 7.01739 6.77629
#
# Compressibility (1/GPa) = 0.03546355
#
# Stress axis : x y z
#
# Youngs Moduli (GPa) = 157.42984 199.76370 29.30535
#
# Poissons Ratio (x) = 0.51209 0.11673
# Poissons Ratio (y) = 0.40357 -0.04506
# Poissons Ratio (z) = 0.62706 -0.30716
#
# Static dielectric constant tensor:
#      x y z
#    x 4.588760 0.000000 0.000000 
#    y 0.000000 5.011370 0.000000 
#    z 0.000000 0.000000 4.509790 
# 
# 
# High freq. dielectric constant tensor:
#      x y z
#    x 2.066370 0.000000 0.000000 
#    y 0.000000 2.068290 0.000000 
#    z 0.000000 0.000000 2.082800 
# 
# From -- ./inp_files/5605.got.cif
#   From: 2010.03.12/outbox.cif.g09.slc.cpg/sg19_3_cif.got.tgz:5605.got - 2010.04.10 18:59:41.
