data_PCOD8156183
_publ_section_title
;
Structure prediction by ZEFSAII (Michael W. Deem and Ramdas Pophale) SiO2 
 PCOD8156183
Probable space group: P 21 21 2
;
_chemical_formula_sum "Si O2"
_cell_formula_units_Z 32
_cell_length_a 12.888590
_cell_length_b 9.028564
_cell_length_c 11.881962
_cell_angle_alpha 90.000000
_cell_angle_beta 90.000000
_cell_angle_gamma 90.000000
_cell_volume 1382.649970
_symmetry_space_group_name_H-M "P 21 21 2"
_symmetry_group_IT_number 18
_symmetry_cell_setting 'orthorhombic'
loop_
_space_group_symop_operation_xyz
x,y,z
-x,-y,z
1/2+x,1/2-y,-z
1/2-x,1/2+y,-z
loop_
_atom_site_type_symbol
_atom_site_label
_atom_site_fract_x
_atom_site_fract_y
_atom_site_fract_z
Si Si1 0.156533 0.369430 0.102033
Si Si2 0.068730 0.872216 0.409049
Si Si3 0.374160 0.676665 0.279115
Si Si4 0.759361 0.101345 0.669758
Si Si5 0.202688 0.419526 0.575643
Si Si6 0.028362 0.832421 0.156982
Si Si7 0.076383 0.685902 0.627461
Si Si8 0.273555 0.187711 0.931265
O O1 0.178876 0.411229 0.230360
O O2 0.171438 0.529220 0.041630
O O3 0.043523 0.293067 0.097861
O O4 0.236857 0.251399 0.050882
O O5 0.021007 0.815715 0.291605
O O6 0.064258 0.738689 0.498286
O O7 0.179102 0.955924 0.390651
O O8 0.000000 0.000000 0.463487
O O9 0.360581 0.506035 0.315475
O O10 0.489458 0.749393 0.286741
O O11 0.325986 0.689249 0.153203
O O12 0.306381 0.755610 0.374856
O O13 0.810371 0.262115 0.668581
O O14 0.692028 0.072275 0.558550
O O15 0.102121 0.508978 0.627111
O O16 0.144821 0.803042 0.118945
O O17 0.000000 0.000000 0.118829
#
# Coordination Sequence:
#
# PCOD8156183 Si02
#       8
#     4   4   4   4   4   4   4   4
#     4  11  26  44  75 103 134 192 235 305 353 428
#     4  10  22  38  64  95 141 183 232 282 350 423
#     4  11  23  43  60  95 139 182 218 293 349 420
#     4  10  23  40  66  94 139 177 239 280 356 416
#     4  11  22  39  62 100 135 179 223 292 343 418
#     4  11  24  44  72 101 136 185 238 293 357 424
#     4  11  23  37  65  99 137 184 228 279 352 432
#     4  11  25  49  70 101 144 178 243 299 366 429
#
# _framework density 23.143962999999999
#
# number of rings (size 3 to 8) (size 9 to 14) (size 15 to 20)
#    0.000    1.250    1.250    4.875    7.000    2.000 
#    0.000    2.500    0.000    0.000    0.000    0.000 
#    0.000    0.000    0.000    0.000    0.000    0.000 
#
# Total GULP energy -396421.193987 kJ/mol
# GULP energy per Si atom -12388.162312 kJ/mol
# Density = 2.309129 g / cm^3
# Si number density = 23.143963 Si / 1000 Ang^3
#
#
#
# Elastic Constant Matrix: (Units=GPa)
#
#
# Indices 1 2 3 4 5 6 
#
# 1 94.0277 25.4916 11.0159 0.0000 0.0000 0.0000
# 2 25.4916 85.0882 41.3474 0.0000 0.0000 0.0000
# 3 11.0159 41.3474 44.9370 0.0000 0.0000 0.0000
# 4 0.0000 0.0000 0.0000 25.3017 0.0000 0.0000
# 5 0.0000 0.0000 0.0000 0.0000 17.2769 0.0000
# 6 0.0000 0.0000 0.0000 0.0000 0.0000 36.6720
#
#
#
# Elastic Compliance Matrix: (Units=1/GPa)
#
#
# Indices 1 2 3 4 5 6 
#
# 1 0.011585 -0.003782 0.000639 0.000000 0.000000 0.000000
# 2 -0.003782 0.022491 -0.019768 0.000000 0.000000 0.000000
# 3 0.000639 -0.019768 0.040285 0.000000 0.000000 0.000000
# 4 0.000000 0.000000 0.000000 0.039523 0.000000 0.000000
# 5 0.000000 0.000000 0.000000 0.000000 0.057881 0.000000
# 6 0.000000 0.000000 0.000000 0.000000 0.000000 0.027269
#
#
# Mechanical properties :
#
#
# Convention : Reuss Voigt Hill
#
# Bulk Modulus (GPa) = 35.03563 42.19586 38.61574
# Shear Modulus (GPa) = 19.65657 25.59666 22.62662
#
# Velocity S-wave (km/s) = 2.91747 3.32923 3.13013
# Velocity P-wave (km/s) = 5.14974 5.74890 5.45755
#
# Compressibility (1/GPa) = 0.02854237
#
# Stress axis : x y z
#
# Youngs Moduli (GPa) = 86.31496 44.46186 24.82310
#
# Poissons Ratio (x) = 0.16814 -0.01587
# Poissons Ratio (y) = 0.32641 0.49069
# Poissons Ratio (z) = -0.05520 0.87890
#
# Static dielectric constant tensor:
#      x y z
#    x 4.197110 0.000000 0.000000 
#    y 0.000000 4.249940 0.000000 
#    z 0.000000 0.000000 3.914480 
# 
# 
# High freq. dielectric constant tensor:
#      x y z
#    x 1.918830 0.000000 0.000000 
#    y 0.000000 1.923920 0.000000 
#    z 0.000000 0.000000 1.894390 
# 
# From -- ./inp_files/6124.got.cif
#   From: 2010.03.12/outbox.cif.g09.slc.cpg/sg18_4_cif.got.tgz:6124.got - 2010.04.10 18:53:55.
