data_PCOD8156950
_publ_section_title
;
Structure prediction by ZEFSAII (Michael W. Deem and Ramdas Pophale) SiO2 
 PCOD8156950
Probable space group: P 21 21 21
;
_chemical_formula_sum "Si O2"
_cell_formula_units_Z 32
_cell_length_a 12.721554
_cell_length_b 5.009040
_cell_length_c 25.331890
_cell_angle_alpha 90.000000
_cell_angle_beta 90.000000
_cell_angle_gamma 90.000000
_cell_volume 1614.218272
_symmetry_space_group_name_H-M "P 21 21 21"
_symmetry_group_IT_number 19
_symmetry_cell_setting 'orthorhombic'
loop_
_space_group_symop_operation_xyz
x,y,z
1/2-x,-y,1/2+z
1/2+x,1/2-y,-z
-x,1/2+y,1/2-z
loop_
_atom_site_type_symbol
_atom_site_label
_atom_site_fract_x
_atom_site_fract_y
_atom_site_fract_z
Si Si1 0.186045 0.925859 0.510420
Si Si2 0.504250 0.106486 0.937690
Si Si3 0.520755 0.732440 0.682016
Si Si4 0.414843 0.103071 0.506746
Si Si5 0.129939 0.257645 0.275311
Si Si6 0.898213 0.908400 0.932035
Si Si7 0.863461 0.358419 0.747461
Si Si8 0.427706 0.631389 0.190861
O O1 0.112983 0.954547 0.458799
O O2 0.163210 0.664039 0.545058
O O3 0.304495 0.970250 0.490194
O O4 0.170283 0.162821 0.550413
O O5 0.508135 0.115603 0.874927
O O6 0.530752 0.407009 0.952355
O O7 0.585798 0.892520 0.963726
O O8 0.413608 0.710074 0.715762
O O9 0.606435 0.538474 0.706053
O O10 0.575982 0.024709 0.685259
O O11 0.482482 0.112396 0.453183
O O12 0.255409 0.259231 0.275556
O O13 0.900415 0.869100 0.870060
O O14 0.860917 0.652786 0.774474
O O15 0.947353 0.332360 0.699869
O O16 0.898538 0.166387 0.793894
#
# Coordination Sequence:
#
# PCOD8156950 Si02
#       8
#     4   4   4   4   4   4   4   4
#     4  10  21  37  56  82 113 146 186 233 280 333
#     4  10  21  37  57  82 112 145 185 230 276 331
#     4  10  21  37  56  81 111 144 184 229 276 331
#     4  10  21  37  56  81 111 143 183 229 275 328
#     4  10  21  37  56  81 112 144 184 230 276 331
#     4  10  21  37  56  81 112 144 185 230 276 333
#     4  10  21  37  57  82 113 145 184 230 276 329
#     4  10  21  37  56  82 112 145 185 229 275 330
#
# _framework density 19.823837999999999
#
# number of rings (size 3 to 8) (size 9 to 14) (size 15 to 20)
#    0.000    2.000    0.000    3.000    0.000    4.000 
#    0.000    3.750    0.000    0.000    0.000    0.000 
#    0.000    0.000    0.000    0.000    0.000    0.000 
#
# Total GULP energy -396550.089677 kJ/mol
# GULP energy per Si atom -12392.190302 kJ/mol
# Density = 1.977872 g / cm^3
# Si number density = 19.823838 Si / 1000 Ang^3
#
#
#
# Elastic Constant Matrix: (Units=GPa)
#
#
# Indices 1 2 3 4 5 6 
#
# 1 75.5596 2.8325 -21.4903 0.0000 0.0000 0.0000
# 2 2.8325 94.5310 -0.2749 0.0000 0.0000 0.0000
# 3 -21.4903 -0.2749 36.8242 0.0000 0.0000 0.0000
# 4 0.0000 0.0000 0.0000 21.6128 0.0000 0.0000
# 5 0.0000 0.0000 0.0000 0.0000 11.0903 0.0000
# 6 0.0000 0.0000 0.0000 0.0000 0.0000 24.2902
#
#
#
# Elastic Compliance Matrix: (Units=1/GPa)
#
#
# Indices 1 2 3 4 5 6 
#
# 1 0.015888 -0.000449 0.009268 0.000000 0.000000 0.000000
# 2 -0.000449 0.010591 -0.000183 0.000000 0.000000 0.000000
# 3 0.009268 -0.000183 0.032564 0.000000 0.000000 0.000000
# 4 0.000000 0.000000 0.000000 0.046269 0.000000 0.000000
# 5 0.000000 0.000000 0.000000 0.000000 0.090169 0.000000
# 6 0.000000 0.000000 0.000000 0.000000 0.000000 0.041169
#
#
# Mechanical properties :
#
#
# Convention : Reuss Voigt Hill
#
# Bulk Modulus (GPa) = 13.10351 18.78326 15.94338
# Shear Modulus (GPa) = 20.42359 26.45515 23.43937
#
# Velocity S-wave (km/s) = 3.21324 3.65706 3.44231
# Velocity P-wave (km/s) = 4.51562 5.22760 4.88460
#
# Compressibility (1/GPa) = 0.07631546
#
# Stress axis : x y z
#
# Youngs Moduli (GPa) = 62.94247 94.41561 30.70901
#
# Poissons Ratio (x) = 0.04240 -0.28463
# Poissons Ratio (y) = 0.02827 0.00562
# Poissons Ratio (z) = -0.58338 0.01728
#
# Static dielectric constant tensor:
#      x y z
#    x 3.620500 0.000000 0.000000 
#    y 0.000000 3.902510 0.000000 
#    z 0.000000 0.000000 3.499290 
# 
# 
# High freq. dielectric constant tensor:
#      x y z
#    x 1.770030 0.000000 0.000000 
#    y 0.000000 1.796720 0.000000 
#    z 0.000000 0.000000 1.758580 
# 
# From -- ./inp_files/1294.got.cif
#   From: 2010.03.12/outbox.cif.g09.slc.cpg/sg19_1_cif.got.tgz:1294.got - 2010.04.10 18:59:41.
