data_PCOD8156346
_publ_section_title
;
Structure prediction by ZEFSAII (Michael W. Deem and Ramdas Pophale) SiO2 
 PCOD8156346
Probable space group: P 21 21 2
;
_chemical_formula_sum "Si O2"
_cell_formula_units_Z 20
_cell_length_a 16.810003
_cell_length_b 8.345125
_cell_length_c 5.383213
_cell_angle_alpha 90.000000
_cell_angle_beta 90.000000
_cell_angle_gamma 90.000000
_cell_volume 755.165605
_symmetry_space_group_name_H-M "P 21 21 2"
_symmetry_group_IT_number 18
_symmetry_cell_setting 'orthorhombic'
loop_
_space_group_symop_operation_xyz
x,y,z
-x,-y,z
1/2+x,1/2-y,-z
1/2-x,1/2+y,-z
loop_
_atom_site_type_symbol
_atom_site_label
_atom_site_fract_x
_atom_site_fract_y
_atom_site_fract_z
Si Si1 0.104235 0.742390 0.231831
Si Si2 0.199882 0.502813 0.494132
Si Si3 0.500000 0.500000 0.533908
Si Si4 0.245306 0.125362 0.997124
Si Si5 0.000000 0.500000 0.956620
Si Si6 0.107717 0.256398 0.726286
O O1 0.132913 0.643304 0.475547
O O2 0.068959 0.916660 0.301339
O O3 0.179616 0.750065 0.039725
O O4 0.030335 0.646817 0.120107
O O5 0.251128 0.500690 0.239652
O O6 0.167584 0.317984 0.508101
O O7 0.252434 0.533640 0.740873
O O8 0.542524 0.370990 0.357466
O O9 0.158095 0.203121 0.967748
O O10 0.929819 0.571634 0.792202
#
# Coordination Sequence:
#
# PCOD8156346 Si02
#       6
#     4   4   2   4   2   4
#     4  10  25  47  75 111 158 204 265 315 405 464
#     4  10  23  50  77 104 151 212 260 310 403 470
#     4  12  28  42  72 128 158 198 262 352 386 468
#     4  10  26  46  81 106 147 207 273 315 375 483
#     4  12  24  54  78 112 158 234 244 328 414 504
#     4  12  26  48  80 113 163 204 272 324 406 474
#
# _framework density 26.484259999999999
#
# number of rings (size 3 to 8) (size 9 to 14) (size 15 to 20)
#    1.200    0.000    2.000    2.400    2.800    7.200 
#    0.000    0.000    0.000    0.000    0.000    0.000 
#    0.000    0.000    0.000    0.000    0.000    0.000 
#
# Total GULP energy -247830.422738 kJ/mol
# GULP energy per Si atom -12391.521137 kJ/mol
# Density = 2.642398 g / cm^3
# Si number density = 26.484260 Si / 1000 Ang^3
#
#
#
# Elastic Constant Matrix: (Units=GPa)
#
#
# Indices 1 2 3 4 5 6 
#
# 1 90.0837 25.7513 7.1720 0.0000 0.0000 0.0000
# 2 25.7513 104.0238 27.7652 0.0000 0.0000 0.0000
# 3 7.1720 27.7652 113.1441 0.0000 0.0000 0.0000
# 4 0.0000 0.0000 0.0000 20.4212 0.0000 0.0000
# 5 0.0000 0.0000 0.0000 0.0000 16.9064 0.0000
# 6 0.0000 0.0000 0.0000 0.0000 0.0000 46.5081
#
#
#
# Elastic Compliance Matrix: (Units=1/GPa)
#
#
# Indices 1 2 3 4 5 6 
#
# 1 0.011946 -0.002948 -0.000034 0.000000 0.000000 0.000000
# 2 -0.002948 0.011015 -0.002516 0.000000 0.000000 0.000000
# 3 -0.000034 -0.002516 0.009458 0.000000 0.000000 0.000000
# 4 0.000000 0.000000 0.000000 0.048969 0.000000 0.000000
# 5 0.000000 0.000000 0.000000 0.000000 0.059149 0.000000
# 6 0.000000 0.000000 0.000000 0.000000 0.000000 0.021502
#
#
# Mechanical properties :
#
#
# Convention : Reuss Voigt Hill
#
# Bulk Modulus (GPa) = 46.67990 47.62542 47.15266
# Shear Modulus (GPa) = 27.75073 33.20468 30.47771
#
# Velocity S-wave (km/s) = 3.24052 3.54468 3.39600
# Velocity P-wave (km/s) = 5.62717 5.89700 5.76366
#
# Compressibility (1/GPa) = 0.02142249
#
# Stress axis : x y z
#
# Youngs Moduli (GPa) = 83.70810 90.78850 105.73215
#
# Poissons Ratio (x) = 0.26767 0.00357
# Poissons Ratio (y) = 0.24680 0.26603
# Poissons Ratio (z) = 0.00282 0.22843
#
# Static dielectric constant tensor:
#      x y z
#    x 4.808270 0.000000 0.000000 
#    y 0.000000 4.828410 0.000000 
#    z 0.000000 0.000000 4.465920 
# 
# 
# High freq. dielectric constant tensor:
#      x y z
#    x 2.069450 0.000000 0.000000 
#    y 0.000000 2.057680 0.000000 
#    z 0.000000 0.000000 2.050270 
# 
# From -- ./inp_files/1762.got.cif
#   From: 2010.03.12/outbox.cif.g09.slc.cpg/sg18_1_cif.got.tgz:1762.got - 2010.04.10 18:53:55.
