data_PCOD8156294
_publ_section_title
;
Structure prediction by ZEFSAII (Michael W. Deem and Ramdas Pophale) SiO2 
 PCOD8156294
Probable space group: P 21 21 2
;
_chemical_formula_sum "Si O2"
_cell_formula_units_Z 18
_cell_length_a 13.429260
_cell_length_b 10.096587
_cell_length_c 4.977732
_cell_angle_alpha 90.000000
_cell_angle_beta 90.000000
_cell_angle_gamma 90.000000
_cell_volume 674.929148
_symmetry_space_group_name_H-M "P 21 21 2"
_symmetry_group_IT_number 18
_symmetry_cell_setting 'orthorhombic'
loop_
_space_group_symop_operation_xyz
x,y,z
-x,-y,z
1/2+x,1/2-y,-z
1/2-x,1/2+y,-z
loop_
_atom_site_type_symbol
_atom_site_label
_atom_site_fract_x
_atom_site_fract_y
_atom_site_fract_z
Si Si1 0.974237 0.277029 0.631301
Si Si2 0.696857 0.166470 0.438757
Si Si3 0.500000 0.500000 0.640767
Si Si4 0.347083 0.176240 0.859369
Si Si5 0.289459 0.569714 0.754415
O O1 0.981756 0.124713 0.549012
O O2 0.903765 0.356918 0.420592
O O3 0.081653 0.346311 0.640712
O O4 0.931431 0.278830 0.930786
O O5 0.764427 0.209376 0.182841
O O6 0.713881 0.274955 0.670616
O O7 0.743111 0.019159 0.492163
O O8 0.402698 0.526996 0.824405
O O9 0.283506 0.053697 0.986682
#
# Coordination Sequence:
#
# PCOD8156294 Si02
#       5
#     4   4   2   4   4
#     4  11  27  47  75 114 155 204 259 318 385 460
#     4  11  27  49  80 114 154 209 258 323 385 458
#     4  10  22  48  80 112 150 204 264 314 376 462
#     4  12  25  50  71 113 155 197 255 319 383 453
#     4  11  24  49  79 115 155 204 259 321 385 460
#
# _framework density 26.669467000000001
#
# number of rings (size 3 to 8) (size 9 to 14) (size 15 to 20)
#    0.000    0.889    4.444    0.000    6.222    7.111 
#    4.000    0.000    0.000    0.000    0.000    0.000 
#    0.000    0.000    0.000    0.000    0.000    0.000 
#
# Total GULP energy -223018.371734 kJ/mol
# GULP energy per Si atom -12389.909541 kJ/mol
# Density = 2.660877 g / cm^3
# Si number density = 26.669467 Si / 1000 Ang^3
#
#
#
# Elastic Constant Matrix: (Units=GPa)
#
#
# Indices 1 2 3 4 5 6 
#
# 1 210.3153 24.2574 40.2606 0.0000 0.0000 0.0000
# 2 24.2574 58.9593 -4.2125 0.0000 0.0000 0.0000
# 3 40.2606 -4.2125 93.1990 0.0000 0.0000 0.0000
# 4 0.0000 0.0000 0.0000 15.3461 0.0000 0.0000
# 5 0.0000 0.0000 0.0000 0.0000 36.9184 0.0000
# 6 0.0000 0.0000 0.0000 0.0000 0.0000 46.9824
#
#
#
# Elastic Compliance Matrix: (Units=1/GPa)
#
#
# Indices 1 2 3 4 5 6 
#
# 1 0.005514 -0.002447 -0.002493 0.000000 0.000000 0.000000
# 2 -0.002447 0.018101 0.001875 0.000000 0.000000 0.000000
# 3 -0.002493 0.001875 0.011891 0.000000 0.000000 0.000000
# 4 0.000000 0.000000 0.000000 0.065163 0.000000 0.000000
# 5 0.000000 0.000000 0.000000 0.000000 0.027087 0.000000
# 6 0.000000 0.000000 0.000000 0.000000 0.000000 0.021285
#
#
# Mechanical properties :
#
#
# Convention : Reuss Voigt Hill
#
# Bulk Modulus (GPa) = 34.03861 53.67607 43.85734
# Shear Modulus (GPa) = 30.30992 39.99392 35.15192
#
# Velocity S-wave (km/s) = 3.37486 3.87669 3.63445
# Velocity P-wave (km/s) = 5.28934 6.34101 5.83890
#
# Compressibility (1/GPa) = 0.02937840
#
# Stress axis : x y z
#
# Youngs Moduli (GPa) = 181.35231 55.24412 84.09535
#
# Poissons Ratio (x) = 0.13517 0.20962
# Poissons Ratio (y) = 0.44372 -0.15769
# Poissons Ratio (z) = 0.45204 -0.10359
#
# Static dielectric constant tensor:
#      x y z
#    x 5.514460 0.000000 0.000000 
#    y 0.000000 4.897460 0.000000 
#    z 0.000000 0.000000 4.400530 
# 
# 
# High freq. dielectric constant tensor:
#      x y z
#    x 2.106020 0.000000 0.000000 
#    y 0.000000 2.067760 0.000000 
#    z 0.000000 0.000000 2.043640 
# 
# From -- ./inp_files/1406.got.cif
#   From: 2010.03.12/outbox.cif.g09.slc.cpg/sg18_1_cif.got.tgz:1406.got - 2010.04.10 18:53:55.
