data_PCOD8156424
_publ_section_title
;
Structure prediction by ZEFSAII (Michael W. Deem and Ramdas Pophale) SiO2 
 PCOD8156424
Probable space group: P 21 21 2
;
_chemical_formula_sum "Si O2"
_cell_formula_units_Z 20
_cell_length_a 10.294487
_cell_length_b 14.982783
_cell_length_c 5.395757
_cell_angle_alpha 90.000000
_cell_angle_beta 90.000000
_cell_angle_gamma 90.000000
_cell_volume 832.241909
_symmetry_space_group_name_H-M "P 21 21 2"
_symmetry_group_IT_number 18
_symmetry_cell_setting 'orthorhombic'
loop_
_space_group_symop_operation_xyz
x,y,z
-x,-y,z
1/2+x,1/2-y,-z
1/2-x,1/2+y,-z
loop_
_atom_site_type_symbol
_atom_site_label
_atom_site_fract_x
_atom_site_fract_y
_atom_site_fract_z
Si Si1 0.600377 0.678936 0.598651
Si Si2 0.129165 0.392789 0.649816
Si Si3 0.272477 0.051829 0.072138
Si Si4 0.929914 0.284957 0.897786
Si Si5 0.000000 0.500000 0.279286
Si Si6 0.500000 0.500000 0.799874
O O1 0.756478 0.675044 0.579626
O O2 0.550938 0.723100 0.344741
O O3 0.537386 0.581339 0.618883
O O4 0.561637 0.730990 0.848660
O O5 0.186823 0.491762 0.693471
O O6 0.050763 0.355211 0.890158
O O7 0.024858 0.408069 0.432246
O O8 0.295973 0.157491 0.120380
O O9 0.120050 0.030759 0.022689
O O10 0.364301 0.018806 0.853592
#
# Coordination Sequence:
#
# PCOD8156424 Si02
#       6
#     4   4   4   4   2   2
#     4  11  30  46  75 107 159 194 262 318 390 460
#     4  11  25  46  72 111 147 200 259 314 384 463
#     4  11  24  46  78 109 155 204 258 317 395 471
#     4  12  25  47  75 114 143 203 255 326 372 466
#     4  12  20  46  82 106 148 208 258 314 368 486
#     4  10  28  54  68 114 160 218 244 330 412 474
#
# _framework density 24.031473999999999
#
# number of rings (size 3 to 8) (size 9 to 14) (size 15 to 20)
#    0.000    0.800    4.000    1.200   11.200    0.800 
#    3.600    0.000    0.000    0.000    0.000    0.000 
#    0.000    0.000    0.000    0.000    0.000    0.000 
#
# Total GULP energy -247883.867880 kJ/mol
# GULP energy per Si atom -12394.193394 kJ/mol
# Density = 2.397678 g / cm^3
# Si number density = 24.031474 Si / 1000 Ang^3
#
#
#
# Elastic Constant Matrix: (Units=GPa)
#
#
# Indices 1 2 3 4 5 6 
#
# 1 152.0636 39.5532 32.8327 0.0000 0.0000 0.0000
# 2 39.5532 131.5500 47.1869 0.0000 0.0000 0.0000
# 3 32.8327 47.1869 118.8660 0.0000 0.0000 0.0000
# 4 0.0000 0.0000 0.0000 17.2402 0.0000 0.0000
# 5 0.0000 0.0000 0.0000 0.0000 23.1179 0.0000
# 6 0.0000 0.0000 0.0000 0.0000 0.0000 38.9423
#
#
#
# Elastic Compliance Matrix: (Units=1/GPa)
#
#
# Indices 1 2 3 4 5 6 
#
# 1 0.007312 -0.001719 -0.001337 0.000000 0.000000 0.000000
# 2 -0.001719 0.009268 -0.003204 0.000000 0.000000 0.000000
# 3 -0.001337 -0.003204 0.010054 0.000000 0.000000 0.000000
# 4 0.000000 0.000000 0.000000 0.058004 0.000000 0.000000
# 5 0.000000 0.000000 0.000000 0.000000 0.043257 0.000000
# 6 0.000000 0.000000 0.000000 0.000000 0.000000 0.025679
#
#
# Mechanical properties :
#
#
# Convention : Reuss Voigt Hill
#
# Bulk Modulus (GPa) = 70.85605 71.29169 71.07387
# Shear Modulus (GPa) = 29.27414 34.72053 31.99733
#
# Velocity S-wave (km/s) = 3.49400 3.80517 3.65290
# Velocity P-wave (km/s) = 6.76950 7.00258 6.88702
#
# Compressibility (1/GPa) = 0.01411312
#
# Stress axis : x y z
#
# Youngs Moduli (GPa) = 136.76098 107.89967 99.46004
#
# Poissons Ratio (x) = 0.18546 0.13302
# Poissons Ratio (y) = 0.23506 0.31871
# Poissons Ratio (z) = 0.18290 0.34575
#
# Static dielectric constant tensor:
#      x y z
#    x 4.514900 0.000000 0.000000 
#    y 0.000000 4.718840 0.000000 
#    z 0.000000 0.000000 4.000300 
# 
# 
# High freq. dielectric constant tensor:
#      x y z
#    x 1.958200 0.000000 0.000000 
#    y 0.000000 1.965990 0.000000 
#    z 0.000000 0.000000 1.936720 
# 
# From -- ./inp_files/986.got.cif
#   From: 2010.03.12/outbox.cif.g09.slc.cpg/sg18_1_cif.got.tgz:986.got - 2010.04.10 18:53:55.
