data_PCOD8156080
_publ_section_title
;
Structure prediction by ZEFSAII (Michael W. Deem and Ramdas Pophale) SiO2 
 PCOD8156080
Probable space group: P 21 21 2
;
_chemical_formula_sum "Si O2"
_cell_formula_units_Z 24
_cell_length_a 14.591350
_cell_length_b 8.336438
_cell_length_c 9.092526
_cell_angle_alpha 90.000000
_cell_angle_beta 90.000000
_cell_angle_gamma 90.000000
_cell_volume 1106.013813
_symmetry_space_group_name_H-M "P 21 21 2"
_symmetry_group_IT_number 18
_symmetry_cell_setting 'orthorhombic'
loop_
_space_group_symop_operation_xyz
x,y,z
-x,-y,z
1/2+x,1/2-y,-z
1/2-x,1/2+y,-z
loop_
_atom_site_type_symbol
_atom_site_label
_atom_site_fract_x
_atom_site_fract_y
_atom_site_fract_z
Si Si1 0.793000 0.726976 0.313239
Si Si2 0.662860 0.699693 0.831236
Si Si3 0.249260 0.497968 0.060412
Si Si4 0.033678 0.179860 0.124821
Si Si5 0.284633 0.936459 0.385619
Si Si6 0.086546 0.391336 0.873918
O O1 0.736086 0.626391 0.193190
O O2 0.890733 0.779818 0.247459
O O3 0.810342 0.606656 0.448603
O O4 0.728787 0.872596 0.366205
O O5 0.561616 0.776513 0.835912
O O6 0.688940 0.646971 0.665717
O O7 0.746289 0.817340 0.885705
O O8 0.672023 0.538218 0.937469
O O9 0.150358 0.485928 0.986479
O O10 0.061515 0.223667 0.956946
O O11 0.000000 0.000000 0.141334
O O12 0.365132 0.865681 0.282861
O O13 0.000000 0.500000 0.841846
#
# Coordination Sequence:
#
# PCOD8156080 Si02
#       6
#     4   4   4   4   4   4
#     4  11  24  44  63  94 131 174 219 268 325 395
#     4  11  21  39  69  96 129 170 215 273 322 381
#     4  10  21  37  66  94 127 168 213 264 326 382
#     4  11  23  42  67  98 131 164 220 276 321 382
#     4  11  24  43  63  89 132 171 216 263 322 392
#     4  10  21  40  62  93 124 160 213 266 322 382
#
# _framework density 21.699546000000002
#
# number of rings (size 3 to 8) (size 9 to 14) (size 15 to 20)
#    0.000    1.333    3.333    3.000    4.667    0.000 
#    6.000    0.833    0.000    0.000    0.000    0.000 
#    0.000    0.000    0.000    0.000    0.000    0.000 
#
# Total GULP energy -297456.182766 kJ/mol
# GULP energy per Si atom -12394.007615 kJ/mol
# Density = 2.165016 g / cm^3
# Si number density = 21.699546 Si / 1000 Ang^3
#
#
#
# Elastic Constant Matrix: (Units=GPa)
#
#
# Indices 1 2 3 4 5 6 
#
# 1 77.0065 -2.9374 42.8110 0.0000 0.0000 0.0000
# 2 -2.9374 55.2019 24.9271 0.0000 0.0000 0.0000
# 3 42.8110 24.9271 128.4700 0.0000 0.0000 0.0000
# 4 0.0000 0.0000 0.0000 36.1348 0.0000 0.0000
# 5 0.0000 0.0000 0.0000 0.0000 22.5977 0.0000
# 6 0.0000 0.0000 0.0000 0.0000 0.0000 27.1819
#
#
#
# Elastic Compliance Matrix: (Units=1/GPa)
#
#
# Indices 1 2 3 4 5 6 
#
# 1 0.016603 0.003707 -0.006252 0.000000 0.000000 0.000000
# 2 0.003707 0.020682 -0.005248 0.000000 0.000000 0.000000
# 3 -0.006252 -0.005248 0.010886 0.000000 0.000000 0.000000
# 4 0.000000 0.000000 0.000000 0.027674 0.000000 0.000000
# 5 0.000000 0.000000 0.000000 0.000000 0.044252 0.000000
# 6 0.000000 0.000000 0.000000 0.000000 0.000000 0.036789
#
#
# Mechanical properties :
#
#
# Convention : Reuss Voigt Hill
#
# Bulk Modulus (GPa) = 30.68992 43.36442 37.02717
# Shear Modulus (GPa) = 27.27248 30.24141 28.75695
#
# Velocity S-wave (km/s) = 3.54902 3.73720 3.64432
# Velocity P-wave (km/s) = 5.56488 6.21688 5.89989
#
# Compressibility (1/GPa) = 0.03258399
#
# Stress axis : x y z
#
# Youngs Moduli (GPa) = 60.23007 48.35022 91.86450
#
# Poissons Ratio (x) = -0.17921 0.57433
# Poissons Ratio (y) = -0.22325 0.48212
# Poissons Ratio (z) = 0.37655 0.25375
#
# Static dielectric constant tensor:
#      x y z
#    x 4.423270 0.000000 0.000000 
#    y 0.000000 3.988910 0.000000 
#    z 0.000000 0.000000 3.845140 
# 
# 
# High freq. dielectric constant tensor:
#      x y z
#    x 1.852670 0.000000 0.000000 
#    y 0.000000 1.862370 0.000000 
#    z 0.000000 0.000000 1.835770 
# 
# From -- ./inp_files/3284.got.cif
#   From: 2010.03.12/outbox.cif.g09.slc.cpg/sg18_2_cif.got.tgz:3284.got - 2010.04.10 18:53:55.
