data_PCOD8156410
_publ_section_title
;
Structure prediction by ZEFSAII (Michael W. Deem and Ramdas Pophale) SiO2 
 PCOD8156410
Probable space group: P 21 21 2
;
_chemical_formula_sum "Si O2"
_cell_formula_units_Z 22
_cell_length_a 5.435197
_cell_length_b 13.435399
_cell_length_c 13.075723
_cell_angle_alpha 90.000000
_cell_angle_beta 90.000000
_cell_angle_gamma 90.000000
_cell_volume 954.842124
_symmetry_space_group_name_H-M "P 21 21 2"
_symmetry_group_IT_number 18
_symmetry_cell_setting 'orthorhombic'
loop_
_space_group_symop_operation_xyz
x,y,z
-x,-y,z
1/2+x,1/2-y,-z
1/2-x,1/2+y,-z
loop_
_atom_site_type_symbol
_atom_site_label
_atom_site_fract_x
_atom_site_fract_y
_atom_site_fract_z
Si Si1 0.000000 0.500000 0.207650
Si Si2 0.500000 0.500000 0.731197
Si Si3 0.806064 0.825238 0.750962
Si Si4 0.500000 0.000000 0.383260
Si Si5 0.005639 0.279473 0.555453
Si Si6 0.817604 0.148948 0.920122
Si Si7 0.511262 0.326370 0.867552
O O1 0.164571 0.571672 0.281884
O O2 0.131172 0.427589 0.128398
O O3 0.745214 0.533047 0.671561
O O4 0.618962 0.415155 0.801529
O O5 0.985086 0.781276 0.663232
O O6 0.626748 0.737463 0.781866
O O7 0.937035 0.859894 0.854609
O O8 0.559508 0.897310 0.442309
O O9 0.272297 0.267442 0.502880
O O10 0.730557 0.263401 0.916317
O O11 0.851631 0.126629 0.040104
#
# Coordination Sequence:
#
# PCOD8156410 Si02
#       7
#     2   2   4   2   4   4   4
#     4  10  26  40  72 100 150 186 250 294 378 440
#     4  12  26  42  80 106 150 198 244 308 370 440
#     4  11  24  49  68 103 146 190 240 310 364 442
#     4  12  26  54  76 114 146 192 252 318 376 454
#     4  12  29  52  82 109 147 194 250 316 383 445
#     4  11  23  43  64 106 148 197 243 299 363 452
#     4  11  24  39  71 101 146 197 244 297 366 437
#
# _framework density 23.040457
#
# number of rings (size 3 to 8) (size 9 to 14) (size 15 to 20)
#    0.000    0.727    3.636    2.727    7.636    1.455 
#    3.273    0.000    0.000    0.000    0.000    0.000 
#    0.000    0.000    0.000    0.000    0.000    0.000 
#
# Total GULP energy -272556.603005 kJ/mol
# GULP energy per Si atom -12388.936500 kJ/mol
# Density = 2.298802 g / cm^3
# Si number density = 23.040457 Si / 1000 Ang^3
#
#
#
# Elastic Constant Matrix: (Units=GPa)
#
#
# Indices 1 2 3 4 5 6 
#
# 1 89.0421 17.0076 12.8715 0.0000 0.0000 0.0000
# 2 17.0076 139.4006 28.7212 0.0000 0.0000 0.0000
# 3 12.8715 28.7212 72.9109 0.0000 0.0000 0.0000
# 4 0.0000 0.0000 0.0000 29.6981 0.0000 0.0000
# 5 0.0000 0.0000 0.0000 0.0000 99.6874 0.0000
# 6 0.0000 0.0000 0.0000 0.0000 0.0000 33.3438
#
#
#
# Elastic Compliance Matrix: (Units=1/GPa)
#
#
# Indices 1 2 3 4 5 6 
#
# 1 0.011674 -0.001088 -0.001632 0.000000 0.000000 0.000000
# 2 -0.001088 0.007909 -0.002923 0.000000 0.000000 0.000000
# 3 -0.001632 -0.002923 0.015155 0.000000 0.000000 0.000000
# 4 0.000000 0.000000 0.000000 0.033672 0.000000 0.000000
# 5 0.000000 0.000000 0.000000 0.000000 0.010031 0.000000
# 6 0.000000 0.000000 0.000000 0.000000 0.000000 0.029991
#
#
# Mechanical properties :
#
#
# Convention : Reuss Voigt Hill
#
# Bulk Modulus (GPa) = 42.64256 46.50602 44.57429
# Shear Modulus (GPa) = 39.20444 48.72940 43.96692
#
# Velocity S-wave (km/s) = 4.12946 4.60385 4.37309
# Velocity P-wave (km/s) = 6.42530 6.96339 6.69975
#
# Compressibility (1/GPa) = 0.02345075
#
# Stress axis : x y z
#
# Youngs Moduli (GPa) = 85.65725 126.44439 65.98444
#
# Poissons Ratio (x) = 0.13757 0.10771
# Poissons Ratio (y) = 0.09320 0.19289
# Poissons Ratio (z) = 0.13982 0.36964
#
# Static dielectric constant tensor:
#      x y z
#    x 4.033310 0.000000 0.000000 
#    y 0.000000 3.723520 0.000000 
#    z 0.000000 0.000000 4.071540 
# 
# 
# High freq. dielectric constant tensor:
#      x y z
#    x 1.912750 0.000000 0.000000 
#    y 0.000000 1.933460 0.000000 
#    z 0.000000 0.000000 1.896300 
# 
# From -- ./inp_files/5107.got.cif
#   From: 2010.03.12/outbox.cif.g09.slc.cpg/sg18_3_cif.got.tgz:5107.got - 2010.04.10 18:53:55.
