data_PCOD8156332
_publ_section_title
;
Structure prediction by ZEFSAII (Michael W. Deem and Ramdas Pophale) SiO2 
 PCOD8156332
Probable space group: P 21 21 2
;
_chemical_formula_sum "Si O2"
_cell_formula_units_Z 28
_cell_length_a 20.965030
_cell_length_b 11.841450
_cell_length_c 5.045835
_cell_angle_alpha 90.000000
_cell_angle_beta 90.000000
_cell_angle_gamma 90.000000
_cell_volume 1252.660602
_symmetry_space_group_name_H-M "P 21 21 2"
_symmetry_group_IT_number 18
_symmetry_cell_setting 'orthorhombic'
loop_
_space_group_symop_operation_xyz
x,y,z
-x,-y,z
1/2+x,1/2-y,-z
1/2-x,1/2+y,-z
loop_
_atom_site_type_symbol
_atom_site_label
_atom_site_fract_x
_atom_site_fract_y
_atom_site_fract_z
Si Si1 0.108898 0.767930 0.421564
Si Si2 0.093721 0.077461 0.904601
Si Si3 0.182494 0.227129 0.627677
Si Si4 0.538904 0.667517 0.092391
Si Si5 0.794725 0.633907 0.103224
Si Si6 0.306838 0.461170 0.768205
Si Si7 0.794980 0.420395 0.400514
O O1 0.050792 0.770703 0.629742
O O2 0.144926 0.652209 0.496195
O O3 0.157085 0.875847 0.432841
O O4 0.077394 0.766229 0.131998
O O5 0.126198 0.132987 0.641277
O O6 0.035419 0.159711 0.989894
O O7 0.066505 0.955595 0.842812
O O8 0.146432 0.062395 0.136966
O O9 0.196098 0.274225 0.335741
O O10 0.246448 0.166815 0.740106
O O11 0.166415 0.324481 0.843432
O O12 0.822476 0.513608 0.197892
O O13 0.720280 0.611752 0.019618
O O14 0.244842 0.516421 0.631516
#
# Coordination Sequence:
#
# PCOD8156332 Si02
#       7
#     4   4   4   4   4   4   4
#     4  11  25  40  67  94 136 168 218 271 324 401
#     4  10  23  44  69  94 134 175 217 275 330 381
#     4  12  25  38  66  95 133 174 210 267 329 393
#     4  10  25  44  66  99 128 173 226 271 322 386
#     4  12  25  40  57 104 133 166 213 257 332 404
#     4  11  23  42  64 104 134 169 214 269 333 412
#     4  12  24  39  67  94 140 175 210 268 346 386
#
# _framework density 22.352422000000001
#
# number of rings (size 3 to 8) (size 9 to 14) (size 15 to 20)
#    0.000    0.857    4.286    1.714    8.000    8.000 
#    0.000    0.000    0.000    5.143    0.000    0.000 
#    0.000    0.000    0.000    0.000    0.000    0.000 
#
# Total GULP energy -346943.785754 kJ/mol
# GULP energy per Si atom -12390.849491 kJ/mol
# Density = 2.230155 g / cm^3
# Si number density = 22.352422 Si / 1000 Ang^3
#
#
#
# Elastic Constant Matrix: (Units=GPa)
#
#
# Indices 1 2 3 4 5 6 
#
# 1 67.2530 9.5286 26.8718 0.0000 0.0000 0.0000
# 2 9.5286 54.2230 27.8887 0.0000 0.0000 0.0000
# 3 26.8718 27.8887 117.1756 0.0000 0.0000 0.0000
# 4 0.0000 0.0000 0.0000 24.2537 0.0000 0.0000
# 5 0.0000 0.0000 0.0000 0.0000 27.6288 0.0000
# 6 0.0000 0.0000 0.0000 0.0000 0.0000 31.8886
#
#
#
# Elastic Compliance Matrix: (Units=1/GPa)
#
#
# Indices 1 2 3 4 5 6 
#
# 1 0.016425 -0.001081 -0.003509 0.000000 0.000000 0.000000
# 2 -0.001081 0.021086 -0.004771 0.000000 0.000000 0.000000
# 3 -0.003509 -0.004771 0.010474 0.000000 0.000000 0.000000
# 4 0.000000 0.000000 0.000000 0.041231 0.000000 0.000000
# 5 0.000000 0.000000 0.000000 0.000000 0.036194 0.000000
# 6 0.000000 0.000000 0.000000 0.000000 0.000000 0.031359
#
#
# Mechanical properties :
#
#
# Convention : Reuss Voigt Hill
#
# Bulk Modulus (GPa) = 34.17337 40.80333 37.48835
# Shear Modulus (GPa) = 26.99112 28.37838 27.68475
#
# Velocity S-wave (km/s) = 3.47872 3.56699 3.52313
# Velocity P-wave (km/s) = 5.60865 5.93791 5.77563
#
# Compressibility (1/GPa) = 0.02926255
#
# Stress axis : x y z
#
# Youngs Moduli (GPa) = 60.88427 47.42462 95.47052
#
# Poissons Ratio (x) = 0.05128 0.33503
# Poissons Ratio (y) = 0.06584 0.45546
# Poissons Ratio (z) = 0.21366 0.22625
#
# Static dielectric constant tensor:
#      x y z
#    x 4.073420 0.000000 0.000000 
#    y 0.000000 4.255760 0.000000 
#    z 0.000000 0.000000 3.902920 
# 
# 
# High freq. dielectric constant tensor:
#      x y z
#    x 1.851240 0.000000 0.000000 
#    y 0.000000 1.876150 0.000000 
#    z 0.000000 0.000000 1.881800 
# 
# From -- ./inp_files/1965.got.cif
#   From: 2010.03.12/outbox.cif.g09.slc.cpg/sg18_1_cif.got.tgz:1965.got - 2010.04.10 18:53:55.
