data_PCOD8156753
_publ_section_title
;
Structure prediction by ZEFSAII (Michael W. Deem and Ramdas Pophale) SiO2 
 PCOD8156753
Probable space group: P 21 21 21
;
_chemical_formula_sum "Si O2"
_cell_formula_units_Z 32
_cell_length_a 17.381893
_cell_length_b 5.110411
_cell_length_c 17.512454
_cell_angle_alpha 90.000000
_cell_angle_beta 90.000000
_cell_angle_gamma 90.000000
_cell_volume 1555.607072
_symmetry_space_group_name_H-M "P 21 21 21"
_symmetry_group_IT_number 19
_symmetry_cell_setting 'orthorhombic'
loop_
_space_group_symop_operation_xyz
x,y,z
1/2-x,-y,1/2+z
1/2+x,1/2-y,-z
-x,1/2+y,1/2-z
loop_
_atom_site_type_symbol
_atom_site_label
_atom_site_fract_x
_atom_site_fract_y
_atom_site_fract_z
Si Si1 0.334874 0.025268 0.463292
Si Si2 0.735369 0.984752 0.533223
Si Si3 0.879128 0.740001 0.120231
Si Si4 0.437671 0.996084 0.327141
Si Si5 0.537149 0.491404 0.342516
Si Si6 0.394422 0.158361 0.008151
Si Si7 0.045597 0.213729 0.232956
Si Si8 0.974662 0.552147 0.429941
O O1 0.275475 0.245320 0.491682
O O2 0.361392 0.063539 0.375500
O O3 0.299696 0.736487 0.465183
O O4 0.407957 0.063253 0.517890
O O5 0.665214 0.898681 0.476832
O O6 0.688174 0.040253 0.612938
O O7 0.883442 0.647959 0.208917
O O8 0.856176 0.512708 0.060173
O O9 0.965047 0.832707 0.097084
O O10 0.502913 0.203193 0.349241
O O11 0.417209 0.021455 0.237534
O O12 0.469997 0.709086 0.347908
O O13 0.597693 0.511147 0.411543
O O14 0.479329 0.238515 0.980572
O O15 0.066891 0.181883 0.143984
O O16 0.023465 0.515766 0.246533
#
# Coordination Sequence:
#
# PCOD8156753 Si02
#       8
#     4   4   4   4   4   4   4   4
#     4  12  23  41  62  91 124 163 206 254 306 362
#     4  11  26  39  62  83 129 169 204 239 311 382
#     4  10  21  41  64  89 122 167 202 249 308 371
#     4  10  21  38  60  95 121 151 195 266 304 354
#     4  10  21  36  65  94 119 147 207 256 305 347
#     4  11  20  41  65  91 119 165 202 252 304 370
#     4  10  20  35  60  95 121 145 198 255 301 353
#     4  10  22  35  68  96 117 155 208 263 299 347
#
# _framework density 20.570744999999999
#
# number of rings (size 3 to 8) (size 9 to 14) (size 15 to 20)
#    0.000    1.500    3.750    1.500    3.500    0.000 
#    0.000    1.250    5.500    0.000    0.000    0.000 
#    0.000    0.000    0.000    0.000    0.000    0.000 
#
# Total GULP energy -396537.992196 kJ/mol
# GULP energy per Si atom -12391.812256 kJ/mol
# Density = 2.052393 g / cm^3
# Si number density = 20.570745 Si / 1000 Ang^3
#
#
#
# Elastic Constant Matrix: (Units=GPa)
#
#
# Indices 1 2 3 4 5 6 
#
# 1 78.5683 22.2836 27.1691 0.0000 0.0000 0.0000
# 2 22.2836 75.0458 11.5738 0.0000 0.0000 0.0000
# 3 27.1691 11.5738 100.4726 0.0000 0.0000 0.0000
# 4 0.0000 0.0000 0.0000 25.2999 0.0000 0.0000
# 5 0.0000 0.0000 0.0000 0.0000 14.7474 0.0000
# 6 0.0000 0.0000 0.0000 0.0000 0.0000 34.3677
#
#
#
# Elastic Compliance Matrix: (Units=1/GPa)
#
#
# Indices 1 2 3 4 5 6 
#
# 1 0.015096 -0.003923 -0.003630 0.000000 0.000000 0.000000
# 2 -0.003923 0.014585 -0.000619 0.000000 0.000000 0.000000
# 3 -0.003630 -0.000619 0.011006 0.000000 0.000000 0.000000
# 4 0.000000 0.000000 0.000000 0.039526 0.000000 0.000000
# 5 0.000000 0.000000 0.000000 0.000000 0.067808 0.000000
# 6 0.000000 0.000000 0.000000 0.000000 0.000000 0.029097
#
#
# Mechanical properties :
#
#
# Convention : Reuss Voigt Hill
#
# Bulk Modulus (GPa) = 41.08009 41.79330 41.43670
# Shear Modulus (GPa) = 24.80442 27.75369 26.27906
#
# Velocity S-wave (km/s) = 3.47625 3.67711 3.57809
# Velocity P-wave (km/s) = 6.01048 6.19590 6.10389
#
# Compressibility (1/GPa) = 0.02434269
#
# Stress axis : x y z
#
# Youngs Moduli (GPa) = 66.24436 68.56140 90.85976
#
# Poissons Ratio (x) = 0.26893 0.32984
# Poissons Ratio (y) = 0.25985 0.05628
# Poissons Ratio (z) = 0.24048 0.04247
#
# Static dielectric constant tensor:
#      x y z
#    x 3.582980 0.000000 0.000000 
#    y 0.000000 3.824750 0.000000 
#    z 0.000000 0.000000 3.945890 
# 
# 
# High freq. dielectric constant tensor:
#      x y z
#    x 1.775270 0.000000 0.000000 
#    y 0.000000 1.817110 0.000000 
#    z 0.000000 0.000000 1.799150 
# 
# From -- ./inp_files/6840.got.cif
#   From: 2010.03.12/outbox.cif.g09.slc.cpg/sg19_4_cif.got.tgz:6840.got - 2010.04.10 18:59:41.
