data_PCOD8156778
_publ_section_title
;
Structure prediction by ZEFSAII (Michael W. Deem and Ramdas Pophale) SiO2 
 PCOD8156778
Probable space group: P 21 21 21
;
_chemical_formula_sum "Si O2"
_cell_formula_units_Z 28
_cell_length_a 8.892528
_cell_length_b 14.758807
_cell_length_c 8.959041
_cell_angle_alpha 90.000000
_cell_angle_beta 90.000000
_cell_angle_gamma 90.000000
_cell_volume 1175.812354
_symmetry_space_group_name_H-M "P 21 21 21"
_symmetry_group_IT_number 19
_symmetry_cell_setting 'orthorhombic'
loop_
_space_group_symop_operation_xyz
x,y,z
1/2-x,-y,1/2+z
1/2+x,1/2-y,-z
-x,1/2+y,1/2-z
loop_
_atom_site_type_symbol
_atom_site_label
_atom_site_fract_x
_atom_site_fract_y
_atom_site_fract_z
Si Si1 0.029367 0.289708 0.072252
Si Si2 0.501697 0.600732 0.273606
Si Si3 0.646359 0.846596 0.420081
Si Si4 0.269830 0.074791 0.462567
Si Si5 0.570484 0.545163 0.740345
Si Si6 0.008142 0.601359 0.873598
Si Si7 0.720198 0.960514 0.885854
O O1 0.953881 0.189801 0.060115
O O2 0.992220 0.333635 0.912407
O O3 0.953599 0.348338 0.203667
O O4 0.207507 0.282416 0.098151
O O5 0.540577 0.499506 0.325970
O O6 0.334531 0.603128 0.203294
O O7 0.625985 0.632061 0.151277
O O8 0.545536 0.837984 0.269676
O O9 0.696001 0.949886 0.449719
O O10 0.378290 0.033646 0.589580
O O11 0.138502 0.138540 0.535902
O O12 0.194037 0.991803 0.374592
O O13 0.414213 0.491571 0.722338
O O14 0.157170 0.596924 0.975431
#
# Coordination Sequence:
#
# PCOD8156778 Si02
#       7
#     4   4   4   4   4   4   4
#     4  11  23  42  59  97 130 170 213 265 334 399
#     4  11  21  37  63  92 131 162 220 269 318 386
#     4  10  23  39  67  87 134 170 210 270 323 396
#     4  11  20  35  62  95 125 168 215 287 311 379
#     4  10  20  36  59  92 131 164 219 269 331 378
#     4  10  20  41  60  97 126 167 225 263 322 382
#     4   9  21  38  64  92 125 169 222 265 317 384
#
# _framework density 23.813323
#
# number of rings (size 3 to 8) (size 9 to 14) (size 15 to 20)
#    0.000    1.714    5.714    0.000    8.000    0.000 
#    0.000    4.286    0.000    0.000    0.000    0.000 
#    0.000    0.000    0.000    0.000    0.000    0.000 
#
# Total GULP energy -347150.232628 kJ/mol
# GULP energy per Si atom -12398.222594 kJ/mol
# Density = 2.375912 g / cm^3
# Si number density = 23.813323 Si / 1000 Ang^3
#
#
#
# Elastic Constant Matrix: (Units=GPa)
#
#
# Indices 1 2 3 4 5 6 
#
# 1 111.7472 10.9657 38.4879 0.0000 0.0000 0.0000
# 2 10.9657 21.2985 0.0998 0.0000 0.0000 0.0000
# 3 38.4879 0.0998 86.3581 0.0000 0.0000 0.0000
# 4 0.0000 0.0000 0.0000 25.1509 0.0000 0.0000
# 5 0.0000 0.0000 0.0000 0.0000 54.3992 0.0000
# 6 0.0000 0.0000 0.0000 0.0000 0.0000 24.7668
#
#
#
# Elastic Compliance Matrix: (Units=1/GPa)
#
#
# Indices 1 2 3 4 5 6 
#
# 1 0.011237 -0.005762 -0.005001 0.000000 0.000000 0.000000
# 2 -0.005762 0.049906 0.002510 0.000000 0.000000 0.000000
# 3 -0.005001 0.002510 0.013806 0.000000 0.000000 0.000000
# 4 0.000000 0.000000 0.000000 0.039760 0.000000 0.000000
# 5 0.000000 0.000000 0.000000 0.000000 0.018383 0.000000
# 6 0.000000 0.000000 0.000000 0.000000 0.000000 0.040377
#
#
# Mechanical properties :
#
#
# Convention : Reuss Voigt Hill
#
# Bulk Modulus (GPa) = 17.11067 35.39007 26.25037
# Shear Modulus (GPa) = 23.87148 32.18675 28.02912
#
# Velocity S-wave (km/s) = 3.16957 3.68044 3.43452
# Velocity P-wave (km/s) = 4.53826 5.74061 5.17448
#
# Compressibility (1/GPa) = 0.05844306
#
# Stress axis : x y z
#
# Youngs Moduli (GPa) = 88.99382 20.03752 72.43352
#
# Poissons Ratio (x) = 0.11545 0.36226
# Poissons Ratio (y) = 0.51277 -0.18183
# Poissons Ratio (z) = 0.44509 -0.05030
#
# Static dielectric constant tensor:
#      x y z
#    x 4.751810 0.000000 0.000000 
#    y 0.000000 3.739320 0.000000 
#    z 0.000000 0.000000 4.465600 
# 
# 
# High freq. dielectric constant tensor:
#      x y z
#    x 1.967320 0.000000 0.000000 
#    y 0.000000 1.885790 0.000000 
#    z 0.000000 0.000000 1.947540 
# 
# From -- ./inp_files/3004.got.cif
#   From: 2010.03.12/outbox.cif.g09.slc.cpg/sg19_2_cif.got.tgz:3004.got - 2010.04.10 18:59:41.
