data_PCOD8156498
_publ_section_title
;
Structure prediction by ZEFSAII (Michael W. Deem and Ramdas Pophale) SiO2 
 PCOD8156498
Probable space group: P 21 21 2
;
_chemical_formula_sum "Si O2"
_cell_formula_units_Z 18
_cell_length_a 8.668622
_cell_length_b 7.504691
_cell_length_c 11.148130
_cell_angle_alpha 90.000000
_cell_angle_beta 90.000000
_cell_angle_gamma 90.000000
_cell_volume 725.245271
_symmetry_space_group_name_H-M "P 21 21 2"
_symmetry_group_IT_number 18
_symmetry_cell_setting 'orthorhombic'
loop_
_space_group_symop_operation_xyz
x,y,z
-x,-y,z
1/2+x,1/2-y,-z
1/2-x,1/2+y,-z
loop_
_atom_site_type_symbol
_atom_site_label
_atom_site_fract_x
_atom_site_fract_y
_atom_site_fract_z
Si Si1 0.500000 0.500000 0.691979
Si Si2 0.270079 0.125738 0.879423
Si Si3 0.090384 0.664047 0.459178
Si Si4 0.114471 0.241433 0.118323
Si Si5 0.900345 0.831530 0.645804
O O1 0.576475 0.649698 0.609646
O O2 0.629771 0.403325 0.775012
O O3 0.435649 0.211932 0.899050
O O4 0.187928 0.225661 0.767297
O O5 0.284689 0.915320 0.850767
O O6 0.168995 0.148447 0.997097
O O7 0.273434 0.621672 0.458952
O O8 0.000000 0.500000 0.393247
O O9 0.015563 0.681136 0.592342
O O10 0.000000 0.000000 0.679885
#
# Coordination Sequence:
#
# PCOD8156498 Si02
#       5
#     2   4   4   4   4
#     4  12  24  48  78 114 160 214 264 340 392 486
#     4  11  26  49  76 123 160 222 266 346 406 502
#     4  12  27  51  79 116 160 219 275 338 416 487
#     4  11  25  48  79 113 170 208 280 330 421 478
#     4  12  27  51  80 115 164 213 273 340 411 496
#
# _framework density 24.819186999999999
#
# number of rings (size 3 to 8) (size 9 to 14) (size 15 to 20)
#    0.000    0.444    3.333    4.000    4.667    0.000 
#    4.000    0.000    0.000    0.000    0.000    0.000 
#    0.000    0.000    0.000    0.000    0.000    0.000 
#
# Total GULP energy -223169.807234 kJ/mol
# GULP energy per Si atom -12398.322624 kJ/mol
# Density = 2.476270 g / cm^3
# Si number density = 24.819187 Si / 1000 Ang^3
#
#
#
# Elastic Constant Matrix: (Units=GPa)
#
#
# Indices 1 2 3 4 5 6 
#
# 1 104.1484 18.0730 37.7863 0.0000 0.0000 0.0000
# 2 18.0730 132.6567 33.9321 0.0000 0.0000 0.0000
# 3 37.7863 33.9321 120.9940 0.0000 0.0000 0.0000
# 4 0.0000 0.0000 0.0000 35.9649 0.0000 0.0000
# 5 0.0000 0.0000 0.0000 0.0000 33.5304 0.0000
# 6 0.0000 0.0000 0.0000 0.0000 0.0000 38.8789
#
#
#
# Elastic Compliance Matrix: (Units=1/GPa)
#
#
# Indices 1 2 3 4 5 6 
#
# 1 0.010882 -0.000661 -0.003213 0.000000 0.000000 0.000000
# 2 -0.000661 0.008161 -0.002082 0.000000 0.000000 0.000000
# 3 -0.003213 -0.002082 0.009852 0.000000 0.000000 0.000000
# 4 0.000000 0.000000 0.000000 0.027805 0.000000 0.000000
# 5 0.000000 0.000000 0.000000 0.000000 0.029824 0.000000
# 6 0.000000 0.000000 0.000000 0.000000 0.000000 0.025721
#
#
# Mechanical properties :
#
#
# Convention : Reuss Voigt Hill
#
# Bulk Modulus (GPa) = 58.88265 59.70907 59.29586
# Shear Modulus (GPa) = 38.51537 39.54200 39.02869
#
# Velocity S-wave (km/s) = 3.94361 3.99582 3.96980
# Velocity P-wave (km/s) = 6.67175 6.73785 6.70488
#
# Compressibility (1/GPa) = 0.01698293
#
# Stress axis : x y z
#
# Youngs Moduli (GPa) = 91.89390 122.53537 101.49877
#
# Poissons Ratio (x) = 0.08095 0.32613
# Poissons Ratio (y) = 0.06071 0.21136
# Poissons Ratio (z) = 0.29527 0.25516
#
# Static dielectric constant tensor:
#      x y z
#    x 4.667220 0.000000 0.000000 
#    y 0.000000 4.785880 0.000000 
#    z 0.000000 0.000000 4.469250 
# 
# 
# High freq. dielectric constant tensor:
#      x y z
#    x 1.989920 0.000000 0.000000 
#    y 0.000000 1.997500 0.000000 
#    z 0.000000 0.000000 1.983840 
# 
# From -- ./inp_files/5429.got.cif
#   From: 2010.03.12/outbox.cif.g09.slc.cpg/sg18_3_cif.got.tgz:5429.got - 2010.04.10 18:53:55.
