data_PCOD8156572
_publ_section_title
;
Structure prediction by ZEFSAII (Michael W. Deem and Ramdas Pophale) SiO2 
 PCOD8156572
Probable space group: P 21 21 21
;
_chemical_formula_sum "Si O2"
_cell_formula_units_Z 32
_cell_length_a 15.120209
_cell_length_b 22.881747
_cell_length_c 5.303847
_cell_angle_alpha 90.000000
_cell_angle_beta 90.000000
_cell_angle_gamma 90.000000
_cell_volume 1835.007996
_symmetry_space_group_name_H-M "P 21 21 21"
_symmetry_group_IT_number 19
_symmetry_cell_setting 'orthorhombic'
loop_
_space_group_symop_operation_xyz
x,y,z
1/2-x,-y,1/2+z
1/2+x,1/2-y,-z
-x,1/2+y,1/2-z
loop_
_atom_site_type_symbol
_atom_site_label
_atom_site_fract_x
_atom_site_fract_y
_atom_site_fract_z
Si Si1 0.395618 0.207861 0.000000
Si Si2 0.159625 0.291497 0.499999
Si Si3 0.518453 0.305957 0.500001
Si Si4 0.452174 0.340232 0.000001
Si Si5 0.846082 0.043777 1.000000
Si Si6 0.840689 0.268646 0.500000
Si Si7 0.360067 0.524951 0.500000
Si Si8 0.087509 0.348063 0.999999
O O1 0.338986 0.190601 0.750919
O O2 0.490438 0.178445 1.000000
O O3 0.402282 0.278375 0.000001
O O4 0.338986 0.190601 0.249082
O O5 0.109316 0.229857 0.500000
O O6 0.263910 0.279229 0.500000
O O7 0.138502 0.328277 0.250705
O O8 0.138501 0.328277 0.749293
O O9 0.514056 0.345803 0.248696
O O10 0.436768 0.261438 0.500001
O O11 0.514057 0.345803 0.751306
O O12 0.378555 0.389992 1.000000
O O13 0.740758 0.046227 1.000000
O O14 0.882143 0.011921 0.749916
O O15 0.882142 0.011921 0.250084
O O16 0.421465 0.582123 0.500000
#
# Coordination Sequence:
#
# PCOD8156572 Si02
#       8
#     4   4   4   4   4   4   4   4
#     4  10  19  36  48  80 103 138 182 224 272 326
#     4  12  21  33  53  78 113 146 179 216 277 345
#     4  10  19  33  46  80 104 135 179 222 259 328
#     4  10  18  32  55  65 104 140 168 226 268 295
#     4  10  21  38  49  75 107 143 196 220 253 319
#     4  10  20  31  49  72 109 141 175 209 269 337
#     4  10  23  35  50  75 107 146 188 227 251 319
#     4  12  21  36  54  75 115 147 181 228 273 319
#
# _framework density 17.438614999999999
#
# number of rings (size 3 to 8) (size 9 to 14) (size 15 to 20)
#    0.000    1.500    5.000    2.250    7.000    0.000 
#    0.000    0.000    0.000    0.000    0.000    0.000 
#    0.000   20.000    0.000    0.000    0.000    0.000 
#
# Total GULP energy -396684.314716 kJ/mol
# GULP energy per Si atom -12396.384835 kJ/mol
# Density = 1.739892 g / cm^3
# Si number density = 17.438615 Si / 1000 Ang^3
#
#
#
# Elastic Constant Matrix: (Units=GPa)
#
#
# Indices 1 2 3 4 5 6 
#
# 1 29.4853 25.3512 13.5741 0.0000 0.0000 0.0000
# 2 25.3512 66.6219 23.3473 0.0000 0.0000 0.0000
# 3 13.5741 23.3473 184.8781 0.0000 0.0000 0.0000
# 4 0.0000 0.0000 0.0000 21.0955 0.0000 0.0000
# 5 0.0000 0.0000 0.0000 0.0000 13.7733 0.0000
# 6 0.0000 0.0000 0.0000 0.0000 0.0000 13.6142
#
#
#
# Elastic Compliance Matrix: (Units=1/GPa)
#
#
# Indices 1 2 3 4 5 6 
#
# 1 0.050725 -0.018830 -0.001346 0.000000 0.000000 0.000000
# 2 -0.018830 0.022695 -0.001484 0.000000 0.000000 0.000000
# 3 -0.001346 -0.001484 0.005695 0.000000 0.000000 0.000000
# 4 0.000000 0.000000 0.000000 0.047404 0.000000 0.000000
# 5 0.000000 0.000000 0.000000 0.000000 0.072604 0.000000
# 6 0.000000 0.000000 0.000000 0.000000 0.000000 0.073453
#
#
# Mechanical properties :
#
#
# Convention : Reuss Voigt Hill
#
# Bulk Modulus (GPa) = 27.93663 45.05895 36.49779
# Shear Modulus (GPa) = 15.25189 24.27744 19.76466
#
# Velocity S-wave (km/s) = 2.96058 3.73522 3.37023
# Velocity P-wave (km/s) = 5.26702 6.67062 6.00994
#
# Compressibility (1/GPa) = 0.03579530
#
# Stress axis : x y z
#
# Youngs Moduli (GPa) = 19.71410 44.06188 175.58742
#
# Poissons Ratio (x) = 0.82970 0.23640
# Poissons Ratio (y) = 0.37122 0.26049
# Poissons Ratio (z) = 0.02654 0.06537
#
# Static dielectric constant tensor:
#      x y z
#    x 2.950670 0.000000 0.000000 
#    y 0.000000 2.924920 0.000000 
#    z 0.000000 0.000000 5.660010 
# 
# 
# High freq. dielectric constant tensor:
#      x y z
#    x 1.640720 0.000000 0.000000 
#    y 0.000000 1.628890 0.000000 
#    z 0.000000 0.000000 1.719980 
# 
# From -- ./inp_files/1637.got.cif
#   From: 2010.03.12/outbox.cif.g09.slc.cpg/sg19_1_cif.got.tgz:1637.got - 2010.04.10 18:59:41.
