data_PCOD8156002
_publ_section_title
;
Structure prediction by ZEFSAII (Michael W. Deem and Ramdas Pophale) SiO2 
 PCOD8156002
Probable space group: P 21 21 2
;
_chemical_formula_sum "Si O2"
_cell_formula_units_Z 22
_cell_length_a 13.247330
_cell_length_b 9.244567
_cell_length_c 7.927754
_cell_angle_alpha 90.000000
_cell_angle_beta 90.000000
_cell_angle_gamma 90.000000
_cell_volume 970.878972
_symmetry_space_group_name_H-M "P 21 21 2"
_symmetry_group_IT_number 18
_symmetry_cell_setting 'orthorhombic'
loop_
_space_group_symop_operation_xyz
x,y,z
-x,-y,z
1/2+x,1/2-y,-z
1/2-x,1/2+y,-z
loop_
_atom_site_type_symbol
_atom_site_label
_atom_site_fract_x
_atom_site_fract_y
_atom_site_fract_z
Si Si1 0.796071 0.982128 0.447818
Si Si2 0.000000 0.000000 0.247120
Si Si3 0.233350 0.309828 0.288362
Si Si4 0.301904 0.858625 0.169927
Si Si5 0.040461 0.296697 0.073732
Si Si6 0.822730 0.362951 0.011808
O O1 0.785717 0.045102 0.637081
O O2 0.703879 0.063290 0.349430
O O3 0.902763 0.025422 0.364751
O O4 0.782155 0.809175 0.438937
O O5 0.988202 0.865867 0.121931
O O6 0.124036 0.352146 0.209264
O O7 0.308095 0.241180 0.150369
O O8 0.270746 0.982732 0.028962
O O9 0.412537 0.801304 0.116167
O O10 0.227944 0.720549 0.167637
O O11 0.939259 0.393055 0.061710
#
# Coordination Sequence:
#
# PCOD8156002 Si02
#       6
#     4   2   4   4   4   4
#     4  10  20  42  61  88 129 161 201 257 315 366
#     4  10  20  40  66  90 126 166 200 270 310 368
#     4   9  22  39  63  88 127 164 200 258 313 367
#     4  10  21  36  64  87 124 160 201 261 302 361
#     4  10  20  39  63  89 124 161 213 248 317 360
#     4  10  20  39  60  90 123 160 209 257 301 369
#
# _framework density 22.659880999999999
#
# number of rings (size 3 to 8) (size 9 to 14) (size 15 to 20)
#    0.000    2.182    1.818    1.636    0.000    2.909 
#    9.818    0.000    0.000    0.000    0.000    0.000 
#    0.000    0.000    0.000    0.000    0.000    0.000 
#
# Total GULP energy -272558.503072 kJ/mol
# GULP energy per Si atom -12389.022867 kJ/mol
# Density = 2.260831 g / cm^3
# Si number density = 22.659881 Si / 1000 Ang^3
#
#
#
# Elastic Constant Matrix: (Units=GPa)
#
#
# Indices 1 2 3 4 5 6 
#
# 1 101.6136 20.8219 6.3658 0.0000 0.0000 0.0000
# 2 20.8219 68.3461 17.5774 0.0000 0.0000 0.0000
# 3 6.3658 17.5774 25.2806 0.0000 0.0000 0.0000
# 4 0.0000 0.0000 0.0000 50.4597 0.0000 0.0000
# 5 0.0000 0.0000 0.0000 0.0000 24.4870 0.0000
# 6 0.0000 0.0000 0.0000 0.0000 0.0000 36.7011
#
#
#
# Elastic Compliance Matrix: (Units=1/GPa)
#
#
# Indices 1 2 3 4 5 6 
#
# 1 0.010502 -0.003068 -0.000511 0.000000 0.000000 0.000000
# 2 -0.003068 0.018714 -0.012239 0.000000 0.000000 0.000000
# 3 -0.000511 -0.012239 0.048195 0.000000 0.000000 0.000000
# 4 0.000000 0.000000 0.000000 0.019818 0.000000 0.000000
# 5 0.000000 0.000000 0.000000 0.000000 0.040838 0.000000
# 6 0.000000 0.000000 0.000000 0.000000 0.000000 0.027247
#
#
# Mechanical properties :
#
#
# Convention : Reuss Voigt Hill
#
# Bulk Modulus (GPa) = 21.84664 31.64115 26.74390
# Shear Modulus (GPa) = 23.56186 32.36124 27.96155
#
# Velocity S-wave (km/s) = 3.22810 3.78316 3.51660
# Velocity P-wave (km/s) = 4.85347 5.75125 5.32133
#
# Compressibility (1/GPa) = 0.04577363
#
# Stress axis : x y z
#
# Youngs Moduli (GPa) = 95.22095 53.43670 20.74925
#
# Poissons Ratio (x) = 0.16394 0.01061
# Poissons Ratio (y) = 0.29213 0.25395
# Poissons Ratio (z) = 0.04869 0.65401
#
# Static dielectric constant tensor:
#      x y z
#    x 4.146050 0.000000 0.000000 
#    y 0.000000 4.331600 0.000000 
#    z 0.000000 0.000000 3.863890 
# 
# 
# High freq. dielectric constant tensor:
#      x y z
#    x 1.875470 0.000000 0.000000 
#    y 0.000000 1.921590 0.000000 
#    z 0.000000 0.000000 1.867380 
# 
# From -- ./inp_files/3105.got.cif
#   From: 2010.03.12/outbox.cif.g09.slc.cpg/sg18_2_cif.got.tgz:3105.got - 2010.04.10 18:53:55.
