data_PCOD8156892
_publ_section_title
;
Structure prediction by ZEFSAII (Michael W. Deem and Ramdas Pophale) SiO2 
 PCOD8156892
Probable space group: P 21 21 21
;
_chemical_formula_sum "Si O2"
_cell_formula_units_Z 32
_cell_length_a 13.756335
_cell_length_b 12.772275
_cell_length_c 7.790944
_cell_angle_alpha 90.000000
_cell_angle_beta 90.000000
_cell_angle_gamma 90.000000
_cell_volume 1368.866474
_symmetry_space_group_name_H-M "P 21 21 21"
_symmetry_group_IT_number 19
_symmetry_cell_setting 'orthorhombic'
loop_
_space_group_symop_operation_xyz
x,y,z
1/2-x,-y,1/2+z
1/2+x,1/2-y,-z
-x,1/2+y,1/2-z
loop_
_atom_site_type_symbol
_atom_site_label
_atom_site_fract_x
_atom_site_fract_y
_atom_site_fract_z
Si Si1 0.521621 0.908749 0.596501
Si Si2 0.502071 0.192269 0.046943
Si Si3 0.827446 0.616769 0.895057
Si Si4 0.474839 0.462762 0.533495
Si Si5 0.797262 0.820863 0.744787
Si Si6 0.821019 0.550549 0.500892
Si Si7 0.789840 0.254428 0.907023
Si Si8 0.165039 0.549407 0.716192
O O1 0.483424 0.789167 0.581508
O O2 0.567618 0.924763 0.784159
O O3 0.425078 0.981000 0.577702
O O4 0.594497 0.940803 0.446827
O O5 0.494589 0.083688 0.944882
O O6 0.591635 0.187136 0.177335
O O7 0.398950 0.209565 0.142989
O O8 0.792580 0.738453 0.902876
O O9 0.834420 0.584567 0.696515
O O10 0.931851 0.605509 0.982375
O O11 0.749200 0.548636 0.996974
O O12 0.391021 0.447741 0.394867
O O13 0.716703 0.787233 0.604378
O O14 0.776169 0.940408 0.803357
O O15 0.779910 0.646461 0.383573
O O16 0.763110 0.151468 0.790984
#
# Coordination Sequence:
#
# PCOD8156892 Si02
#       8
#     4   4   4   4   4   4   4   4
#     4  11  22  41  68  98 133 174 227 283 338 398
#     4  10  20  41  64  93 134 172 218 284 341 388
#     4  11  20  39  63  98 136 168 223 278 343 398
#     4  11  22  39  68  98 126 179 230 273 338 415
#     4  10  22  42  70  94 137 181 225 283 340 410
#     4  11  21  37  66 100 134 173 217 284 342 394
#     4  10  20  41  68  93 132 183 213 278 350 389
#     4  10  23  46  69  92 138 182 225 279 338 408
#
# _framework density 23.377005
#
# number of rings (size 3 to 8) (size 9 to 14) (size 15 to 20)
#    0.000    1.500    5.000    1.500    1.750    1.000 
#    9.000    3.750    5.500    0.000    0.000    0.000 
#    0.000    0.000    0.000    0.000    0.000    0.000 
#
# Total GULP energy -396656.756212 kJ/mol
# GULP energy per Si atom -12395.523632 kJ/mol
# Density = 2.332380 g / cm^3
# Si number density = 23.377005 Si / 1000 Ang^3
#
#
#
# Elastic Constant Matrix: (Units=GPa)
#
#
# Indices 1 2 3 4 5 6 
#
# 1 47.6849 -13.8488 4.4336 0.0000 0.0000 0.0000
# 2 -13.8488 83.1033 16.0288 0.0000 0.0000 0.0000
# 3 4.4336 16.0288 88.7139 0.0000 0.0000 0.0000
# 4 0.0000 0.0000 0.0000 31.7691 0.0000 0.0000
# 5 0.0000 0.0000 0.0000 0.0000 22.1487 0.0000
# 6 0.0000 0.0000 0.0000 0.0000 0.0000 25.6041
#
#
#
# Elastic Compliance Matrix: (Units=1/GPa)
#
#
# Indices 1 2 3 4 5 6 
#
# 1 0.022328 0.004078 -0.001853 0.000000 0.000000 0.000000
# 2 0.004078 0.013213 -0.002591 0.000000 0.000000 0.000000
# 3 -0.001853 -0.002591 0.011833 0.000000 0.000000 0.000000
# 4 0.000000 0.000000 0.000000 0.031477 0.000000 0.000000
# 5 0.000000 0.000000 0.000000 0.000000 0.045149 0.000000
# 6 0.000000 0.000000 0.000000 0.000000 0.000000 0.039056
#
#
# Mechanical properties :
#
#
# Convention : Reuss Voigt Hill
#
# Bulk Modulus (GPa) = 21.43993 25.85882 23.64937
# Shear Modulus (GPa) = 27.88088 30.09695 28.98892
#
# Velocity S-wave (km/s) = 3.45724 3.59201 3.52527
# Velocity P-wave (km/s) = 5.01278 5.31875 5.16803
#
# Compressibility (1/GPa) = 0.04664195
#
# Stress axis : x y z
#
# Youngs Moduli (GPa) = 44.78749 75.68549 84.50995
#
# Poissons Ratio (x) = -0.30866 0.15657
# Poissons Ratio (y) = -0.18265 0.21897
# Poissons Ratio (z) = 0.08298 0.19611
#
# Static dielectric constant tensor:
#      x y z
#    x 4.206570 0.000000 0.000000 
#    y 0.000000 4.958550 0.000000 
#    z 0.000000 0.000000 3.893010 
# 
# 
# High freq. dielectric constant tensor:
#      x y z
#    x 1.927020 0.000000 0.000000 
#    y 0.000000 1.938850 0.000000 
#    z 0.000000 0.000000 1.894570 
# 
# From -- ./inp_files/3981.got.cif
#   From: 2010.03.12/outbox.cif.g09.slc.cpg/sg19_2_cif.got.tgz:3981.got - 2010.04.10 18:59:41.
