data_PCOD8156035
_publ_section_title
;
Structure prediction by ZEFSAII (Michael W. Deem and Ramdas Pophale) SiO2 
 PCOD8156035
Probable space group: P 21 21 2
;
_chemical_formula_sum "Si O2"
_cell_formula_units_Z 30
_cell_length_a 13.379219
_cell_length_b 16.416298
_cell_length_c 6.541826
_cell_angle_alpha 90.000000
_cell_angle_beta 90.000000
_cell_angle_gamma 90.000000
_cell_volume 1436.828647
_symmetry_space_group_name_H-M "P 21 21 2"
_symmetry_group_IT_number 18
_symmetry_cell_setting 'orthorhombic'
loop_
_space_group_symop_operation_xyz
x,y,z
-x,-y,z
1/2+x,1/2-y,-z
1/2-x,1/2+y,-z
loop_
_atom_site_type_symbol
_atom_site_label
_atom_site_fract_x
_atom_site_fract_y
_atom_site_fract_z
Si Si1 0.743990 0.769838 0.730121
Si Si2 0.403458 0.690649 0.958330
Si Si3 0.662829 0.034007 0.447478
Si Si4 0.500000 0.000000 0.132847
Si Si5 0.813006 0.979969 0.122517
Si Si6 0.870961 0.150580 0.011200
Si Si7 0.641176 0.928683 0.831975
Si Si8 0.280791 0.803875 0.675377
O O1 0.704285 0.683559 0.814625
O O2 0.660914 0.834169 0.798312
O O3 0.750653 0.765934 0.486291
O O4 0.851196 0.796947 0.821449
O O5 0.374214 0.603716 0.858741
O O6 0.522084 0.694560 0.986041
O O7 0.366124 0.764987 0.817403
O O8 0.581172 0.045930 0.270304
O O9 0.763799 0.998813 0.343883
O O10 0.621915 0.970348 0.613862
O O11 0.674426 0.120577 0.553784
O O12 0.546491 0.931830 0.983041
O O13 0.884757 0.054381 0.054011
O O14 0.732032 0.974823 0.942186
O O15 0.818829 0.169282 0.794542
#
# Coordination Sequence:
#
# PCOD8156035 Si02
#       8
#     4   4   4   2   4   4   4   4
#     4  10  23  42  61  91 131 163 205 257 317 377
#     4  10  24  40  66  95 126 166 215 260 315 382
#     4  11  21  39  67  89 132 167 212 260 318 376
#     4  10  24  36  62  98 118 172 216 256 314 376
#     4  10  20  41  65  90 125 169 209 263 317 375
#     4  11  22  41  66  93 125 170 208 262 320 376
#     4  10  21  40  61  90 127 164 211 262 310 375
#     4  11  23  42  65  94 130 167 209 264 319 376
#
# _framework density 20.879315999999999
#
# number of rings (size 3 to 8) (size 9 to 14) (size 15 to 20)
#    0.000    1.600    2.667    1.600    0.000    5.333 
#    0.000    0.000    0.000    0.000    0.000    0.000 
#    0.000    0.000    0.000    0.000    0.000    0.000 
#
# Total GULP energy -372036.996046 kJ/mol
# GULP energy per Si atom -12401.233202 kJ/mol
# Density = 2.083179 g / cm^3
# Si number density = 20.879316 Si / 1000 Ang^3
#
#
#
# Elastic Constant Matrix: (Units=GPa)
#
#
# Indices 1 2 3 4 5 6 
#
# 1 103.0610 28.9321 40.2039 0.0000 0.0000 0.0000
# 2 28.9321 91.8470 35.1275 0.0000 0.0000 0.0000
# 3 40.2039 35.1275 127.7674 0.0000 0.0000 0.0000
# 4 0.0000 0.0000 0.0000 35.7102 0.0000 0.0000
# 5 0.0000 0.0000 0.0000 0.0000 25.1515 0.0000
# 6 0.0000 0.0000 0.0000 0.0000 0.0000 22.2896
#
#
#
# Elastic Compliance Matrix: (Units=1/GPa)
#
#
# Indices 1 2 3 4 5 6 
#
# 1 0.011558 -0.002514 -0.002946 0.000000 0.000000 0.000000
# 2 -0.002514 0.012714 -0.002704 0.000000 0.000000 0.000000
# 3 -0.002946 -0.002704 0.009497 0.000000 0.000000 0.000000
# 4 0.000000 0.000000 0.000000 0.028003 0.000000 0.000000
# 5 0.000000 0.000000 0.000000 0.000000 0.039759 0.000000
# 6 0.000000 0.000000 0.000000 0.000000 0.000000 0.044864
#
#
# Mechanical properties :
#
#
# Convention : Reuss Voigt Hill
#
# Bulk Modulus (GPa) = 57.33747 59.02249 58.17998
# Shear Modulus (GPa) = 29.66706 31.19105 30.42905
#
# Velocity S-wave (km/s) = 3.77355 3.86926 3.82170
# Velocity P-wave (km/s) = 6.81962 6.94920 6.88471
#
# Compressibility (1/GPa) = 0.01744060
#
# Stress axis : x y z
#
# Youngs Moduli (GPa) = 86.52103 78.65381 105.29507
#
# Poissons Ratio (x) = 0.19775 0.31016
# Poissons Ratio (y) = 0.21753 0.28475
# Poissons Ratio (z) = 0.25486 0.21271
#
# Static dielectric constant tensor:
#      x y z
#    x 3.572790 0.000000 0.000000 
#    y 0.000000 3.738770 0.000000 
#    z 0.000000 0.000000 4.008710 
# 
# 
# High freq. dielectric constant tensor:
#      x y z
#    x 1.803080 0.000000 0.000000 
#    y 0.000000 1.825210 0.000000 
#    z 0.000000 0.000000 1.824510 
# 
# From -- ./inp_files/1615.got.cif
#   From: 2010.03.12/outbox.cif.g09.slc.cpg/sg18_1_cif.got.tgz:1615.got - 2010.04.10 18:53:55.
