data_PCOD8156435
_publ_section_title
;
Structure prediction by ZEFSAII (Michael W. Deem and Ramdas Pophale) SiO2 
 PCOD8156435
Probable space group: P 21 21 2
;
_chemical_formula_sum "Si O2"
_cell_formula_units_Z 20
_cell_length_a 6.942727
_cell_length_b 16.342705
_cell_length_c 7.783504
_cell_angle_alpha 90.000000
_cell_angle_beta 90.000000
_cell_angle_gamma 90.000000
_cell_volume 883.139242
_symmetry_space_group_name_H-M "P 21 21 2"
_symmetry_group_IT_number 18
_symmetry_cell_setting 'orthorhombic'
loop_
_space_group_symop_operation_xyz
x,y,z
-x,-y,z
1/2+x,1/2-y,-z
1/2-x,1/2+y,-z
loop_
_atom_site_type_symbol
_atom_site_label
_atom_site_fract_x
_atom_site_fract_y
_atom_site_fract_z
Si Si1 0.169988 0.864268 0.705255
Si Si2 0.064591 0.230197 0.199181
Si Si3 0.776750 0.847671 0.867550
Si Si4 0.274832 0.482317 0.998999
Si Si5 0.630783 0.575604 0.651538
O O1 0.244824 0.771051 0.719022
O O2 0.273647 0.915929 0.856335
O O3 0.242218 0.899989 0.522490
O O4 0.936643 0.869804 0.722282
O O5 0.891485 0.295057 0.214964
O O6 0.011443 0.149661 0.302440
O O7 0.104503 0.206245 0.003376
O O8 0.679630 0.929852 0.953602
O O9 0.500000 0.500000 0.988324
O O10 0.220926 0.446343 0.809090
O O11 0.500000 0.500000 0.601353
#
# Coordination Sequence:
#
# PCOD8156435 Si02
#       5
#     4   4   4   4   4
#     4  11  24  41  65  95 130 172 215 272 324 386
#     4  12  23  40  67  99 128 170 224 268 327 389
#     4  11  21  41  69  92 132 172 217 268 326 390
#     4   9  18  41  65  90 125 174 211 256 326 391
#     4  11  21  41  68  94 130 177 216 260 338 399
#
# _framework density 22.646487
#
# number of rings (size 3 to 8) (size 9 to 14) (size 15 to 20)
#    0.000    1.200    8.000    1.800    2.800    0.800 
#    0.000    0.000    0.000    6.000    0.000    0.000 
#    0.000    0.000    0.000    0.000    0.000    0.000 
#
# Total GULP energy -247942.323746 kJ/mol
# GULP energy per Si atom -12397.116187 kJ/mol
# Density = 2.259494 g / cm^3
# Si number density = 22.646487 Si / 1000 Ang^3
#
#
#
# Elastic Constant Matrix: (Units=GPa)
#
#
# Indices 1 2 3 4 5 6 
#
# 1 12.0518 18.1781 27.9366 0.0000 0.0000 0.0000
# 2 18.1781 148.0255 42.5666 0.0000 0.0000 0.0000
# 3 27.9366 42.5666 137.7013 0.0000 0.0000 0.0000
# 4 0.0000 0.0000 0.0000 9.5449 0.0000 0.0000
# 5 0.0000 0.0000 0.0000 0.0000 3.9151 0.0000
# 6 0.0000 0.0000 0.0000 0.0000 0.0000 20.6527
#
#
#
# Elastic Compliance Matrix: (Units=1/GPa)
#
#
# Indices 1 2 3 4 5 6 
#
# 1 0.175164 -0.012393 -0.031706 0.000000 0.000000 0.000000
# 2 -0.012393 0.008292 -0.000049 0.000000 0.000000 0.000000
# 3 -0.031706 -0.000049 0.013710 0.000000 0.000000 0.000000
# 4 0.000000 0.000000 0.000000 0.104768 0.000000 0.000000
# 5 0.000000 0.000000 0.000000 0.000000 0.255422 0.000000
# 6 0.000000 0.000000 0.000000 0.000000 0.000000 0.048420
#
#
# Mechanical properties :
#
#
# Convention : Reuss Voigt Hill
#
# Bulk Modulus (GPa) = 9.18535 52.79345 30.98940
# Shear Modulus (GPa) = 6.84593 20.76235 13.80414
#
# Velocity S-wave (km/s) = 1.74055 3.03116 2.47158
# Velocity P-wave (km/s) = 2.84678 5.96768 4.67532
#
# Compressibility (1/GPa) = 0.10886904
#
# Stress axis : x y z
#
# Youngs Moduli (GPa) = 5.70894 120.60450 72.94158
#
# Poissons Ratio (x) = 1.49469 2.31268
# Poissons Ratio (y) = 0.07075 0.00356
# Poissons Ratio (z) = 0.18101 0.00588
#
# Static dielectric constant tensor:
#      x y z
#    x 3.616600 0.000000 0.000000 
#    y 0.000000 4.654420 0.000000 
#    z 0.000000 0.000000 4.245690 
# 
# 
# High freq. dielectric constant tensor:
#      x y z
#    x 1.850660 0.000000 0.000000 
#    y 0.000000 1.915920 0.000000 
#    z 0.000000 0.000000 1.888990 
# 
# From -- ./inp_files/3084.got.cif
#   From: 2010.03.12/outbox.cif.g09.slc.cpg/sg18_2_cif.got.tgz:3084.got - 2010.04.10 18:53:55.
