data_PCOD8156005
_publ_section_title
;
Structure prediction by ZEFSAII (Michael W. Deem and Ramdas Pophale) SiO2 
 PCOD8156005
Probable space group: P 21 21 2
;
_chemical_formula_sum "Si O2"
_cell_formula_units_Z 22
_cell_length_a 28.142092
_cell_length_b 5.074258
_cell_length_c 7.606274
_cell_angle_alpha 90.000000
_cell_angle_beta 90.000000
_cell_angle_gamma 90.000000
_cell_volume 1086.177718
_symmetry_space_group_name_H-M "P 21 21 2"
_symmetry_group_IT_number 18
_symmetry_cell_setting 'orthorhombic'
loop_
_space_group_symop_operation_xyz
x,y,z
-x,-y,z
1/2+x,1/2-y,-z
1/2-x,1/2+y,-z
loop_
_atom_site_type_symbol
_atom_site_label
_atom_site_fract_x
_atom_site_fract_y
_atom_site_fract_z
Si Si1 0.500000 0.500000 0.498340
Si Si2 0.665598 0.311723 0.885577
Si Si3 0.165404 0.686723 0.882719
Si Si4 0.590791 0.255714 0.608528
Si Si5 0.409110 0.264032 0.393639
Si Si6 0.749984 0.811470 0.382985
O O1 0.534020 0.317579 0.621172
O O2 0.466159 0.315962 0.375402
O O3 0.613397 0.269690 0.802097
O O4 0.704034 0.264666 0.735376
O O5 0.671049 0.604171 0.961373
O O6 0.672984 0.104230 0.041634
O O7 0.112942 0.711527 0.797438
O O8 0.203405 0.740067 0.731815
O O9 0.615019 0.477413 0.482434
O O10 0.601135 0.974097 0.525387
O O11 0.750827 0.606764 0.543084
#
# Coordination Sequence:
#
# PCOD8156005 Si02
#       6
#     2   4   4   4   4   4
#     4   8  22  36  72  80 122 156 224 256 282 358
#     4  12  24  40  62  94 132 160 194 259 316 358
#     4  12  24  40  62  94 132 160 194 259 316 358
#     4  10  20  39  64  87 116 166 209 250 297 360
#     4  10  20  39  64  87 116 166 209 250 297 360
#     4  12  24  42  66  94 120 168 214 240 292 376
#
# _framework density 20.254514
#
# number of rings (size 3 to 8) (size 9 to 14) (size 15 to 20)
#    1.091    0.000    0.000    8.182    0.000    0.000 
#    0.000    0.909    0.000    0.000    0.000    0.000 
#    0.000    0.000    0.000    0.000    0.000    0.000 
#
# Total GULP energy -272784.139850 kJ/mol
# GULP energy per Si atom -12399.279084 kJ/mol
# Density = 2.020841 g / cm^3
# Si number density = 20.254514 Si / 1000 Ang^3
#
#
#
# Elastic Constant Matrix: (Units=GPa)
#
#
# Indices 1 2 3 4 5 6 
#
# 1 119.5609 12.3879 45.3921 0.0000 0.0000 0.0000
# 2 12.3879 85.5220 11.8367 0.0000 0.0000 0.0000
# 3 45.3921 11.8367 77.5608 0.0000 0.0000 0.0000
# 4 0.0000 0.0000 0.0000 49.5402 0.0000 0.0000
# 5 0.0000 0.0000 0.0000 0.0000 31.3665 0.0000
# 6 0.0000 0.0000 0.0000 0.0000 0.0000 22.7235
#
#
#
# Elastic Compliance Matrix: (Units=1/GPa)
#
#
# Indices 1 2 3 4 5 6 
#
# 1 0.010795 -0.000704 -0.006210 0.000000 0.000000 0.000000
# 2 -0.000704 0.011991 -0.001418 0.000000 0.000000 0.000000
# 3 -0.006210 -0.001418 0.016744 0.000000 0.000000 0.000000
# 4 0.000000 0.000000 0.000000 0.020186 0.000000 0.000000
# 5 0.000000 0.000000 0.000000 0.000000 0.031881 0.000000
# 6 0.000000 0.000000 0.000000 0.000000 0.000000 0.044007
#
#
# Mechanical properties :
#
#
# Convention : Reuss Voigt Hill
#
# Bulk Modulus (GPa) = 43.73398 46.87524 45.30461
# Shear Modulus (GPa) = 31.27160 34.92786 33.09973
#
# Velocity S-wave (km/s) = 3.93355 4.15715 4.04690
# Velocity P-wave (km/s) = 6.50150 6.79970 6.65227
#
# Compressibility (1/GPa) = 0.02286552
#
# Stress axis : x y z
#
# Youngs Moduli (GPa) = 92.63921 83.39497 59.72324
#
# Poissons Ratio (x) = 0.05872 0.37088
# Poissons Ratio (y) = 0.06523 0.08468
# Poissons Ratio (z) = 0.57529 0.11825
#
# Static dielectric constant tensor:
#      x y z
#    x 3.764280 0.000000 0.000000 
#    y 0.000000 3.725800 0.000000 
#    z 0.000000 0.000000 3.411680 
# 
# 
# High freq. dielectric constant tensor:
#      x y z
#    x 1.793560 0.000000 0.000000 
#    y 0.000000 1.809520 0.000000 
#    z 0.000000 0.000000 1.771610 
# 
# From -- ./inp_files/2260.got.cif
#   From: 2010.03.12/outbox.cif.g09.slc.cpg/sg18_2_cif.got.tgz:2260.got - 2010.04.10 18:53:55.
