data_PCOD8156611
_publ_section_title
;
Structure prediction by ZEFSAII (Michael W. Deem and Ramdas Pophale) SiO2 
 PCOD8156611
Probable space group: P 21 21 21
;
_chemical_formula_sum "Si O2"
_cell_formula_units_Z 32
_cell_length_a 8.334692
_cell_length_b 16.135470
_cell_length_c 11.975813
_cell_angle_alpha 90.000000
_cell_angle_beta 90.000000
_cell_angle_gamma 90.000000
_cell_volume 1610.557304
_symmetry_space_group_name_H-M "P 21 21 21"
_symmetry_group_IT_number 19
_symmetry_cell_setting 'orthorhombic'
loop_
_space_group_symop_operation_xyz
x,y,z
1/2-x,-y,1/2+z
1/2+x,1/2-y,-z
-x,1/2+y,1/2-z
loop_
_atom_site_type_symbol
_atom_site_label
_atom_site_fract_x
_atom_site_fract_y
_atom_site_fract_z
Si Si1 0.763182 0.625596 0.245287
Si Si2 0.235800 0.696860 0.472889
Si Si3 0.482900 0.083776 0.075593
Si Si4 0.972653 0.060164 0.112621
Si Si5 0.655845 0.632753 0.640128
Si Si6 0.669547 0.964620 0.205019
Si Si7 0.081130 0.005807 0.880662
Si Si8 0.336770 0.692784 0.729305
O O1 0.658439 0.627175 0.357048
O O2 0.664868 0.582622 0.145020
O O3 0.818230 0.718301 0.210948
O O4 0.918219 0.572391 0.278767
O O5 0.373098 0.648316 0.406799
O O6 0.070749 0.647690 0.447366
O O7 0.222255 0.787867 0.424195
O O8 0.276729 0.699266 0.602841
O O9 0.528335 0.991208 0.118891
O O10 0.436501 0.072948 0.946897
O O11 0.823928 0.014939 0.167636
O O12 0.063923 0.009137 0.014767
O O13 0.809723 0.578646 0.678415
O O14 0.523462 0.659812 0.733631
O O15 0.598361 0.988931 0.327448
O O16 0.718831 0.868455 0.202754
#
# Coordination Sequence:
#
# PCOD8156611 Si02
#       8
#     4   4   4   4   4   4   4   4
#     4  11  21  36  59  90 120 157 201 250 296 356
#     4  10  19  31  57  90 117 150 185 255 320 338
#     4   9  20  33  52  85 118 150 187 235 305 359
#     4  11  20  41  59  85 130 152 200 253 296 362
#     4  11  20  34  60  89 119 153 191 252 320 353
#     4  10  23  37  58  84 120 165 197 239 300 365
#     4  11  23  38  60  90 123 166 196 241 311 364
#     4  11  20  34  57  89 119 151 207 247 296 363
#
# _framework density 19.868898999999999
#
# number of rings (size 3 to 8) (size 9 to 14) (size 15 to 20)
#    0.000    1.500    5.000    0.750    3.500    0.000 
#    0.000    0.000    2.750    0.000    0.000    0.000 
#    0.000    0.000    0.000    0.000    0.000    0.000 
#
# Total GULP energy -396535.147649 kJ/mol
# GULP energy per Si atom -12391.723364 kJ/mol
# Density = 1.982368 g / cm^3
# Si number density = 19.868899 Si / 1000 Ang^3
#
#
#
# Elastic Constant Matrix: (Units=GPa)
#
#
# Indices 1 2 3 4 5 6 
#
# 1 86.2784 38.2669 17.9077 0.0000 0.0000 0.0000
# 2 38.2669 110.1917 38.2289 0.0000 0.0000 0.0000
# 3 17.9077 38.2289 33.0925 0.0000 0.0000 0.0000
# 4 0.0000 0.0000 0.0000 29.1748 0.0000 0.0000
# 5 0.0000 0.0000 0.0000 0.0000 31.4140 0.0000
# 6 0.0000 0.0000 0.0000 0.0000 0.0000 29.9390
#
#
#
# Elastic Compliance Matrix: (Units=1/GPa)
#
#
# Indices 1 2 3 4 5 6 
#
# 1 0.013907 -0.003703 -0.003248 0.000000 0.000000 0.000000
# 2 -0.003703 0.016131 -0.016631 0.000000 0.000000 0.000000
# 3 -0.003248 -0.016631 0.051188 0.000000 0.000000 0.000000
# 4 0.000000 0.000000 0.000000 0.034276 0.000000 0.000000
# 5 0.000000 0.000000 0.000000 0.000000 0.031833 0.000000
# 6 0.000000 0.000000 0.000000 0.000000 0.000000 0.033401
#
#
# Mechanical properties :
#
#
# Convention : Reuss Voigt Hill
#
# Bulk Modulus (GPa) = 29.35788 46.48549 37.92169
# Shear Modulus (GPa) = 20.89841 27.11617 24.00729
#
# Velocity S-wave (km/s) = 3.24669 3.69827 3.47981
# Velocity P-wave (km/s) = 5.37239 6.45625 5.93909
#
# Compressibility (1/GPa) = 0.03406240
#
# Stress axis : x y z
#
# Youngs Moduli (GPa) = 71.90735 61.99406 19.53585
#
# Poissons Ratio (x) = 0.22954 0.06346
# Poissons Ratio (y) = 0.26624 0.32489
# Poissons Ratio (z) = 0.23357 1.03100
#
# Static dielectric constant tensor:
#      x y z
#    x 4.025330 0.000000 0.000000 
#    y 0.000000 3.743100 0.000000 
#    z 0.000000 0.000000 3.329190 
# 
# 
# High freq. dielectric constant tensor:
#      x y z
#    x 1.796890 0.000000 0.000000 
#    y 0.000000 1.769650 0.000000 
#    z 0.000000 0.000000 1.729580 
# 
# From -- ./inp_files/3765.got.cif
#   From: 2010.03.12/outbox.cif.g09.slc.cpg/sg19_2_cif.got.tgz:3765.got - 2010.04.10 18:59:41.
