data_PCOD8156324
_publ_section_title
;
Structure prediction by ZEFSAII (Michael W. Deem and Ramdas Pophale) SiO2 
 PCOD8156324
Probable space group: P 21 21 2
;
_chemical_formula_sum "Si O2"
_cell_formula_units_Z 22
_cell_length_a 6.759449
_cell_length_b 11.150718
_cell_length_c 13.270789
_cell_angle_alpha 90.000000
_cell_angle_beta 90.000000
_cell_angle_gamma 90.000000
_cell_volume 1000.255326
_symmetry_space_group_name_H-M "P 21 21 2"
_symmetry_group_IT_number 18
_symmetry_cell_setting 'orthorhombic'
loop_
_space_group_symop_operation_xyz
x,y,z
-x,-y,z
1/2+x,1/2-y,-z
1/2-x,1/2+y,-z
loop_
_atom_site_type_symbol
_atom_site_label
_atom_site_fract_x
_atom_site_fract_y
_atom_site_fract_z
Si Si1 0.000000 0.500000 0.759251
Si Si2 0.573953 0.769179 0.144634
Si Si3 0.316017 0.578952 0.607647
Si Si4 0.342524 0.593203 0.004246
Si Si5 0.350441 0.826910 0.700477
Si Si6 0.000000 0.500000 0.456686
Si Si7 0.500000 0.000000 0.860331
O O1 0.944457 0.615246 0.826207
O O2 0.203543 0.518345 0.700286
O O3 0.442997 0.681351 0.081988
O O4 0.639547 0.698438 0.246375
O O5 0.761174 0.822415 0.083858
O O6 0.500000 0.500000 0.569939
O O7 0.413040 0.704042 0.644478
O O8 0.145397 0.587313 0.521034
O O9 0.500000 0.500000 0.957308
O O10 0.185914 0.513521 0.066089
O O11 0.488997 0.879854 0.790503
O O12 0.346794 0.924051 0.611244
#
# Coordination Sequence:
#
# PCOD8156324 Si02
#       7
#     2   4   4   4   4   2   2
#     4   9  23  43  65  96 134 166 229 271 335 413
#     4  11  24  43  69  99 135 186 225 285 342 401
#     4  10  23  43  69  99 130 178 218 280 351 403
#     4  12  26  44  70 100 142 185 235 285 343 404
#     4  10  23  45  66 100 133 175 228 278 344 412
#     4  10  24  46  66  98 138 166 228 286 334 426
#     4  11  23  47  67 102 142 180 231 283 339 419
#
# _framework density 21.994385000000001
#
# number of rings (size 3 to 8) (size 9 to 14) (size 15 to 20)
#    0.000    1.455    1.818    1.636    7.636    2.909 
#    6.545    0.000    0.000    0.000    0.000    0.000 
#    0.000    0.000    0.000    0.000    0.000    0.000 
#
# Total GULP energy -272581.387352 kJ/mol
# GULP energy per Si atom -12390.063061 kJ/mol
# Density = 2.194432 g / cm^3
# Si number density = 21.994385 Si / 1000 Ang^3
#
#
#
# Elastic Constant Matrix: (Units=GPa)
#
#
# Indices 1 2 3 4 5 6 
#
# 1 86.5596 49.3766 37.1276 0.0000 0.0000 0.0000
# 2 49.3766 122.4107 52.0208 0.0000 0.0000 0.0000
# 3 37.1276 52.0208 100.7197 0.0000 0.0000 0.0000
# 4 0.0000 0.0000 0.0000 38.3830 0.0000 0.0000
# 5 0.0000 0.0000 0.0000 0.0000 1.7175 0.0000
# 6 0.0000 0.0000 0.0000 0.0000 0.0000 44.3238
#
#
#
# Elastic Compliance Matrix: (Units=1/GPa)
#
#
# Indices 1 2 3 4 5 6 
#
# 1 0.015791 -0.004991 -0.003243 0.000000 0.000000 0.000000
# 2 -0.004991 0.012044 -0.004381 0.000000 0.000000 0.000000
# 3 -0.003243 -0.004381 0.013387 0.000000 0.000000 0.000000
# 4 0.000000 0.000000 0.000000 0.026053 0.000000 0.000000
# 5 0.000000 0.000000 0.000000 0.000000 0.582230 0.000000
# 6 0.000000 0.000000 0.000000 0.000000 0.000000 0.022561
#
#
# Mechanical properties :
#
#
# Convention : Reuss Voigt Hill
#
# Bulk Modulus (GPa) = 62.53281 65.19333 63.86307
# Shear Modulus (GPa) = 7.11614 28.29586 17.70600
#
# Velocity S-wave (km/s) = 1.80068 3.59068 2.84037
# Velocity P-wave (km/s) = 5.72855 6.84806 6.31317
#
# Compressibility (1/GPa) = 0.01599160
#
# Stress axis : x y z
#
# Youngs Moduli (GPa) = 63.32723 83.02660 74.70157
#
# Poissons Ratio (x) = 0.41442 0.24225
# Poissons Ratio (y) = 0.31610 0.32725
# Poissons Ratio (z) = 0.20536 0.36373
#
# Static dielectric constant tensor:
#      x y z
#    x 3.770950 0.000000 0.000000 
#    y 0.000000 4.320100 0.000000 
#    z 0.000000 0.000000 4.195020 
# 
# 
# High freq. dielectric constant tensor:
#      x y z
#    x 1.843580 0.000000 0.000000 
#    y 0.000000 1.876510 0.000000 
#    z 0.000000 0.000000 1.876390 
# 
# From -- ./inp_files/6453.got.cif
#   From: 2010.03.12/outbox.cif.g09.slc.cpg/sg18_4_cif.got.tgz:6453.got - 2010.04.10 18:53:55.
