data_PCOD8156543
_publ_section_title
;
Structure prediction by ZEFSAII (Michael W. Deem and Ramdas Pophale) SiO2 
 PCOD8156543
Probable space group: P 21 21 21
;
_chemical_formula_sum "Si O2"
_cell_formula_units_Z 20
_cell_length_a 8.152472
_cell_length_b 5.097417
_cell_length_c 22.296464
_cell_angle_alpha 90.000000
_cell_angle_beta 90.000000
_cell_angle_gamma 90.000000
_cell_volume 926.564107
_symmetry_space_group_name_H-M "P 21 21 21"
_symmetry_group_IT_number 19
_symmetry_cell_setting 'orthorhombic'
loop_
_space_group_symop_operation_xyz
x,y,z
1/2-x,-y,1/2+z
1/2+x,1/2-y,-z
-x,1/2+y,1/2-z
loop_
_atom_site_type_symbol
_atom_site_label
_atom_site_fract_x
_atom_site_fract_y
_atom_site_fract_z
Si Si1 0.715824 0.307687 0.276516
Si Si2 0.770073 0.811691 0.338672
Si Si3 0.434595 0.027560 0.334074
Si Si4 0.085536 0.915203 0.966423
Si Si5 0.788592 0.913967 0.470485
O O1 0.816063 0.525884 0.314278
O O2 0.525813 0.270491 0.299570
O O3 0.708183 0.399007 0.207225
O O4 0.815085 0.036653 0.288824
O O5 0.854558 0.872053 0.402416
O O6 0.572604 0.808727 0.348585
O O7 0.358451 0.122779 0.397040
O O8 0.101561 0.637416 0.999338
O O9 0.199337 0.138219 0.995280
O O10 0.897513 0.994284 0.971871
#
# Coordination Sequence:
#
# PCOD8156543 Si02
#       5
#     4   4   4   4   4
#     4  10  16  29  50  80 114 140 175 251 301 327
#     4   9  18  29  50  74 112 138 189 219 296 336
#     4   9  19  28  53  81 117 135 187 245 303 317
#     4  11  24  37  60  85 124 150 201 233 299 345
#     4  11  23  39  57  86 117 163 192 244 281 361
#
# _framework density 21.58512
#
# number of rings (size 3 to 8) (size 9 to 14) (size 15 to 20)
#    1.200    0.800    2.000    2.400    5.600    0.000 
#    0.000    0.000    0.000    0.000    0.000   28.000 
#    0.000    0.000    0.000    0.000    0.000    0.000 
#
# Total GULP energy -247817.761790 kJ/mol
# GULP energy per Si atom -12390.888089 kJ/mol
# Density = 2.153599 g / cm^3
# Si number density = 21.585120 Si / 1000 Ang^3
#
#
#
# Elastic Constant Matrix: (Units=GPa)
#
#
# Indices 1 2 3 4 5 6 
#
# 1 16.0961 -3.9721 8.8626 0.0000 0.0000 0.0000
# 2 -3.9721 111.7793 11.3304 0.0000 0.0000 0.0000
# 3 8.8626 11.3304 50.9308 0.0000 0.0000 0.0000
# 4 0.0000 0.0000 0.0000 32.9248 0.0000 0.0000
# 5 0.0000 0.0000 0.0000 0.0000 24.0160 0.0000
# 6 0.0000 0.0000 0.0000 0.0000 0.0000 25.5647
#
#
#
# Elastic Compliance Matrix: (Units=1/GPa)
#
#
# Indices 1 2 3 4 5 6 
#
# 1 0.070271 0.003823 -0.013079 0.000000 0.000000 0.000000
# 2 0.003823 0.009361 -0.002748 0.000000 0.000000 0.000000
# 3 -0.013079 -0.002748 0.022522 0.000000 0.000000 0.000000
# 4 0.000000 0.000000 0.000000 0.030372 0.000000 0.000000
# 5 0.000000 0.000000 0.000000 0.000000 0.041639 0.000000
# 6 0.000000 0.000000 0.000000 0.000000 0.000000 0.039116
#
#
# Mechanical properties :
#
#
# Convention : Reuss Voigt Hill
#
# Bulk Modulus (GPa) = 12.79643 23.47200 18.13421
# Shear Modulus (GPa) = 18.98707 27.34009 23.16358
#
# Velocity S-wave (km/s) = 2.96909 3.56282 3.27942
# Velocity P-wave (km/s) = 4.20656 5.27472 4.77063
#
# Compressibility (1/GPa) = 0.07814682
#
# Stress axis : x y z
#
# Youngs Moduli (GPa) = 14.23053 106.83122 44.40182
#
# Poissons Ratio (x) = -0.40840 0.58071
# Poissons Ratio (y) = -0.05440 0.12200
# Poissons Ratio (z) = 0.18612 0.29353
#
# Static dielectric constant tensor:
#      x y z
#    x 3.155230 0.000000 0.000000 
#    y 0.000000 3.905950 0.000000 
#    z 0.000000 0.000000 4.045740 
# 
# 
# High freq. dielectric constant tensor:
#      x y z
#    x 1.776830 0.000000 0.000000 
#    y 0.000000 1.854660 0.000000 
#    z 0.000000 0.000000 1.856900 
# 
# From -- ./inp_files/6983.got.cif
#   From: 2010.03.12/outbox.cif.g09.slc.cpg/sg19_4_cif.got.tgz:6983.got - 2010.04.10 18:59:41.
