data_PCOD8156480
_publ_section_title
;
Structure prediction by ZEFSAII (Michael W. Deem and Ramdas Pophale) SiO2 
 PCOD8156480
Probable space group: P 21 21 2
;
_chemical_formula_sum "Si O2"
_cell_formula_units_Z 16
_cell_length_a 8.319929
_cell_length_b 4.958264
_cell_length_c 17.627457
_cell_angle_alpha 90.000000
_cell_angle_beta 90.000000
_cell_angle_gamma 90.000000
_cell_volume 727.174985
_symmetry_space_group_name_H-M "P 21 21 2"
_symmetry_group_IT_number 18
_symmetry_cell_setting 'orthorhombic'
loop_
_space_group_symop_operation_xyz
x,y,z
-x,-y,z
1/2+x,1/2-y,-z
1/2-x,1/2+y,-z
loop_
_atom_site_type_symbol
_atom_site_label
_atom_site_fract_x
_atom_site_fract_y
_atom_site_fract_z
Si Si1 0.181696 0.085412 0.714406
Si Si2 0.690392 0.993601 0.042494
Si Si3 0.317943 0.587041 0.792865
Si Si4 0.819107 0.910909 0.538275
O O1 0.202168 0.382986 0.748181
O O2 0.226275 0.087400 0.626291
O O3 0.300598 0.882481 0.757186
O O4 0.000000 0.000000 0.729369
O O5 0.500000 0.000000 0.050961
O O6 0.770837 0.894849 0.119619
O O7 0.756703 0.290077 0.023798
O O8 0.500000 0.500000 0.782902
O O9 0.799918 0.610321 0.506153
O O10 0.000000 0.000000 0.523604
#
# Coordination Sequence:
#
# PCOD8156480 Si02
#       4
#     4   4   4   4
#     4  11  24  43  64  91 126 167 208 255 312 371
#     4  12  25  44  67  94 128 166 207 256 309 368
#     4  12  25  42  65  95 126 163 209 258 309 368
#     4  11  24  41  64  92 126 164 208 257 312 371
#
# _framework density 22.002959000000001
#
# number of rings (size 3 to 8) (size 9 to 14) (size 15 to 20)
#    0.000    0.500    0.000    9.000    0.000   10.000 
#    0.000    0.000    0.000    0.000    0.000    0.000 
#    0.000    0.000    0.000    0.000    0.000    0.000 
#
# Total GULP energy -198583.114058 kJ/mol
# GULP energy per Si atom -12411.444629 kJ/mol
# Density = 2.195288 g / cm^3
# Si number density = 22.002959 Si / 1000 Ang^3
#
#
#
# Elastic Constant Matrix: (Units=GPa)
#
#
# Indices 1 2 3 4 5 6 
#
# 1 51.1814 0.8382 22.9444 0.0000 0.0000 0.0000
# 2 0.8382 76.5976 9.0974 0.0000 0.0000 0.0000
# 3 22.9444 9.0974 109.9487 0.0000 0.0000 0.0000
# 4 0.0000 0.0000 0.0000 16.7415 0.0000 0.0000
# 5 0.0000 0.0000 0.0000 0.0000 -119.6959 0.0000
# 6 0.0000 0.0000 0.0000 0.0000 0.0000 35.1910
#
#
#
# Elastic Compliance Matrix: (Units=1/GPa)
#
#
# Indices 1 2 3 4 5 6 
#
# 1 0.021562 0.000301 -0.004525 0.000000 0.000000 0.000000
# 2 0.000301 0.013189 -0.001154 0.000000 0.000000 0.000000
# 3 -0.004525 -0.001154 0.010135 0.000000 0.000000 0.000000
# 4 0.000000 0.000000 0.000000 0.059732 0.000000 0.000000
# 5 0.000000 0.000000 0.000000 0.000000 -0.008355 0.000000
# 6 0.000000 0.000000 0.000000 0.000000 0.000000 0.028416
#
#
# Mechanical properties :
#
#
# Convention : Reuss Voigt Hill
#
# Bulk Modulus (GPa) = 29.29883 33.72085 31.50984
# Shear Modulus (GPa) = 34.05746 0.10382 17.08064
#
# Velocity S-wave (km/s) = 3.93855 0.21746 2.78922
# Velocity P-wave (km/s) = 5.83333 3.92708 4.97240
#
# Compressibility (1/GPa) = 0.03413105
#
# Stress axis : x y z
#
# Youngs Moduli (GPa) = 46.37846 75.82059 98.66952
#
# Poissons Ratio (x) = -0.02285 0.44643
# Poissons Ratio (y) = -0.01398 0.11388
# Poissons Ratio (z) = 0.20984 0.08751
#
# Static dielectric constant tensor:
#      x y z
#    x 3.949230 0.000000 0.000000 
#    y 0.000000 48.300750 0.000000 
#    z 0.000000 0.000000 4.051340 
# 
# 
# High freq. dielectric constant tensor:
#      x y z
#    x 1.877600 0.000000 0.000000 
#    y 0.000000 1.881310 0.000000 
#    z 0.000000 0.000000 1.878340 
# 
# From -- ./inp_files/7048.got.cif
#   From: 2010.03.12/outbox.cif.g09.slc.cpg/sg18_4_cif.got.tgz:7048.got - 2010.04.10 18:53:55.
