data_PCOD8156980
_publ_section_title
;
Structure prediction by ZEFSAII (Michael W. Deem and Ramdas Pophale) SiO2 
 PCOD8156980
Probable space group: P 21 21 21
;
_chemical_formula_sum "Si O2"
_cell_formula_units_Z 20
_cell_length_a 8.271901
_cell_length_b 4.890189
_cell_length_c 21.142778
_cell_angle_alpha 90.000000
_cell_angle_beta 90.000000
_cell_angle_gamma 90.000000
_cell_volume 855.249880
_symmetry_space_group_name_H-M "P 21 21 21"
_symmetry_group_IT_number 19
_symmetry_cell_setting 'orthorhombic'
loop_
_space_group_symop_operation_xyz
x,y,z
1/2-x,-y,1/2+z
1/2+x,1/2-y,-z
-x,1/2+y,1/2-z
loop_
_atom_site_type_symbol
_atom_site_label
_atom_site_fract_x
_atom_site_fract_y
_atom_site_fract_z
Si Si1 0.156379 0.777315 0.950585
Si Si2 0.164229 0.764437 0.661529
Si Si3 0.603892 0.039309 0.738114
Si Si4 0.798929 0.767844 0.628852
Si Si5 0.204015 0.281305 0.582282
O O1 0.185773 0.466438 0.931117
O O2 0.970334 0.845771 0.945472
O O3 0.254507 0.979387 0.902690
O O4 0.189731 0.824251 0.024451
O O5 0.241317 0.682178 0.728743
O O6 0.256392 0.571966 0.610745
O O7 0.969884 0.728223 0.665779
O O8 0.205471 0.071785 0.641153
O O9 0.482864 0.293273 0.722517
O O10 0.661835 0.888355 0.674372
#
# Coordination Sequence:
#
# PCOD8156980 Si02
#       5
#     4   4   4   4   4
#     4  10  21  38  62  91 122 162 208 253 307 371
#     4  10  23  42  63  88 124 171 211 247 310 387
#     4  12  26  42  64  98 128 160 212 272 318 358
#     4  10  23  42  63  88 124 171 211 247 310 387
#     4  10  21  38  62  91 122 162 208 253 307 371
#
# _framework density 23.384979000000001
#
# number of rings (size 3 to 8) (size 9 to 14) (size 15 to 20)
#    0.000    1.600    0.000    3.600    0.000   11.200 
#    0.000    0.000    0.000    0.000    0.000    0.000 
#    0.000    0.000    0.000    0.000    0.000    0.000 
#
# Total GULP energy -247899.483016 kJ/mol
# GULP energy per Si atom -12394.974151 kJ/mol
# Density = 2.333175 g / cm^3
# Si number density = 23.384979 Si / 1000 Ang^3
#
#
#
# Elastic Constant Matrix: (Units=GPa)
#
#
# Indices 1 2 3 4 5 6 
#
# 1 33.4558 20.8190 1.1089 0.0000 0.0000 0.0000
# 2 20.8190 90.7024 -9.5633 0.0000 0.0000 0.0000
# 3 1.1089 -9.5633 39.0221 0.0000 0.0000 0.0000
# 4 0.0000 0.0000 0.0000 32.0657 0.0000 0.0000
# 5 0.0000 0.0000 0.0000 0.0000 31.3930 0.0000
# 6 0.0000 0.0000 0.0000 0.0000 0.0000 34.6294
#
#
#
# Elastic Compliance Matrix: (Units=1/GPa)
#
#
# Indices 1 2 3 4 5 6 
#
# 1 0.035224 -0.008408 -0.003062 0.000000 0.000000 0.000000
# 2 -0.008408 0.013324 0.003504 0.000000 0.000000 0.000000
# 3 -0.003062 0.003504 0.026572 0.000000 0.000000 0.000000
# 4 0.000000 0.000000 0.000000 0.031186 0.000000 0.000000
# 5 0.000000 0.000000 0.000000 0.000000 0.031854 0.000000
# 6 0.000000 0.000000 0.000000 0.000000 0.000000 0.028877
#
#
# Mechanical properties :
#
#
# Convention : Reuss Voigt Hill
#
# Bulk Modulus (GPa) = 16.89453 20.87883 18.88668
# Shear Modulus (GPa) = 24.66726 29.67197 27.16962
#
# Velocity S-wave (km/s) = 3.25134 3.56595 3.41228
# Velocity P-wave (km/s) = 4.61900 5.08944 4.85992
#
# Compressibility (1/GPa) = 0.05919077
#
# Stress axis : x y z
#
# Youngs Moduli (GPa) = 28.39001 75.05039 37.63308
#
# Poissons Ratio (x) = 0.63100 0.11521
# Poissons Ratio (y) = 0.23869 -0.13188
# Poissons Ratio (z) = 0.08692 -0.26301
#
# Static dielectric constant tensor:
#      x y z
#    x 4.118900 0.000000 0.000000 
#    y 0.000000 4.530200 0.000000 
#    z 0.000000 0.000000 4.041790 
# 
# 
# High freq. dielectric constant tensor:
#      x y z
#    x 1.909870 0.000000 0.000000 
#    y 0.000000 1.947530 0.000000 
#    z 0.000000 0.000000 1.910360 
# 
# From -- ./inp_files/344.got.cif
#   From: 2010.03.12/outbox.cif.g09.slc.cpg/sg19_1_cif.got.tgz:344.got - 2010.04.10 18:59:41.
