data_PCOD8156583
_publ_section_title
;
Structure prediction by ZEFSAII (Michael W. Deem and Ramdas Pophale) SiO2 
 PCOD8156583
Probable space group: P 21 21 21
;
_chemical_formula_sum "Si O2"
_cell_formula_units_Z 28
_cell_length_a 14.161750
_cell_length_b 4.871088
_cell_length_c 19.414439
_cell_angle_alpha 90.000000
_cell_angle_beta 90.000000
_cell_angle_gamma 90.000000
_cell_volume 1339.268779
_symmetry_space_group_name_H-M "P 21 21 21"
_symmetry_group_IT_number 19
_symmetry_cell_setting 'orthorhombic'
loop_
_space_group_symop_operation_xyz
x,y,z
1/2-x,-y,1/2+z
1/2+x,1/2-y,-z
-x,1/2+y,1/2-z
loop_
_atom_site_type_symbol
_atom_site_label
_atom_site_fract_x
_atom_site_fract_y
_atom_site_fract_z
Si Si1 0.706815 0.005004 0.073267
Si Si2 0.884663 0.360195 0.230374
Si Si3 0.093479 0.474767 0.487503
Si Si4 0.491439 0.019382 0.057636
Si Si5 0.797591 0.507093 0.667407
Si Si6 0.017726 0.306147 0.790736
Si Si7 0.469290 0.642987 0.838164
O O1 0.793140 0.931724 0.021885
O O2 0.698778 0.801185 0.138583
O O3 0.603332 0.012076 0.037396
O O4 0.731814 0.304598 0.102454
O O5 0.776998 0.460031 0.229449
O O6 0.942477 0.542689 0.175459
O O7 0.925252 0.405175 0.307587
O O8 0.895268 0.049101 0.203249
O O9 0.034556 0.407001 0.418950
O O10 0.067152 0.783246 0.507493
O O11 0.054415 0.279877 0.548072
O O12 0.473564 0.112423 0.136070
O O13 0.894003 0.605653 0.699966
O O14 0.047941 0.590058 0.751963
#
# Coordination Sequence:
#
# PCOD8156583 Si02
#       7
#     4   4   4   4   4   4   4
#     4  11  22  39  62  91 120 165 217 250 296 381
#     4  10  18  34  54  92 117 154 195 243 292 351
#     4  12  21  40  63  91 126 169 199 254 319 365
#     4  11  25  40  63  91 122 159 211 259 307 377
#     4  11  19  37  64  89 118 158 214 252 291 373
#     4  11  23  42  63  88 118 159 211 267 312 354
#     4  10  20  32  57  86 127 148 191 243 299 367
#
# _framework density 20.906929000000002
#
# number of rings (size 3 to 8) (size 9 to 14) (size 15 to 20)
#    0.000    1.143    2.857    6.000    0.000    0.000 
#    0.000    4.286    0.000    0.000    0.000    0.000 
#    0.000    0.000    0.000    0.000    0.000    0.000 
#
# Total GULP energy -347098.782147 kJ/mol
# GULP energy per Si atom -12396.385077 kJ/mol
# Density = 2.085934 g / cm^3
# Si number density = 20.906929 Si / 1000 Ang^3
#
#
#
# Elastic Constant Matrix: (Units=GPa)
#
#
# Indices 1 2 3 4 5 6 
#
# 1 90.2734 10.1044 29.8648 0.0000 0.0000 0.0000
# 2 10.1044 79.8653 16.0352 0.0000 0.0000 0.0000
# 3 29.8648 16.0352 77.5724 0.0000 0.0000 0.0000
# 4 0.0000 0.0000 0.0000 39.1991 0.0000 0.0000
# 5 0.0000 0.0000 0.0000 0.0000 31.9522 0.0000
# 6 0.0000 0.0000 0.0000 0.0000 0.0000 29.6029
#
#
#
# Elastic Compliance Matrix: (Units=1/GPa)
#
#
# Indices 1 2 3 4 5 6 
#
# 1 0.012727 -0.000654 -0.004765 0.000000 0.000000 0.000000
# 2 -0.000654 0.013097 -0.002456 0.000000 0.000000 0.000000
# 3 -0.004765 -0.002456 0.015233 0.000000 0.000000 0.000000
# 4 0.000000 0.000000 0.000000 0.025511 0.000000 0.000000
# 5 0.000000 0.000000 0.000000 0.000000 0.031297 0.000000
# 6 0.000000 0.000000 0.000000 0.000000 0.000000 0.033780
#
#
# Mechanical properties :
#
#
# Convention : Reuss Voigt Hill
#
# Bulk Modulus (GPa) = 39.51144 39.96886 39.74015
# Shear Modulus (GPa) = 32.08646 32.93129 32.50887
#
# Velocity S-wave (km/s) = 3.92181 3.97311 3.94754
# Velocity P-wave (km/s) = 6.28070 6.34086 6.31085
#
# Compressibility (1/GPa) = 0.02530912
#
# Stress axis : x y z
#
# Youngs Moduli (GPa) = 78.57385 76.35445 65.64625
#
# Poissons Ratio (x) = 0.04990 0.31278
# Poissons Ratio (y) = 0.05135 0.16121
# Poissons Ratio (z) = 0.37438 0.18750
#
# Static dielectric constant tensor:
#      x y z
#    x 3.812610 0.000000 0.000000 
#    y 0.000000 4.086750 0.000000 
#    z 0.000000 0.000000 3.556900 
# 
# 
# High freq. dielectric constant tensor:
#      x y z
#    x 1.808660 0.000000 0.000000 
#    y 0.000000 1.847520 0.000000 
#    z 0.000000 0.000000 1.790770 
# 
# From -- ./inp_files/6761.got.cif
#   From: 2010.03.12/outbox.cif.g09.slc.cpg/sg19_4_cif.got.tgz:6761.got - 2010.04.10 18:59:41.
