data_PCOD8156318
_publ_section_title
;
Structure prediction by ZEFSAII (Michael W. Deem and Ramdas Pophale) SiO2 
 PCOD8156318
Probable space group: P 21 21 2
;
_chemical_formula_sum "Si O2"
_cell_formula_units_Z 20
_cell_length_a 5.127779
_cell_length_b 18.513467
_cell_length_c 8.077217
_cell_angle_alpha 90.000000
_cell_angle_beta 90.000000
_cell_angle_gamma 90.000000
_cell_volume 766.794177
_symmetry_space_group_name_H-M "P 21 21 2"
_symmetry_group_IT_number 18
_symmetry_cell_setting 'orthorhombic'
loop_
_space_group_symop_operation_xyz
x,y,z
-x,-y,z
1/2+x,1/2-y,-z
1/2-x,1/2+y,-z
loop_
_atom_site_type_symbol
_atom_site_label
_atom_site_fract_x
_atom_site_fract_y
_atom_site_fract_z
Si Si1 0.862059 0.783237 0.427781
Si Si2 0.249418 0.452651 0.819917
Si Si3 0.597497 0.579998 0.483059
Si Si4 0.090693 0.729905 0.092702
Si Si5 0.399517 0.918015 0.842094
O O1 0.071945 0.746599 0.551704
O O2 0.852465 0.867837 0.479857
O O3 0.965769 0.775691 0.241820
O O4 0.500000 0.500000 0.784461
O O5 0.212417 0.410695 0.645623
O O6 0.000000 0.500000 0.858548
O O7 0.284458 0.409180 0.992647
O O8 0.500000 0.500000 0.446653
O O9 0.745240 0.607069 0.320173
O O10 0.120613 0.643891 0.135736
O O11 0.879748 0.740580 0.944797
O O12 0.500000 0.000000 0.815783
#
# Coordination Sequence:
#
# PCOD8156318 Si02
#       5
#     4   4   4   4   4
#     4  12  27  49  73 108 159 200 253 319 387 467
#     4  10  23  43  67 106 149 187 241 315 378 443
#     4  11  25  44  77 113 149 201 260 316 388 455
#     4  12  28  50  78 111 156 210 257 315 397 471
#     4  11  25  46  77 114 151 198 261 321 382 456
#
# _framework density 26.082616999999999
#
# number of rings (size 3 to 8) (size 9 to 14) (size 15 to 20)
#    0.000    0.800    2.000    3.600    2.800   12.800 
#    0.000    0.000    0.000    0.000    0.000    0.000 
#    0.000    0.000    0.000    0.000    0.000    0.000 
#
# Total GULP energy -247842.585330 kJ/mol
# GULP energy per Si atom -12392.129267 kJ/mol
# Density = 2.602325 g / cm^3
# Si number density = 26.082617 Si / 1000 Ang^3
#
#
#
# Elastic Constant Matrix: (Units=GPa)
#
#
# Indices 1 2 3 4 5 6 
#
# 1 59.5801 0.3529 -1.0649 0.0000 0.0000 0.0000
# 2 0.3529 146.9212 -21.3077 0.0000 0.0000 0.0000
# 3 -1.0649 -21.3077 188.2558 0.0000 0.0000 0.0000
# 4 0.0000 0.0000 0.0000 14.1654 0.0000 0.0000
# 5 0.0000 0.0000 0.0000 0.0000 35.6233 0.0000
# 6 0.0000 0.0000 0.0000 0.0000 0.0000 26.8325
#
#
#
# Elastic Compliance Matrix: (Units=1/GPa)
#
#
# Indices 1 2 3 4 5 6 
#
# 1 0.016786 -0.000027 0.000092 0.000000 0.000000 0.000000
# 2 -0.000027 0.006920 0.000783 0.000000 0.000000 0.000000
# 3 0.000092 0.000783 0.005401 0.000000 0.000000 0.000000
# 4 0.000000 0.000000 0.000000 0.070594 0.000000 0.000000
# 5 0.000000 0.000000 0.000000 0.000000 0.028072 0.000000
# 6 0.000000 0.000000 0.000000 0.000000 0.000000 0.037268
#
#
# Mechanical properties :
#
#
# Convention : Reuss Voigt Hill
#
# Bulk Modulus (GPa) = 32.46436 38.96862 35.71649
# Shear Modulus (GPa) = 28.79972 43.10937 35.95455
#
# Velocity S-wave (km/s) = 3.32651 4.06988 3.71683
# Velocity P-wave (km/s) = 5.21805 6.08753 5.66948
#
# Compressibility (1/GPa) = 0.03080301
#
# Stress axis : x y z
#
# Youngs Moduli (GPa) = 59.57371 144.50854 185.14838
#
# Poissons Ratio (x) = 0.00390 -0.01702
# Poissons Ratio (y) = 0.00161 -0.14499
# Poissons Ratio (z) = -0.00547 -0.11316
#
# Static dielectric constant tensor:
#      x y z
#    x 4.293950 0.000000 0.000000 
#    y 0.000000 4.812670 0.000000 
#    z 0.000000 0.000000 5.346690 
# 
# 
# High freq. dielectric constant tensor:
#      x y z
#    x 2.010380 0.000000 0.000000 
#    y 0.000000 2.051460 0.000000 
#    z 0.000000 0.000000 2.078850 
# 
# From -- ./inp_files/2466.got.cif
#   From: 2010.03.12/outbox.cif.g09.slc.cpg/sg18_2_cif.got.tgz:2466.got - 2010.04.10 18:53:55.
