data_PCOD8156241
_publ_section_title
;
Structure prediction by ZEFSAII (Michael W. Deem and Ramdas Pophale) SiO2 
 PCOD8156241
Probable space group: P 21 21 2
;
_chemical_formula_sum "Si O2"
_cell_formula_units_Z 20
_cell_length_a 11.551411
_cell_length_b 11.208060
_cell_length_c 7.628003
_cell_angle_alpha 90.000000
_cell_angle_beta 90.000000
_cell_angle_gamma 90.000000
_cell_volume 987.589215
_symmetry_space_group_name_H-M "P 21 21 2"
_symmetry_group_IT_number 18
_symmetry_cell_setting 'orthorhombic'
loop_
_space_group_symop_operation_xyz
x,y,z
-x,-y,z
1/2+x,1/2-y,-z
1/2-x,1/2+y,-z
loop_
_atom_site_type_symbol
_atom_site_label
_atom_site_fract_x
_atom_site_fract_y
_atom_site_fract_z
Si Si1 0.312786 0.983756 0.466259
Si Si2 0.069322 0.256623 0.655364
Si Si3 0.184508 0.671710 0.232119
Si Si4 0.406164 0.098467 0.131522
Si Si5 0.431975 0.390650 0.611979
O O1 0.406146 0.876165 0.460055
O O2 0.184030 0.932640 0.487412
O O3 0.345535 0.069617 0.626960
O O4 0.319029 0.055767 0.283644
O O5 0.184567 0.214378 0.751057
O O6 0.973189 0.283847 0.802688
O O7 0.022821 0.152569 0.533296
O O8 0.097964 0.784061 0.254916
O O9 0.171384 0.623600 0.036922
O O10 0.500000 0.000000 0.079577
O O11 0.500000 0.500000 0.708044
#
# Coordination Sequence:
#
# PCOD8156241 Si02
#       5
#     4   4   4   4   4
#     4  10  22  42  66  93 125 170 222 262 310 392
#     4  10  22  43  61  97 136 159 222 269 307 385
#     4  11  23  41  70  93 126 177 209 260 330 375
#     4  10  23  42  65  96 128 165 219 267 312 389
#     4  11  22  40  64  96 131 168 207 266 319 370
#
# _framework density 20.251335000000001
#
# number of rings (size 3 to 8) (size 9 to 14) (size 15 to 20)
#    0.000    1.600    4.000    0.000    2.800    1.600 
#   10.800    1.000    0.000    0.000    0.000    0.000 
#    0.000    0.000    0.000    0.000    0.000    0.000 
#
# Total GULP energy -248029.306190 kJ/mol
# GULP energy per Si atom -12401.465309 kJ/mol
# Density = 2.020524 g / cm^3
# Si number density = 20.251335 Si / 1000 Ang^3
#
#
#
# Elastic Constant Matrix: (Units=GPa)
#
#
# Indices 1 2 3 4 5 6 
#
# 1 75.4551 35.6587 35.1586 0.0000 0.0000 0.0000
# 2 35.6587 96.3305 57.6597 0.0000 0.0000 0.0000
# 3 35.1586 57.6597 111.6275 0.0000 0.0000 0.0000
# 4 0.0000 0.0000 0.0000 20.0862 0.0000 0.0000
# 5 0.0000 0.0000 0.0000 0.0000 24.0818 0.0000
# 6 0.0000 0.0000 0.0000 0.0000 0.0000 38.2902
#
#
#
# Elastic Compliance Matrix: (Units=1/GPa)
#
#
# Indices 1 2 3 4 5 6 
#
# 1 0.016728 -0.004398 -0.002997 0.000000 0.000000 0.000000
# 2 -0.004398 0.016183 -0.006974 0.000000 0.000000 0.000000
# 3 -0.002997 -0.006974 0.013505 0.000000 0.000000 0.000000
# 4 0.000000 0.000000 0.000000 0.049785 0.000000 0.000000
# 5 0.000000 0.000000 0.000000 0.000000 0.041525 0.000000
# 6 0.000000 0.000000 0.000000 0.000000 0.000000 0.026116
#
#
# Mechanical properties :
#
#
# Convention : Reuss Voigt Hill
#
# Bulk Modulus (GPa) = 56.56887 60.04078 58.30483
# Shear Modulus (GPa) = 25.19228 26.82073 26.00650
#
# Velocity S-wave (km/s) = 3.53084 3.64317 3.58744
# Velocity P-wave (km/s) = 6.67956 6.88543 6.78327
#
# Compressibility (1/GPa) = 0.01767757
#
# Stress axis : x y z
#
# Youngs Moduli (GPa) = 59.78048 61.79144 74.04916
#
# Poissons Ratio (x) = 0.27179 0.22190
# Poissons Ratio (y) = 0.26294 0.51642
# Poissons Ratio (z) = 0.17914 0.43093
#
# Static dielectric constant tensor:
#      x y z
#    x 3.709170 0.000000 0.000000 
#    y 0.000000 3.977290 0.000000 
#    z 0.000000 0.000000 3.287180 
# 
# 
# High freq. dielectric constant tensor:
#      x y z
#    x 1.805320 0.000000 0.000000 
#    y 0.000000 1.805080 0.000000 
#    z 0.000000 0.000000 1.758210 
# 
# From -- ./inp_files/1409.got.cif
#   From: 2010.03.12/outbox.cif.g09.slc.cpg/sg18_1_cif.got.tgz:1409.got - 2010.04.10 18:53:55.
