data_PCOD8156419
_publ_section_title
;
Structure prediction by ZEFSAII (Michael W. Deem and Ramdas Pophale) SiO2 
 PCOD8156419
Probable space group: P 21 21 2
;
_chemical_formula_sum "Si O2"
_cell_formula_units_Z 18
_cell_length_a 19.029063
_cell_length_b 4.985327
_cell_length_c 8.169018
_cell_angle_alpha 90.000000
_cell_angle_beta 90.000000
_cell_angle_gamma 90.000000
_cell_volume 774.962891
_symmetry_space_group_name_H-M "P 21 21 2"
_symmetry_group_IT_number 18
_symmetry_cell_setting 'orthorhombic'
loop_
_space_group_symop_operation_xyz
x,y,z
-x,-y,z
1/2+x,1/2-y,-z
1/2-x,1/2+y,-z
loop_
_atom_site_type_symbol
_atom_site_label
_atom_site_fract_x
_atom_site_fract_y
_atom_site_fract_z
Si Si1 0.893438 0.300031 0.555833
Si Si2 0.635828 0.301093 0.241761
Si Si3 0.875437 0.829830 0.125708
Si Si4 0.500000 0.500000 0.658073
Si Si5 0.199440 0.677351 0.254586
O O1 0.900940 0.597333 0.630713
O O2 0.824695 0.274094 0.441232
O O3 0.884262 0.099643 0.706741
O O4 0.961972 0.224678 0.451424
O O5 0.718960 0.261613 0.241869
O O6 0.605907 0.252713 0.060226
O O7 0.819756 0.623332 0.202408
O O8 0.946654 0.828328 0.230768
O O9 0.839913 0.122023 0.130435
#
# Coordination Sequence:
#
# PCOD8156419 Si02
#       5
#     4   4   4   2   4
#     4  11  24  41  66  93 134 173 216 277 323 399
#     4  12  23  41  68 104 127 167 225 280 330 380
#     4  11  24  42  68  93 134 176 217 274 324 403
#     4  10  26  48  62  92 134 188 226 256 342 396
#     4  11  22  42  67  99 134 172 211 271 346 396
#
# _framework density 23.226918999999999
#
# number of rings (size 3 to 8) (size 9 to 14) (size 15 to 20)
#    0.000    0.889    0.000    8.000    0.000    8.889 
#    0.000    4.444    0.000    0.000    0.000    0.000 
#    0.000    0.000    0.000    0.000    0.000    0.000 
#
# Total GULP energy -223350.574124 kJ/mol
# GULP energy per Si atom -12408.365229 kJ/mol
# Density = 2.317405 g / cm^3
# Si number density = 23.226919 Si / 1000 Ang^3
#
#
#
# Elastic Constant Matrix: (Units=GPa)
#
#
# Indices 1 2 3 4 5 6 
#
# 1 79.9957 7.9330 42.4962 0.0000 0.0000 0.0000
# 2 7.9330 89.7988 26.7739 0.0000 0.0000 0.0000
# 3 42.4962 26.7739 140.8557 0.0000 0.0000 0.0000
# 4 0.0000 0.0000 0.0000 44.0507 0.0000 0.0000
# 5 0.0000 0.0000 0.0000 0.0000 16.4637 0.0000
# 6 0.0000 0.0000 0.0000 0.0000 0.0000 33.4066
#
#
#
# Elastic Compliance Matrix: (Units=1/GPa)
#
#
# Indices 1 2 3 4 5 6 
#
# 1 0.014887 0.000025 -0.004496 0.000000 0.000000 0.000000
# 2 0.000025 0.011805 -0.002252 0.000000 0.000000 0.000000
# 3 -0.004496 -0.002252 0.008884 0.000000 0.000000 0.000000
# 4 0.000000 0.000000 0.000000 0.022701 0.000000 0.000000
# 5 0.000000 0.000000 0.000000 0.000000 0.060740 0.000000
# 6 0.000000 0.000000 0.000000 0.000000 0.000000 0.029934
#
#
# Mechanical properties :
#
#
# Convention : Reuss Voigt Hill
#
# Bulk Modulus (GPa) = 45.18538 51.67293 48.42915
# Shear Modulus (GPa) = 29.45124 34.34736 31.89930
#
# Velocity S-wave (km/s) = 3.56473 3.84965 3.70993
# Velocity P-wave (km/s) = 6.03649 6.48499 6.26475
#
# Compressibility (1/GPa) = 0.02213105
#
# Stress axis : x y z
#
# Youngs Moduli (GPa) = 67.17439 84.70934 112.56282
#
# Poissons Ratio (x) = -0.00215 0.50610
# Poissons Ratio (y) = -0.00171 0.25344
# Poissons Ratio (z) = 0.30202 0.19073
#
# Static dielectric constant tensor:
#      x y z
#    x 4.092120 0.000000 0.000000 
#    y 0.000000 4.255050 0.000000 
#    z 0.000000 0.000000 4.259110 
# 
# 
# High freq. dielectric constant tensor:
#      x y z
#    x 1.912920 0.000000 0.000000 
#    y 0.000000 1.928730 0.000000 
#    z 0.000000 0.000000 1.927870 
# 
# From -- ./inp_files/4425.got.cif
#   From: 2010.03.12/outbox.cif.g09.slc.cpg/sg18_3_cif.got.tgz:4425.got - 2010.04.10 18:53:55.
