data_PCOD8156394
_publ_section_title
;
Structure prediction by ZEFSAII (Michael W. Deem and Ramdas Pophale) SiO2 
 PCOD8156394
Probable space group: P 21 21 2
;
_chemical_formula_sum "Si O2"
_cell_formula_units_Z 30
_cell_length_a 27.460752
_cell_length_b 7.922209
_cell_length_c 5.001371
_cell_angle_alpha 90.000000
_cell_angle_beta 90.000000
_cell_angle_gamma 90.000000
_cell_volume 1088.047344
_symmetry_space_group_name_H-M "P 21 21 2"
_symmetry_group_IT_number 18
_symmetry_cell_setting 'orthorhombic'
loop_
_space_group_symop_operation_xyz
x,y,z
-x,-y,z
1/2+x,1/2-y,-z
1/2-x,1/2+y,-z
loop_
_atom_site_type_symbol
_atom_site_label
_atom_site_fract_x
_atom_site_fract_y
_atom_site_fract_z
Si Si1 0.412667 0.313409 0.197042
Si Si2 0.642816 0.473482 0.573742
Si Si3 0.675238 0.170578 0.238297
Si Si4 0.689500 0.685496 0.946897
Si Si5 0.000000 0.000000 0.619149
Si Si6 0.272326 0.951930 0.753544
Si Si7 0.943804 0.756254 0.261693
Si Si8 0.927790 0.552403 0.762140
O O1 0.385544 0.359691 0.472264
O O2 0.455100 0.458025 0.176658
O O3 0.443926 0.140768 0.202678
O O4 0.369687 0.302082 0.977381
O O5 0.659033 0.356313 0.325784
O O6 0.691806 0.537519 0.722286
O O7 0.605465 0.368032 0.762691
O O8 0.702256 0.180891 0.955498
O O9 0.629823 0.049791 0.181484
O O10 0.710542 0.081159 0.453581
O O11 0.715520 0.604694 0.210362
O O12 0.715531 0.856205 0.842404
O O13 0.012003 0.148707 0.408325
O O14 0.934593 0.596896 0.453605
O O15 0.955795 0.680255 0.966781
#
# Coordination Sequence:
#
# PCOD8156394 Si02
#       8
#     4   4   4   4   2   4   4   4
#     4  11  26  48  80 109 159 207 265 331 411 477
#     4  10  25  43  77 108 152 204 266 316 397 464
#     4  11  24  47  75 112 155 204 260 320 386 468
#     4  12  28  46  76 115 156 220 264 334 395 477
#     4  10  26  56  78 120 154 204 268 336 410 486
#     4  12  28  45  75 111 162 206 268 326 388 477
#     4  10  25  47  82 113 151 202 257 328 393 477
#     4  11  23  47  80 113 152 204 255 316 398 471
#
# _framework density 27.572333
#
# number of rings (size 3 to 8) (size 9 to 14) (size 15 to 20)
#    0.000    1.067    1.333    3.200   13.067    1.067 
#    2.400    1.333    0.000    0.000    0.000    0.000 
#    0.000    0.000    0.000    0.000    0.000    0.000 
#
# Total GULP energy -371757.297619 kJ/mol
# GULP energy per Si atom -12391.909921 kJ/mol
# Density = 2.750958 g / cm^3
# Si number density = 27.572333 Si / 1000 Ang^3
#
#
#
# Elastic Constant Matrix: (Units=GPa)
#
#
# Indices 1 2 3 4 5 6 
#
# 1 99.0190 22.5054 -13.5428 0.0000 0.0000 0.0000
# 2 22.5054 120.1855 -6.6068 0.0000 0.0000 0.0000
# 3 -13.5428 -6.6068 35.6746 0.0000 0.0000 0.0000
# 4 0.0000 0.0000 0.0000 27.9610 0.0000 0.0000
# 5 0.0000 0.0000 0.0000 0.0000 39.0167 0.0000
# 6 0.0000 0.0000 0.0000 0.0000 0.0000 26.8056
#
#
#
# Elastic Compliance Matrix: (Units=1/GPa)
#
#
# Indices 1 2 3 4 5 6 
#
# 1 0.011048 -0.001857 0.003850 0.000000 0.000000 0.000000
# 2 -0.001857 0.008718 0.000910 0.000000 0.000000 0.000000
# 3 0.003850 0.000910 0.029661 0.000000 0.000000 0.000000
# 4 0.000000 0.000000 0.000000 0.035764 0.000000 0.000000
# 5 0.000000 0.000000 0.000000 0.000000 0.025630 0.000000
# 6 0.000000 0.000000 0.000000 0.000000 0.000000 0.037306
#
#
# Mechanical properties :
#
#
# Convention : Reuss Voigt Hill
#
# Bulk Modulus (GPa) = 18.10545 28.84343 23.47444
# Shear Modulus (GPa) = 31.10759 35.59156 33.34958
#
# Velocity S-wave (km/s) = 3.36254 3.59673 3.48160
# Velocity P-wave (km/s) = 4.65364 5.26615 4.96934
#
# Compressibility (1/GPa) = 0.05523199
#
# Stress axis : x y z
#
# Youngs Moduli (GPa) = 90.51641 114.70223 33.71420
#
# Poissons Ratio (x) = 0.21301 -0.12980
# Poissons Ratio (y) = 0.16810 -0.03067
# Poissons Ratio (z) = -0.34849 -0.10433
#
# Static dielectric constant tensor:
#      x y z
#    x 5.296000 0.000000 0.000000 
#    y 0.000000 4.920110 0.000000 
#    z 0.000000 0.000000 4.723060 
# 
# 
# High freq. dielectric constant tensor:
#      x y z
#    x 2.116960 0.000000 0.000000 
#    y 0.000000 2.118300 0.000000 
#    z 0.000000 0.000000 2.104990 
# 
# From -- ./inp_files/2288.got.cif
#   From: 2010.03.12/outbox.cif.g09.slc.cpg/sg18_2_cif.got.tgz:2288.got - 2010.04.10 18:53:55.
