data_PCOD8156535
_publ_section_title
;
Structure prediction by ZEFSAII (Michael W. Deem and Ramdas Pophale) SiO2 
 PCOD8156535
Probable space group: P 21 21 21
;
_chemical_formula_sum "Si O2"
_cell_formula_units_Z 32
_cell_length_a 17.660991
_cell_length_b 9.409829
_cell_length_c 11.507173
_cell_angle_alpha 90.000000
_cell_angle_beta 90.000000
_cell_angle_gamma 90.000000
_cell_volume 1912.341469
_symmetry_space_group_name_H-M "P 21 21 21"
_symmetry_group_IT_number 19
_symmetry_cell_setting 'orthorhombic'
loop_
_space_group_symop_operation_xyz
x,y,z
1/2-x,-y,1/2+z
1/2+x,1/2-y,-z
-x,1/2+y,1/2-z
loop_
_atom_site_type_symbol
_atom_site_label
_atom_site_fract_x
_atom_site_fract_y
_atom_site_fract_z
Si Si1 0.222821 0.260152 0.051434
Si Si2 0.880147 0.873553 0.639810
Si Si3 0.306639 0.026273 0.665513
Si Si4 0.164976 0.931601 0.416968
Si Si5 0.798423 0.374997 0.567655
Si Si6 0.445145 0.116651 0.115259
Si Si7 0.662109 0.838423 0.261989
Si Si8 0.143686 0.079630 0.759695
O O1 0.177132 0.133957 0.118608
O O2 0.268694 0.352842 0.146926
O O3 0.167448 0.365734 0.980244
O O4 0.279765 0.196121 0.955061
O O5 0.859121 0.747366 0.727679
O O6 0.966685 0.857904 0.601424
O O7 0.866357 0.010193 0.718955
O O8 0.353698 0.073997 0.778826
O O9 0.325598 0.143382 0.565962
O O10 0.216309 0.024160 0.687994
O O11 0.087141 0.917970 0.486973
O O12 0.209341 0.080883 0.435387
O O13 0.809356 0.236101 0.643936
O O14 0.849388 0.506511 0.614410
O O15 0.405710 0.252480 0.176140
O O16 0.430649 0.977192 0.193862
#
# Coordination Sequence:
#
# PCOD8156535 Si02
#       8
#     4   4   4   4   4   4   4   4
#     4  10  18  34  53  83 106 135 186 226 276 317
#     4  12  22  32  53  86 115 145 174 232 291 325
#     4  10  14  30  61  79  94 129 198 231 242 327
#     4   9  15  31  58  77  95 141 186 224 254 319
#     4   9  15  30  56  77  97 135 189 228 251 308
#     4  10  20  36  54  77 116 144 185 220 279 330
#     4  10  21  36  53  81 115 142 174 244 271 314
#     4  10  17  31  54  80 100 141 188 215 268 328
#
# _framework density 16.733412999999999
#
# number of rings (size 3 to 8) (size 9 to 14) (size 15 to 20)
#    0.000    2.000   10.000    0.750    0.000    1.000 
#    0.000    0.000    2.750    0.000    0.000    0.000 
#    0.000    0.000    0.000    0.000    0.000    0.000 
#
# Total GULP energy -396502.943333 kJ/mol
# GULP energy per Si atom -12390.716979 kJ/mol
# Density = 1.669533 g / cm^3
# Si number density = 16.733413 Si / 1000 Ang^3
#
#
#
# Elastic Constant Matrix: (Units=GPa)
#
#
# Indices 1 2 3 4 5 6 
#
# 1 73.2472 27.5431 33.8671 0.0000 0.0000 0.0000
# 2 27.5431 85.0680 39.1755 0.0000 0.0000 0.0000
# 3 33.8671 39.1755 138.1187 0.0000 0.0000 0.0000
# 4 0.0000 0.0000 0.0000 24.7029 0.0000 0.0000
# 5 0.0000 0.0000 0.0000 0.0000 20.5501 0.0000
# 6 0.0000 0.0000 0.0000 0.0000 0.0000 14.2948
#
#
#
# Elastic Compliance Matrix: (Units=1/GPa)
#
#
# Indices 1 2 3 4 5 6 
#
# 1 0.016504 -0.004003 -0.002911 0.000000 0.000000 0.000000
# 2 -0.004003 0.014492 -0.003129 0.000000 0.000000 0.000000
# 3 -0.002911 -0.003129 0.008842 0.000000 0.000000 0.000000
# 4 0.000000 0.000000 0.000000 0.040481 0.000000 0.000000
# 5 0.000000 0.000000 0.000000 0.000000 0.048661 0.000000
# 6 0.000000 0.000000 0.000000 0.000000 0.000000 0.069956
#
#
# Mechanical properties :
#
#
# Convention : Reuss Voigt Hill
#
# Bulk Modulus (GPa) = 50.63016 55.28947 52.95982
# Shear Modulus (GPa) = 22.16254 24.96611 23.56432
#
# Velocity S-wave (km/s) = 3.64325 3.86682 3.75670
# Velocity P-wave (km/s) = 6.92966 7.28351 7.10879
#
# Compressibility (1/GPa) = 0.01975107
#
# Stress axis : x y z
#
# Youngs Moduli (GPa) = 60.59249 69.00221 113.10227
#
# Poissons Ratio (x) = 0.27620 0.32929
# Poissons Ratio (y) = 0.24254 0.35390
# Poissons Ratio (z) = 0.17641 0.21591
#
# Static dielectric constant tensor:
#      x y z
#    x 2.854530 0.000000 0.000000 
#    y 0.000000 2.959800 0.000000 
#    z 0.000000 0.000000 3.446830 
# 
# 
# High freq. dielectric constant tensor:
#      x y z
#    x 1.608780 0.000000 0.000000 
#    y 0.000000 1.622260 0.000000 
#    z 0.000000 0.000000 1.661740 
# 
# From -- ./inp_files/5395.got.cif
#   From: 2010.03.12/outbox.cif.g09.slc.cpg/sg19_3_cif.got.tgz:5395.got - 2010.04.10 18:59:41.
