data_PCOD8156672
_publ_section_title
;
Structure prediction by ZEFSAII (Michael W. Deem and Ramdas Pophale) SiO2 
 PCOD8156672
Probable space group: P 21 21 21
;
_chemical_formula_sum "Si O2"
_cell_formula_units_Z 28
_cell_length_a 21.409636
_cell_length_b 5.092663
_cell_length_c 12.239244
_cell_angle_alpha 90.000000
_cell_angle_beta 90.000000
_cell_angle_gamma 90.000000
_cell_volume 1334.470000
_symmetry_space_group_name_H-M "P 21 21 21"
_symmetry_group_IT_number 19
_symmetry_cell_setting 'orthorhombic'
loop_
_space_group_symop_operation_xyz
x,y,z
1/2-x,-y,1/2+z
1/2+x,1/2-y,-z
-x,1/2+y,1/2-z
loop_
_atom_site_type_symbol
_atom_site_label
_atom_site_fract_x
_atom_site_fract_y
_atom_site_fract_z
Si Si1 0.152900 0.783297 0.066250
Si Si2 0.226778 0.267383 0.430137
Si Si3 0.425810 0.719506 0.525072
Si Si4 0.437365 0.254805 0.944393
Si Si5 0.539635 0.297244 0.224692
Si Si6 0.681460 0.734525 0.690719
Si Si7 0.891264 0.747324 0.933006
O O1 0.202884 0.773015 0.968993
O O2 0.099646 0.571700 0.043084
O O3 0.123178 0.071775 0.072029
O O4 0.187646 0.726713 0.180227
O O5 0.221953 0.547955 0.371749
O O6 0.181711 0.255586 0.536067
O O7 0.207908 0.047868 0.342685
O O8 0.490423 0.746025 0.593113
O O9 0.437387 0.768286 0.397966
O O10 0.392000 0.260880 0.839626
O O11 0.427982 0.506723 0.019278
O O12 0.424235 0.006624 0.019068
O O13 0.513302 0.588210 0.243823
O O14 0.600413 0.256303 0.302217
#
# Coordination Sequence:
#
# PCOD8156672 Si02
#       7
#     4   4   4   4   4   4   4
#     4  12  26  42  62  96 129 160 210 272 309 363
#     4  10  23  42  65  86 121 168 217 253 306 388
#     4  12  24  38  62  96 134 164 204 268 318 370
#     4  10  20  38  63  89 123 164 209 247 315 383
#     4  12  21  37  62  94 128 161 200 260 316 370
#     4  10  23  44  67  88 122 169 209 261 312 378
#     4  10  19  37  61  89 119 170 209 251 308 372
#
# _framework density 20.982111
#
# number of rings (size 3 to 8) (size 9 to 14) (size 15 to 20)
#    0.000    1.143    2.857    3.429    0.000    3.429 
#    0.000    2.857    0.000    0.000    0.000    0.000 
#    0.000    0.000    0.000    0.000    0.000    0.000 
#
# Total GULP energy -347341.135870 kJ/mol
# GULP energy per Si atom -12405.040567 kJ/mol
# Density = 2.093436 g / cm^3
# Si number density = 20.982111 Si / 1000 Ang^3
#
#
#
# Elastic Constant Matrix: (Units=GPa)
#
#
# Indices 1 2 3 4 5 6 
#
# 1 91.5476 16.2105 9.7642 0.0000 0.0000 0.0000
# 2 16.2105 101.9265 4.0992 0.0000 0.0000 0.0000
# 3 9.7642 4.0992 80.7273 0.0000 0.0000 0.0000
# 4 0.0000 0.0000 0.0000 16.8553 0.0000 0.0000
# 5 0.0000 0.0000 0.0000 0.0000 25.4965 0.0000
# 6 0.0000 0.0000 0.0000 0.0000 0.0000 22.8175
#
#
#
# Elastic Compliance Matrix: (Units=1/GPa)
#
#
# Indices 1 2 3 4 5 6 
#
# 1 0.011372 -0.001757 -0.001286 0.000000 0.000000 0.000000
# 2 -0.001757 0.010102 -0.000301 0.000000 0.000000 0.000000
# 3 -0.001286 -0.000301 0.012558 0.000000 0.000000 0.000000
# 4 0.000000 0.000000 0.000000 0.059329 0.000000 0.000000
# 5 0.000000 0.000000 0.000000 0.000000 0.039221 0.000000
# 6 0.000000 0.000000 0.000000 0.000000 0.000000 0.043826
#
#
# Mechanical properties :
#
#
# Convention : Reuss Voigt Hill
#
# Bulk Modulus (GPa) = 36.56951 37.14993 36.85972
# Shear Modulus (GPa) = 26.01321 29.30902 27.66111
#
# Velocity S-wave (km/s) = 3.52487 3.74151 3.63481
# Velocity P-wave (km/s) = 5.83378 6.03400 5.93474
#
# Compressibility (1/GPa) = 0.02734518
#
# Stress axis : x y z
#
# Youngs Moduli (GPa) = 87.93884 98.98559 79.62916
#
# Poissons Ratio (x) = 0.17390 0.10242
# Poissons Ratio (y) = 0.15449 0.02393
# Poissons Ratio (z) = 0.11311 0.02975
#
# Static dielectric constant tensor:
#      x y z
#    x 3.823790 0.000000 0.000000 
#    y 0.000000 3.995400 0.000000 
#    z 0.000000 0.000000 3.697770 
# 
# 
# High freq. dielectric constant tensor:
#      x y z
#    x 1.817340 0.000000 0.000000 
#    y 0.000000 1.844070 0.000000 
#    z 0.000000 0.000000 1.813560 
# 
# From -- ./inp_files/5342.got.cif
#   From: 2010.03.12/outbox.cif.g09.slc.cpg/sg19_3_cif.got.tgz:5342.got - 2010.04.10 18:59:41.
