data_PCOD8156322
_publ_section_title
;
Structure prediction by ZEFSAII (Michael W. Deem and Ramdas Pophale) SiO2 
 PCOD8156322
Probable space group: P 21 21 2
;
_chemical_formula_sum "Si O2"
_cell_formula_units_Z 32
_cell_length_a 7.597768
_cell_length_b 11.958339
_cell_length_c 15.811123
_cell_angle_alpha 90.000000
_cell_angle_beta 90.000000
_cell_angle_gamma 90.000000
_cell_volume 1436.546228
_symmetry_space_group_name_H-M "P 21 21 2"
_symmetry_group_IT_number 18
_symmetry_cell_setting 'orthorhombic'
loop_
_space_group_symop_operation_xyz
x,y,z
-x,-y,z
1/2+x,1/2-y,-z
1/2-x,1/2+y,-z
loop_
_atom_site_type_symbol
_atom_site_label
_atom_site_fract_x
_atom_site_fract_y
_atom_site_fract_z
Si Si1 0.336333 0.441060 0.543156
Si Si2 0.717873 0.121927 0.181859
Si Si3 0.128572 0.720552 0.895894
Si Si4 0.012996 0.125928 0.043275
Si Si5 0.762455 0.702891 0.272479
Si Si6 0.343112 0.241566 0.664464
Si Si7 0.197000 0.499773 0.374831
Si Si8 0.177560 0.556682 0.691258
O O1 0.500000 0.500000 0.494273
O O2 0.356153 0.315133 0.578174
O O3 0.188108 0.451275 0.470863
O O4 0.321167 0.525310 0.622222
O O5 0.527787 0.141907 0.139696
O O6 0.882046 0.147007 0.121804
O O7 0.723444 0.199549 0.265135
O O8 0.729543 0.993201 0.215839
O O9 0.283749 0.644009 0.932783
O O10 0.219156 0.803653 0.827333
O O11 0.041618 0.793602 0.968361
O O12 0.000000 0.000000 0.010111
O O13 0.694168 0.588743 0.316762
O O14 0.654931 0.810552 0.305744
O O15 0.966841 0.722667 0.293612
O O16 0.240425 0.127917 0.637122
O O17 0.000000 0.500000 0.339795
O O18 0.000000 0.500000 0.657905
#
# Coordination Sequence:
#
# PCOD8156322 Si02
#       8
#     4   4   4   4   4   4   4   4
#     4  11  23  39  65  96 135 178 237 299 349 408
#     4  11  24  42  73 104 138 185 236 294 357 427
#     4  12  25  48  70 108 143 185 235 289 362 438
#     4  12  27  45  74 106 144 181 234 302 356 425
#     4  11  22  43  68  96 142 182 231 291 355 427
#     4  10  23  43  67  99 139 187 241 290 355 426
#     4  10  25  43  64  97 141 191 229 291 357 425
#     4  11  22  39  68 102 128 176 234 290 351 416
#
# _framework density 22.275649000000001
#
# number of rings (size 3 to 8) (size 9 to 14) (size 15 to 20)
#    0.000    1.000    5.000    1.125    1.750    2.000 
#    0.000    0.000    0.000    0.000    0.000    0.000 
#    0.000    0.000    0.000    0.000    0.000    0.000 
#
# Total GULP energy -396614.884721 kJ/mol
# GULP energy per Si atom -12394.215148 kJ/mol
# Density = 2.222495 g / cm^3
# Si number density = 22.275649 Si / 1000 Ang^3
#
#
#
# Elastic Constant Matrix: (Units=GPa)
#
#
# Indices 1 2 3 4 5 6 
#
# 1 93.9498 27.7469 13.3024 0.0000 0.0000 0.0000
# 2 27.7469 159.7751 34.4144 0.0000 0.0000 0.0000
# 3 13.3024 34.4144 73.1126 0.0000 0.0000 0.0000
# 4 0.0000 0.0000 0.0000 23.0518 0.0000 0.0000
# 5 0.0000 0.0000 0.0000 0.0000 32.8672 0.0000
# 6 0.0000 0.0000 0.0000 0.0000 0.0000 25.4094
#
#
#
# Elastic Compliance Matrix: (Units=1/GPa)
#
#
# Indices 1 2 3 4 5 6 
#
# 1 0.011323 -0.001694 -0.001263 0.000000 0.000000 0.000000
# 2 -0.001694 0.007219 -0.003089 0.000000 0.000000 0.000000
# 3 -0.001263 -0.003089 0.015361 0.000000 0.000000 0.000000
# 4 0.000000 0.000000 0.000000 0.043381 0.000000 0.000000
# 5 0.000000 0.000000 0.000000 0.000000 0.030425 0.000000
# 6 0.000000 0.000000 0.000000 0.000000 0.000000 0.039355
#
#
# Mechanical properties :
#
#
# Convention : Reuss Voigt Hill
#
# Bulk Modulus (GPa) = 45.85030 53.08498 49.46764
# Shear Modulus (GPa) = 30.04305 33.02394 31.53350
#
# Velocity S-wave (km/s) = 3.67644 3.85452 3.76653
# Velocity P-wave (km/s) = 6.21687 6.61003 6.41646
#
# Compressibility (1/GPa) = 0.02181011
#
# Stress axis : x y z
#
# Youngs Moduli (GPa) = 88.31438 138.53267 65.09784
#
# Poissons Ratio (x) = 0.23474 0.08219
# Poissons Ratio (y) = 0.14964 0.20112
# Poissons Ratio (z) = 0.11151 0.42799
#
# Static dielectric constant tensor:
#      x y z
#    x 4.034220 0.000000 0.000000 
#    y 0.000000 4.382400 0.000000 
#    z 0.000000 0.000000 3.987750 
# 
# 
# High freq. dielectric constant tensor:
#      x y z
#    x 1.884990 0.000000 0.000000 
#    y 0.000000 1.879560 0.000000 
#    z 0.000000 0.000000 1.873840 
# 
# From -- ./inp_files/6788.got.cif
#   From: 2010.03.12/outbox.cif.g09.slc.cpg/sg18_4_cif.got.tgz:6788.got - 2010.04.10 18:53:55.
