data_PCOD8156233
_publ_section_title
;
Structure prediction by ZEFSAII (Michael W. Deem and Ramdas Pophale) SiO2 
 PCOD8156233
Probable space group: P 21 21 2
;
_chemical_formula_sum "Si O2"
_cell_formula_units_Z 30
_cell_length_a 15.291009
_cell_length_b 8.738619
_cell_length_c 11.524775
_cell_angle_alpha 90.000000
_cell_angle_beta 90.000000
_cell_angle_gamma 90.000000
_cell_volume 1539.966963
_symmetry_space_group_name_H-M "P 21 21 2"
_symmetry_group_IT_number 18
_symmetry_cell_setting 'orthorhombic'
loop_
_space_group_symop_operation_xyz
x,y,z
-x,-y,z
1/2+x,1/2-y,-z
1/2-x,1/2+y,-z
loop_
_atom_site_type_symbol
_atom_site_label
_atom_site_fract_x
_atom_site_fract_y
_atom_site_fract_z
Si Si1 0.903477 0.442526 0.565653
Si Si2 0.212203 0.571612 0.342848
Si Si3 0.624528 0.255868 0.040490
Si Si4 0.296061 0.660087 0.820147
Si Si5 0.592317 0.071084 0.829437
Si Si6 0.715022 0.127763 0.267405
Si Si7 0.355014 0.339738 0.294917
Si Si8 0.000000 0.000000 0.858187
O O1 0.853778 0.464069 0.445586
O O2 0.862564 0.547531 0.664649
O O3 0.900956 0.266933 0.608598
O O4 0.000000 0.500000 0.542424
O O5 0.166219 0.545487 0.217065
O O6 0.241214 0.747102 0.349837
O O7 0.296332 0.464499 0.361178
O O8 0.672163 0.208321 0.156943
O O9 0.541545 0.365816 0.063174
O O10 0.693606 0.349775 0.960116
O O11 0.594378 0.101862 0.969033
O O12 0.379275 0.762253 0.771720
O O13 0.292649 0.490489 0.766700
O O14 0.204260 0.741130 0.792418
O O15 0.500000 0.000000 0.790383
O O16 0.427004 0.426303 0.221684
#
# Coordination Sequence:
#
# PCOD8156233 Si02
#       8
#     4   4   4   4   4   4   4   2
#     4  11  24  42  65  93 126 163 217 274 322 379
#     4  11  22  42  69  89 127 172 216 262 323 394
#     4  10  23  36  60  94 128 166 206 267 314 390
#     4   8  22  38  59  91 130 166 210 250 314 392
#     4   9  21  39  60  93 132 167 208 258 321 379
#     4  11  22  40  66  92 124 171 216 261 324 374
#     4  10  22  42  63  92 129 165 214 267 312 385
#     4  12  22  38  62  96 132 162 214 266 318 370
#
# _framework density 19.480936
#
# number of rings (size 3 to 8) (size 9 to 14) (size 15 to 20)
#    0.800    1.067    1.333    2.000    3.733    3.733 
#    0.000    0.000    2.933    0.000    0.000    0.000 
#    0.000    0.000    0.000    0.000    0.000    0.000 
#
# Total GULP energy -371747.691551 kJ/mol
# GULP energy per Si atom -12391.589718 kJ/mol
# Density = 1.943660 g / cm^3
# Si number density = 19.480936 Si / 1000 Ang^3
#
#
#
# Elastic Constant Matrix: (Units=GPa)
#
#
# Indices 1 2 3 4 5 6 
#
# 1 114.6934 56.8944 43.0433 0.0000 0.0000 0.0000
# 2 56.8944 108.1731 35.7320 0.0000 0.0000 0.0000
# 3 43.0433 35.7320 85.5461 0.0000 0.0000 0.0000
# 4 0.0000 0.0000 0.0000 23.2940 0.0000 0.0000
# 5 0.0000 0.0000 0.0000 0.0000 32.9046 0.0000
# 6 0.0000 0.0000 0.0000 0.0000 0.0000 34.5656
#
#
#
# Elastic Compliance Matrix: (Units=1/GPa)
#
#
# Indices 1 2 3 4 5 6 
#
# 1 0.013022 -0.005434 -0.004282 0.000000 0.000000 0.000000
# 2 -0.005434 0.012992 -0.002692 0.000000 0.000000 0.000000
# 3 -0.004282 -0.002692 0.014969 0.000000 0.000000 0.000000
# 4 0.000000 0.000000 0.000000 0.042930 0.000000 0.000000
# 5 0.000000 0.000000 0.000000 0.000000 0.030391 0.000000
# 6 0.000000 0.000000 0.000000 0.000000 0.000000 0.028930
#
#
# Mechanical properties :
#
#
# Convention : Reuss Voigt Hill
#
# Bulk Modulus (GPa) = 61.86248 64.41690 63.13969
# Shear Modulus (GPa) = 28.82853 29.66901 29.24877
#
# Velocity S-wave (km/s) = 3.85103 3.90677 3.87900
# Velocity P-wave (km/s) = 7.18319 7.31361 7.24869
#
# Compressibility (1/GPa) = 0.01616489
#
# Stress axis : x y z
#
# Youngs Moduli (GPa) = 76.79505 76.97027 66.80587
#
# Poissons Ratio (x) = 0.41829 0.28607
# Poissons Ratio (y) = 0.41733 0.17986
# Poissons Ratio (z) = 0.32884 0.20723
#
# Static dielectric constant tensor:
#      x y z
#    x 3.501380 0.000000 0.000000 
#    y 0.000000 3.783890 0.000000 
#    z 0.000000 0.000000 3.426500 
# 
# 
# High freq. dielectric constant tensor:
#      x y z
#    x 1.752880 0.000000 0.000000 
#    y 0.000000 1.765760 0.000000 
#    z 0.000000 0.000000 1.749680 
# 
# From -- ./inp_files/6097.got.cif
#   From: 2010.03.12/outbox.cif.g09.slc.cpg/sg18_4_cif.got.tgz:6097.got - 2010.04.10 18:53:55.
