data_PCOD8156162
_publ_section_title
;
Structure prediction by ZEFSAII (Michael W. Deem and Ramdas Pophale) SiO2 
 PCOD8156162
Probable space group: P 21 21 2
;
_chemical_formula_sum "Si O2"
_cell_formula_units_Z 32
_cell_length_a 8.561737
_cell_length_b 11.888621
_cell_length_c 14.647252
_cell_angle_alpha 90.000000
_cell_angle_beta 90.000000
_cell_angle_gamma 90.000000
_cell_volume 1490.903447
_symmetry_space_group_name_H-M "P 21 21 2"
_symmetry_group_IT_number 18
_symmetry_cell_setting 'orthorhombic'
loop_
_space_group_symop_operation_xyz
x,y,z
-x,-y,z
1/2+x,1/2-y,-z
1/2-x,1/2+y,-z
loop_
_atom_site_type_symbol
_atom_site_label
_atom_site_fract_x
_atom_site_fract_y
_atom_site_fract_z
Si Si1 0.661590 0.162578 0.726294
Si Si2 0.194305 0.602727 0.766945
Si Si3 0.685502 0.805870 0.687661
Si Si4 0.682685 0.509609 0.417246
Si Si5 0.167456 0.947118 0.374821
Si Si6 0.918236 0.727664 0.833876
Si Si7 0.177079 0.470001 0.944063
Si Si8 0.366845 0.419260 0.119127
O O1 0.695177 0.294408 0.738583
O O2 0.477045 0.145650 0.724659
O O3 0.725363 0.088814 0.810048
O O4 0.744412 0.116370 0.635128
O O5 0.209211 0.503008 0.693949
O O6 0.239975 0.557043 0.867899
O O7 0.012997 0.640936 0.768544
O O8 0.742789 0.891410 0.610870
O O9 0.662911 0.685822 0.640707
O O10 0.805811 0.804174 0.772263
O O11 0.500000 0.500000 0.397756
O O12 0.721281 0.528015 0.522903
O O13 0.000000 0.000000 0.353037
O O14 0.816311 0.657152 0.905410
O O15 0.047704 0.798555 0.890495
O O16 0.000000 0.500000 0.974757
O O17 0.299223 0.472007 0.026538
O O18 0.500000 0.500000 0.159169
#
# Coordination Sequence:
#
# PCOD8156162 Si02
#       8
#     4   4   4   4   4   4   4   4
#     4  11  24  45  70  97 138 181 231 287 344 411
#     4  10  21  45  69  98 135 177 225 284 348 406
#     4  12  24  43  71 102 136 185 233 281 352 411
#     4  11  26  45  65 100 144 181 234 283 348 421
#     4  11  24  43  71 105 137 177 231 294 343 410
#     4  10  23  42  66  96 136 177 223 278 350 407
#     4  10  23  42  65 101 131 173 230 282 338 417
#     4  11  25  42  66  94 134 181 223 281 349 408
#
# _framework density 21.463495999999999
#
# number of rings (size 3 to 8) (size 9 to 14) (size 15 to 20)
#    0.000    1.250    2.500    3.000    1.750    7.500 
#    4.500    0.000    0.000    0.000    0.000    0.000 
#    0.000    0.000    0.000    0.000    0.000    0.000 
#
# Total GULP energy -396889.218771 kJ/mol
# GULP energy per Si atom -12402.788087 kJ/mol
# Density = 2.141464 g / cm^3
# Si number density = 21.463496 Si / 1000 Ang^3
#
#
#
# Elastic Constant Matrix: (Units=GPa)
#
#
# Indices 1 2 3 4 5 6 
#
# 1 122.9716 52.5414 70.5908 0.0000 0.0000 0.0000
# 2 52.5414 125.5780 57.4165 0.0000 0.0000 0.0000
# 3 70.5908 57.4165 125.0190 0.0000 0.0000 0.0000
# 4 0.0000 0.0000 0.0000 39.8656 0.0000 0.0000
# 5 0.0000 0.0000 0.0000 0.0000 29.0722 0.0000
# 6 0.0000 0.0000 0.0000 0.0000 0.0000 40.0786
#
#
#
# Elastic Compliance Matrix: (Units=1/GPa)
#
#
# Indices 1 2 3 4 5 6 
#
# 1 0.012653 -0.002566 -0.005966 0.000000 0.000000 0.000000
# 2 -0.002566 0.010600 -0.003419 0.000000 0.000000 0.000000
# 3 -0.005966 -0.003419 0.012938 0.000000 0.000000 0.000000
# 4 0.000000 0.000000 0.000000 0.025084 0.000000 0.000000
# 5 0.000000 0.000000 0.000000 0.000000 0.034397 0.000000
# 6 0.000000 0.000000 0.000000 0.000000 0.000000 0.024951
#
#
# Mechanical properties :
#
#
# Convention : Reuss Voigt Hill
#
# Bulk Modulus (GPa) = 81.37881 81.62954 81.50417
# Shear Modulus (GPa) = 33.64233 34.67127 34.15680
#
# Velocity S-wave (km/s) = 3.96336 4.02351 3.99355
# Velocity P-wave (km/s) = 7.67734 7.72653 7.70198
#
# Compressibility (1/GPa) = 0.01228821
#
# Stress axis : x y z
#
# Youngs Moduli (GPa) = 79.03201 94.33732 77.29369
#
# Poissons Ratio (x) = 0.24210 0.46112
# Poissons Ratio (y) = 0.20282 0.26429
# Poissons Ratio (z) = 0.47149 0.32256
#
# Static dielectric constant tensor:
#      x y z
#    x 3.858470 0.000000 0.000000 
#    y 0.000000 4.124860 0.000000 
#    z 0.000000 0.000000 3.703430 
# 
# 
# High freq. dielectric constant tensor:
#      x y z
#    x 1.847130 0.000000 0.000000 
#    y 0.000000 1.862250 0.000000 
#    z 0.000000 0.000000 1.831490 
# 
# From -- ./inp_files/6806.got.cif
#   From: 2010.03.12/outbox.cif.g09.slc.cpg/sg18_4_cif.got.tgz:6806.got - 2010.04.10 18:53:55.
