data_PCOD8156915
_publ_section_title
;
Structure prediction by ZEFSAII (Michael W. Deem and Ramdas Pophale) SiO2 
 PCOD8156915
Probable space group: P 21 21 21
;
_chemical_formula_sum "Si O2"
_cell_formula_units_Z 20
_cell_length_a 10.998756
_cell_length_b 8.245627
_cell_length_c 9.019549
_cell_angle_alpha 90.000000
_cell_angle_beta 90.000000
_cell_angle_gamma 90.000000
_cell_volume 817.997686
_symmetry_space_group_name_H-M "P 21 21 21"
_symmetry_group_IT_number 19
_symmetry_cell_setting 'orthorhombic'
loop_
_space_group_symop_operation_xyz
x,y,z
1/2-x,-y,1/2+z
1/2+x,1/2-y,-z
-x,1/2+y,1/2-z
loop_
_atom_site_type_symbol
_atom_site_label
_atom_site_fract_x
_atom_site_fract_y
_atom_site_fract_z
Si Si1 0.044231 0.869521 0.229158
Si Si2 0.244090 0.671658 0.080096
Si Si3 0.133311 0.177077 0.103903
Si Si4 0.133415 0.994845 0.538950
Si Si5 0.124578 0.430666 0.864098
O O1 0.115482 0.719891 0.154586
O O2 0.907919 0.811173 0.272962
O O3 0.040765 0.023092 0.117748
O O4 0.115551 0.918062 0.378025
O O5 0.313079 0.826591 0.013852
O O6 0.332277 0.583754 0.196481
O O7 0.218549 0.545169 0.950511
O O8 0.270630 0.115732 0.131229
O O9 0.120379 0.252640 0.940319
O O10 0.010844 0.005336 0.634935
#
# Coordination Sequence:
#
# PCOD8156915 Si02
#       5
#     4   4   4   4   4
#     4  10  20  42  70 101 133 191 231 296 360 425
#     4  11  25  47  68 107 140 191 244 291 367 432
#     4  10  21  41  70  98 142 176 244 289 354 434
#     4  10  23  45  69 102 146 187 240 299 362 424
#     4  11  25  47  71 106 145 191 241 303 363 427
#
# _framework density 24.449947999999999
#
# number of rings (size 3 to 8) (size 9 to 14) (size 15 to 20)
#    0.000    1.600    2.000    2.400    2.800    1.600 
#   10.800    0.000    0.000    0.000    0.000    0.000 
#    0.000    0.000    0.000    0.000    0.000    0.000 
#
# Total GULP energy -248043.156739 kJ/mol
# GULP energy per Si atom -12402.157837 kJ/mol
# Density = 2.439430 g / cm^3
# Si number density = 24.449948 Si / 1000 Ang^3
#
#
#
# Elastic Constant Matrix: (Units=GPa)
#
#
# Indices 1 2 3 4 5 6 
#
# 1 99.0704 48.4320 33.8724 0.0000 0.0000 0.0000
# 2 48.4320 126.8257 42.6260 0.0000 0.0000 0.0000
# 3 33.8724 42.6260 52.0601 0.0000 0.0000 0.0000
# 4 0.0000 0.0000 0.0000 35.0213 0.0000 0.0000
# 5 0.0000 0.0000 0.0000 0.0000 36.8271 0.0000
# 6 0.0000 0.0000 0.0000 0.0000 0.0000 34.6717
#
#
#
# Elastic Compliance Matrix: (Units=1/GPa)
#
#
# Indices 1 2 3 4 5 6 
#
# 1 0.013818 -0.003111 -0.006443 0.000000 0.000000 0.000000
# 2 -0.003111 0.011579 -0.007456 0.000000 0.000000 0.000000
# 3 -0.006443 -0.007456 0.029506 0.000000 0.000000 0.000000
# 4 0.000000 0.000000 0.000000 0.028554 0.000000 0.000000
# 5 0.000000 0.000000 0.000000 0.000000 0.027154 0.000000
# 6 0.000000 0.000000 0.000000 0.000000 0.000000 0.028842
#
#
# Mechanical properties :
#
#
# Convention : Reuss Voigt Hill
#
# Bulk Modulus (GPa) = 47.88961 58.64633 53.26797
# Shear Modulus (GPa) = 27.71095 31.50574 29.60834
#
# Velocity S-wave (km/s) = 3.37021 3.59358 3.48369
# Velocity P-wave (km/s) = 5.89693 6.42314 6.16565
#
# Compressibility (1/GPa) = 0.02088136
#
# Stress axis : x y z
#
# Youngs Moduli (GPa) = 72.37133 86.36284 33.89156
#
# Poissons Ratio (x) = 0.26869 0.21836
# Poissons Ratio (y) = 0.22516 0.25271
# Poissons Ratio (z) = 0.46628 0.64396
#
# Static dielectric constant tensor:
#      x y z
#    x 4.452980 0.000000 0.000000 
#    y 0.000000 4.678730 0.000000 
#    z 0.000000 0.000000 4.066580 
# 
# 
# High freq. dielectric constant tensor:
#      x y z
#    x 1.972140 0.000000 0.000000 
#    y 0.000000 1.984820 0.000000 
#    z 0.000000 0.000000 1.951820 
# 
# From -- ./inp_files/2637.got.cif
#   From: 2010.03.12/outbox.cif.g09.slc.cpg/sg19_2_cif.got.tgz:2637.got - 2010.04.10 18:59:41.
