data_PCOD8156289
_publ_section_title
;
Structure prediction by ZEFSAII (Michael W. Deem and Ramdas Pophale) SiO2 
 PCOD8156289
Probable space group: P 21 21 2
;
_chemical_formula_sum "Si O2"
_cell_formula_units_Z 16
_cell_length_a 22.667687
_cell_length_b 4.973776
_cell_length_c 5.220774
_cell_angle_alpha 90.000000
_cell_angle_beta 90.000000
_cell_angle_gamma 90.000000
_cell_volume 588.610931
_symmetry_space_group_name_H-M "P 21 21 2"
_symmetry_group_IT_number 18
_symmetry_cell_setting 'orthorhombic'
loop_
_space_group_symop_operation_xyz
x,y,z
-x,-y,z
1/2+x,1/2-y,-z
1/2-x,1/2+y,-z
loop_
_atom_site_type_symbol
_atom_site_label
_atom_site_fract_x
_atom_site_fract_y
_atom_site_fract_z
Si Si1 0.039383 0.760367 0.096469
Si Si2 0.119660 0.073684 0.777357
Si Si3 0.255840 0.373756 0.164324
Si Si4 0.868476 0.592482 0.302436
O O1 0.000000 0.500000 0.039886
O O2 0.067205 0.860915 0.826817
O O3 0.095107 0.687920 0.281132
O O4 0.000000 0.000000 0.219116
O O5 0.101411 0.250820 0.535163
O O6 0.180728 0.921747 0.706522
O O7 0.125521 0.253872 0.032407
O O8 0.201626 0.454689 0.355352
O O9 0.249002 0.562191 0.913223
#
# Coordination Sequence:
#
# PCOD8156289 Si02
#       4
#     4   4   4   4
#     4  12  26  56  78 120 162 220 274 332 392 482
#     4  11  26  51  80 118 161 209 266 334 406 478
#     4  10  22  46  78 118 164 202 258 334 408 484
#     4  11  26  51  80 118 161 209 266 334 406 478
#
# _framework density 27.182641
#
# number of rings (size 3 to 8) (size 9 to 14) (size 15 to 20)
#    0.000    1.000    5.000    0.000    0.000   10.000 
#    9.000    0.000    0.000    0.000    0.000    0.000 
#    0.000    0.000    0.000    0.000    0.000    0.000 
#
# Total GULP energy -198391.275402 kJ/mol
# GULP energy per Si atom -12399.454713 kJ/mol
# Density = 2.712077 g / cm^3
# Si number density = 27.182641 Si / 1000 Ang^3
#
#
#
# Elastic Constant Matrix: (Units=GPa)
#
#
# Indices 1 2 3 4 5 6 
#
# 1 157.8848 34.4484 -1.1316 0.0000 0.0000 0.0000
# 2 34.4484 111.3454 11.8560 0.0000 0.0000 0.0000
# 3 -1.1316 11.8560 87.7055 0.0000 0.0000 0.0000
# 4 0.0000 0.0000 0.0000 39.2379 0.0000 0.0000
# 5 0.0000 0.0000 0.0000 0.0000 14.1699 0.0000
# 6 0.0000 0.0000 0.0000 0.0000 0.0000 54.1239
#
#
#
# Elastic Compliance Matrix: (Units=1/GPa)
#
#
# Indices 1 2 3 4 5 6 
#
# 1 0.006805 -0.002145 0.000378 0.000000 0.000000 0.000000
# 2 -0.002145 0.009789 -0.001351 0.000000 0.000000 0.000000
# 3 0.000378 -0.001351 0.011589 0.000000 0.000000 0.000000
# 4 0.000000 0.000000 0.000000 0.025486 0.000000 0.000000
# 5 0.000000 0.000000 0.000000 0.000000 0.070572 0.000000
# 6 0.000000 0.000000 0.000000 0.000000 0.000000 0.018476
#
#
# Mechanical properties :
#
#
# Convention : Reuss Voigt Hill
#
# Bulk Modulus (GPa) = 45.56758 49.69792 47.63275
# Shear Modulus (GPa) = 31.99619 42.29052 37.14336
#
# Velocity S-wave (km/s) = 3.43458 3.94863 3.70054
# Velocity P-wave (km/s) = 5.70336 6.25392 5.98498
#
# Compressibility (1/GPa) = 0.02194543
#
# Stress axis : x y z
#
# Youngs Moduli (GPa) = 146.96046 102.15887 86.28660
#
# Poissons Ratio (x) = 0.21918 -0.03260
# Poissons Ratio (y) = 0.31530 0.11657
# Poissons Ratio (z) = -0.05552 0.13801
#
# Static dielectric constant tensor:
#      x y z
#    x 5.952520 0.000000 0.000000 
#    y 0.000000 5.107040 0.000000 
#    z 0.000000 0.000000 4.238190 
# 
# 
# High freq. dielectric constant tensor:
#      x y z
#    x 2.119190 0.000000 0.000000 
#    y 0.000000 2.104270 0.000000 
#    z 0.000000 0.000000 2.056740 
# 
# From -- ./inp_files/2151.got.cif
#   From: 2010.03.12/outbox.cif.g09.slc.cpg/sg18_2_cif.got.tgz:2151.got - 2010.04.10 18:53:55.
