data_PCOD8156919
_publ_section_title
;
Structure prediction by ZEFSAII (Michael W. Deem and Ramdas Pophale) SiO2 
 PCOD8156919
Probable space group: P 21 21 21
;
_chemical_formula_sum "Si O2"
_cell_formula_units_Z 32
_cell_length_a 13.989570
_cell_length_b 9.165402
_cell_length_c 12.560810
_cell_angle_alpha 90.000000
_cell_angle_beta 90.000000
_cell_angle_gamma 90.000000
_cell_volume 1610.547471
_symmetry_space_group_name_H-M "P 21 21 21"
_symmetry_group_IT_number 19
_symmetry_cell_setting 'orthorhombic'
loop_
_space_group_symop_operation_xyz
x,y,z
1/2-x,-y,1/2+z
1/2+x,1/2-y,-z
-x,1/2+y,1/2-z
loop_
_atom_site_type_symbol
_atom_site_label
_atom_site_fract_x
_atom_site_fract_y
_atom_site_fract_z
Si Si1 0.549670 0.792870 0.942786
Si Si2 0.178281 0.417975 0.564369
Si Si3 0.769022 0.359503 0.370866
Si Si4 0.506395 0.674083 0.167210
Si Si5 0.430268 0.554607 0.871999
Si Si6 0.117307 0.115244 0.048318
Si Si7 0.367824 0.563673 0.634498
Si Si8 0.612426 0.398261 0.202116
O O1 0.631178 0.727340 0.863786
O O2 0.451983 0.727312 0.894240
O O3 0.559600 0.968430 0.939022
O O4 0.560177 0.745830 0.065813
O O5 0.202487 0.244231 0.555587
O O6 0.080265 0.431082 0.630375
O O7 0.160906 0.483443 0.446327
O O8 0.258766 0.513160 0.621487
O O9 0.789386 0.518202 0.421816
O O10 0.716236 0.374860 0.256568
O O11 0.582686 0.566546 0.222784
O O12 0.469481 0.795803 0.248037
O O13 0.521718 0.461393 0.909123
O O14 0.401413 0.527101 0.752721
O O15 0.123841 0.268522 0.107103
O O16 0.118013 0.138916 0.922269
#
# Coordination Sequence:
#
# PCOD8156919 Si02
#       8
#     4   4   4   4   4   4   4   4
#     4   9  19  42  60  83 129 165 202 247 323 381
#     4   9  20  40  58  87 123 166 210 246 322 376
#     4   9  20  39  61  87 120 167 197 253 318 365
#     4  10  21  40  65  86 125 170 203 265 311 376
#     4  10  20  43  64  82 126 173 200 259 318 375
#     4  11  23  42  61  98 131 150 218 269 298 377
#     4  11  23  35  64  96 119 165 211 258 313 376
#     4  11  22  39  67  91 123 164 213 259 315 368
#
# _framework density 19.869019999999999
#
# number of rings (size 3 to 8) (size 9 to 14) (size 15 to 20)
#    0.000    2.000    3.750    0.750    1.750    5.000 
#    2.250    3.750    0.000    0.000    0.000    0.000 
#    0.000    0.000    0.000    0.000    0.000    0.000 
#
# Total GULP energy -396519.334023 kJ/mol
# GULP energy per Si atom -12391.229188 kJ/mol
# Density = 1.982380 g / cm^3
# Si number density = 19.869020 Si / 1000 Ang^3
#
#
#
# Elastic Constant Matrix: (Units=GPa)
#
#
# Indices 1 2 3 4 5 6 
#
# 1 83.6530 29.8014 56.4155 0.0000 0.0000 0.0000
# 2 29.8014 102.0061 45.6078 0.0000 0.0000 0.0000
# 3 56.4155 45.6078 140.6127 0.0000 0.0000 0.0000
# 4 0.0000 0.0000 0.0000 28.3651 0.0000 0.0000
# 5 0.0000 0.0000 0.0000 0.0000 39.0726 0.0000
# 6 0.0000 0.0000 0.0000 0.0000 0.0000 29.3220
#
#
#
# Elastic Compliance Matrix: (Units=1/GPa)
#
#
# Indices 1 2 3 4 5 6 
#
# 1 0.016806 -0.002217 -0.006024 0.000000 0.000000 0.000000
# 2 -0.002217 0.011759 -0.002925 0.000000 0.000000 0.000000
# 3 -0.006024 -0.002925 0.010477 0.000000 0.000000 0.000000
# 4 0.000000 0.000000 0.000000 0.035255 0.000000 0.000000
# 5 0.000000 0.000000 0.000000 0.000000 0.025593 0.000000
# 6 0.000000 0.000000 0.000000 0.000000 0.000000 0.034104
#
#
# Mechanical properties :
#
#
# Convention : Reuss Voigt Hill
#
# Bulk Modulus (GPa) = 59.83797 65.54680 62.69238
# Shear Modulus (GPa) = 30.88421 32.31507 31.59964
#
# Velocity S-wave (km/s) = 3.94685 4.03725 3.99231
# Velocity P-wave (km/s) = 7.13805 7.40227 7.27136
#
# Compressibility (1/GPa) = 0.01671180
#
# Stress axis : x y z
#
# Youngs Moduli (GPa) = 59.50120 85.04465 95.44549
#
# Poissons Ratio (x) = 0.18852 0.57496
# Poissons Ratio (y) = 0.13190 0.27913
# Poissons Ratio (z) = 0.35843 0.24871
#
# Static dielectric constant tensor:
#      x y z
#    x 3.824960 0.000000 0.000000 
#    y 0.000000 3.800060 0.000000 
#    z 0.000000 0.000000 3.534690 
# 
# 
# High freq. dielectric constant tensor:
#      x y z
#    x 1.772350 0.000000 0.000000 
#    y 0.000000 1.776260 0.000000 
#    z 0.000000 0.000000 1.767320 
# 
# From -- ./inp_files/4729.got.cif
#   From: 2010.03.12/outbox.cif.g09.slc.cpg/sg19_3_cif.got.tgz:4729.got - 2010.04.10 18:59:41.
