data_PCOD8156311
_publ_section_title
;
Structure prediction by ZEFSAII (Michael W. Deem and Ramdas Pophale) SiO2 
 PCOD8156311
Probable space group: P 21 21 2
;
_chemical_formula_sum "Si O2"
_cell_formula_units_Z 16
_cell_length_a 9.203966
_cell_length_b 9.286605
_cell_length_c 8.080556
_cell_angle_alpha 90.000000
_cell_angle_beta 90.000000
_cell_angle_gamma 90.000000
_cell_volume 690.674184
_symmetry_space_group_name_H-M "P 21 21 2"
_symmetry_group_IT_number 18
_symmetry_cell_setting 'orthorhombic'
loop_
_space_group_symop_operation_xyz
x,y,z
-x,-y,z
1/2+x,1/2-y,-z
1/2-x,1/2+y,-z
loop_
_atom_site_type_symbol
_atom_site_label
_atom_site_fract_x
_atom_site_fract_y
_atom_site_fract_z
Si Si1 0.617217 0.392331 0.092406
Si Si2 0.579187 0.312409 0.467305
Si Si3 0.349826 0.923835 0.044737
Si Si4 0.715839 0.580129 0.604791
O O1 0.500000 0.500000 0.009726
O O2 0.561140 0.352586 0.274938
O O3 0.627321 0.242705 0.987266
O O4 0.771085 0.478330 0.095104
O O5 0.699980 0.418501 0.543141
O O6 0.428023 0.326224 0.563395
O O7 0.644486 0.152434 0.484748
O O8 0.240430 0.920869 0.199714
O O9 0.500000 0.000000 0.093459
#
# Coordination Sequence:
#
# PCOD8156311 Si02
#       4
#     4   4   4   4
#     4  11  23  46  67  98 137 176 230 281 337 407
#     4  10  23  43  65 102 135 178 219 278 339 402
#     4  11  26  44  68 101 135 184 228 280 346 404
#     4  10  23  42  67 100 135 177 220 272 341 401
#
# _framework density 23.165768
#
# number of rings (size 3 to 8) (size 9 to 14) (size 15 to 20)
#    0.000    1.500    2.500    1.500   10.500    2.000 
#    9.000    0.000    0.000    0.000    0.000    0.000 
#    0.000    0.000    0.000    0.000    0.000    0.000 
#
# Total GULP energy -198334.794677 kJ/mol
# GULP energy per Si atom -12395.924667 kJ/mol
# Density = 2.311304 g / cm^3
# Si number density = 23.165768 Si / 1000 Ang^3
#
#
#
# Elastic Constant Matrix: (Units=GPa)
#
#
# Indices 1 2 3 4 5 6 
#
# 1 123.2512 45.6656 40.1908 0.0000 0.0000 0.0000
# 2 45.6656 139.6007 7.2932 0.0000 0.0000 0.0000
# 3 40.1908 7.2932 35.7028 0.0000 0.0000 0.0000
# 4 0.0000 0.0000 0.0000 24.2338 0.0000 0.0000
# 5 0.0000 0.0000 0.0000 0.0000 39.9203 0.0000
# 6 0.0000 0.0000 0.0000 0.0000 0.0000 55.9947
#
#
#
# Elastic Compliance Matrix: (Units=1/GPa)
#
#
# Indices 1 2 3 4 5 6 
#
# 1 0.014738 -0.003997 -0.015775 0.000000 0.000000 0.000000
# 2 -0.003997 0.008325 0.002799 0.000000 0.000000 0.000000
# 3 -0.015775 0.002799 0.045195 0.000000 0.000000 0.000000
# 4 0.000000 0.000000 0.000000 0.041265 0.000000 0.000000
# 5 0.000000 0.000000 0.000000 0.000000 0.025050 0.000000
# 6 0.000000 0.000000 0.000000 0.000000 0.000000 0.017859
#
#
# Mechanical properties :
#
#
# Convention : Reuss Voigt Hill
#
# Bulk Modulus (GPa) = 29.14392 53.87267 41.50830
# Shear Modulus (GPa) = 25.27628 37.72342 31.49985
#
# Velocity S-wave (km/s) = 3.30677 4.03974 3.69149
# Velocity P-wave (km/s) = 5.21417 6.71305 6.01052
#
# Compressibility (1/GPa) = 0.03431247
#
# Stress axis : x y z
#
# Youngs Moduli (GPa) = 67.85012 120.12653 22.12643
#
# Poissons Ratio (x) = 0.48015 0.34904
# Poissons Ratio (y) = 0.27120 -0.06193
# Poissons Ratio (z) = 1.07031 -0.33623
#
# Static dielectric constant tensor:
#      x y z
#    x 4.171590 0.000000 0.000000 
#    y 0.000000 4.793840 0.000000 
#    z 0.000000 0.000000 3.776560 
# 
# 
# High freq. dielectric constant tensor:
#      x y z
#    x 1.920020 0.000000 0.000000 
#    y 0.000000 1.932270 0.000000 
#    z 0.000000 0.000000 1.885850 
# 
# From -- ./inp_files/2873.got.cif
#   From: 2010.03.12/outbox.cif.g09.slc.cpg/sg18_2_cif.got.tgz:2873.got - 2010.04.10 18:53:55.
