data_PCOD8156398
_publ_section_title
;
Structure prediction by ZEFSAII (Michael W. Deem and Ramdas Pophale) SiO2 
 PCOD8156398
Probable space group: P 21 21 2
;
_chemical_formula_sum "Si O2"
_cell_formula_units_Z 32
_cell_length_a 8.397814
_cell_length_b 28.343830
_cell_length_c 5.195594
_cell_angle_alpha 90.000000
_cell_angle_beta 90.000000
_cell_angle_gamma 90.000000
_cell_volume 1236.687561
_symmetry_space_group_name_H-M "P 21 21 2"
_symmetry_group_IT_number 18
_symmetry_cell_setting 'orthorhombic'
loop_
_space_group_symop_operation_xyz
x,y,z
-x,-y,z
1/2+x,1/2-y,-z
1/2-x,1/2+y,-z
loop_
_atom_site_type_symbol
_atom_site_label
_atom_site_fract_x
_atom_site_fract_y
_atom_site_fract_z
Si Si1 0.810571 0.110919 0.231042
Si Si2 0.688725 0.703150 0.476053
Si Si3 0.592843 0.160692 0.886928
Si Si4 0.744741 0.982570 0.684417
Si Si5 0.571180 0.070188 0.585787
Si Si6 0.654467 0.284827 0.304747
Si Si7 0.217733 0.665208 0.814401
Si Si8 0.139618 0.064204 0.204333
O O1 0.855911 0.149362 0.450054
O O2 0.652704 0.081345 0.310910
O O3 0.958006 0.078624 0.158955
O O4 0.761019 0.140671 0.984988
O O5 0.845587 0.704344 0.287392
O O6 0.532412 0.724761 0.343560
O O7 0.749189 0.735013 0.718938
O O8 0.516267 0.118635 0.719709
O O9 0.466990 0.175331 0.107764
O O10 0.587537 0.959474 0.560444
O O11 0.868149 0.969285 0.457456
O O12 0.707847 0.038252 0.728247
O O13 0.802821 0.964493 0.957458
O O14 0.738825 0.308990 0.551203
O O15 0.673531 0.315967 0.048793
O O16 0.246797 0.609743 0.767039
#
# Coordination Sequence:
#
# PCOD8156398 Si02
#       8
#     4   4   4   4   4   4   4   4
#     4  11  26  45  71 101 148 187 235 296 369 428
#     4  11  27  46  71 107 144 188 240 300 364 429
#     4  11  25  45  74 101 146 191 239 293 367 431
#     4  11  26  46  75 104 142 187 246 293 354 426
#     4  10  25  45  70 107 140 189 239 300 352 431
#     4  12  28  47  74 107 143 186 242 301 355 434
#     4  12  26  46  77 103 143 191 243 290 364 429
#     4  12  25  47  72 103 143 190 237 294 360 429
#
# _framework density 25.875575000000001
#
# number of rings (size 3 to 8) (size 9 to 14) (size 15 to 20)
#    0.000    0.750    2.500    3.000   12.250    1.500 
#    0.000    0.000    0.000    0.000    0.000    0.000 
#    0.000    0.000    0.000    0.000    0.000    0.000 
#
# Total GULP energy -396667.219373 kJ/mol
# GULP energy per Si atom -12395.850605 kJ/mol
# Density = 2.581668 g / cm^3
# Si number density = 25.875575 Si / 1000 Ang^3
#
#
#
# Elastic Constant Matrix: (Units=GPa)
#
#
# Indices 1 2 3 4 5 6 
#
# 1 75.0252 2.9263 -27.8178 0.0000 0.0000 0.0000
# 2 2.9263 62.0883 6.4651 0.0000 0.0000 0.0000
# 3 -27.8178 6.4651 69.1788 0.0000 0.0000 0.0000
# 4 0.0000 0.0000 0.0000 27.0054 0.0000 0.0000
# 5 0.0000 0.0000 0.0000 0.0000 21.8558 0.0000
# 6 0.0000 0.0000 0.0000 0.0000 0.0000 35.9547
#
#
#
# Elastic Compliance Matrix: (Units=1/GPa)
#
#
# Indices 1 2 3 4 5 6 
#
# 1 0.015787 -0.001419 0.006481 0.000000 0.000000 0.000000
# 2 -0.001419 0.016392 -0.002102 0.000000 0.000000 0.000000
# 3 0.006481 -0.002102 0.017258 0.000000 0.000000 0.000000
# 4 0.000000 0.000000 0.000000 0.037030 0.000000 0.000000
# 5 0.000000 0.000000 0.000000 0.000000 0.045754 0.000000
# 6 0.000000 0.000000 0.000000 0.000000 0.000000 0.027813
#
#
# Mechanical properties :
#
#
# Convention : Reuss Voigt Hill
#
# Bulk Modulus (GPa) = 18.06493 18.82661 18.44577
# Shear Modulus (GPa) = 28.97433 31.94445 30.45939
#
# Velocity S-wave (km/s) = 3.34991 3.51741 3.43468
# Velocity P-wave (km/s) = 4.68605 4.87728 4.78262
#
# Compressibility (1/GPa) = 0.05535587
#
# Stress axis : x y z
#
# Youngs Moduli (GPa) = 63.34257 61.00579 57.94472
#
# Poissons Ratio (x) = 0.08656 -0.37553
# Poissons Ratio (y) = 0.08988 0.12183
# Poissons Ratio (z) = -0.41051 0.12826
#
# Static dielectric constant tensor:
#      x y z
#    x 4.653220 0.000000 0.000000 
#    y 0.000000 5.135670 0.000000 
#    z 0.000000 0.000000 4.481420 
# 
# 
# High freq. dielectric constant tensor:
#      x y z
#    x 2.042550 0.000000 0.000000 
#    y 0.000000 2.046950 0.000000 
#    z 0.000000 0.000000 2.028090 
# 
# From -- ./inp_files/790.got.cif
#   From: 2010.03.12/outbox.cif.g09.slc.cpg/sg18_1_cif.got.tgz:790.got - 2010.04.10 18:53:55.
