data_PCOD8156804
_publ_section_title
;
Structure prediction by ZEFSAII (Michael W. Deem and Ramdas Pophale) SiO2 
 PCOD8156804
Probable space group: P 21 21 21
;
_chemical_formula_sum "Si O2"
_cell_formula_units_Z 28
_cell_length_a 13.571772
_cell_length_b 17.764228
_cell_length_c 5.320069
_cell_angle_alpha 90.000000
_cell_angle_beta 90.000000
_cell_angle_gamma 90.000000
_cell_volume 1282.626353
_symmetry_space_group_name_H-M "P 21 21 21"
_symmetry_group_IT_number 19
_symmetry_cell_setting 'orthorhombic'
loop_
_space_group_symop_operation_xyz
x,y,z
1/2-x,-y,1/2+z
1/2+x,1/2-y,-z
-x,1/2+y,1/2-z
loop_
_atom_site_type_symbol
_atom_site_label
_atom_site_fract_x
_atom_site_fract_y
_atom_site_fract_z
Si Si1 0.649185 0.731363 0.167934
Si Si2 0.969371 0.378329 0.374297
Si Si3 0.140018 0.457497 0.624293
Si Si4 0.270122 0.796536 0.331107
Si Si5 0.231768 0.954597 0.274663
Si Si6 0.697829 0.888736 0.184131
Si Si7 0.881860 0.834992 0.484670
O O1 0.690212 0.714533 0.445694
O O2 0.620698 0.820555 0.129686
O O3 0.557253 0.674156 0.116641
O O4 0.725596 0.714769 0.944487
O O5 0.878124 0.423467 0.262758
O O6 0.055551 0.439650 0.421786
O O7 0.017204 0.321826 0.168770
O O8 0.142580 0.547478 0.655624
O O9 0.251022 0.429756 0.554357
O O10 0.106956 0.413287 0.869849
O O11 0.303832 0.884169 0.339934
O O12 0.363405 0.740364 0.350598
O O13 0.231455 0.008930 0.515003
O O14 0.785095 0.843011 0.316377
#
# Coordination Sequence:
#
# PCOD8156804 Si02
#       7
#     4   4   4   4   4   4   4
#     4  10  21  40  66  92 128 175 224 256 335 394
#     4  10  25  40  66  97 131 178 225 285 325 390
#     4  11  20  37  64  99 136 169 220 278 344 391
#     4  10  21  41  69  94 122 173 224 270 321 409
#     4  11  24  45  72  94 132 184 226 270 336 400
#     4  10  20  37  64  97 128 180 212 271 337 411
#     4  10  21  38  67  93 133 167 225 270 340 389
#
# _framework density 21.830206
#
# number of rings (size 3 to 8) (size 9 to 14) (size 15 to 20)
#    0.000    1.714    2.857    1.714    6.000    0.000 
#    0.000    2.857    0.000    0.000    0.000    0.000 
#    0.000    0.000    0.000    0.000    0.000    0.000 
#
# Total GULP energy -346884.745058 kJ/mol
# GULP energy per Si atom -12388.740895 kJ/mol
# Density = 2.178052 g / cm^3
# Si number density = 21.830206 Si / 1000 Ang^3
#
#
#
# Elastic Constant Matrix: (Units=GPa)
#
#
# Indices 1 2 3 4 5 6 
#
# 1 69.1947 43.0009 5.6625 0.0000 0.0000 0.0000
# 2 43.0009 164.2784 26.6642 0.0000 0.0000 0.0000
# 3 5.6625 26.6642 69.4363 0.0000 0.0000 0.0000
# 4 0.0000 0.0000 0.0000 42.1501 0.0000 0.0000
# 5 0.0000 0.0000 0.0000 0.0000 22.3489 0.0000
# 6 0.0000 0.0000 0.0000 0.0000 0.0000 30.9877
#
#
#
# Elastic Compliance Matrix: (Units=1/GPa)
#
#
# Indices 1 2 3 4 5 6 
#
# 1 0.017267 -0.004577 0.000349 0.000000 0.000000 0.000000
# 2 -0.004577 0.007705 -0.002586 0.000000 0.000000 0.000000
# 3 0.000349 -0.002586 0.015366 0.000000 0.000000 0.000000
# 4 0.000000 0.000000 0.000000 0.023725 0.000000 0.000000
# 5 0.000000 0.000000 0.000000 0.000000 0.044745 0.000000
# 6 0.000000 0.000000 0.000000 0.000000 0.000000 0.032271
#
#
# Mechanical properties :
#
#
# Convention : Reuss Voigt Hill
#
# Bulk Modulus (GPa) = 37.43526 50.39608 43.91567
# Shear Modulus (GPa) = 30.56072 34.26946 32.41509
#
# Velocity S-wave (km/s) = 3.74562 3.96639 3.85759
# Velocity P-wave (km/s) = 5.99098 6.64168 6.32470
#
# Compressibility (1/GPa) = 0.02671279
#
# Stress axis : x y z
#
# Youngs Moduli (GPa) = 57.91226 129.78866 65.07852
#
# Poissons Ratio (x) = 0.59399 -0.02273
# Poissons Ratio (y) = 0.26504 0.16826
# Poissons Ratio (z) = -0.02023 0.33557
#
# Static dielectric constant tensor:
#      x y z
#    x 3.852240 0.000000 0.000000 
#    y 0.000000 4.578020 0.000000 
#    z 0.000000 0.000000 4.039810 
# 
# 
# High freq. dielectric constant tensor:
#      x y z
#    x 1.822770 0.000000 0.000000 
#    y 0.000000 1.871210 0.000000 
#    z 0.000000 0.000000 1.868460 
# 
# From -- ./inp_files/1514.got.cif
#   From: 2010.03.12/outbox.cif.g09.slc.cpg/sg19_1_cif.got.tgz:1514.got - 2010.04.10 18:59:41.
