data_PCOD8156953
_publ_section_title
;
Structure prediction by ZEFSAII (Michael W. Deem and Ramdas Pophale) SiO2 
 PCOD8156953
Probable space group: P 21 21 21
;
_chemical_formula_sum "Si O2"
_cell_formula_units_Z 28
_cell_length_a 18.786939
_cell_length_b 8.490917
_cell_length_c 9.007277
_cell_angle_alpha 90.000000
_cell_angle_beta 90.000000
_cell_angle_gamma 90.000000
_cell_volume 1436.825873
_symmetry_space_group_name_H-M "P 21 21 21"
_symmetry_group_IT_number 19
_symmetry_cell_setting 'orthorhombic'
loop_
_space_group_symop_operation_xyz
x,y,z
1/2-x,-y,1/2+z
1/2+x,1/2-y,-z
-x,1/2+y,1/2-z
loop_
_atom_site_type_symbol
_atom_site_label
_atom_site_fract_x
_atom_site_fract_y
_atom_site_fract_z
Si Si1 0.661700 0.822796 0.990241
Si Si2 0.183932 0.843640 0.710762
Si Si3 0.395989 0.018886 0.950340
Si Si4 0.791129 0.822820 0.480816
Si Si5 0.533079 0.939693 0.814261
Si Si6 0.725924 0.640373 0.734261
Si Si7 0.092668 0.251018 0.248733
O O1 0.716442 0.718302 0.894809
O O2 0.696656 0.993592 0.009928
O O3 0.585174 0.831741 0.911649
O O4 0.648712 0.736323 0.146309
O O5 0.124318 0.943952 0.620470
O O6 0.219139 0.703765 0.613975
O O7 0.246673 0.963117 0.752289
O O8 0.480960 0.039132 0.926802
O O9 0.351034 0.137884 0.846275
O O10 0.376002 0.838237 0.895158
O O11 0.783053 0.740117 0.640030
O O12 0.856728 0.740564 0.394523
O O13 0.578596 0.064064 0.716104
O O14 0.483299 0.832682 0.708330
#
# Coordination Sequence:
#
# PCOD8156953 Si02
#       7
#     4   4   4   4   4   4   4
#     4  11  22  36  61  87 124 163 198 253 311 359
#     4  11  21  37  60  86 122 159 199 249 307 367
#     4   9  20  36  59  84 114 150 207 242 293 358
#     4  10  21  37  57  92 123 151 201 259 303 361
#     4   9  19  35  59  87 119 159 205 245 298 362
#     4  11  21  36  61  90 117 161 202 247 306 372
#     4   9  18  35  61  84 117 155 202 251 296 363
#
# _framework density 19.487400000000001
#
# number of rings (size 3 to 8) (size 9 to 14) (size 15 to 20)
#    0.857    1.143    1.429    3.429    0.000    0.000 
#    0.000    2.857    3.143    0.000    0.000    0.000 
#    0.000    0.000    0.000    0.000    0.000    0.000 
#
# Total GULP energy -346908.162271 kJ/mol
# GULP energy per Si atom -12389.577224 kJ/mol
# Density = 1.944305 g / cm^3
# Si number density = 19.487400 Si / 1000 Ang^3
#
#
#
# Elastic Constant Matrix: (Units=GPa)
#
#
# Indices 1 2 3 4 5 6 
#
# 1 67.3348 28.3186 29.9222 0.0000 0.0000 0.0000
# 2 28.3186 96.7533 56.3216 0.0000 0.0000 0.0000
# 3 29.9222 56.3216 115.8415 0.0000 0.0000 0.0000
# 4 0.0000 0.0000 0.0000 39.8006 0.0000 0.0000
# 5 0.0000 0.0000 0.0000 0.0000 23.2757 0.0000
# 6 0.0000 0.0000 0.0000 0.0000 0.0000 29.9954
#
#
#
# Elastic Compliance Matrix: (Units=1/GPa)
#
#
# Indices 1 2 3 4 5 6 
#
# 1 0.017583 -0.003490 -0.002845 0.000000 0.000000 0.000000
# 2 -0.003490 0.015108 -0.006444 0.000000 0.000000 0.000000
# 3 -0.002845 -0.006444 0.012500 0.000000 0.000000 0.000000
# 4 0.000000 0.000000 0.000000 0.025125 0.000000 0.000000
# 5 0.000000 0.000000 0.000000 0.000000 0.042963 0.000000
# 6 0.000000 0.000000 0.000000 0.000000 0.000000 0.033338
#
#
# Mechanical properties :
#
#
# Convention : Reuss Voigt Hill
#
# Bulk Modulus (GPa) = 50.93334 56.56161 53.74747
# Shear Modulus (GPa) = 27.97642 29.63881 28.80762
#
# Velocity S-wave (km/s) = 3.79306 3.90413 3.84900
# Velocity P-wave (km/s) = 6.73620 7.02927 6.88430
#
# Compressibility (1/GPa) = 0.01963351
#
# Stress axis : x y z
#
# Youngs Moduli (GPa) = 56.87223 66.18857 79.99775
#
# Poissons Ratio (x) = 0.23103 0.22758
# Poissons Ratio (y) = 0.19851 0.51551
# Poissons Ratio (z) = 0.16179 0.42652
#
# Static dielectric constant tensor:
#      x y z
#    x 3.513280 0.000000 0.000000 
#    y 0.000000 3.540780 0.000000 
#    z 0.000000 0.000000 3.365000 
# 
# 
# High freq. dielectric constant tensor:
#      x y z
#    x 1.754330 0.000000 0.000000 
#    y 0.000000 1.764230 0.000000 
#    z 0.000000 0.000000 1.730810 
# 
# From -- ./inp_files/4157.got.cif
#   From: 2010.03.12/outbox.cif.g09.slc.cpg/sg19_3_cif.got.tgz:4157.got - 2010.04.10 18:59:41.
