data_PCOD8156321
_publ_section_title
;
Structure prediction by ZEFSAII (Michael W. Deem and Ramdas Pophale) SiO2 
 PCOD8156321
Probable space group: P 21 21 2
;
_chemical_formula_sum "Si O2"
_cell_formula_units_Z 24
_cell_length_a 10.943905
_cell_length_b 8.768166
_cell_length_c 11.633084
_cell_angle_alpha 90.000000
_cell_angle_beta 90.000000
_cell_angle_gamma 90.000000
_cell_volume 1116.287192
_symmetry_space_group_name_H-M "P 21 21 2"
_symmetry_group_IT_number 18
_symmetry_cell_setting 'orthorhombic'
loop_
_space_group_symop_operation_xyz
x,y,z
-x,-y,z
1/2+x,1/2-y,-z
1/2-x,1/2+y,-z
loop_
_atom_site_type_symbol
_atom_site_label
_atom_site_fract_x
_atom_site_fract_y
_atom_site_fract_z
Si Si1 0.699078 0.783166 0.095426
Si Si2 0.283204 0.381542 0.858110
Si Si3 0.474066 0.834157 0.245888
Si Si4 0.931433 0.273657 0.320323
Si Si5 0.083409 0.862634 0.557927
Si Si6 0.685108 0.093010 0.709199
O O1 0.560363 0.809143 0.135585
O O2 0.760886 0.651326 0.170788
O O3 0.773441 0.941761 0.105957
O O4 0.692708 0.726325 0.966132
O O5 0.394307 0.362019 0.767405
O O6 0.163735 0.316877 0.794843
O O7 0.500231 0.715778 0.345882
O O8 0.500000 0.000000 0.299426
O O9 0.885336 0.243108 0.449496
O O10 0.866857 0.425001 0.271871
O O11 0.077417 0.291415 0.326665
O O12 0.213199 0.910489 0.610061
O O13 0.000000 0.000000 0.511542
#
# Coordination Sequence:
#
# PCOD8156321 Si02
#       6
#     4   4   4   4   4   4
#     4  10  23  43  67  98 130 178 223 283 334 408
#     4  11  23  41  69  95 135 172 228 280 338 407
#     4   9  22  43  65  91 128 176 221 270 342 401
#     4  11  26  41  66  97 134 177 217 284 338 397
#     4  11  25  41  69  96 133 172 230 272 334 410
#     4  10  25  45  63  96 136 175 225 274 345 394
#
# _framework density 21.499842000000001
#
# number of rings (size 3 to 8) (size 9 to 14) (size 15 to 20)
#    0.000    1.667    0.000    2.000   11.667    2.667 
#    0.000    0.000    0.000    0.000    0.000    0.000 
#    0.000    0.000    0.000    0.000    0.000    0.000 
#
# Total GULP energy -297692.521707 kJ/mol
# GULP energy per Si atom -12403.855071 kJ/mol
# Density = 2.145091 g / cm^3
# Si number density = 21.499842 Si / 1000 Ang^3
#
#
#
# Elastic Constant Matrix: (Units=GPa)
#
#
# Indices 1 2 3 4 5 6 
#
# 1 104.3634 26.9894 27.8513 0.0000 0.0000 0.0000
# 2 26.9894 78.7461 25.8705 0.0000 0.0000 0.0000
# 3 27.8513 25.8705 105.1782 0.0000 0.0000 0.0000
# 4 0.0000 0.0000 0.0000 32.8135 0.0000 0.0000
# 5 0.0000 0.0000 0.0000 0.0000 13.5027 0.0000
# 6 0.0000 0.0000 0.0000 0.0000 0.0000 32.4632
#
#
#
# Elastic Compliance Matrix: (Units=1/GPa)
#
#
# Indices 1 2 3 4 5 6 
#
# 1 0.010943 -0.003045 -0.002149 0.000000 0.000000 0.000000
# 2 -0.003045 0.014663 -0.002800 0.000000 0.000000 0.000000
# 3 -0.002149 -0.002800 0.010765 0.000000 0.000000 0.000000
# 4 0.000000 0.000000 0.000000 0.030475 0.000000 0.000000
# 5 0.000000 0.000000 0.000000 0.000000 0.074059 0.000000
# 6 0.000000 0.000000 0.000000 0.000000 0.000000 0.030804
#
#
# Mechanical properties :
#
#
# Convention : Reuss Voigt Hill
#
# Bulk Modulus (GPa) = 49.05956 49.96780 49.51368
# Shear Modulus (GPa) = 25.70812 29.59431 27.65121
#
# Velocity S-wave (km/s) = 3.46169 3.71413 3.59013
# Velocity P-wave (km/s) = 6.23264 6.45635 6.34548
#
# Compressibility (1/GPa) = 0.02038339
#
# Stress axis : x y z
#
# Youngs Moduli (GPa) = 91.38516 68.20106 92.88962
#
# Poissons Ratio (x) = 0.20764 0.19960
# Poissons Ratio (y) = 0.27823 0.26012
# Poissons Ratio (z) = 0.19637 0.19098
#
# Static dielectric constant tensor:
#      x y z
#    x 4.046080 0.000000 0.000000 
#    y 0.000000 3.926530 0.000000 
#    z 0.000000 0.000000 3.678220 
# 
# 
# High freq. dielectric constant tensor:
#      x y z
#    x 1.852230 0.000000 0.000000 
#    y 0.000000 1.851470 0.000000 
#    z 0.000000 0.000000 1.844210 
# 
# From -- ./inp_files/5487.got.cif
#   From: 2010.03.12/outbox.cif.g09.slc.cpg/sg18_3_cif.got.tgz:5487.got - 2010.04.10 18:53:55.
