data_PCOD8156187
_publ_section_title
;
Structure prediction by ZEFSAII (Michael W. Deem and Ramdas Pophale) SiO2 
 PCOD8156187
Probable space group: P 21 21 2
;
_chemical_formula_sum "Si O2"
_cell_formula_units_Z 24
_cell_length_a 15.288292
_cell_length_b 9.475567
_cell_length_c 8.665652
_cell_angle_alpha 90.000000
_cell_angle_beta 90.000000
_cell_angle_gamma 90.000000
_cell_volume 1255.351715
_symmetry_space_group_name_H-M "P 21 21 2"
_symmetry_group_IT_number 18
_symmetry_cell_setting 'orthorhombic'
loop_
_space_group_symop_operation_xyz
x,y,z
-x,-y,z
1/2+x,1/2-y,-z
1/2-x,1/2+y,-z
loop_
_atom_site_type_symbol
_atom_site_label
_atom_site_fract_x
_atom_site_fract_y
_atom_site_fract_z
Si Si1 0.720494 0.572720 0.314793
Si Si2 0.173257 0.793290 0.119391
Si Si3 0.068998 0.387861 0.770286
Si Si4 0.450738 0.358215 0.118794
Si Si5 0.226831 0.244237 0.594496
Si Si6 0.802647 0.502606 0.013661
O O1 0.632661 0.620686 0.228766
O O2 0.748328 0.700151 0.426495
O O3 0.704027 0.423373 0.405002
O O4 0.799196 0.559133 0.190284
O O5 0.185438 0.764439 0.300784
O O6 0.214754 0.664748 0.019875
O O7 0.074780 0.807053 0.055445
O O8 0.222394 0.938008 0.083277
O O9 0.146880 0.341820 0.655713
O O10 0.000000 0.500000 0.695789
O O11 0.017120 0.247601 0.804704
O O12 0.106908 0.456742 0.928446
O O13 0.500000 0.500000 0.092262
#
# Coordination Sequence:
#
# PCOD8156187 Si02
#       6
#     4   4   4   4   4   4
#     4  10  22  39  58  82 119 157 190 229 284 352
#     4   9  19  35  57  81 109 144 188 229 278 342
#     4  11  21  37  62  86 112 146 196 245 291 336
#     4  11  21  39  60  84 116 147 190 251 291 325
#     4  10  22  39  57  84 117 156 193 226 286 356
#     4   9  19  35  56  83 109 144 187 230 278 339
#
# _framework density 19.118147
#
# number of rings (size 3 to 8) (size 9 to 14) (size 15 to 20)
#    0.000    2.000    3.333    0.000    4.667    1.333 
#    0.000    3.333    0.000    0.000    0.000    0.000 
#    0.000    0.000    0.000    0.000    0.000    0.000 
#
# Total GULP energy -297332.733113 kJ/mol
# GULP energy per Si atom -12388.863880 kJ/mol
# Density = 1.907463 g / cm^3
# Si number density = 19.118147 Si / 1000 Ang^3
#
#
#
# Elastic Constant Matrix: (Units=GPa)
#
#
# Indices 1 2 3 4 5 6 
#
# 1 57.0442 -10.5657 19.5178 0.0000 0.0000 0.0000
# 2 -10.5657 20.4770 -20.3966 0.0000 0.0000 0.0000
# 3 19.5178 -20.3966 44.9282 0.0000 0.0000 0.0000
# 4 0.0000 0.0000 0.0000 33.0189 0.0000 0.0000
# 5 0.0000 0.0000 0.0000 0.0000 20.5797 0.0000
# 6 0.0000 0.0000 0.0000 0.0000 0.0000 37.2934
#
#
#
# Elastic Compliance Matrix: (Units=1/GPa)
#
#
# Indices 1 2 3 4 5 6 
#
# 1 0.020701 0.003146 -0.007565 0.000000 0.000000 0.000000
# 2 0.003146 0.089626 0.039322 0.000000 0.000000 0.000000
# 3 -0.007565 0.039322 0.043395 0.000000 0.000000 0.000000
# 4 0.000000 0.000000 0.000000 0.030286 0.000000 0.000000
# 5 0.000000 0.000000 0.000000 0.000000 0.048592 0.000000
# 6 0.000000 0.000000 0.000000 0.000000 0.000000 0.026814
#
#
# Mechanical properties :
#
#
# Convention : Reuss Voigt Hill
#
# Bulk Modulus (GPa) = 4.47367 11.06226 7.76796
# Shear Modulus (GPa) = 18.93097 27.10466 23.01781
#
# Velocity S-wave (km/s) = 3.15017 3.76938 3.47360
# Velocity P-wave (km/s) = 3.94671 4.97425 4.48997
#
# Compressibility (1/GPa) = 0.22353016
#
# Stress axis : x y z
#
# Youngs Moduli (GPa) = 48.30605 11.15746 23.04390
#
# Poissons Ratio (x) = -0.03511 0.17432
# Poissons Ratio (y) = -0.15199 -0.90613
# Poissons Ratio (z) = 0.36542 -0.43873
#
# Static dielectric constant tensor:
#      x y z
#    x 3.573390 0.000000 0.000000 
#    y 0.000000 3.691950 0.000000 
#    z 0.000000 0.000000 3.398440 
# 
# 
# High freq. dielectric constant tensor:
#      x y z
#    x 1.727190 0.000000 0.000000 
#    y 0.000000 1.768200 0.000000 
#    z 0.000000 0.000000 1.721110 
# 
# From -- ./inp_files/3137.got.cif
#   From: 2010.03.12/outbox.cif.g09.slc.cpg/sg18_2_cif.got.tgz:3137.got - 2010.04.10 18:53:55.
