data_PCOD8156711
_publ_section_title
;
Structure prediction by ZEFSAII (Michael W. Deem and Ramdas Pophale) SiO2 
 PCOD8156711
Probable space group: P 21 21 21
;
_chemical_formula_sum "Si O2"
_cell_formula_units_Z 24
_cell_length_a 8.501055
_cell_length_b 5.180288
_cell_length_c 21.539465
_cell_angle_alpha 90.000000
_cell_angle_beta 90.000000
_cell_angle_gamma 90.000000
_cell_volume 948.553090
_symmetry_space_group_name_H-M "P 21 21 21"
_symmetry_group_IT_number 19
_symmetry_cell_setting 'orthorhombic'
loop_
_space_group_symop_operation_xyz
x,y,z
1/2-x,-y,1/2+z
1/2+x,1/2-y,-z
-x,1/2+y,1/2-z
loop_
_atom_site_type_symbol
_atom_site_label
_atom_site_fract_x
_atom_site_fract_y
_atom_site_fract_z
Si Si1 0.701662 0.783470 0.797828
Si Si2 0.383596 0.048897 0.819880
Si Si3 0.137114 0.598155 0.611153
Si Si4 0.997630 0.581703 0.945089
Si Si5 0.080704 0.088895 0.106003
Si Si6 0.835473 0.740481 0.056848
O O1 0.742825 0.630381 0.733822
O O2 0.704155 0.593460 0.857234
O O3 0.524931 0.890131 0.788297
O O4 0.825335 0.012066 0.816560
O O5 0.445530 0.315332 0.847873
O O6 0.304907 0.882086 0.875014
O O7 0.057539 0.362429 0.576872
O O8 0.023818 0.848661 0.604582
O O9 0.310159 0.674384 0.581350
O O10 0.181513 0.599715 0.961776
O O11 0.886657 0.523373 0.005854
O O12 0.988355 0.930885 0.053443
#
# Coordination Sequence:
#
# PCOD8156711 Si02
#       6
#     4   4   4   4   4   4
#     4  10  19  40  74 112 145 193 251 318 370 455
#     4  10  21  38  72 114 148 192 256 311 375 448
#     4  11  25  45  75 103 148 196 251 307 388 445
#     4  12  28  48  73 108 153 202 254 315 373 465
#     4  10  21  43  73 107 143 196 246 313 372 447
#     4  11  28  44  75 110 157 205 258 314 380 452
#
# _framework density 25.301694000000001
#
# number of rings (size 3 to 8) (size 9 to 14) (size 15 to 20)
#    0.000    1.333    3.333    1.000    9.333    0.000 
#    0.000    0.000    7.333    0.000    0.000    0.000 
#    0.000    0.000    0.000    0.000    0.000    0.000 
#
# Total GULP energy -297334.409158 kJ/mol
# GULP energy per Si atom -12388.933715 kJ/mol
# Density = 2.524411 g / cm^3
# Si number density = 25.301694 Si / 1000 Ang^3
#
#
#
# Elastic Constant Matrix: (Units=GPa)
#
#
# Indices 1 2 3 4 5 6 
#
# 1 69.1251 17.8375 11.2506 0.0000 0.0000 0.0000
# 2 17.8375 116.2112 21.4510 0.0000 0.0000 0.0000
# 3 11.2506 21.4510 58.5909 0.0000 0.0000 0.0000
# 4 0.0000 0.0000 0.0000 42.8709 0.0000 0.0000
# 5 0.0000 0.0000 0.0000 0.0000 26.1565 0.0000
# 6 0.0000 0.0000 0.0000 0.0000 0.0000 18.9999
#
#
#
# Elastic Compliance Matrix: (Units=1/GPa)
#
#
# Indices 1 2 3 4 5 6 
#
# 1 0.015331 -0.001941 -0.002233 0.000000 0.000000 0.000000
# 2 -0.001941 0.009474 -0.003096 0.000000 0.000000 0.000000
# 3 -0.002233 -0.003096 0.018630 0.000000 0.000000 0.000000
# 4 0.000000 0.000000 0.000000 0.023326 0.000000 0.000000
# 5 0.000000 0.000000 0.000000 0.000000 0.038231 0.000000
# 6 0.000000 0.000000 0.000000 0.000000 0.000000 0.052632
#
#
# Mechanical properties :
#
#
# Convention : Reuss Voigt Hill
#
# Bulk Modulus (GPa) = 34.60839 38.33394 36.47117
# Shear Modulus (GPa) = 27.50333 30.49800 29.00067
#
# Velocity S-wave (km/s) = 3.30057 3.47562 3.38922
# Velocity P-wave (km/s) = 5.31347 5.59376 5.45542
#
# Compressibility (1/GPa) = 0.02889473
#
# Stress axis : x y z
#
# Youngs Moduli (GPa) = 65.22796 105.54730 53.67740
#
# Poissons Ratio (x) = 0.20486 0.11987
# Poissons Ratio (y) = 0.12660 0.16619
# Poissons Ratio (z) = 0.14567 0.32678
#
# Static dielectric constant tensor:
#      x y z
#    x 4.281780 0.000000 0.000000 
#    y 0.000000 4.718040 0.000000 
#    z 0.000000 0.000000 4.495060 
# 
# 
# High freq. dielectric constant tensor:
#      x y z
#    x 1.976900 0.000000 0.000000 
#    y 0.000000 2.022900 0.000000 
#    z 0.000000 0.000000 1.990830 
# 
# From -- ./inp_files/7313.got.cif
#   From: 2010.03.12/outbox.cif.g09.slc.cpg/sg19_4_cif.got.tgz:7313.got - 2010.04.10 18:59:41.
