data_PCOD8156475
_publ_section_title
;
Structure prediction by ZEFSAII (Michael W. Deem and Ramdas Pophale) SiO2 
 PCOD8156475
Probable space group: P 21 21 2
;
_chemical_formula_sum "Si O2"
_cell_formula_units_Z 24
_cell_length_a 8.155143
_cell_length_b 19.846712
_cell_length_c 6.640193
_cell_angle_alpha 90.000000
_cell_angle_beta 90.000000
_cell_angle_gamma 90.000000
_cell_volume 1074.733660
_symmetry_space_group_name_H-M "P 21 21 2"
_symmetry_group_IT_number 18
_symmetry_cell_setting 'orthorhombic'
loop_
_space_group_symop_operation_xyz
x,y,z
-x,-y,z
1/2+x,1/2-y,-z
1/2-x,1/2+y,-z
loop_
_atom_site_type_symbol
_atom_site_label
_atom_site_fract_x
_atom_site_fract_y
_atom_site_fract_z
Si Si1 0.068104 0.716602 0.217952
Si Si2 0.500000 0.000000 0.379282
Si Si3 0.213111 0.801013 0.886106
Si Si4 0.052369 0.840392 0.493097
Si Si5 0.000000 0.000000 0.889851
Si Si6 0.264771 0.417499 0.821752
Si Si7 0.746092 0.409166 0.374857
O O1 0.111784 0.770750 0.390929
O O2 0.140537 0.642221 0.249248
O O3 0.872666 0.719569 0.236471
O O4 0.124830 0.738374 0.994640
O O5 0.592180 0.048946 0.226452
O O6 0.367802 0.039944 0.512805
O O7 0.087881 0.836136 0.731665
O O8 0.275261 0.849620 0.061579
O O9 0.150303 0.901980 0.392313
O O10 0.860189 0.861616 0.473398
O O11 0.114947 0.048860 0.756861
O O12 0.880213 0.039277 0.036665
#
# Coordination Sequence:
#
# PCOD8156475 Si02
#       7
#     4   2   4   4   2   4   4
#     4  11  26  41  75 103 141 187 247 307 372 435
#     4  12  28  44  72 112 146 190 250 304 364 452
#     4  11  24  45  70 103 141 185 246 304 368 433
#     4  11  23  49  71 102 142 189 240 312 367 441
#     4  12  26  46  76 100 152 202 240 296 376 456
#     4  11  26  45  71 102 139 191 242 295 366 442
#     4  12  26  46  75 106 148 196 244 307 375 446
#
# _framework density 22.331113999999999
#
# number of rings (size 3 to 8) (size 9 to 14) (size 15 to 20)
#    0.000    0.667    1.667    5.000    7.000    5.333 
#    0.000    0.000    0.000    0.000    0.000    0.000 
#    0.000    0.000    0.000    0.000    0.000    0.000 
#
# Total GULP energy -297525.596767 kJ/mol
# GULP energy per Si atom -12396.899865 kJ/mol
# Density = 2.228029 g / cm^3
# Si number density = 22.331114 Si / 1000 Ang^3
#
#
#
# Elastic Constant Matrix: (Units=GPa)
#
#
# Indices 1 2 3 4 5 6 
#
# 1 123.2299 40.8933 34.3263 0.0000 0.0000 0.0000
# 2 40.8933 96.4017 33.8127 0.0000 0.0000 0.0000
# 3 34.3263 33.8127 97.8019 0.0000 0.0000 0.0000
# 4 0.0000 0.0000 0.0000 21.2196 0.0000 0.0000
# 5 0.0000 0.0000 0.0000 0.0000 41.3044 0.0000
# 6 0.0000 0.0000 0.0000 0.0000 0.0000 50.6202
#
#
#
# Elastic Compliance Matrix: (Units=1/GPa)
#
#
# Indices 1 2 3 4 5 6 
#
# 1 0.009878 -0.003385 -0.002297 0.000000 0.000000 0.000000
# 2 -0.003385 0.012964 -0.003294 0.000000 0.000000 0.000000
# 3 -0.002297 -0.003294 0.012170 0.000000 0.000000 0.000000
# 4 0.000000 0.000000 0.000000 0.047126 0.000000 0.000000
# 5 0.000000 0.000000 0.000000 0.000000 0.024211 0.000000
# 6 0.000000 0.000000 0.000000 0.000000 0.000000 0.019755
#
#
# Mechanical properties :
#
#
# Convention : Reuss Voigt Hill
#
# Bulk Modulus (GPa) = 58.61356 59.49979 59.05667
# Shear Modulus (GPa) = 33.39077 36.52224 34.95650
#
# Velocity S-wave (km/s) = 3.87105 4.04850 3.96077
# Velocity P-wave (km/s) = 6.80327 6.96821 6.88624
#
# Compressibility (1/GPa) = 0.01706090
#
# Stress axis : x y z
#
# Youngs Moduli (GPa) = 101.23665 77.13410 82.17087
#
# Poissons Ratio (x) = 0.26107 0.18873
# Poissons Ratio (y) = 0.34264 0.27069
# Poissons Ratio (z) = 0.23252 0.25410
#
# Static dielectric constant tensor:
#      x y z
#    x 4.099140 0.000000 0.000000 
#    y 0.000000 4.203520 0.000000 
#    z 0.000000 0.000000 4.013610 
# 
# 
# High freq. dielectric constant tensor:
#      x y z
#    x 1.891340 0.000000 0.000000 
#    y 0.000000 1.892900 0.000000 
#    z 0.000000 0.000000 1.881270 
# 
# From -- ./inp_files/658.got.cif
#   From: 2010.03.12/outbox.cif.g09.slc.cpg/sg18_1_cif.got.tgz:658.got - 2010.04.10 18:53:55.
