data_PCOD8156468
_publ_section_title
;
Structure prediction by ZEFSAII (Michael W. Deem and Ramdas Pophale) SiO2 
 PCOD8156468
Probable space group: P 21 21 2
;
_chemical_formula_sum "Si O2"
_cell_formula_units_Z 20
_cell_length_a 8.675505
_cell_length_b 12.209769
_cell_length_c 8.073168
_cell_angle_alpha 90.000000
_cell_angle_beta 90.000000
_cell_angle_gamma 90.000000
_cell_volume 855.157683
_symmetry_space_group_name_H-M "P 21 21 2"
_symmetry_group_IT_number 18
_symmetry_cell_setting 'orthorhombic'
loop_
_space_group_symop_operation_xyz
x,y,z
-x,-y,z
1/2+x,1/2-y,-z
1/2-x,1/2+y,-z
loop_
_atom_site_type_symbol
_atom_site_label
_atom_site_fract_x
_atom_site_fract_y
_atom_site_fract_z
Si Si1 0.233056 0.291662 0.974740
Si Si2 0.132055 0.844583 0.509921
Si Si3 0.345427 0.700990 0.699727
Si Si4 0.516912 0.376661 0.140082
Si Si5 0.822926 0.517284 0.721849
O O1 0.180133 0.396302 0.870916
O O2 0.186475 0.179210 0.875926
O O3 0.150808 0.292272 0.155819
O O4 0.414694 0.299486 0.017928
O O5 0.239975 0.740465 0.546389
O O6 0.035549 0.879298 0.669897
O O7 0.239718 0.942766 0.446506
O O8 0.019446 0.816924 0.358278
O O9 0.266098 0.592496 0.777461
O O10 0.500000 0.500000 0.071357
O O11 0.000000 0.500000 0.674212
#
# Coordination Sequence:
#
# PCOD8156468 Si02
#       5
#     4   4   4   4   4
#     4  11  24  41  66  97 133 175 226 277 339 411
#     4  11  24  43  69  97 132 176 228 282 342 410
#     4  11  23  43  68  98 134 178 224 284 344 404
#     4  11  23  43  67  98 136 180 229 286 344 408
#     4  12  24  42  66  96 135 179 227 283 342 407
#
# _framework density 23.387501
#
# number of rings (size 3 to 8) (size 9 to 14) (size 15 to 20)
#    0.000    0.800    0.000    9.000    0.000    0.000 
#    0.000   12.000    0.000    0.000    0.000    0.000 
#    0.000    0.000    0.000    0.000    0.000    0.000 
#
# Total GULP energy -247948.520191 kJ/mol
# GULP energy per Si atom -12397.426010 kJ/mol
# Density = 2.333427 g / cm^3
# Si number density = 23.387501 Si / 1000 Ang^3
#
#
#
# Elastic Constant Matrix: (Units=GPa)
#
#
# Indices 1 2 3 4 5 6 
#
# 1 79.9930 29.4378 31.4868 0.0000 0.0000 0.0000
# 2 29.4378 112.4666 31.4519 0.0000 0.0000 0.0000
# 3 31.4868 31.4519 113.0163 0.0000 0.0000 0.0000
# 4 0.0000 0.0000 0.0000 39.8091 0.0000 0.0000
# 5 0.0000 0.0000 0.0000 0.0000 24.1119 0.0000
# 6 0.0000 0.0000 0.0000 0.0000 0.0000 50.5135
#
#
#
# Elastic Compliance Matrix: (Units=1/GPa)
#
#
# Indices 1 2 3 4 5 6 
#
# 1 0.014903 -0.002971 -0.003325 0.000000 0.000000 0.000000
# 2 -0.002971 0.010234 -0.002020 0.000000 0.000000 0.000000
# 3 -0.003325 -0.002020 0.010337 0.000000 0.000000 0.000000
# 4 0.000000 0.000000 0.000000 0.025120 0.000000 0.000000
# 5 0.000000 0.000000 0.000000 0.000000 0.041473 0.000000
# 6 0.000000 0.000000 0.000000 0.000000 0.000000 0.019797
#
#
# Mechanical properties :
#
#
# Convention : Reuss Voigt Hill
#
# Bulk Modulus (GPa) = 53.07533 54.46987 53.77260
# Shear Modulus (GPa) = 34.53562 37.09354 35.81458
#
# Velocity S-wave (km/s) = 3.84692 3.98683 3.91750
# Velocity P-wave (km/s) = 6.51727 6.67337 6.59578
#
# Compressibility (1/GPa) = 0.01884115
#
# Stress axis : x y z
#
# Youngs Moduli (GPa) = 67.09906 97.71176 96.73993
#
# Poissons Ratio (x) = 0.29030 0.32169
# Poissons Ratio (y) = 0.19935 0.19545
# Poissons Ratio (z) = 0.22313 0.19742
#
# Static dielectric constant tensor:
#      x y z
#    x 4.316800 0.000000 0.000000 
#    y 0.000000 4.225810 0.000000 
#    z 0.000000 0.000000 4.222860 
# 
# 
# High freq. dielectric constant tensor:
#      x y z
#    x 1.930910 0.000000 0.000000 
#    y 0.000000 1.915860 0.000000 
#    z 0.000000 0.000000 1.938630 
# 
# From -- ./inp_files/2958.got.cif
#   From: 2010.03.12/outbox.cif.g09.slc.cpg/sg18_2_cif.got.tgz:2958.got - 2010.04.10 18:53:55.
