data_PCOD8156123
_publ_section_title
;
Structure prediction by ZEFSAII (Michael W. Deem and Ramdas Pophale) SiO2 
 PCOD8156123
Probable space group: P 21 21 2
;
_chemical_formula_sum "Si O2"
_cell_formula_units_Z 32
_cell_length_a 14.473093
_cell_length_b 11.581247
_cell_length_c 9.231714
_cell_angle_alpha 90.000000
_cell_angle_beta 90.000000
_cell_angle_gamma 90.000000
_cell_volume 1547.387266
_symmetry_space_group_name_H-M "P 21 21 2"
_symmetry_group_IT_number 18
_symmetry_cell_setting 'orthorhombic'
loop_
_space_group_symop_operation_xyz
x,y,z
-x,-y,z
1/2+x,1/2-y,-z
1/2-x,1/2+y,-z
loop_
_atom_site_type_symbol
_atom_site_label
_atom_site_fract_x
_atom_site_fract_y
_atom_site_fract_z
Si Si1 0.865737 0.722056 0.145961
Si Si2 0.052273 0.611902 0.189841
Si Si3 0.154088 0.199541 0.828589
Si Si4 0.041758 0.125375 0.589498
Si Si5 0.377230 0.271251 0.580027
Si Si6 0.277597 0.648958 0.590819
Si Si7 0.242366 0.928538 0.246313
Si Si8 0.219938 0.510930 0.070861
O O1 0.836449 0.802313 0.276476
O O2 0.804625 0.606602 0.154863
O O3 0.976119 0.704460 0.142863
O O4 0.848111 0.788267 0.999059
O O5 0.113114 0.658413 0.321885
O O6 0.121470 0.580505 0.055386
O O7 0.000000 0.500000 0.249167
O O8 0.055195 0.173548 0.753586
O O9 0.190679 0.317257 0.752850
O O10 0.217398 0.084445 0.817963
O O11 0.146742 0.121905 0.531325
O O12 0.973729 0.207816 0.501099
O O13 0.000000 0.000000 0.594600
O O14 0.296378 0.242556 0.464994
O O15 0.353815 0.380674 0.684997
O O16 0.225591 0.532050 0.646151
O O17 0.233901 0.981378 0.084396
#
# Coordination Sequence:
#
# PCOD8156123 Si02
#       8
#     4   4   4   4   4   4   4   4
#     4  10  23  41  68  97 134 176 234 282 345 409
#     4  10  21  41  66  97 129 178 229 283 344 410
#     4  11  23  46  65  99 140 174 230 293 338 413
#     4  12  26  43  65 101 139 179 234 285 346 417
#     4  12  25  41  68  98 142 186 229 287 351 419
#     4  12  24  43  71  99 138 184 232 277 354 420
#     4  11  23  42  69 100 137 181 226 287 343 415
#     4  10  21  40  71  95 132 182 231 280 348 402
#
# _framework density 20.680021
#
# number of rings (size 3 to 8) (size 9 to 14) (size 15 to 20)
#    0.000    1.000    6.250    0.000    1.750    4.000 
#    2.250    1.875    0.000    0.000    0.000    0.000 
#    0.000    0.000    0.000    0.000    0.000    0.000 
#
# Total GULP energy -396553.845542 kJ/mol
# GULP energy per Si atom -12392.307673 kJ/mol
# Density = 2.063295 g / cm^3
# Si number density = 20.680021 Si / 1000 Ang^3
#
#
#
# Elastic Constant Matrix: (Units=GPa)
#
#
# Indices 1 2 3 4 5 6 
#
# 1 84.0097 34.8347 45.7855 0.0000 0.0000 0.0000
# 2 34.8347 96.2689 41.9458 0.0000 0.0000 0.0000
# 3 45.7855 41.9458 79.3862 0.0000 0.0000 0.0000
# 4 0.0000 0.0000 0.0000 29.9669 0.0000 0.0000
# 5 0.0000 0.0000 0.0000 0.0000 37.7677 0.0000
# 6 0.0000 0.0000 0.0000 0.0000 0.0000 26.3495
#
#
#
# Elastic Compliance Matrix: (Units=1/GPa)
#
#
# Indices 1 2 3 4 5 6 
#
# 1 0.017833 -0.002561 -0.008932 0.000000 0.000000 0.000000
# 2 -0.002561 0.013862 -0.005847 0.000000 0.000000 0.000000
# 3 -0.008932 -0.005847 0.020838 0.000000 0.000000 0.000000
# 4 0.000000 0.000000 0.000000 0.033370 0.000000 0.000000
# 5 0.000000 0.000000 0.000000 0.000000 0.026478 0.000000
# 6 0.000000 0.000000 0.000000 0.000000 0.000000 0.037951
#
#
# Mechanical properties :
#
#
# Convention : Reuss Voigt Hill
#
# Bulk Modulus (GPa) = 56.01540 56.08854 56.05197
# Shear Modulus (GPa) = 26.18297 27.95674 27.06986
#
# Velocity S-wave (km/s) = 3.56209 3.68077 3.62192
# Velocity P-wave (km/s) = 6.63803 6.72644 6.68239
#
# Compressibility (1/GPa) = 0.01785223
#
# Stress axis : x y z
#
# Youngs Moduli (GPa) = 56.07482 72.13935 47.99002
#
# Poissons Ratio (x) = 0.18476 0.42865
# Poissons Ratio (y) = 0.14362 0.28061
# Poissons Ratio (z) = 0.50086 0.42182
#
# Static dielectric constant tensor:
#      x y z
#    x 3.852700 0.000000 0.000000 
#    y 0.000000 3.898150 0.000000 
#    z 0.000000 0.000000 3.723590 
# 
# 
# High freq. dielectric constant tensor:
#      x y z
#    x 1.798230 0.000000 0.000000 
#    y 0.000000 1.823540 0.000000 
#    z 0.000000 0.000000 1.806710 
# 
# From -- ./inp_files/3942.got.cif
#   From: 2010.03.12/outbox.cif.g09.slc.cpg/sg18_2_cif.got.tgz:3942.got - 2010.04.10 18:53:55.
