data_PCOD8156517
_publ_section_title
;
Structure prediction by ZEFSAII (Michael W. Deem and Ramdas Pophale) SiO2 
 PCOD8156517
Probable space group: P 21 21 2
;
_chemical_formula_sum "Si O2"
_cell_formula_units_Z 22
_cell_length_a 13.086511
_cell_length_b 6.243502
_cell_length_c 11.882130
_cell_angle_alpha 90.000000
_cell_angle_beta 90.000000
_cell_angle_gamma 90.000000
_cell_volume 970.837245
_symmetry_space_group_name_H-M "P 21 21 2"
_symmetry_group_IT_number 18
_symmetry_cell_setting 'orthorhombic'
loop_
_space_group_symop_operation_xyz
x,y,z
-x,-y,z
1/2+x,1/2-y,-z
1/2-x,1/2+y,-z
loop_
_atom_site_type_symbol
_atom_site_label
_atom_site_fract_x
_atom_site_fract_y
_atom_site_fract_z
Si Si1 0.852536 0.830952 0.625251
Si Si2 0.632477 0.704526 0.934981
Si Si3 0.361562 0.359673 0.576716
Si Si4 0.000000 0.000000 0.245561
Si Si5 0.000000 0.500000 0.937811
Si Si6 0.646332 0.346740 0.126186
Si Si7 0.500000 0.000000 0.484788
O O1 0.749488 0.697486 0.618017
O O2 0.857786 0.942939 0.748328
O O3 0.940452 0.660727 0.597710
O O4 0.856826 0.032954 0.544335
O O5 0.546531 0.679618 0.836843
O O6 0.746494 0.722408 0.888165
O O7 0.628932 0.514033 0.026219
O O8 0.598236 0.925473 0.990292
O O9 0.406388 0.537195 0.665952
O O10 0.428497 0.141898 0.567767
O O11 0.951878 0.691377 0.866997
#
# Coordination Sequence:
#
# PCOD8156517 Si02
#       7
#     4   4   4   2   2   4   2
#     4  12  26  47  73 108 144 191 240 301 362 441
#     4  12  26  47  74 107 144 192 245 294 370 428
#     4  12  26  47  74 107 144 192 245 294 370 428
#     4  12  24  50  74 106 148 188 252 306 350 448
#     4  12  25  47  74 106 142 189 241 298 370 428
#     4  12  26  47  73 108 144 191 240 301 362 441
#     4  12  25  47  74 106 142 189 241 298 370 428
#
# _framework density 22.660854
#
# number of rings (size 3 to 8) (size 9 to 14) (size 15 to 20)
#    0.000    0.000    9.091    0.545    0.000    5.091 
#    9.818    0.000    0.000    0.000    0.000    0.000 
#    0.000    0.000    0.000    0.000    0.000    0.000 
#
# Total GULP energy -272543.143285 kJ/mol
# GULP energy per Si atom -12388.324695 kJ/mol
# Density = 2.260928 g / cm^3
# Si number density = 22.660854 Si / 1000 Ang^3
#
#
#
# Elastic Constant Matrix: (Units=GPa)
#
#
# Indices 1 2 3 4 5 6 
#
# 1 104.2093 11.0196 20.3413 0.0000 0.0000 0.0000
# 2 11.0196 40.8380 23.1819 0.0000 0.0000 0.0000
# 3 20.3413 23.1819 154.9371 0.0000 0.0000 0.0000
# 4 0.0000 0.0000 0.0000 23.1004 0.0000 0.0000
# 5 0.0000 0.0000 0.0000 0.0000 40.5103 0.0000
# 6 0.0000 0.0000 0.0000 0.0000 0.0000 44.9538
#
#
#
# Elastic Compliance Matrix: (Units=1/GPa)
#
#
# Indices 1 2 3 4 5 6 
#
# 1 0.010016 -0.002138 -0.000995 0.000000 0.000000 0.000000
# 2 -0.002138 0.027216 -0.003791 0.000000 0.000000 0.000000
# 3 -0.000995 -0.003791 0.007152 0.000000 0.000000 0.000000
# 4 0.000000 0.000000 0.000000 0.043289 0.000000 0.000000
# 5 0.000000 0.000000 0.000000 0.000000 0.024685 0.000000
# 6 0.000000 0.000000 0.000000 0.000000 0.000000 0.022245
#
#
# Mechanical properties :
#
#
# Convention : Reuss Voigt Hill
#
# Bulk Modulus (GPa) = 32.74856 45.45222 39.10039
# Shear Modulus (GPa) = 31.51958 38.07568 34.79763
#
# Velocity S-wave (km/s) = 3.73356 4.10352 3.92290
# Velocity P-wave (km/s) = 5.75056 6.52326 6.14906
#
# Compressibility (1/GPa) = 0.03053570
#
# Stress axis : x y z
#
# Youngs Moduli (GPa) = 99.83637 36.74299 139.81786
#
# Poissons Ratio (x) = 0.07855 0.13914
# Poissons Ratio (y) = 0.21344 0.53011
# Poissons Ratio (z) = 0.09935 0.13931
#
# Static dielectric constant tensor:
#      x y z
#    x 4.491590 0.000000 0.000000 
#    y 0.000000 3.802970 0.000000 
#    z 0.000000 0.000000 4.284050 
# 
# 
# High freq. dielectric constant tensor:
#      x y z
#    x 1.920540 0.000000 0.000000 
#    y 0.000000 1.869890 0.000000 
#    z 0.000000 0.000000 1.907080 
# 
# From -- ./inp_files/5109.got.cif
#   From: 2010.03.12/outbox.cif.g09.slc.cpg/sg18_3_cif.got.tgz:5109.got - 2010.04.10 18:53:55.
