data_PCOD8156614
_publ_section_title
;
Structure prediction by ZEFSAII (Michael W. Deem and Ramdas Pophale) SiO2 
 PCOD8156614
Probable space group: P 21 21 21
;
_chemical_formula_sum "Si O2"
_cell_formula_units_Z 32
_cell_length_a 12.903171
_cell_length_b 20.133961
_cell_length_c 5.301507
_cell_angle_alpha 90.000000
_cell_angle_beta 90.000000
_cell_angle_gamma 90.000000
_cell_volume 1377.288797
_symmetry_space_group_name_H-M "P 21 21 21"
_symmetry_group_IT_number 19
_symmetry_cell_setting 'orthorhombic'
loop_
_space_group_symop_operation_xyz
x,y,z
1/2-x,-y,1/2+z
1/2+x,1/2-y,-z
-x,1/2+y,1/2-z
loop_
_atom_site_type_symbol
_atom_site_label
_atom_site_fract_x
_atom_site_fract_y
_atom_site_fract_z
Si Si1 0.528477 0.734769 0.750001
Si Si2 0.046936 0.043228 0.250001
Si Si3 0.162630 0.171136 0.250000
Si Si4 0.547968 0.170073 0.249999
Si Si5 0.761495 0.735424 0.750000
Si Si6 0.982578 0.982872 0.750001
Si Si7 0.731272 0.940524 0.250001
Si Si8 0.824044 0.081163 0.250001
O O1 0.449653 0.795158 0.750000
O O2 0.514497 0.690712 0.499918
O O3 0.644972 0.765386 0.750000
O O4 0.514497 0.690713 0.000086
O O5 0.146086 0.091812 0.250001
O O6 0.946310 0.092887 0.250001
O O7 0.050717 0.997659 0.500296
O O8 0.050717 0.997659 0.999705
O O9 0.224730 0.190467 0.501519
O O10 0.224730 0.190467 0.998480
O O11 0.661847 0.202350 0.249999
O O12 0.559551 0.091444 0.250001
O O13 0.884307 0.030591 0.750001
O O14 0.737662 0.893820 0.499633
O O15 0.816545 0.998556 0.250001
O O16 0.737662 0.893820 0.000368
#
# Coordination Sequence:
#
# PCOD8156614 Si02
#       8
#     4   4   4   4   4   4   4   4
#     4  10  21  39  62  85 113 149 193 249 292 327
#     4  10  19  32  52  78 113 150 179 223 283 340
#     4  10  21  37  60  89 114 148 197 235 286 352
#     4  10  21  37  60  89 114 148 197 235 286 352
#     4  10  21  39  62  85 113 149 193 249 292 327
#     4  10  19  32  52  78 113 150 179 223 283 340
#     4   8  14  24  38  60  92 131 170 203 248 315
#     4   8  14  24  38  60  92 131 170 203 248 315
#
# _framework density 23.234051000000001
#
# number of rings (size 3 to 8) (size 9 to 14) (size 15 to 20)
#    0.000    2.500    0.000    2.250    0.000    1.000 
#    0.000    0.000    0.000   33.000    0.000    0.000 
#    0.000    0.000    0.000    0.000    0.000    0.000 
#
# Total GULP energy -396632.123750 kJ/mol
# GULP energy per Si atom -12394.753867 kJ/mol
# Density = 2.318117 g / cm^3
# Si number density = 23.234051 Si / 1000 Ang^3
#
#
#
# Elastic Constant Matrix: (Units=GPa)
#
#
# Indices 1 2 3 4 5 6 
#
# 1 86.5062 3.5131 19.5952 0.0000 0.0000 0.0000
# 2 3.5131 51.1613 20.3146 0.0000 0.0000 0.0000
# 3 19.5952 20.3146 229.8257 0.0000 0.0000 0.0000
# 4 0.0000 0.0000 0.0000 21.7720 0.0000 0.0000
# 5 0.0000 0.0000 0.0000 0.0000 12.3338 0.0000
# 6 0.0000 0.0000 0.0000 0.0000 0.0000 21.8156
#
#
#
# Elastic Compliance Matrix: (Units=1/GPa)
#
#
# Indices 1 2 3 4 5 6 
#
# 1 0.011796 -0.000426 -0.000968 0.000000 0.000000 0.000000
# 2 -0.000426 0.020272 -0.001756 0.000000 0.000000 0.000000
# 3 -0.000968 -0.001756 0.004589 0.000000 0.000000 0.000000
# 4 0.000000 0.000000 0.000000 0.045931 0.000000 0.000000
# 5 0.000000 0.000000 0.000000 0.000000 0.081078 0.000000
# 6 0.000000 0.000000 0.000000 0.000000 0.000000 0.045839
#
#
# Mechanical properties :
#
#
# Convention : Reuss Voigt Hill
#
# Bulk Modulus (GPa) = 32.93926 50.48209 41.71067
# Shear Modulus (GPa) = 22.13139 32.78896 27.46018
#
# Velocity S-wave (km/s) = 3.08968 3.76073 3.44160
# Velocity P-wave (km/s) = 5.18999 6.37434 5.81241
#
# Compressibility (1/GPa) = 0.03035891
#
# Stress axis : x y z
#
# Youngs Moduli (GPa) = 84.77119 49.32831 217.91946
#
# Poissons Ratio (x) = 0.02099 0.21098
# Poissons Ratio (y) = 0.03608 0.38258
# Poissons Ratio (z) = 0.08207 0.08660
#
# Static dielectric constant tensor:
#      x y z
#    x 3.784680 0.000000 0.000000 
#    y 0.000000 3.660020 0.000000 
#    z 0.000000 0.000000 5.459980 
# 
# 
# High freq. dielectric constant tensor:
#      x y z
#    x 1.889290 0.000000 0.000000 
#    y 0.000000 1.883480 0.000000 
#    z 0.000000 0.000000 1.956570 
# 
# From -- ./inp_files/1180.got.cif
#   From: 2010.03.12/outbox.cif.g09.slc.cpg/sg19_1_cif.got.tgz:1180.got - 2010.04.10 18:59:41.
