data_PCOD8156028
_publ_section_title
;
Structure prediction by ZEFSAII (Michael W. Deem and Ramdas Pophale) SiO2 
 PCOD8156028
Probable space group: P 21 21 2
;
_chemical_formula_sum "Si O2"
_cell_formula_units_Z 32
_cell_length_a 8.583246
_cell_length_b 13.719336
_cell_length_c 11.535643
_cell_angle_alpha 90.000000
_cell_angle_beta 90.000000
_cell_angle_gamma 90.000000
_cell_volume 1358.396205
_symmetry_space_group_name_H-M "P 21 21 2"
_symmetry_group_IT_number 18
_symmetry_cell_setting 'orthorhombic'
loop_
_space_group_symop_operation_xyz
x,y,z
-x,-y,z
1/2+x,1/2-y,-z
1/2-x,1/2+y,-z
loop_
_atom_site_type_symbol
_atom_site_label
_atom_site_fract_x
_atom_site_fract_y
_atom_site_fract_z
Si Si1 0.987340 0.233027 0.697380
Si Si2 0.681937 0.984445 0.489842
Si Si3 0.095355 0.721193 0.450797
Si Si4 0.737290 0.123621 0.297660
Si Si5 0.852924 0.855761 0.905125
Si Si6 0.351592 0.320923 0.937542
Si Si7 0.158963 0.459879 0.079205
Si Si8 0.817820 0.629568 0.316414
O O1 0.058883 0.339928 0.734331
O O2 0.085762 0.153897 0.772249
O O3 0.992372 0.225952 0.557642
O O4 0.806895 0.210586 0.728457
O O5 0.707590 0.868863 0.506828
O O6 0.500000 0.000000 0.500955
O O7 0.740083 0.018804 0.361802
O O8 0.757342 0.054664 0.588605
O O9 0.210841 0.795333 0.390015
O O10 0.965485 0.688013 0.361391
O O11 0.849981 0.121208 0.185987
O O12 0.696382 0.791268 0.918036
O O13 0.804047 0.966016 0.928429
O O14 0.982673 0.826505 0.999943
O O15 0.211567 0.364311 0.012601
O O16 0.121242 0.434952 0.211282
O O17 0.000000 0.500000 0.021823
#
# Coordination Sequence:
#
# PCOD8156028 Si02
#       8
#     4   4   4   4   4   4   4   4
#     4  11  21  41  68  99 138 186 225 290 349 417
#     4  10  20  40  66  99 137 182 233 284 354 428
#     4  11  22  43  68 102 147 182 233 294 352 433
#     4  11  24  42  70 101 142 187 231 291 362 427
#     4  11  26  47  74 102 143 184 243 293 356 424
#     4  11  26  45  70 104 140 188 237 299 358 430
#     4  12  26  48  74 103 135 188 245 301 355 419
#     4  11  23  39  69 103 136 180 237 285 356 414
#
# _framework density 23.557193000000002
#
# number of rings (size 3 to 8) (size 9 to 14) (size 15 to 20)
#    0.000    1.000    5.000    2.250    8.750    0.500 
#    2.250    0.000    5.500    0.000    0.000    0.000 
#    0.000    0.000    0.000    0.000    0.000    0.000 
#
# Total GULP energy -396552.030595 kJ/mol
# GULP energy per Si atom -12392.250956 kJ/mol
# Density = 2.350358 g / cm^3
# Si number density = 23.557193 Si / 1000 Ang^3
#
#
#
# Elastic Constant Matrix: (Units=GPa)
#
#
# Indices 1 2 3 4 5 6 
#
# 1 79.9653 32.5871 20.3409 0.0000 0.0000 0.0000
# 2 32.5871 73.7298 33.3735 0.0000 0.0000 0.0000
# 3 20.3409 33.3735 113.0477 0.0000 0.0000 0.0000
# 4 0.0000 0.0000 0.0000 27.2584 0.0000 0.0000
# 5 0.0000 0.0000 0.0000 0.0000 30.7262 0.0000
# 6 0.0000 0.0000 0.0000 0.0000 0.0000 33.0024
#
#
#
# Elastic Compliance Matrix: (Units=1/GPa)
#
#
# Indices 1 2 3 4 5 6 
#
# 1 0.015327 -0.006378 -0.000875 0.000000 0.000000 0.000000
# 2 -0.006378 0.018309 -0.004258 0.000000 0.000000 0.000000
# 3 -0.000875 -0.004258 0.010260 0.000000 0.000000 0.000000
# 4 0.000000 0.000000 0.000000 0.036686 0.000000 0.000000
# 5 0.000000 0.000000 0.000000 0.000000 0.032545 0.000000
# 6 0.000000 0.000000 0.000000 0.000000 0.000000 0.030301
#
#
# Mechanical properties :
#
#
# Convention : Reuss Voigt Hill
#
# Bulk Modulus (GPa) = 47.90376 48.81620 48.35998
# Shear Modulus (GPa) = 28.83360 30.22683 29.53021
#
# Velocity S-wave (km/s) = 3.50234 3.58596 3.54440
# Velocity P-wave (km/s) = 6.06089 6.15734 6.10931
#
# Compressibility (1/GPa) = 0.02087519
#
# Stress axis : x y z
#
# Youngs Moduli (GPa) = 65.24327 54.61706 97.46458
#
# Poissons Ratio (x) = 0.34837 0.08527
# Poissons Ratio (y) = 0.41614 0.41496
# Poissons Ratio (z) = 0.05708 0.23253
#
# Static dielectric constant tensor:
#      x y z
#    x 4.072390 0.000000 0.000000 
#    y 0.000000 4.566530 0.000000 
#    z 0.000000 0.000000 4.431830 
# 
# 
# High freq. dielectric constant tensor:
#      x y z
#    x 1.923080 0.000000 0.000000 
#    y 0.000000 1.920500 0.000000 
#    z 0.000000 0.000000 1.936510 
# 
# From -- ./inp_files/5685.got.cif
#   From: 2010.03.12/outbox.cif.g09.slc.cpg/sg18_3_cif.got.tgz:5685.got - 2010.04.10 18:53:55.
