data_PCOD8156512
_publ_section_title
;
Structure prediction by ZEFSAII (Michael W. Deem and Ramdas Pophale) SiO2 
 PCOD8156512
Probable space group: P 21 21 2
;
_chemical_formula_sum "Si O2"
_cell_formula_units_Z 14
_cell_length_a 8.070497
_cell_length_b 7.078867
_cell_length_c 10.083705
_cell_angle_alpha 90.000000
_cell_angle_beta 90.000000
_cell_angle_gamma 90.000000
_cell_volume 576.081813
_symmetry_space_group_name_H-M "P 21 21 2"
_symmetry_group_IT_number 18
_symmetry_cell_setting 'orthorhombic'
loop_
_space_group_symop_operation_xyz
x,y,z
-x,-y,z
1/2+x,1/2-y,-z
1/2-x,1/2+y,-z
loop_
_atom_site_type_symbol
_atom_site_label
_atom_site_fract_x
_atom_site_fract_y
_atom_site_fract_z
Si Si1 0.314795 0.054642 0.137898
Si Si2 0.763511 0.227297 0.336660
Si Si3 0.500000 0.000000 0.512046
Si Si4 0.321574 0.475544 0.134265
O O1 0.276979 0.266622 0.182843
O O2 0.500000 0.000000 0.183267
O O3 0.187078 0.916871 0.216535
O O4 0.307101 0.039647 0.978403
O O5 0.646623 0.103536 0.432398
O O6 0.669333 0.399820 0.266514
O O7 0.922832 0.323940 0.405089
O O8 0.500000 0.500000 0.064538
#
# Coordination Sequence:
#
# PCOD8156512 Si02
#       4
#     4   4   2   4
#     4  12  24  46  76 113 154 196 255 329 399 458
#     4  12  29  53  74 115 154 211 268 318 389 475
#     4  12  32  52  82 108 166 220 258 318 386 480
#     4  12  24  45  76 113 155 194 256 332 396 457
#
# _framework density 24.302105000000001
#
# number of rings (size 3 to 8) (size 9 to 14) (size 15 to 20)
#    0.000    0.000    7.143    0.000   10.000    2.286 
#    0.000    0.000    0.000    0.000    0.000    0.000 
#    0.000    0.000    0.000    0.000    0.000    0.000 
#
# Total GULP energy -173483.716956 kJ/mol
# GULP energy per Si atom -12391.694068 kJ/mol
# Density = 2.424679 g / cm^3
# Si number density = 24.302105 Si / 1000 Ang^3
#
#
#
# Elastic Constant Matrix: (Units=GPa)
#
#
# Indices 1 2 3 4 5 6 
#
# 1 61.5256 22.9055 24.0558 0.0000 0.0000 0.0000
# 2 22.9055 197.2339 40.8066 0.0000 0.0000 0.0000
# 3 24.0558 40.8066 91.8420 0.0000 0.0000 0.0000
# 4 0.0000 0.0000 0.0000 27.2658 0.0000 0.0000
# 5 0.0000 0.0000 0.0000 0.0000 4.2525 0.0000
# 6 0.0000 0.0000 0.0000 0.0000 0.0000 48.8282
#
#
#
# Elastic Compliance Matrix: (Units=1/GPa)
#
#
# Indices 1 2 3 4 5 6 
#
# 1 0.018385 -0.001254 -0.004258 0.000000 0.000000 0.000000
# 2 -0.001254 0.005669 -0.002190 0.000000 0.000000 0.000000
# 3 -0.004258 -0.002190 0.012977 0.000000 0.000000 0.000000
# 4 0.000000 0.000000 0.000000 0.036676 0.000000 0.000000
# 5 0.000000 0.000000 0.000000 0.000000 0.235156 0.000000
# 6 0.000000 0.000000 0.000000 0.000000 0.000000 0.020480
#
#
# Mechanical properties :
#
#
# Convention : Reuss Voigt Hill
#
# Bulk Modulus (GPa) = 46.24176 58.45969 52.35072
# Shear Modulus (GPa) = 14.20629 33.59153 23.89891
#
# Velocity S-wave (km/s) = 2.42041 3.72189 3.13934
# Velocity P-wave (km/s) = 5.18463 6.52515 5.89313
#
# Compressibility (1/GPa) = 0.02162547
#
# Stress axis : x y z
#
# Youngs Moduli (GPa) = 54.39144 176.40020 77.06049
#
# Poissons Ratio (x) = 0.22123 0.32815
# Poissons Ratio (y) = 0.06821 0.16879
# Poissons Ratio (z) = 0.23162 0.38637
#
# Static dielectric constant tensor:
#      x y z
#    x 4.135120 0.000000 0.000000 
#    y 0.000000 5.034390 0.000000 
#    z 0.000000 0.000000 4.366110 
# 
# 
# High freq. dielectric constant tensor:
#      x y z
#    x 1.939760 0.000000 0.000000 
#    y 0.000000 1.994890 0.000000 
#    z 0.000000 0.000000 1.968990 
# 
# From -- ./inp_files/2785.got.cif
#   From: 2010.03.12/outbox.cif.g09.slc.cpg/sg18_2_cif.got.tgz:2785.got - 2010.04.10 18:53:55.
