data_PCOD8156555
_publ_section_title
;
Structure prediction by ZEFSAII (Michael W. Deem and Ramdas Pophale) SiO2 
 PCOD8156555
Probable space group: P 21 21 21
;
_chemical_formula_sum "Si O2"
_cell_formula_units_Z 28
_cell_length_a 10.201249
_cell_length_b 10.473839
_cell_length_c 15.091544
_cell_angle_alpha 90.000000
_cell_angle_beta 90.000000
_cell_angle_gamma 90.000000
_cell_volume 1612.474727
_symmetry_space_group_name_H-M "P 21 21 21"
_symmetry_group_IT_number 19
_symmetry_cell_setting 'orthorhombic'
loop_
_space_group_symop_operation_xyz
x,y,z
1/2-x,-y,1/2+z
1/2+x,1/2-y,-z
-x,1/2+y,1/2-z
loop_
_atom_site_type_symbol
_atom_site_label
_atom_site_fract_x
_atom_site_fract_y
_atom_site_fract_z
Si Si1 0.634874 0.684577 0.677937
Si Si2 0.790924 0.151231 0.027523
Si Si3 0.818374 0.569333 0.255173
Si Si4 0.033751 0.465569 0.047469
Si Si5 0.696759 0.593432 0.429206
Si Si6 0.031965 0.990854 0.083373
Si Si7 0.001622 0.720482 0.150040
O O1 0.727925 0.780540 0.623162
O O2 0.714640 0.553593 0.695010
O O3 0.507842 0.647119 0.616599
O O4 0.600726 0.748867 0.770542
O O5 0.918166 0.061843 0.030548
O O6 0.811147 0.258417 0.953631
O O7 0.666056 0.067862 0.003325
O O8 0.695817 0.593996 0.320982
O O9 0.857281 0.688122 0.191561
O O10 0.950969 0.539908 0.314473
O O11 0.056087 0.598443 0.097637
O O12 0.923695 0.483404 0.971341
O O13 0.829245 0.522715 0.464887
O O14 0.995687 0.840551 0.083703
#
# Coordination Sequence:
#
# PCOD8156555 Si02
#       7
#     4   4   4   4   4   4   4
#     4   9  17  33  54  76 103 141 182 214 252 315
#     4  11  18  32  52  86 104 135 180 224 258 313
#     4   8  16  32  56  75  96 140 183 211 250 307
#     4  10  21  30  56  81 105 139 174 229 272 303
#     4   9  18  34  52  77 107 140 175 213 268 316
#     4   9  19  30  53  76 103 141 176 213 259 310
#     4  10  17  33  53  81 104 138 190 220 247 316
#
# _framework density 17.364612999999999
#
# number of rings (size 3 to 8) (size 9 to 14) (size 15 to 20)
#    0.857    1.714    1.429    2.571    0.000    1.143 
#    0.000    0.000    3.143    5.143    0.000    0.000 
#    0.000    0.000    0.000    0.000    0.000    0.000 
#
# Total GULP energy -346889.037869 kJ/mol
# GULP energy per Si atom -12388.894210 kJ/mol
# Density = 1.732509 g / cm^3
# Si number density = 17.364613 Si / 1000 Ang^3
#
#
#
# Elastic Constant Matrix: (Units=GPa)
#
#
# Indices 1 2 3 4 5 6 
#
# 1 61.6959 27.5892 19.0770 0.0000 0.0000 0.0000
# 2 27.5892 102.3238 29.5021 0.0000 0.0000 0.0000
# 3 19.0770 29.5021 45.5338 0.0000 0.0000 0.0000
# 4 0.0000 0.0000 0.0000 38.8157 0.0000 0.0000
# 5 0.0000 0.0000 0.0000 0.0000 34.7286 0.0000
# 6 0.0000 0.0000 0.0000 0.0000 0.0000 20.4198
#
#
#
# Elastic Compliance Matrix: (Units=1/GPa)
#
#
# Indices 1 2 3 4 5 6 
#
# 1 0.019640 -0.003595 -0.005900 0.000000 0.000000 0.000000
# 2 -0.003595 0.012676 -0.006707 0.000000 0.000000 0.000000
# 3 -0.005900 -0.006707 0.028779 0.000000 0.000000 0.000000
# 4 0.000000 0.000000 0.000000 0.025763 0.000000 0.000000
# 5 0.000000 0.000000 0.000000 0.000000 0.028795 0.000000
# 6 0.000000 0.000000 0.000000 0.000000 0.000000 0.048972
#
#
# Mechanical properties :
#
#
# Convention : Reuss Voigt Hill
#
# Bulk Modulus (GPa) = 34.85180 40.21002 37.53091
# Shear Modulus (GPa) = 24.20243 27.68515 25.94379
#
# Velocity S-wave (km/s) = 3.73738 3.99725 3.86950
# Velocity P-wave (km/s) = 6.22400 6.67163 6.45170
#
# Compressibility (1/GPa) = 0.02869292
#
# Stress axis : x y z
#
# Youngs Moduli (GPa) = 50.91614 78.89040 34.74763
#
# Poissons Ratio (x) = 0.28357 0.20500
# Poissons Ratio (y) = 0.18302 0.23305
# Poissons Ratio (z) = 0.30038 0.52911
#
# Static dielectric constant tensor:
#      x y z
#    x 2.863980 0.000000 0.000000 
#    y 0.000000 3.318590 0.000000 
#    z 0.000000 0.000000 3.221110 
# 
# 
# High freq. dielectric constant tensor:
#      x y z
#    x 1.625720 0.000000 0.000000 
#    y 0.000000 1.678550 0.000000 
#    z 0.000000 0.000000 1.662810 
# 
# From -- ./inp_files/6639.got.cif
#   From: 2010.03.12/outbox.cif.g09.slc.cpg/sg19_4_cif.got.tgz:6639.got - 2010.04.10 18:59:41.
