data_PCOD8156151
_publ_section_title
;
Structure prediction by ZEFSAII (Michael W. Deem and Ramdas Pophale) SiO2 
 PCOD8156151
Probable space group: P 21 21 2
;
_chemical_formula_sum "Si O2"
_cell_formula_units_Z 18
_cell_length_a 8.833659
_cell_length_b 9.702098
_cell_length_c 10.281727
_cell_angle_alpha 90.000000
_cell_angle_beta 90.000000
_cell_angle_gamma 90.000000
_cell_volume 881.195673
_symmetry_space_group_name_H-M "P 21 21 2"
_symmetry_group_IT_number 18
_symmetry_cell_setting 'orthorhombic'
loop_
_space_group_symop_operation_xyz
x,y,z
-x,-y,z
1/2+x,1/2-y,-z
1/2-x,1/2+y,-z
loop_
_atom_site_type_symbol
_atom_site_label
_atom_site_fract_x
_atom_site_fract_y
_atom_site_fract_z
Si Si1 0.068993 0.350267 0.988363
Si Si2 0.990802 0.287906 0.699375
Si Si3 0.246236 0.488318 0.650556
Si Si4 0.000000 0.000000 0.559206
Si Si5 0.393857 0.384412 0.912262
O O1 0.249942 0.359273 0.006311
O O2 0.000000 0.500000 0.997218
O O3 0.034116 0.281152 0.850176
O O4 0.992645 0.255871 0.099366
O O5 0.830113 0.365276 0.685186
O O6 0.118364 0.373798 0.620591
O O7 0.982659 0.133627 0.648197
O O8 0.349233 0.511529 0.525808
O O9 0.347418 0.434963 0.769808
O O10 0.500000 0.500000 0.978238
#
# Coordination Sequence:
#
# PCOD8156151 Si02
#       5
#     4   4   4   2   4
#     4  11  22  41  63  90 129 164 206 263 321 387
#     4  10  22  41  61  93 128 167 207 265 324 362
#     4  10  21  43  62  86 130 164 207 266 316 372
#     4  12  22  36  68  90 118 172 220 254 310 390
#     4  11  22  39  66  90 123 166 207 259 328 378
#
# _framework density 20.426791000000001
#
# number of rings (size 3 to 8) (size 9 to 14) (size 15 to 20)
#    0.000    1.333    5.556    2.667    1.556    0.000 
#    0.000    0.000    4.889    0.000    0.000    0.000 
#    0.000    0.000    0.000    0.000    0.000    0.000 
#
# Total GULP energy -223211.609673 kJ/mol
# GULP energy per Si atom -12400.644982 kJ/mol
# Density = 2.038030 g / cm^3
# Si number density = 20.426791 Si / 1000 Ang^3
#
#
#
# Elastic Constant Matrix: (Units=GPa)
#
#
# Indices 1 2 3 4 5 6 
#
# 1 142.3632 81.2124 41.2543 0.0000 0.0000 0.0000
# 2 81.2124 165.0973 71.0469 0.0000 0.0000 0.0000
# 3 41.2543 71.0469 50.8257 0.0000 0.0000 0.0000
# 4 0.0000 0.0000 0.0000 29.2391 0.0000 0.0000
# 5 0.0000 0.0000 0.0000 0.0000 19.4773 0.0000
# 6 0.0000 0.0000 0.0000 0.0000 0.0000 42.2001
#
#
#
# Elastic Compliance Matrix: (Units=1/GPa)
#
#
# Indices 1 2 3 4 5 6 
#
# 1 0.009955 -0.003563 -0.003100 0.000000 0.000000 0.000000
# 2 -0.003563 0.016476 -0.020140 0.000000 0.000000 0.000000
# 3 -0.003100 -0.020140 0.050343 0.000000 0.000000 0.000000
# 4 0.000000 0.000000 0.000000 0.034201 0.000000 0.000000
# 5 0.000000 0.000000 0.000000 0.000000 0.051342 0.000000
# 6 0.000000 0.000000 0.000000 0.000000 0.000000 0.023697
#
#
# Mechanical properties :
#
#
# Convention : Reuss Voigt Hill
#
# Bulk Modulus (GPa) = 43.15910 82.81258 62.98584
# Shear Modulus (GPa) = 20.21488 29.16814 24.69151
#
# Velocity S-wave (km/s) = 3.14924 3.78290 3.48052
# Velocity P-wave (km/s) = 5.86500 7.72720 6.85959
#
# Compressibility (1/GPa) = 0.02317008
#
# Stress axis : x y z
#
# Youngs Moduli (GPa) = 100.45088 60.69259 19.86357
#
# Poissons Ratio (x) = 0.21625 0.06157
# Poissons Ratio (y) = 0.35791 0.40005
# Poissons Ratio (z) = 0.31137 1.22233
#
# Static dielectric constant tensor:
#      x y z
#    x 4.211500 0.000000 0.000000 
#    y 0.000000 3.777940 0.000000 
#    z 0.000000 0.000000 3.363810 
# 
# 
# High freq. dielectric constant tensor:
#      x y z
#    x 1.822550 0.000000 0.000000 
#    y 0.000000 1.809040 0.000000 
#    z 0.000000 0.000000 1.763700 
# 
# From -- ./inp_files/5361.got.cif
#   From: 2010.03.12/outbox.cif.g09.slc.cpg/sg18_3_cif.got.tgz:5361.got - 2010.04.10 18:53:55.
