data_PCOD8156562
_publ_section_title
;
Structure prediction by ZEFSAII (Michael W. Deem and Ramdas Pophale) SiO2 
 PCOD8156562
Probable space group: P 21 21 21
;
_chemical_formula_sum "Si O2"
_cell_formula_units_Z 32
_cell_length_a 14.961771
_cell_length_b 11.668086
_cell_length_c 9.309580
_cell_angle_alpha 90.000000
_cell_angle_beta 90.000000
_cell_angle_gamma 90.000000
_cell_volume 1625.222077
_symmetry_space_group_name_H-M "P 21 21 21"
_symmetry_group_IT_number 19
_symmetry_cell_setting 'orthorhombic'
loop_
_space_group_symop_operation_xyz
x,y,z
1/2-x,-y,1/2+z
1/2+x,1/2-y,-z
-x,1/2+y,1/2-z
loop_
_atom_site_type_symbol
_atom_site_label
_atom_site_fract_x
_atom_site_fract_y
_atom_site_fract_z
Si Si1 0.945770 0.011813 0.029031
Si Si2 0.969080 0.789130 0.177704
Si Si3 0.072367 0.934002 0.383070
Si Si4 0.799530 0.113665 0.215874
Si Si5 0.575330 0.894977 0.971776
Si Si6 0.713720 0.714808 0.480370
Si Si7 0.877912 0.605062 0.344885
Si Si8 0.658764 0.917497 0.269606
O O1 0.914785 0.016495 0.864953
O O2 0.919100 0.887244 0.088533
O O3 0.889420 0.100080 0.123192
O O4 0.049156 0.046232 0.049485
O O5 0.904501 0.732558 0.294898
O O6 0.053138 0.840188 0.261808
O O7 0.002570 0.700510 0.059864
O O8 0.126652 0.867318 0.506498
O O9 0.132606 0.029787 0.301028
O O10 0.977110 0.984594 0.442005
O O11 0.834080 0.124449 0.378866
O O12 0.757632 0.225512 0.134093
O O13 0.732434 0.006727 0.211680
O O14 0.603988 0.874147 0.133903
O O15 0.788208 0.622322 0.434679
O O16 0.700931 0.810878 0.356476
#
# Coordination Sequence:
#
# PCOD8156562 Si02
#       8
#     4   4   4   4   4   4   4   4
#     4  10  20  40  62  88 125 159 211 251 313 375
#     4  10  17  37  67  84 111 175 204 245 310 386
#     4  10  21  41  65  88 124 171 214 249 314 400
#     4  11  20  40  65  92 120 163 213 252 311 382
#     4  11  21  39  64  90 124 162 211 253 316 387
#     4  11  23  42  64  94 129 168 210 269 323 365
#     4  10  21  39  66  90 120 174 215 253 313 392
#     4  11  25  38  59 102 127 150 210 282 304 357
#
# _framework density 19.689615
#
# number of rings (size 3 to 8) (size 9 to 14) (size 15 to 20)
#    0.000    1.500    5.000    3.000    1.750    1.000 
#    9.000    1.250    0.000    0.000    0.000    0.000 
#    0.000    0.000    0.000    0.000    0.000    0.000 
#
# Total GULP energy -396560.237868 kJ/mol
# GULP energy per Si atom -12392.507433 kJ/mol
# Density = 1.964480 g / cm^3
# Si number density = 19.689615 Si / 1000 Ang^3
#
#
#
# Elastic Constant Matrix: (Units=GPa)
#
#
# Indices 1 2 3 4 5 6 
#
# 1 66.9012 20.3775 33.3376 0.0000 0.0000 0.0000
# 2 20.3775 77.0639 23.0500 0.0000 0.0000 0.0000
# 3 33.3376 23.0500 102.4455 0.0000 0.0000 0.0000
# 4 0.0000 0.0000 0.0000 29.5468 0.0000 0.0000
# 5 0.0000 0.0000 0.0000 0.0000 33.3665 0.0000
# 6 0.0000 0.0000 0.0000 0.0000 0.0000 27.2970
#
#
#
# Elastic Compliance Matrix: (Units=1/GPa)
#
#
# Indices 1 2 3 4 5 6 
#
# 1 0.018606 -0.003333 -0.005305 0.000000 0.000000 0.000000
# 2 -0.003333 0.014510 -0.002180 0.000000 0.000000 0.000000
# 3 -0.005305 -0.002180 0.011978 0.000000 0.000000 0.000000
# 4 0.000000 0.000000 0.000000 0.033845 0.000000 0.000000
# 5 0.000000 0.000000 0.000000 0.000000 0.029970 0.000000
# 6 0.000000 0.000000 0.000000 0.000000 0.000000 0.036634
#
#
# Mechanical properties :
#
#
# Convention : Reuss Voigt Hill
#
# Bulk Modulus (GPa) = 42.62959 44.43787 43.53373
# Shear Modulus (GPa) = 28.57177 29.35175 28.96176
#
# Velocity S-wave (km/s) = 3.81347 3.86518 3.83941
# Velocity P-wave (km/s) = 6.40999 6.52209 6.46628
#
# Compressibility (1/GPa) = 0.02345789
#
# Stress axis : x y z
#
# Youngs Moduli (GPa) = 53.74579 68.91959 83.48604
#
# Poissons Ratio (x) = 0.22972 0.44288
# Poissons Ratio (y) = 0.17915 0.18200
# Poissons Ratio (z) = 0.28511 0.15024
#
# Static dielectric constant tensor:
#      x y z
#    x 3.447280 0.000000 0.000000 
#    y 0.000000 3.785520 0.000000 
#    z 0.000000 0.000000 3.614520 
# 
# 
# High freq. dielectric constant tensor:
#      x y z
#    x 1.751710 0.000000 0.000000 
#    y 0.000000 1.775250 0.000000 
#    z 0.000000 0.000000 1.757900 
# 
# From -- ./inp_files/3962.got.cif
#   From: 2010.03.12/outbox.cif.g09.slc.cpg/sg19_2_cif.got.tgz:3962.got - 2010.04.10 18:59:41.
