data_PCOD8156349
_publ_section_title
;
Structure prediction by ZEFSAII (Michael W. Deem and Ramdas Pophale) SiO2 
 PCOD8156349
Probable space group: P 21 21 2
;
_chemical_formula_sum "Si O2"
_cell_formula_units_Z 14
_cell_length_a 10.689185
_cell_length_b 7.702915
_cell_length_c 8.550665
_cell_angle_alpha 90.000000
_cell_angle_beta 90.000000
_cell_angle_gamma 90.000000
_cell_volume 704.043658
_symmetry_space_group_name_H-M "P 21 21 2"
_symmetry_group_IT_number 18
_symmetry_cell_setting 'orthorhombic'
loop_
_space_group_symop_operation_xyz
x,y,z
-x,-y,z
1/2+x,1/2-y,-z
1/2-x,1/2+y,-z
loop_
_atom_site_type_symbol
_atom_site_label
_atom_site_fract_x
_atom_site_fract_y
_atom_site_fract_z
Si Si1 0.101432 0.138794 0.967253
Si Si2 0.000000 0.500000 0.425713
Si Si3 0.034842 0.806385 0.662103
Si Si4 0.287887 0.903074 0.798291
O O1 0.045386 0.239377 0.816980
O O2 0.228913 0.041971 0.917640
O O3 0.126550 0.269993 0.106432
O O4 0.000000 0.000000 0.028764
O O5 0.000537 0.327587 0.528997
O O6 0.875622 0.495034 0.321938
O O7 0.181803 0.798223 0.703306
O O8 0.000000 0.000000 0.603934
#
# Coordination Sequence:
#
# PCOD8156349 Si02
#       4
#     4   2   4   4
#     4   9  22  44  64  93 127 164 215 270 308 374
#     4  12  26  38  72  96 124 176 204 254 342 376
#     4   9  24  46  60  96 135 159 212 267 314 379
#     4  10  24  41  67  95 122 170 214 259 323 376
#
# _framework density 19.885131000000001
#
# number of rings (size 3 to 8) (size 9 to 14) (size 15 to 20)
#    0.000    2.857    0.000    0.000   20.000    1.143 
#    0.000    0.000    0.000    0.000    0.000    0.000 
#    0.000    0.000    0.000    0.000    0.000    0.000 
#
# Total GULP energy -173625.321376 kJ/mol
# GULP energy per Si atom -12401.808670 kJ/mol
# Density = 1.983987 g / cm^3
# Si number density = 19.885131 Si / 1000 Ang^3
#
#
#
# Elastic Constant Matrix: (Units=GPa)
#
#
# Indices 1 2 3 4 5 6 
#
# 1 120.3340 45.4989 53.9966 0.0000 0.0000 0.0000
# 2 45.4989 97.1252 70.5851 0.0000 0.0000 0.0000
# 3 53.9966 70.5851 85.5044 0.0000 0.0000 0.0000
# 4 0.0000 0.0000 0.0000 27.9646 0.0000 0.0000
# 5 0.0000 0.0000 0.0000 0.0000 21.5065 0.0000
# 6 0.0000 0.0000 0.0000 0.0000 0.0000 22.0311
#
#
#
# Elastic Compliance Matrix: (Units=1/GPa)
#
#
# Indices 1 2 3 4 5 6 
#
# 1 0.011599 -0.000276 -0.007097 0.000000 0.000000 0.000000
# 2 -0.000276 0.025742 -0.021077 0.000000 0.000000 0.000000
# 3 -0.007097 -0.021077 0.033576 0.000000 0.000000 0.000000
# 4 0.000000 0.000000 0.000000 0.035759 0.000000 0.000000
# 5 0.000000 0.000000 0.000000 0.000000 0.046498 0.000000
# 6 0.000000 0.000000 0.000000 0.000000 0.000000 0.045390
#
#
# Mechanical properties :
#
#
# Convention : Reuss Voigt Hill
#
# Bulk Modulus (GPa) = 71.33381 71.45832 71.39607
# Shear Modulus (GPa) = 19.22060 23.15931 21.18996
#
# Velocity S-wave (km/s) = 3.11236 3.41641 3.26792
# Velocity P-wave (km/s) = 6.99046 7.18164 7.08670
#
# Compressibility (1/GPa) = 0.01401860
#
# Stress axis : x y z
#
# Youngs Moduli (GPa) = 86.21279 38.84633 29.78291
#
# Poissons Ratio (x) = 0.01071 0.21138
# Poissons Ratio (y) = 0.02378 0.62772
# Poissons Ratio (z) = 0.61188 0.81875
#
# Static dielectric constant tensor:
#      x y z
#    x 3.756620 0.000000 0.000000 
#    y 0.000000 3.412060 0.000000 
#    z 0.000000 0.000000 3.467840 
# 
# 
# High freq. dielectric constant tensor:
#      x y z
#    x 1.791840 0.000000 0.000000 
#    y 0.000000 1.765690 0.000000 
#    z 0.000000 0.000000 1.769190 
# 
# From -- ./inp_files/2707.got.cif
#   From: 2010.03.12/outbox.cif.g09.slc.cpg/sg18_2_cif.got.tgz:2707.got - 2010.04.10 18:53:55.
