data_PCOD8156531
_publ_section_title
;
Structure prediction by ZEFSAII (Michael W. Deem and Ramdas Pophale) SiO2 
 PCOD8156531
Probable space group: P 21 21 2
;
_chemical_formula_sum "Si O2"
_cell_formula_units_Z 16
_cell_length_a 7.489075
_cell_length_b 10.066814
_cell_length_c 9.174940
_cell_angle_alpha 90.000000
_cell_angle_beta 90.000000
_cell_angle_gamma 90.000000
_cell_volume 691.709049
_symmetry_space_group_name_H-M "P 21 21 2"
_symmetry_group_IT_number 18
_symmetry_cell_setting 'orthorhombic'
loop_
_space_group_symop_operation_xyz
x,y,z
-x,-y,z
1/2+x,1/2-y,-z
1/2-x,1/2+y,-z
loop_
_atom_site_type_symbol
_atom_site_label
_atom_site_fract_x
_atom_site_fract_y
_atom_site_fract_z
Si Si1 0.998683 0.150705 0.365719
Si Si2 0.795893 0.274156 0.848864
Si Si3 0.294250 0.009993 0.906705
Si Si4 0.133682 0.201824 0.684828
O O1 0.802533 0.205354 0.338801
O O2 0.142250 0.233084 0.272785
O O3 0.046932 0.158688 0.534292
O O4 0.000000 0.000000 0.312362
O O5 0.990226 0.287754 0.776156
O O6 0.784911 0.136391 0.940300
O O7 0.763575 0.397816 0.953819
O O8 0.188545 0.067655 0.768235
O O9 0.500000 0.000000 0.864401
#
# Coordination Sequence:
#
# PCOD8156531 Si02
#       4
#     4   4   4   4
#     4  12  28  48  80 116 150 204 260 313 386 456
#     4  12  28  51  78 112 159 200 256 317 381 459
#     4  12  27  49  79 112 154 204 252 315 389 453
#     4  12  27  52  78 112 155 202 253 320 385 456
#
# _framework density 23.131115000000001
#
# number of rings (size 3 to 8) (size 9 to 14) (size 15 to 20)
#    0.000    0.000    5.000    3.750    7.000    0.000 
#    0.000    0.000    0.000    0.000    0.000    0.000 
#    0.000    0.000    0.000    0.000    0.000    0.000 
#
# Total GULP energy -198545.627818 kJ/mol
# GULP energy per Si atom -12409.101739 kJ/mol
# Density = 2.307847 g / cm^3
# Si number density = 23.131115 Si / 1000 Ang^3
#
#
#
# Elastic Constant Matrix: (Units=GPa)
#
#
# Indices 1 2 3 4 5 6 
#
# 1 177.8616 44.0598 58.0682 0.0000 0.0000 0.0000
# 2 44.0598 121.8485 50.2373 0.0000 0.0000 0.0000
# 3 58.0682 50.2373 136.4448 0.0000 0.0000 0.0000
# 4 0.0000 0.0000 0.0000 17.6343 0.0000 0.0000
# 5 0.0000 0.0000 0.0000 0.0000 39.7860 0.0000
# 6 0.0000 0.0000 0.0000 0.0000 0.0000 40.3245
#
#
#
# Elastic Compliance Matrix: (Units=1/GPa)
#
#
# Indices 1 2 3 4 5 6 
#
# 1 0.006749 -0.001481 -0.002327 0.000000 0.000000 0.000000
# 2 -0.001481 0.010001 -0.003052 0.000000 0.000000 0.000000
# 3 -0.002327 -0.003052 0.009443 0.000000 0.000000 0.000000
# 4 0.000000 0.000000 0.000000 0.056708 0.000000 0.000000
# 5 0.000000 0.000000 0.000000 0.000000 0.025134 0.000000
# 6 0.000000 0.000000 0.000000 0.000000 0.000000 0.024799
#
#
# Mechanical properties :
#
#
# Convention : Reuss Voigt Hill
#
# Bulk Modulus (GPa) = 80.17323 82.32058 81.24691
# Shear Modulus (GPa) = 33.17617 38.46826 35.82222
#
# Velocity S-wave (km/s) = 3.79128 4.08248 3.93957
# Velocity P-wave (km/s) = 7.34171 7.60842 7.47625
#
# Compressibility (1/GPa) = 0.01247299
#
# Stress axis : x y z
#
# Youngs Moduli (GPa) = 148.17202 99.99306 105.89948
#
# Poissons Ratio (x) = 0.14809 0.24642
# Poissons Ratio (y) = 0.21944 0.32319
# Poissons Ratio (z) = 0.34478 0.30516
#
# Static dielectric constant tensor:
#      x y z
#    x 4.473860 0.000000 0.000000 
#    y 0.000000 4.234310 0.000000 
#    z 0.000000 0.000000 4.181320 
# 
# 
# High freq. dielectric constant tensor:
#      x y z
#    x 1.939660 0.000000 0.000000 
#    y 0.000000 1.920030 0.000000 
#    z 0.000000 0.000000 1.920500 
# 
# From -- ./inp_files/2766.got.cif
#   From: 2010.03.12/outbox.cif.g09.slc.cpg/sg18_2_cif.got.tgz:2766.got - 2010.04.10 18:53:55.
