data_PCOD8156740
_publ_section_title
;
Structure prediction by ZEFSAII (Michael W. Deem and Ramdas Pophale) SiO2 
 PCOD8156740
Probable space group: P 21 21 21
;
_chemical_formula_sum "Si O2"
_cell_formula_units_Z 24
_cell_length_a 5.060193
_cell_length_b 13.939381
_cell_length_c 17.592941
_cell_angle_alpha 90.000000
_cell_angle_beta 90.000000
_cell_angle_gamma 90.000000
_cell_volume 1240.934950
_symmetry_space_group_name_H-M "P 21 21 21"
_symmetry_group_IT_number 19
_symmetry_cell_setting 'orthorhombic'
loop_
_space_group_symop_operation_xyz
x,y,z
1/2-x,-y,1/2+z
1/2+x,1/2-y,-z
-x,1/2+y,1/2-z
loop_
_atom_site_type_symbol
_atom_site_label
_atom_site_fract_x
_atom_site_fract_y
_atom_site_fract_z
Si Si1 0.651795 0.702805 0.029383
Si Si2 0.217777 0.136453 0.074930
Si Si3 0.049820 0.674248 0.839911
Si Si4 0.950922 0.427527 0.403426
Si Si5 0.439908 0.298554 0.163088
Si Si6 0.452704 0.174569 0.923684
O O1 0.585575 0.721427 0.118382
O O2 0.462312 0.777548 0.983543
O O3 0.580858 0.598611 0.993846
O O4 0.397868 0.186150 0.140431
O O5 0.985984 0.212508 0.051532
O O6 0.091177 0.040288 0.107874
O O7 0.391569 0.113992 0.999542
O O8 0.257563 0.597885 0.874063
O O9 0.100118 0.690352 0.752039
O O10 0.758067 0.633192 0.854034
O O11 0.724058 0.336390 0.138686
O O12 0.219476 0.362056 0.117886
#
# Coordination Sequence:
#
# PCOD8156740 Si02
#       6
#     4   4   4   4   4   4
#     4   8  16  33  51  74 102 143 180 217 271 323
#     4  10  21  36  60  82 109 145 196 228 271 327
#     4  10  20  36  54  81 116 149 176 228 289 337
#     4  10  21  33  60  81 108 144 197 230 261 332
#     4  10  20  35  56  77 111 149 182 220 295 334
#     4  10  20  35  59  77 108 150 181 229 281 329
#
# _framework density 19.340256
#
# number of rings (size 3 to 8) (size 9 to 14) (size 15 to 20)
#    1.000    1.333    1.667    1.000    2.333    0.000 
#    0.000    3.333    0.000    4.000    0.000    0.000 
#    0.000    0.000    0.000    0.000    0.000    0.000 
#
# Total GULP energy -297331.525233 kJ/mol
# GULP energy per Si atom -12388.813551 kJ/mol
# Density = 1.929624 g / cm^3
# Si number density = 19.340256 Si / 1000 Ang^3
#
#
#
# Elastic Constant Matrix: (Units=GPa)
#
#
# Indices 1 2 3 4 5 6 
#
# 1 87.0795 -5.3090 8.6284 0.0000 0.0000 0.0000
# 2 -5.3090 38.2825 7.4820 0.0000 0.0000 0.0000
# 3 8.6284 7.4820 107.4787 0.0000 0.0000 0.0000
# 4 0.0000 0.0000 0.0000 14.0358 0.0000 0.0000
# 5 0.0000 0.0000 0.0000 0.0000 27.6566 0.0000
# 6 0.0000 0.0000 0.0000 0.0000 0.0000 18.0332
#
#
#
# Elastic Compliance Matrix: (Units=1/GPa)
#
#
# Indices 1 2 3 4 5 6 
#
# 1 0.011701 0.001831 -0.001067 0.000000 0.000000 0.000000
# 2 0.001831 0.026769 -0.002010 0.000000 0.000000 0.000000
# 3 -0.001067 -0.002010 0.009530 0.000000 0.000000 0.000000
# 4 0.000000 0.000000 0.000000 0.071246 0.000000 0.000000
# 5 0.000000 0.000000 0.000000 0.000000 0.036158 0.000000
# 6 0.000000 0.000000 0.000000 0.000000 0.000000 0.055453
#
#
# Mechanical properties :
#
#
# Convention : Reuss Voigt Hill
#
# Bulk Modulus (GPa) = 21.97455 28.27150 25.12302
# Shear Modulus (GPa) = 21.88011 26.74774 24.31393
#
# Velocity S-wave (km/s) = 3.36717 3.72292 3.54950
# Velocity P-wave (km/s) = 5.14819 5.75585 5.46048
#
# Compressibility (1/GPa) = 0.04550718
#
# Stress axis : x y z
#
# Youngs Moduli (GPa) = 85.46195 37.35733 104.93436
#
# Poissons Ratio (x) = -0.06841 0.11195
# Poissons Ratio (y) = -0.15650 0.21097
# Poissons Ratio (z) = 0.09117 0.07511
#
# Static dielectric constant tensor:
#      x y z
#    x 3.645540 0.000000 0.000000 
#    y 0.000000 3.072860 0.000000 
#    z 0.000000 0.000000 3.396460 
# 
# 
# High freq. dielectric constant tensor:
#      x y z
#    x 1.772630 0.000000 0.000000 
#    y 0.000000 1.699940 0.000000 
#    z 0.000000 0.000000 1.742780 
# 
# From -- ./inp_files/1526.got.cif
#   From: 2010.03.12/outbox.cif.g09.slc.cpg/sg19_1_cif.got.tgz:1526.got - 2010.04.10 18:59:41.
