data_PCOD8156356
_publ_section_title
;
Structure prediction by ZEFSAII (Michael W. Deem and Ramdas Pophale) SiO2 
 PCOD8156356
Probable space group: P 21 21 2
;
_chemical_formula_sum "Si O2"
_cell_formula_units_Z 32
_cell_length_a 12.497141
_cell_length_b 14.298473
_cell_length_c 8.601050
_cell_angle_alpha 90.000000
_cell_angle_beta 90.000000
_cell_angle_gamma 90.000000
_cell_volume 1536.921910
_symmetry_space_group_name_H-M "P 21 21 2"
_symmetry_group_IT_number 18
_symmetry_cell_setting 'orthorhombic'
loop_
_space_group_symop_operation_xyz
x,y,z
-x,-y,z
1/2+x,1/2-y,-z
1/2-x,1/2+y,-z
loop_
_atom_site_type_symbol
_atom_site_label
_atom_site_fract_x
_atom_site_fract_y
_atom_site_fract_z
Si Si1 0.939468 0.588765 0.678478
Si Si2 0.394389 0.551778 0.399187
Si Si3 0.785285 0.814748 0.195878
Si Si4 0.447219 0.221053 0.120401
Si Si5 0.660263 0.318105 0.161012
Si Si6 0.631678 0.714009 0.785969
Si Si7 0.295818 0.476463 0.693698
Si Si8 0.053473 0.245298 0.433724
O O1 0.822119 0.558508 0.722755
O O2 0.936610 0.669994 0.551621
O O3 0.000000 0.500000 0.605392
O O4 0.998703 0.620157 0.840276
O O5 0.500000 0.500000 0.342598
O O6 0.326290 0.580306 0.244031
O O7 0.326197 0.483331 0.510778
O O8 0.424724 0.647362 0.484720
O O9 0.663732 0.778151 0.217762
O O10 0.858528 0.745037 0.296032
O O11 0.808340 0.921721 0.236005
O O12 0.817917 0.812055 0.018465
O O13 0.535100 0.292492 0.190049
O O14 0.422261 0.242499 0.940659
O O15 0.745937 0.247790 0.240462
O O16 0.628512 0.599924 0.782050
O O17 0.564498 0.750538 0.639666
#
# Coordination Sequence:
#
# PCOD8156356 Si02
#       8
#     4   4   4   4   4   4   4   4
#     4  12  25  44  69  98 131 176 229 274 336 396
#     4  11  23  39  65 101 135 171 218 270 333 400
#     4  10  24  42  67  97 133 176 224 273 334 390
#     4  11  22  43  69  92 129 180 223 275 325 401
#     4  11  23  42  63  99 131 174 222 277 325 397
#     4  11  23  41  69  92 135 178 221 269 342 389
#     4  11  23  42  65  98 133 173 216 279 331 402
#     4  11  23  42  67  95 136 174 215 275 335 393
#
# _framework density 20.820836
#
# number of rings (size 3 to 8) (size 9 to 14) (size 15 to 20)
#    0.000    1.000    6.250    0.000    1.750    3.000 
#    0.000    3.125    0.000    0.000    0.000    0.000 
#    0.000    0.000    0.000    0.000    0.000    0.000 
#
# Total GULP energy -396488.768280 kJ/mol
# GULP energy per Si atom -12390.274009 kJ/mol
# Density = 2.077345 g / cm^3
# Si number density = 20.820836 Si / 1000 Ang^3
#
#
#
# Elastic Constant Matrix: (Units=GPa)
#
#
# Indices 1 2 3 4 5 6 
#
# 1 102.8751 31.6125 22.2377 0.0000 0.0000 0.0000
# 2 31.6125 95.3517 35.0015 0.0000 0.0000 0.0000
# 3 22.2377 35.0015 72.1772 0.0000 0.0000 0.0000
# 4 0.0000 0.0000 0.0000 13.5925 0.0000 0.0000
# 5 0.0000 0.0000 0.0000 0.0000 10.3224 0.0000
# 6 0.0000 0.0000 0.0000 0.0000 0.0000 31.5966
#
#
#
# Elastic Compliance Matrix: (Units=1/GPa)
#
#
# Indices 1 2 3 4 5 6 
#
# 1 0.011051 -0.002937 -0.001981 0.000000 0.000000 0.000000
# 2 -0.002937 0.013539 -0.005661 0.000000 0.000000 0.000000
# 3 -0.001981 -0.005661 0.017210 0.000000 0.000000 0.000000
# 4 0.000000 0.000000 0.000000 0.073570 0.000000 0.000000
# 5 0.000000 0.000000 0.000000 0.000000 0.096877 0.000000
# 6 0.000000 0.000000 0.000000 0.000000 0.000000 0.031649
#
#
# Mechanical properties :
#
#
# Convention : Reuss Voigt Hill
#
# Bulk Modulus (GPa) = 48.44057 49.78972 49.11515
# Shear Modulus (GPa) = 18.38684 23.20579 20.79631
#
# Velocity S-wave (km/s) = 2.97492 3.34210 3.16384
# Velocity P-wave (km/s) = 5.92589 6.23363 6.08171
#
# Compressibility (1/GPa) = 0.02064385
#
# Stress axis : x y z
#
# Youngs Moduli (GPa) = 90.48853 73.86011 58.10512
#
# Poissons Ratio (x) = 0.21691 0.11509
# Poissons Ratio (y) = 0.26575 0.32892
# Poissons Ratio (z) = 0.17923 0.41811
#
# Static dielectric constant tensor:
#      x y z
#    x 4.277520 0.000000 0.000000 
#    y 0.000000 4.199820 0.000000 
#    z 0.000000 0.000000 3.971970 
# 
# 
# High freq. dielectric constant tensor:
#      x y z
#    x 1.832480 0.000000 0.000000 
#    y 0.000000 1.807460 0.000000 
#    z 0.000000 0.000000 1.812050 
# 
# From -- ./inp_files/3938.got.cif
#   From: 2010.03.12/outbox.cif.g09.slc.cpg/sg18_2_cif.got.tgz:3938.got - 2010.04.10 18:53:55.
