data_PCOD8156462
_publ_section_title
;
Structure prediction by ZEFSAII (Michael W. Deem and Ramdas Pophale) SiO2 
 PCOD8156462
Probable space group: P 21 21 2
;
_chemical_formula_sum "Si O2"
_cell_formula_units_Z 22
_cell_length_a 14.117477
_cell_length_b 8.119432
_cell_length_c 8.309527
_cell_angle_alpha 90.000000
_cell_angle_beta 90.000000
_cell_angle_gamma 90.000000
_cell_volume 952.486965
_symmetry_space_group_name_H-M "P 21 21 2"
_symmetry_group_IT_number 18
_symmetry_cell_setting 'orthorhombic'
loop_
_space_group_symop_operation_xyz
x,y,z
-x,-y,z
1/2+x,1/2-y,-z
1/2-x,1/2+y,-z
loop_
_atom_site_type_symbol
_atom_site_label
_atom_site_fract_x
_atom_site_fract_y
_atom_site_fract_z
Si Si1 0.000000 0.000000 0.633509
Si Si2 0.880289 0.271593 0.083743
Si Si3 0.145942 0.799482 0.439046
Si Si4 0.704823 0.427684 0.967728
Si Si5 0.943338 0.712129 0.870316
Si Si6 0.687513 0.994983 0.334483
O O1 0.968200 0.849478 0.741507
O O2 0.088038 0.944902 0.523917
O O3 0.905889 0.237397 0.269135
O O4 0.843486 0.103796 0.998050
O O5 0.797455 0.408488 0.080889
O O6 0.967739 0.340648 0.980376
O O7 0.255601 0.855675 0.419516
O O8 0.143745 0.632241 0.540525
O O9 0.736218 0.407119 0.782116
O O10 0.633667 0.280370 0.005091
O O11 0.900725 0.558505 0.772087
#
# Coordination Sequence:
#
# PCOD8156462 Si02
#       6
#     2   4   4   4   4   4
#     4  12  26  40  76 102 156 194 248 306 386 444
#     4  11  25  44  76 105 146 190 253 305 368 449
#     4  11  26  46  71 112 149 200 243 317 384 445
#     4  11  22  45  70 108 136 191 249 299 366 442
#     4  12  24  48  72 107 144 203 250 300 368 456
#     4  11  26  47  75 104 155 192 252 304 388 441
#
# _framework density 23.097428000000001
#
# number of rings (size 3 to 8) (size 9 to 14) (size 15 to 20)
#    0.000    0.727    5.455    2.182    5.091    2.909 
#    0.000    1.818    0.000    0.000    0.000    0.000 
#    0.000    0.000    0.000    0.000    0.000    0.000 
#
# Total GULP energy -272875.601148 kJ/mol
# GULP energy per Si atom -12403.436416 kJ/mol
# Density = 2.304486 g / cm^3
# Si number density = 23.097428 Si / 1000 Ang^3
#
#
#
# Elastic Constant Matrix: (Units=GPa)
#
#
# Indices 1 2 3 4 5 6 
#
# 1 143.0071 40.5321 53.5969 0.0000 0.0000 0.0000
# 2 40.5321 81.6630 53.8918 0.0000 0.0000 0.0000
# 3 53.5969 53.8918 121.9826 0.0000 0.0000 0.0000
# 4 0.0000 0.0000 0.0000 45.3016 0.0000 0.0000
# 5 0.0000 0.0000 0.0000 0.0000 32.1567 0.0000
# 6 0.0000 0.0000 0.0000 0.0000 0.0000 35.8713
#
#
#
# Elastic Compliance Matrix: (Units=1/GPa)
#
#
# Indices 1 2 3 4 5 6 
#
# 1 0.008730 -0.002543 -0.002712 0.000000 0.000000 0.000000
# 2 -0.002543 0.018026 -0.006846 0.000000 0.000000 0.000000
# 3 -0.002712 -0.006846 0.012414 0.000000 0.000000 0.000000
# 4 0.000000 0.000000 0.000000 0.022074 0.000000 0.000000
# 5 0.000000 0.000000 0.000000 0.000000 0.031098 0.000000
# 6 0.000000 0.000000 0.000000 0.000000 0.000000 0.027877
#
#
# Mechanical properties :
#
#
# Convention : Reuss Voigt Hill
#
# Bulk Modulus (GPa) = 66.81529 71.41047 69.11288
# Shear Modulus (GPa) = 33.46454 35.90804 34.68629
#
# Velocity S-wave (km/s) = 3.81050 3.94716 3.87943
# Velocity P-wave (km/s) = 6.95343 7.19428 7.07488
#
# Compressibility (1/GPa) = 0.01496664
#
# Stress axis : x y z
#
# Youngs Moduli (GPa) = 114.54826 55.47604 80.55197
#
# Poissons Ratio (x) = 0.14108 0.21848
# Poissons Ratio (y) = 0.29130 0.55149
# Poissons Ratio (z) = 0.31068 0.37981
#
# Static dielectric constant tensor:
#      x y z
#    x 4.369090 0.000000 0.000000 
#    y 0.000000 4.195010 0.000000 
#    z 0.000000 0.000000 4.250010 
# 
# 
# High freq. dielectric constant tensor:
#      x y z
#    x 1.919890 0.000000 0.000000 
#    y 0.000000 1.916400 0.000000 
#    z 0.000000 0.000000 1.915290 
# 
# From -- ./inp_files/4160.got.cif
#   From: 2010.03.12/outbox.cif.g09.slc.cpg/sg18_3_cif.got.tgz:4160.got - 2010.04.10 18:53:55.
