data_PCOD8156023
_publ_section_title
;
Structure prediction by ZEFSAII (Michael W. Deem and Ramdas Pophale) SiO2 
 PCOD8156023
Probable space group: P 21 21 2
;
_chemical_formula_sum "Si O2"
_cell_formula_units_Z 22
_cell_length_a 13.278369
_cell_length_b 10.252181
_cell_length_c 8.577099
_cell_angle_alpha 90.000000
_cell_angle_beta 90.000000
_cell_angle_gamma 90.000000
_cell_volume 1167.619720
_symmetry_space_group_name_H-M "P 21 21 2"
_symmetry_group_IT_number 18
_symmetry_cell_setting 'orthorhombic'
loop_
_space_group_symop_operation_xyz
x,y,z
-x,-y,z
1/2+x,1/2-y,-z
1/2-x,1/2+y,-z
loop_
_atom_site_type_symbol
_atom_site_label
_atom_site_fract_x
_atom_site_fract_y
_atom_site_fract_z
Si Si1 0.303194 0.935435 0.810932
Si Si2 0.703250 0.335222 0.336321
Si Si3 0.486530 0.812711 0.361313
Si Si4 0.786894 0.317981 0.672329
Si Si5 0.500000 0.000000 0.639132
Si Si6 0.685345 0.080462 0.176363
O O1 0.284636 0.798863 0.724820
O O2 0.213914 0.037172 0.771985
O O3 0.403849 0.003486 0.750085
O O4 0.313710 0.908058 0.992052
O O5 0.583502 0.317095 0.371806
O O6 0.767614 0.353555 0.492883
O O7 0.744848 0.205938 0.246355
O O8 0.596868 0.777089 0.297082
O O9 0.428832 0.916749 0.247354
O O10 0.497188 0.871376 0.533534
O O11 0.760664 0.447023 0.771642
#
# Coordination Sequence:
#
# PCOD8156023 Si02
#       6
#     4   4   4   4   2   4
#     4  12  24  36  64  94 124 160 210 267 309 367
#     4  10  21  40  61  90 123 166 207 252 313 379
#     4  10  20  40  62  87 122 165 210 247 310 386
#     4  12  20  39  66  88 121 167 212 253 306 385
#     4  12  20  38  62  92 116 162 224 236 308 390
#     4  10  23  40  58  92 126 159 202 264 315 362
#
# _framework density 18.841750000000001
#
# number of rings (size 3 to 8) (size 9 to 14) (size 15 to 20)
#    1.091    0.000    5.455    2.182    2.545    0.727 
#    0.000    0.000    0.000    1.091    0.000    0.000 
#    0.000    0.000    0.000    0.000    0.000    0.000 
#
# Total GULP energy -272723.771507 kJ/mol
# GULP energy per Si atom -12396.535068 kJ/mol
# Density = 1.879886 g / cm^3
# Si number density = 18.841750 Si / 1000 Ang^3
#
#
#
# Elastic Constant Matrix: (Units=GPa)
#
#
# Indices 1 2 3 4 5 6 
#
# 1 43.4923 6.9000 17.4987 0.0000 0.0000 0.0000
# 2 6.9000 74.2363 23.1063 0.0000 0.0000 0.0000
# 3 17.4987 23.1063 107.4412 0.0000 0.0000 0.0000
# 4 0.0000 0.0000 0.0000 30.4707 0.0000 0.0000
# 5 0.0000 0.0000 0.0000 0.0000 19.8676 0.0000
# 6 0.0000 0.0000 0.0000 0.0000 0.0000 26.7305
#
#
#
# Elastic Compliance Matrix: (Units=1/GPa)
#
#
# Indices 1 2 3 4 5 6 
#
# 1 0.024691 -0.001118 -0.003781 0.000000 0.000000 0.000000
# 2 -0.001118 0.014488 -0.002934 0.000000 0.000000 0.000000
# 3 -0.003781 -0.002934 0.010554 0.000000 0.000000 0.000000
# 4 0.000000 0.000000 0.000000 0.032818 0.000000 0.000000
# 5 0.000000 0.000000 0.000000 0.000000 0.050333 0.000000
# 6 0.000000 0.000000 0.000000 0.000000 0.000000 0.037410
#
#
# Mechanical properties :
#
#
# Convention : Reuss Voigt Hill
#
# Bulk Modulus (GPa) = 29.35346 35.57553 32.46449
# Shear Modulus (GPa) = 25.34006 27.25808 26.29907
#
# Velocity S-wave (km/s) = 3.67125 3.80766 3.74008
# Velocity P-wave (km/s) = 5.79513 6.18492 5.99320
#
# Compressibility (1/GPa) = 0.03406753
#
# Stress axis : x y z
#
# Youngs Moduli (GPa) = 40.50031 69.02495 94.74988
#
# Poissons Ratio (x) = 0.07718 0.35824
# Poissons Ratio (y) = 0.04528 0.27796
# Poissons Ratio (z) = 0.15313 0.20249
#
# Static dielectric constant tensor:
#      x y z
#    x 3.384200 0.000000 0.000000 
#    y 0.000000 3.430010 0.000000 
#    z 0.000000 0.000000 3.315180 
# 
# 
# High freq. dielectric constant tensor:
#      x y z
#    x 1.717080 0.000000 0.000000 
#    y 0.000000 1.729220 0.000000 
#    z 0.000000 0.000000 1.731520 
# 
# From -- ./inp_files/4165.got.cif
#   From: 2010.03.12/outbox.cif.g09.slc.cpg/sg18_3_cif.got.tgz:4165.got - 2010.04.10 18:53:55.
