data_PCOD8156246
_publ_section_title
;
Structure prediction by ZEFSAII (Michael W. Deem and Ramdas Pophale) SiO2 
 PCOD8156246
Probable space group: P 21 21 2
;
_chemical_formula_sum "Si O2"
_cell_formula_units_Z 10
_cell_length_a 10.673475
_cell_length_b 4.856058
_cell_length_c 7.912361
_cell_angle_alpha 90.000000
_cell_angle_beta 90.000000
_cell_angle_gamma 90.000000
_cell_volume 410.105691
_symmetry_space_group_name_H-M "P 21 21 2"
_symmetry_group_IT_number 18
_symmetry_cell_setting 'orthorhombic'
loop_
_space_group_symop_operation_xyz
x,y,z
-x,-y,z
1/2+x,1/2-y,-z
1/2-x,1/2+y,-z
loop_
_atom_site_type_symbol
_atom_site_label
_atom_site_fract_x
_atom_site_fract_y
_atom_site_fract_z
Si Si1 0.828964 0.156562 0.456528
Si Si2 0.500000 0.000000 0.318654
Si Si3 0.762018 0.696771 0.887033
O O1 0.705848 0.344520 0.494632
O O2 0.950014 0.255104 0.559531
O O3 0.848899 0.174782 0.253407
O O4 0.392775 0.887484 0.196989
O O5 0.727746 0.508210 0.047219
#
# Coordination Sequence:
#
# PCOD8156246 Si02
#       3
#     4   2   4
#     4  10  22  42  67  94 126 172 219 257 319 402
#     4  10  24  46  68  90 136 182 208 266 332 380
#     4  11  24  43  67 101 132 165 221 275 319 383
#
# _framework density 24.383959999999998
#
# number of rings (size 3 to 8) (size 9 to 14) (size 15 to 20)
#    0.000    1.600    0.000    4.800    0.000   16.000 
#    0.000   16.000    0.000    0.000    0.000    0.000 
#    0.000    0.000    0.000    0.000    0.000    0.000 
#
# Total GULP energy -124013.959417 kJ/mol
# GULP energy per Si atom -12401.395942 kJ/mol
# Density = 2.432846 g / cm^3
# Si number density = 24.383960 Si / 1000 Ang^3
#
#
#
# Elastic Constant Matrix: (Units=GPa)
#
#
# Indices 1 2 3 4 5 6 
#
# 1 110.3906 -3.2524 28.2559 0.0000 0.0000 0.0000
# 2 -3.2524 63.7160 9.6110 0.0000 0.0000 0.0000
# 3 28.2559 9.6110 134.4530 0.0000 0.0000 0.0000
# 4 0.0000 0.0000 0.0000 47.4798 0.0000 0.0000
# 5 0.0000 0.0000 0.0000 0.0000 23.3739 0.0000
# 6 0.0000 0.0000 0.0000 0.0000 0.0000 20.8246
#
#
#
# Elastic Compliance Matrix: (Units=1/GPa)
#
#
# Indices 1 2 3 4 5 6 
#
# 1 0.009614 0.000804 -0.002078 0.000000 0.000000 0.000000
# 2 0.000804 0.015933 -0.001308 0.000000 0.000000 0.000000
# 3 -0.002078 -0.001308 0.007968 0.000000 0.000000 0.000000
# 4 0.000000 0.000000 0.000000 0.021062 0.000000 0.000000
# 5 0.000000 0.000000 0.000000 0.000000 0.042783 0.000000
# 6 0.000000 0.000000 0.000000 0.000000 0.000000 0.048020
#
#
# Mechanical properties :
#
#
# Convention : Reuss Voigt Hill
#
# Bulk Modulus (GPa) = 35.27131 41.97650 38.62391
# Shear Modulus (GPa) = 31.25128 36.59867 33.92497
#
# Velocity S-wave (km/s) = 3.58387 3.87839 3.73404
# Velocity P-wave (km/s) = 5.62334 6.10803 5.87069
#
# Compressibility (1/GPa) = 0.02835166
#
# Stress axis : x y z
#
# Youngs Moduli (GPa) = 104.01142 62.76282 125.50615
#
# Poissons Ratio (x) = -0.05047 0.26080
# Poissons Ratio (y) = -0.08365 0.16415
# Poissons Ratio (z) = 0.21613 0.08209
#
# Static dielectric constant tensor:
#      x y z
#    x 4.104590 0.000000 0.000000 
#    y 0.000000 4.464400 0.000000 
#    z 0.000000 0.000000 4.691270 
# 
# 
# High freq. dielectric constant tensor:
#      x y z
#    x 1.949370 0.000000 0.000000 
#    y 0.000000 1.985990 0.000000 
#    z 0.000000 0.000000 1.987670 
# 
# From -- ./inp_files/807.got.cif
#   From: 2010.03.12/outbox.cif.g09.slc.cpg/sg18_1_cif.got.tgz:807.got - 2010.04.10 18:53:55.
