data_PCOD8156770
_publ_section_title
;
Structure prediction by ZEFSAII (Michael W. Deem and Ramdas Pophale) SiO2 
 PCOD8156770
Probable space group: P 21 21 21
;
_chemical_formula_sum "Si O2"
_cell_formula_units_Z 28
_cell_length_a 6.243614
_cell_length_b 9.202176
_cell_length_c 19.363128
_cell_angle_alpha 90.000000
_cell_angle_beta 90.000000
_cell_angle_gamma 90.000000
_cell_volume 1112.505322
_symmetry_space_group_name_H-M "P 21 21 21"
_symmetry_group_IT_number 19
_symmetry_cell_setting 'orthorhombic'
loop_
_space_group_symop_operation_xyz
x,y,z
1/2-x,-y,1/2+z
1/2+x,1/2-y,-z
-x,1/2+y,1/2-z
loop_
_atom_site_type_symbol
_atom_site_label
_atom_site_fract_x
_atom_site_fract_y
_atom_site_fract_z
Si Si1 0.931673 0.404119 0.173589
Si Si2 0.553586 0.691087 0.917088
Si Si3 0.838108 0.170797 0.282701
Si Si4 0.049168 0.541766 0.512936
Si Si5 0.425278 0.137082 0.980372
Si Si6 0.062828 0.877906 0.861210
Si Si7 0.528215 0.873272 0.049543
O O1 0.881277 0.251367 0.210692
O O2 0.017470 0.357512 0.097629
O O3 0.721339 0.503534 0.168784
O O4 0.099603 0.499085 0.218521
O O5 0.509785 0.751686 0.840269
O O6 0.797800 0.631624 0.913993
O O7 0.397198 0.557674 0.944204
O O8 0.527063 0.819034 0.971430
O O9 0.584787 0.179412 0.298673
O O10 0.791158 0.545321 0.517745
O O11 0.137959 0.705835 0.511184
O O12 0.104047 0.451768 0.582893
O O13 0.591413 0.045891 0.031168
O O14 0.173419 0.734974 0.900557
#
# Coordination Sequence:
#
# PCOD8156770 Si02
#       7
#     4   4   4   4   4   4   4
#     4  11  25  43  62  96 130 169 225 258 311 394
#     4   9  18  34  57  87 116 158 202 251 314 374
#     4  11  24  42  66  87 127 179 210 260 314 381
#     4   9  20  34  60  91 126 154 202 268 327 371
#     4  10  20  36  56  95 127 155 205 267 318 382
#     4   9  22  45  63  89 125 166 216 261 316 387
#     4   9  17  34  62  87 115 155 200 261 322 361
#
# _framework density 25.168419
#
# number of rings (size 3 to 8) (size 9 to 14) (size 15 to 20)
#    0.000    2.286    1.429    0.857    4.000    2.286 
#    0.000    8.571    0.000    0.000    0.000    0.000 
#    0.000    0.000    0.000    0.000    0.000    0.000 
#
# Total GULP energy -346950.038119 kJ/mol
# GULP energy per Si atom -12391.072790 kJ/mol
# Density = 2.511113 g / cm^3
# Si number density = 25.168419 Si / 1000 Ang^3
#
#
#
# Elastic Constant Matrix: (Units=GPa)
#
#
# Indices 1 2 3 4 5 6 
#
# 1 36.4312 10.5821 8.5287 0.0000 0.0000 0.0000
# 2 10.5821 128.5089 17.1266 0.0000 0.0000 0.0000
# 3 8.5287 17.1266 60.1107 0.0000 0.0000 0.0000
# 4 0.0000 0.0000 0.0000 47.6875 0.0000 0.0000
# 5 0.0000 0.0000 0.0000 0.0000 26.3192 0.0000
# 6 0.0000 0.0000 0.0000 0.0000 0.0000 46.3302
#
#
#
# Elastic Compliance Matrix: (Units=1/GPa)
#
#
# Indices 1 2 3 4 5 6 
#
# 1 0.028832 -0.001901 -0.003549 0.000000 0.000000 0.000000
# 2 -0.001901 0.008214 -0.002071 0.000000 0.000000 0.000000
# 3 -0.003549 -0.002071 0.017729 0.000000 0.000000 0.000000
# 4 0.000000 0.000000 0.000000 0.020970 0.000000 0.000000
# 5 0.000000 0.000000 0.000000 0.000000 0.037995 0.000000
# 6 0.000000 0.000000 0.000000 0.000000 0.000000 0.021584
#
#
# Mechanical properties :
#
#
# Convention : Reuss Voigt Hill
#
# Bulk Modulus (GPa) = 25.16746 33.05840 29.11293
# Shear Modulus (GPa) = 30.56028 36.65495 33.60762
#
# Velocity S-wave (km/s) = 3.48836 3.82040 3.65815
# Velocity P-wave (km/s) = 5.12311 5.71175 5.42541
#
# Compressibility (1/GPa) = 0.03973385
#
# Stress axis : x y z
#
# Youngs Moduli (GPa) = 34.68361 121.74233 56.40322
#
# Poissons Ratio (x) = 0.23146 0.20018
# Poissons Ratio (y) = 0.06594 0.11679
# Poissons Ratio (z) = 0.12310 0.25208
#
# Static dielectric constant tensor:
#      x y z
#    x 5.006410 0.000000 0.000000 
#    y 0.000000 4.735620 0.000000 
#    z 0.000000 0.000000 4.088790 
# 
# 
# High freq. dielectric constant tensor:
#      x y z
#    x 2.042700 0.000000 0.000000 
#    y 0.000000 2.018480 0.000000 
#    z 0.000000 0.000000 1.954560 
# 
# From -- ./inp_files/3064.got.cif
#   From: 2010.03.12/outbox.cif.g09.slc.cpg/sg19_2_cif.got.tgz:3064.got - 2010.04.10 18:59:41.
