data_PCOD8156256
_publ_section_title
;
Structure prediction by ZEFSAII (Michael W. Deem and Ramdas Pophale) SiO2 
 PCOD8156256
Probable space group: P 21 21 2
;
_chemical_formula_sum "Si O2"
_cell_formula_units_Z 24
_cell_length_a 9.178085
_cell_length_b 21.366737
_cell_length_c 5.590186
_cell_angle_alpha 90.000000
_cell_angle_beta 90.000000
_cell_angle_gamma 90.000000
_cell_volume 1096.267497
_symmetry_space_group_name_H-M "P 21 21 2"
_symmetry_group_IT_number 18
_symmetry_cell_setting 'orthorhombic'
loop_
_space_group_symop_operation_xyz
x,y,z
-x,-y,z
1/2+x,1/2-y,-z
1/2-x,1/2+y,-z
loop_
_atom_site_type_symbol
_atom_site_label
_atom_site_fract_x
_atom_site_fract_y
_atom_site_fract_z
Si Si1 0.581356 0.436505 0.896677
Si Si2 0.585925 0.935418 0.141338
Si Si3 0.857489 0.342848 0.487322
Si Si4 0.942934 0.685515 0.097863
Si Si5 0.863632 0.230598 0.804368
Si Si6 0.444771 0.630290 0.378539
O O1 0.500000 0.500000 0.841501
O O2 0.751808 0.446282 0.960241
O O3 0.557098 0.399177 0.645640
O O4 0.508156 0.409026 0.140712
O O5 0.604649 0.912052 0.413700
O O6 0.500000 0.000000 0.128283
O O7 0.495362 0.880528 0.010938
O O8 0.804011 0.294833 0.691369
O O9 0.719604 0.347485 0.310324
O O10 0.004912 0.316155 0.372088
O O11 0.769615 0.692772 0.075431
O O12 0.015215 0.748486 0.994521
O O13 0.940657 0.186948 0.606665
#
# Coordination Sequence:
#
# PCOD8156256 Si02
#       6
#     4   4   4   4   4   4
#     4  11  25  46  70  97 140 181 237 288 348 413
#     4  10  24  43  64  98 135 183 230 290 342 419
#     4  10  22  43  64  97 137 176 233 287 351 405
#     4  11  23  43  66 100 135 181 229 290 348 417
#     4  11  25  38  70  99 139 181 229 288 353 422
#     4  11  24  45  68 101 136 184 228 289 349 412
#
# _framework density 21.892467
#
# number of rings (size 3 to 8) (size 9 to 14) (size 15 to 20)
#    0.000    1.333    1.667    2.500    9.333    3.333 
#    0.000    0.000    0.000    0.000    0.000    0.000 
#    0.000    0.000    0.000    0.000    0.000    0.000 
#
# Total GULP energy -297321.194681 kJ/mol
# GULP energy per Si atom -12388.383112 kJ/mol
# Density = 2.184264 g / cm^3
# Si number density = 21.892467 Si / 1000 Ang^3
#
#
#
# Elastic Constant Matrix: (Units=GPa)
#
#
# Indices 1 2 3 4 5 6 
#
# 1 124.4567 67.7240 30.8924 0.0000 0.0000 0.0000
# 2 67.7240 124.3020 33.7658 0.0000 0.0000 0.0000
# 3 30.8924 33.7658 95.7542 0.0000 0.0000 0.0000
# 4 0.0000 0.0000 0.0000 25.1742 0.0000 0.0000
# 5 0.0000 0.0000 0.0000 0.0000 31.8100 0.0000
# 6 0.0000 0.0000 0.0000 0.0000 0.0000 42.9855
#
#
#
# Elastic Compliance Matrix: (Units=1/GPa)
#
#
# Indices 1 2 3 4 5 6 
#
# 1 0.011661 -0.005896 -0.001683 0.000000 0.000000 0.000000
# 2 -0.005896 0.011878 -0.002286 0.000000 0.000000 0.000000
# 3 -0.001683 -0.002286 0.011793 0.000000 0.000000 0.000000
# 4 0.000000 0.000000 0.000000 0.039723 0.000000 0.000000
# 5 0.000000 0.000000 0.000000 0.000000 0.031437 0.000000
# 6 0.000000 0.000000 0.000000 0.000000 0.000000 0.023264
#
#
# Mechanical properties :
#
#
# Convention : Reuss Voigt Hill
#
# Bulk Modulus (GPa) = 64.09852 67.69750 65.89801
# Shear Modulus (GPa) = 32.32325 34.13599 33.22962
#
# Velocity S-wave (km/s) = 3.84664 3.95303 3.90019
# Velocity P-wave (km/s) = 7.00508 7.19896 7.10269
#
# Compressibility (1/GPa) = 0.01560098
#
# Stress axis : x y z
#
# Youngs Moduli (GPa) = 85.75494 84.18575 84.79864
#
# Poissons Ratio (x) = 0.49638 0.14271
# Poissons Ratio (y) = 0.50563 0.19389
# Poissons Ratio (z) = 0.14432 0.19249
#
# Static dielectric constant tensor:
#      x y z
#    x 3.888610 0.000000 0.000000 
#    y 0.000000 3.862840 0.000000 
#    z 0.000000 0.000000 3.911170 
# 
# 
# High freq. dielectric constant tensor:
#      x y z
#    x 1.862200 0.000000 0.000000 
#    y 0.000000 1.861450 0.000000 
#    z 0.000000 0.000000 1.861170 
# 
# From -- ./inp_files/615.got.cif
#   From: 2010.03.12/outbox.cif.g09.slc.cpg/sg18_1_cif.got.tgz:615.got - 2010.04.10 18:53:55.
