data_PCOD8156818
_publ_section_title
;
Structure prediction by ZEFSAII (Michael W. Deem and Ramdas Pophale) SiO2 
 PCOD8156818
Probable space group: P 21 21 21
;
_chemical_formula_sum "Si O2"
_cell_formula_units_Z 24
_cell_length_a 5.579328
_cell_length_b 14.014527
_cell_length_c 14.606037
_cell_angle_alpha 90.000000
_cell_angle_beta 90.000000
_cell_angle_gamma 90.000000
_cell_volume 1142.070029
_symmetry_space_group_name_H-M "P 21 21 21"
_symmetry_group_IT_number 19
_symmetry_cell_setting 'orthorhombic'
loop_
_space_group_symop_operation_xyz
x,y,z
1/2-x,-y,1/2+z
1/2+x,1/2-y,-z
-x,1/2+y,1/2-z
loop_
_atom_site_type_symbol
_atom_site_label
_atom_site_fract_x
_atom_site_fract_y
_atom_site_fract_z
Si Si1 0.879747 0.306163 0.196840
Si Si2 0.205480 0.473231 0.933275
Si Si3 0.539452 0.400760 0.780284
Si Si4 0.789210 0.968601 0.361701
Si Si5 0.926847 0.774428 0.547682
Si Si6 0.412135 0.949989 0.215316
O O1 0.038956 0.214489 0.225733
O O2 0.640194 0.273636 0.144003
O O3 0.794206 0.367787 0.285949
O O4 0.031898 0.377419 0.132070
O O5 0.436358 0.437231 0.877473
O O6 0.017263 0.385903 0.939169
O O7 0.075330 0.558141 0.875964
O O8 0.274585 0.506110 0.036019
O O9 0.394006 0.441758 0.693942
O O10 0.806783 0.442587 0.776831
O O11 0.555339 0.932772 0.309037
O O12 0.673951 0.771090 0.488684
#
# Coordination Sequence:
#
# PCOD8156818 Si02
#       6
#     4   4   4   4   4   4
#     4  10  21  36  60  88 130 159 211 257 325 375
#     4  10  21  35  61  88 126 158 215 256 322 376
#     4   9  22  37  58  93 120 165 205 256 319 382
#     4  10  20  38  60  91 120 167 202 259 319 377
#     4  11  22  34  59 100 128 161 207 262 327 383
#     4  10  22  38  58  86 128 164 204 270 316 385
#
# _framework density 21.014474
#
# number of rings (size 3 to 8) (size 9 to 14) (size 15 to 20)
#    0.000    2.000    1.667    1.000    4.667    5.333 
#    0.000    0.000   11.000    0.000    0.000    0.000 
#    0.000    0.000    0.000    0.000    0.000    0.000 
#
# Total GULP energy -297341.222105 kJ/mol
# GULP energy per Si atom -12389.217588 kJ/mol
# Density = 2.096664 g / cm^3
# Si number density = 21.014474 Si / 1000 Ang^3
#
#
#
# Elastic Constant Matrix: (Units=GPa)
#
#
# Indices 1 2 3 4 5 6 
#
# 1 57.1801 12.5864 21.3787 0.0000 0.0000 0.0000
# 2 12.5864 82.7706 32.3277 0.0000 0.0000 0.0000
# 3 21.3787 32.3277 140.1409 0.0000 0.0000 0.0000
# 4 0.0000 0.0000 0.0000 18.3141 0.0000 0.0000
# 5 0.0000 0.0000 0.0000 0.0000 29.2690 0.0000
# 6 0.0000 0.0000 0.0000 0.0000 0.0000 31.0575
#
#
#
# Elastic Compliance Matrix: (Units=1/GPa)
#
#
# Indices 1 2 3 4 5 6 
#
# 1 0.018818 -0.001913 -0.002430 0.000000 0.000000 0.000000
# 2 -0.001913 0.013472 -0.002816 0.000000 0.000000 0.000000
# 3 -0.002430 -0.002816 0.008156 0.000000 0.000000 0.000000
# 4 0.000000 0.000000 0.000000 0.054603 0.000000 0.000000
# 5 0.000000 0.000000 0.000000 0.000000 0.034166 0.000000
# 6 0.000000 0.000000 0.000000 0.000000 0.000000 0.032198
#
#
# Mechanical properties :
#
#
# Convention : Reuss Voigt Hill
#
# Bulk Modulus (GPa) = 38.27043 45.85303 42.06173
# Shear Modulus (GPa) = 27.10919 29.98137 28.54528
#
# Velocity S-wave (km/s) = 3.59559 3.78127 3.68960
# Velocity P-wave (km/s) = 5.95724 6.39774 6.18141
#
# Compressibility (1/GPa) = 0.02612984
#
# Stress axis : x y z
#
# Youngs Moduli (GPa) = 53.14067 74.22655 122.61064
#
# Poissons Ratio (x) = 0.14197 0.29788
# Poissons Ratio (y) = 0.10164 0.34527
# Poissons Ratio (z) = 0.12911 0.20902
#
# Static dielectric constant tensor:
#      x y z
#    x 3.737400 0.000000 0.000000 
#    y 0.000000 3.789330 0.000000 
#    z 0.000000 0.000000 3.829540 
# 
# 
# High freq. dielectric constant tensor:
#      x y z
#    x 1.824960 0.000000 0.000000 
#    y 0.000000 1.806920 0.000000 
#    z 0.000000 0.000000 1.812300 
# 
# From -- ./inp_files/1439.got.cif
#   From: 2010.03.12/outbox.cif.g09.slc.cpg/sg19_1_cif.got.tgz:1439.got - 2010.04.10 18:59:41.
