data_PCOD8156556
_publ_section_title
;
Structure prediction by ZEFSAII (Michael W. Deem and Ramdas Pophale) SiO2 
 PCOD8156556
Probable space group: P 21 21 21
;
_chemical_formula_sum "Si O2"
_cell_formula_units_Z 32
_cell_length_a 9.243900
_cell_length_b 10.715454
_cell_length_c 18.026014
_cell_angle_alpha 90.000000
_cell_angle_beta 90.000000
_cell_angle_gamma 90.000000
_cell_volume 1785.523288
_symmetry_space_group_name_H-M "P 21 21 21"
_symmetry_group_IT_number 19
_symmetry_cell_setting 'orthorhombic'
loop_
_space_group_symop_operation_xyz
x,y,z
1/2-x,-y,1/2+z
1/2+x,1/2-y,-z
-x,1/2+y,1/2-z
loop_
_atom_site_type_symbol
_atom_site_label
_atom_site_fract_x
_atom_site_fract_y
_atom_site_fract_z
Si Si1 0.455878 0.480454 0.914201
Si Si2 0.125018 0.910779 0.610906
Si Si3 0.325946 0.085467 0.686364
Si Si4 0.868759 0.589003 0.028940
Si Si5 0.818426 0.840466 0.584468
Si Si6 0.893646 0.288451 0.456246
Si Si7 0.122009 0.256498 0.072686
Si Si8 0.865127 0.382978 0.142877
O O1 0.537716 0.496261 0.834711
O O2 0.287481 0.456916 0.898632
O O3 0.485941 0.601113 0.965563
O O4 0.525869 0.360876 0.955189
O O5 0.227191 0.788687 0.608171
O O6 0.964447 0.864905 0.630894
O O7 0.178240 0.007195 0.673655
O O8 0.131077 0.979855 0.531639
O O9 0.330782 0.203910 0.628818
O O10 0.332699 0.125326 0.770471
O O11 0.846000 0.521948 0.108850
O O12 0.024382 0.659063 0.027981
O O13 0.737649 0.686871 0.014094
O O14 0.851499 0.844870 0.497263
O O15 0.750125 0.708041 0.604669
O O16 0.029690 0.336304 0.131793
#
# Coordination Sequence:
#
# PCOD8156556 Si02
#       8
#     4   4   4   4   4   4   4   4
#     4   8  18  35  52  74 114 147 183 222 279 338
#     4  10  19  36  54  83 121 139 179 242 290 318
#     4   8  20  40  51  77 115 154 182 229 280 337
#     4  11  20  34  56  81 109 150 191 234 272 339
#     4  11  18  31  60  87 107 141 189 241 291 315
#     4   9  21  36  52  76 114 150 189 231 277 334
#     4  10  17  33  57  84 106 142 182 243 276 324
#     4  11  21  35  62  84 110 147 199 228 277 353
#
# _framework density 17.921917000000001
#
# number of rings (size 3 to 8) (size 9 to 14) (size 15 to 20)
#    0.750    1.500    3.750    0.750    1.750    3.000 
#    0.000    3.750    0.000    0.000    0.000    0.000 
#    0.000    0.000    0.000    0.000    0.000    0.000 
#
# Total GULP energy -396534.387349 kJ/mol
# GULP energy per Si atom -12391.699605 kJ/mol
# Density = 1.788113 g / cm^3
# Si number density = 17.921917 Si / 1000 Ang^3
#
#
#
# Elastic Constant Matrix: (Units=GPa)
#
#
# Indices 1 2 3 4 5 6 
#
# 1 123.3057 25.3615 10.1824 0.0000 0.0000 0.0000
# 2 25.3615 47.2676 7.4998 0.0000 0.0000 0.0000
# 3 10.1824 7.4998 56.0785 0.0000 0.0000 0.0000
# 4 0.0000 0.0000 0.0000 17.3747 0.0000 0.0000
# 5 0.0000 0.0000 0.0000 0.0000 16.9783 0.0000
# 6 0.0000 0.0000 0.0000 0.0000 0.0000 32.2705
#
#
#
# Elastic Compliance Matrix: (Units=1/GPa)
#
#
# Indices 1 2 3 4 5 6 
#
# 1 0.009174 -0.004759 -0.001029 0.000000 0.000000 0.000000
# 2 -0.004759 0.024083 -0.002357 0.000000 0.000000 0.000000
# 3 -0.001029 -0.002357 0.018334 0.000000 0.000000 0.000000
# 4 0.000000 0.000000 0.000000 0.057555 0.000000 0.000000
# 5 0.000000 0.000000 0.000000 0.000000 0.058899 0.000000
# 6 0.000000 0.000000 0.000000 0.000000 0.000000 0.030988
#
#
# Mechanical properties :
#
#
# Convention : Reuss Voigt Hill
#
# Bulk Modulus (GPa) = 28.32735 34.74881 31.53808
# Shear Modulus (GPa) = 22.01769 25.56524 23.79146
#
# Velocity S-wave (km/s) = 3.50885 3.78097 3.64745
# Velocity P-wave (km/s) = 5.67946 6.20420 5.94762
#
# Compressibility (1/GPa) = 0.03530157
#
# Stress axis : x y z
#
# Youngs Moduli (GPa) = 109.00705 41.52232 54.54278
#
# Poissons Ratio (x) = 0.19760 0.05614
# Poissons Ratio (y) = 0.51875 0.12855
# Poissons Ratio (z) = 0.11220 0.09786
#
# Static dielectric constant tensor:
#      x y z
#    x 3.524150 0.000000 0.000000 
#    y 0.000000 3.224450 0.000000 
#    z 0.000000 0.000000 2.916510 
# 
# 
# High freq. dielectric constant tensor:
#      x y z
#    x 1.700450 0.000000 0.000000 
#    y 0.000000 1.685420 0.000000 
#    z 0.000000 0.000000 1.652620 
# 
# From -- ./inp_files/6657.got.cif
#   From: 2010.03.12/outbox.cif.g09.slc.cpg/sg19_4_cif.got.tgz:6657.got - 2010.04.10 18:59:41.
