data_PCOD8156902
_publ_section_title
;
Structure prediction by ZEFSAII (Michael W. Deem and Ramdas Pophale) SiO2 
 PCOD8156902
Probable space group: P 21 21 21
;
_chemical_formula_sum "Si O2"
_cell_formula_units_Z 32
_cell_length_a 15.846937
_cell_length_b 8.991480
_cell_length_c 10.560377
_cell_angle_alpha 90.000000
_cell_angle_beta 90.000000
_cell_angle_gamma 90.000000
_cell_volume 1504.720842
_symmetry_space_group_name_H-M "P 21 21 21"
_symmetry_group_IT_number 19
_symmetry_cell_setting 'orthorhombic'
loop_
_space_group_symop_operation_xyz
x,y,z
1/2-x,-y,1/2+z
1/2+x,1/2-y,-z
-x,1/2+y,1/2-z
loop_
_atom_site_type_symbol
_atom_site_label
_atom_site_fract_x
_atom_site_fract_y
_atom_site_fract_z
Si Si1 0.339408 0.943173 0.437191
Si Si2 0.561576 0.196455 0.609239
Si Si3 0.398226 0.449968 0.298463
Si Si4 0.016512 0.839269 0.856921
Si Si5 0.459088 0.016885 0.787851
Si Si6 0.719622 0.157460 0.745336
Si Si7 0.593045 0.131242 0.963335
Si Si8 0.274812 0.994689 0.710409
O O1 0.387338 0.790862 0.474668
O O2 0.278514 0.004319 0.554089
O O3 0.411157 0.064057 0.419797
O O4 0.293588 0.917617 0.299303
O O5 0.540920 0.233979 0.465372
O O6 0.507881 0.055203 0.658165
O O7 0.536272 0.339182 0.694143
O O8 0.661307 0.156041 0.618869
O O9 0.441652 0.290992 0.274362
O O10 0.451916 0.572769 0.228538
O O11 0.300734 0.448274 0.256803
O O12 0.397713 0.492167 0.444668
O O13 0.499158 0.115673 0.902170
O O14 0.361390 0.056237 0.769208
O O15 0.661270 0.097004 0.856616
O O16 0.749217 0.325289 0.763693
#
# Coordination Sequence:
#
# PCOD8156902 Si02
#       8
#     4   4   4   4   4   4   4   4
#     4  11  23  46  66 102 140 183 241 285 357 427
#     4  10  21  42  69  99 131 177 230 281 346 412
#     4  12  25  46  66 101 138 181 230 292 350 426
#     4  12  25  44  69  95 140 184 226 287 352 422
#     4  10  20  41  70  96 130 179 228 285 340 420
#     4   9  22  43  67  94 138 174 224 289 344 416
#     4  10  23  44  63  97 138 173 231 285 352 420
#     4  10  21  42  70  98 135 187 232 288 351 423
#
# _framework density 21.266404999999999
#
# number of rings (size 3 to 8) (size 9 to 14) (size 15 to 20)
#    0.000    1.500    3.750    1.500    1.750    1.000 
#   15.750    0.000    0.000    0.000    0.000    0.000 
#    0.000    0.000    0.000    0.000    0.000    0.000 
#
# Total GULP energy -396445.408206 kJ/mol
# GULP energy per Si atom -12388.919006 kJ/mol
# Density = 2.121800 g / cm^3
# Si number density = 21.266405 Si / 1000 Ang^3
#
#
#
# Elastic Constant Matrix: (Units=GPa)
#
#
# Indices 1 2 3 4 5 6 
#
# 1 90.2541 38.2385 34.3255 0.0000 0.0000 0.0000
# 2 38.2385 71.0996 13.9690 0.0000 0.0000 0.0000
# 3 34.3255 13.9690 65.7527 0.0000 0.0000 0.0000
# 4 0.0000 0.0000 0.0000 33.7856 0.0000 0.0000
# 5 0.0000 0.0000 0.0000 0.0000 32.7251 0.0000
# 6 0.0000 0.0000 0.0000 0.0000 0.0000 33.2317
#
#
#
# Elastic Compliance Matrix: (Units=1/GPa)
#
#
# Indices 1 2 3 4 5 6 
#
# 1 0.017159 -0.007794 -0.007302 0.000000 0.000000 0.000000
# 2 -0.007794 0.018217 0.000198 0.000000 0.000000 0.000000
# 3 -0.007302 0.000198 0.018978 0.000000 0.000000 0.000000
# 4 0.000000 0.000000 0.000000 0.029598 0.000000 0.000000
# 5 0.000000 0.000000 0.000000 0.000000 0.030558 0.000000
# 6 0.000000 0.000000 0.000000 0.000000 0.000000 0.030092
#
#
# Mechanical properties :
#
#
# Convention : Reuss Voigt Hill
#
# Bulk Modulus (GPa) = 40.71644 44.46360 42.59002
# Shear Modulus (GPa) = 27.38476 29.32004 28.35240
#
# Velocity S-wave (km/s) = 3.59235 3.71712 3.65526
# Velocity P-wave (km/s) = 6.03275 6.27502 6.15508
#
# Compressibility (1/GPa) = 0.02456011
#
# Stress axis : x y z
#
# Youngs Moduli (GPa) = 58.27882 54.89260 52.69205
#
# Poissons Ratio (x) = 0.42782 0.38475
# Poissons Ratio (y) = 0.45421 -0.01045
# Poissons Ratio (z) = 0.42554 -0.01089
#
# Static dielectric constant tensor:
#      x y z
#    x 3.994930 0.000000 0.000000 
#    y 0.000000 3.700570 0.000000 
#    z 0.000000 0.000000 4.116170 
# 
# 
# High freq. dielectric constant tensor:
#      x y z
#    x 1.835800 0.000000 0.000000 
#    y 0.000000 1.823880 0.000000 
#    z 0.000000 0.000000 1.835060 
# 
# From -- ./inp_files/5275.got.cif
#   From: 2010.03.12/outbox.cif.g09.slc.cpg/sg19_3_cif.got.tgz:5275.got - 2010.04.10 18:59:41.
