data_PCOD8156819
_publ_section_title
;
Structure prediction by ZEFSAII (Michael W. Deem and Ramdas Pophale) SiO2 
 PCOD8156819
Probable space group: P 21 21 21
;
_chemical_formula_sum "Si O2"
_cell_formula_units_Z 32
_cell_length_a 11.649846
_cell_length_b 8.747518
_cell_length_c 14.518190
_cell_angle_alpha 90.000000
_cell_angle_beta 90.000000
_cell_angle_gamma 90.000000
_cell_volume 1479.508638
_symmetry_space_group_name_H-M "P 21 21 21"
_symmetry_group_IT_number 19
_symmetry_cell_setting 'orthorhombic'
loop_
_space_group_symop_operation_xyz
x,y,z
1/2-x,-y,1/2+z
1/2+x,1/2-y,-z
-x,1/2+y,1/2-z
loop_
_atom_site_type_symbol
_atom_site_label
_atom_site_fract_x
_atom_site_fract_y
_atom_site_fract_z
Si Si1 0.744162 0.124264 0.340594
Si Si2 0.474076 0.688480 0.628240
Si Si3 0.331993 0.090312 0.990235
Si Si4 0.128654 0.057663 0.680781
Si Si5 0.280054 0.603216 0.505775
Si Si6 0.986911 0.099841 0.275055
Si Si7 0.638862 0.941314 0.173750
Si Si8 0.757188 0.617005 0.161092
O O1 0.664802 0.271713 0.345254
O O2 0.878926 0.171457 0.332060
O O3 0.721567 0.033265 0.436127
O O4 0.711445 0.018495 0.254320
O O5 0.545508 0.581529 0.558978
O O6 0.354350 0.707239 0.576708
O O7 0.520124 0.850302 0.666721
O O8 0.468883 0.583155 0.721043
O O9 0.248873 0.970029 0.937853
O O10 0.307365 0.269361 0.970438
O O11 0.341966 0.054888 0.097190
O O12 0.993936 0.060242 0.703627
O O13 0.200688 0.000315 0.767259
O O14 0.349841 0.536993 0.419942
O O15 0.111046 0.154264 0.313100
O O16 0.683540 0.770484 0.156326
#
# Coordination Sequence:
#
# PCOD8156819 Si02
#       8
#     4   4   4   4   4   4   4   4
#     4  11  24  42  70  97 136 180 227 284 341 405
#     4  10  20  38  60  92 122 166 206 286 318 396
#     4  11  23  42  64  95 134 172 228 278 338 404
#     4  12  24  44  66  99 140 181 224 283 342 417
#     4  11  23  42  64  95 134 172 228 278 338 404
#     4  10  20  38  66  92 124 160 230 272 332 386
#     4  12  24  44  66  99 140 181 224 283 342 417
#     4  11  24  42  70  97 136 180 227 284 341 405
#
# _framework density 21.628803000000001
#
# number of rings (size 3 to 8) (size 9 to 14) (size 15 to 20)
#    0.000    1.000    1.250    7.500    0.000    0.000 
#    4.500    0.000    0.000    0.000    0.000    0.000 
#    0.000    0.000    0.000    0.000    0.000    0.000 
#
# Total GULP energy -396639.399062 kJ/mol
# GULP energy per Si atom -12394.981221 kJ/mol
# Density = 2.157958 g / cm^3
# Si number density = 21.628803 Si / 1000 Ang^3
#
#
#
# Elastic Constant Matrix: (Units=GPa)
#
#
# Indices 1 2 3 4 5 6 
#
# 1 102.4001 28.7582 20.2973 0.0000 0.0000 0.0000
# 2 28.7582 74.7305 9.2126 0.0000 0.0000 0.0000
# 3 20.2973 9.2126 67.2950 0.0000 0.0000 0.0000
# 4 0.0000 0.0000 0.0000 48.8656 0.0000 0.0000
# 5 0.0000 0.0000 0.0000 0.0000 22.2611 0.0000
# 6 0.0000 0.0000 0.0000 0.0000 0.0000 28.9769
#
#
#
# Elastic Compliance Matrix: (Units=1/GPa)
#
#
# Indices 1 2 3 4 5 6 
#
# 1 0.011482 -0.004060 -0.002907 0.000000 0.000000 0.000000
# 2 -0.004060 0.015047 -0.000835 0.000000 0.000000 0.000000
# 3 -0.002907 -0.000835 0.015851 0.000000 0.000000 0.000000
# 4 0.000000 0.000000 0.000000 0.020464 0.000000 0.000000
# 5 0.000000 0.000000 0.000000 0.000000 0.044921 0.000000
# 6 0.000000 0.000000 0.000000 0.000000 0.000000 0.034510
#
#
# Mechanical properties :
#
#
# Convention : Reuss Voigt Hill
#
# Bulk Modulus (GPa) = 37.34892 40.10686 38.72789
# Shear Modulus (GPa) = 29.97481 32.43123 31.20302
#
# Velocity S-wave (km/s) = 3.72677 3.87647 3.80236
# Velocity P-wave (km/s) = 5.98532 6.21446 6.10097
#
# Compressibility (1/GPa) = 0.02677454
#
# Stress axis : x y z
#
# Youngs Moduli (GPa) = 87.09147 66.45901 63.08662
#
# Poissons Ratio (x) = 0.26984 0.18342
# Poissons Ratio (y) = 0.35361 0.05269
# Poissons Ratio (z) = 0.25321 0.05551
#
# Static dielectric constant tensor:
#      x y z
#    x 3.902170 0.000000 0.000000 
#    y 0.000000 3.853840 0.000000 
#    z 0.000000 0.000000 3.989500 
# 
# 
# High freq. dielectric constant tensor:
#      x y z
#    x 1.853260 0.000000 0.000000 
#    y 0.000000 1.854420 0.000000 
#    z 0.000000 0.000000 1.851140 
# 
# From -- ./inp_files/6170.got.cif
#   From: 2010.03.12/outbox.cif.g09.slc.cpg/sg19_4_cif.got.tgz:6170.got - 2010.04.10 18:59:41.
