data_PCOD8156109
_publ_section_title
;
Structure prediction by ZEFSAII (Michael W. Deem and Ramdas Pophale) SiO2 
 PCOD8156109
Probable space group: P 21 21 2
;
_chemical_formula_sum "Si O2"
_cell_formula_units_Z 26
_cell_length_a 9.081974
_cell_length_b 9.463664
_cell_length_c 15.562640
_cell_angle_alpha 90.000000
_cell_angle_beta 90.000000
_cell_angle_gamma 90.000000
_cell_volume 1337.589461
_symmetry_space_group_name_H-M "P 21 21 2"
_symmetry_group_IT_number 18
_symmetry_cell_setting 'orthorhombic'
loop_
_space_group_symop_operation_xyz
x,y,z
-x,-y,z
1/2+x,1/2-y,-z
1/2-x,1/2+y,-z
loop_
_atom_site_type_symbol
_atom_site_label
_atom_site_fract_x
_atom_site_fract_y
_atom_site_fract_z
Si Si1 0.835363 0.999638 0.705456
Si Si2 0.243979 0.499633 0.106661
Si Si3 0.500000 0.500000 0.972152
Si Si4 0.887616 0.261228 0.328312
Si Si5 0.685898 0.201119 0.589270
Si Si6 0.166771 0.983135 0.444133
Si Si7 0.008514 0.720316 0.133888
O O1 0.839176 0.982276 0.807552
O O2 0.761750 0.147002 0.677083
O O3 0.747066 0.869498 0.663119
O O4 0.000000 0.000000 0.669254
O O5 0.145107 0.638436 0.090412
O O6 0.141005 0.364620 0.118991
O O7 0.353544 0.480304 0.027841
O O8 0.484106 0.632055 0.910686
O O9 0.959429 0.259897 0.234420
O O10 0.010083 0.308689 0.397815
O O11 0.833098 0.104244 0.354127
O O12 0.736368 0.362609 0.572913
O O13 0.733454 0.100097 0.511746
O O14 0.000000 0.000000 0.479507
#
# Coordination Sequence:
#
# PCOD8156109 Si02
#       7
#     4   4   2   4   4   4   4
#     4  11  21  38  62  85 121 160 207 251 304 361
#     4  10  21  40  58  93 120 164 205 251 304 374
#     4  12  22  36  66  94 126 160 204 260 308 352
#     4  10  22  41  64  89 120 165 208 246 308 367
#     4  11  21  38  63  88 121 159 201 252 303 359
#     4  10  23  39  60  92 125 153 207 254 298 362
#     4  10  22  38  64  90 126 163 206 252 305 371
#
# _framework density 19.437953
#
# number of rings (size 3 to 8) (size 9 to 14) (size 15 to 20)
#    0.000    1.538    2.308    2.769    3.231    2.462 
#    0.000    3.846    0.000    0.000    0.000    0.000 
#    0.000    0.000    0.000    0.000    0.000    0.000 
#
# Total GULP energy -322403.851788 kJ/mol
# GULP energy per Si atom -12400.148146 kJ/mol
# Density = 1.939371 g / cm^3
# Si number density = 19.437953 Si / 1000 Ang^3
#
#
#
# Elastic Constant Matrix: (Units=GPa)
#
#
# Indices 1 2 3 4 5 6 
#
# 1 109.8012 57.5284 46.1279 0.0000 0.0000 0.0000
# 2 57.5284 153.4260 59.3178 0.0000 0.0000 0.0000
# 3 46.1279 59.3178 80.4749 0.0000 0.0000 0.0000
# 4 0.0000 0.0000 0.0000 41.4557 0.0000 0.0000
# 5 0.0000 0.0000 0.0000 0.0000 281.7953 0.0000
# 6 0.0000 0.0000 0.0000 0.0000 0.0000 24.5537
#
#
#
# Elastic Compliance Matrix: (Units=1/GPa)
#
#
# Indices 1 2 3 4 5 6 
#
# 1 0.012769 -0.002739 -0.005301 0.000000 0.000000 0.000000
# 2 -0.002739 0.009703 -0.005582 0.000000 0.000000 0.000000
# 3 -0.005301 -0.005582 0.019579 0.000000 0.000000 0.000000
# 4 0.000000 0.000000 0.000000 0.024122 0.000000 0.000000
# 5 0.000000 0.000000 0.000000 0.000000 0.003549 0.000000
# 6 0.000000 0.000000 0.000000 0.000000 0.000000 0.040727
#
#
# Mechanical properties :
#
#
# Convention : Reuss Voigt Hill
#
# Bulk Modulus (GPa) = 67.52959 74.40559 70.96759
# Shear Modulus (GPa) = 35.05633 81.60947 58.33290
#
# Velocity S-wave (km/s) = 4.25137 6.48658 5.48406
# Velocity P-wave (km/s) = 7.67564 9.71919 8.75723
#
# Compressibility (1/GPa) = 0.01480832
#
# Stress axis : x y z
#
# Youngs Moduli (GPa) = 78.31494 103.06264 51.07478
#
# Poissons Ratio (x) = 0.28224 0.27072
# Poissons Ratio (y) = 0.21447 0.28511
# Poissons Ratio (z) = 0.41511 0.57532
#
# Static dielectric constant tensor:
#      x y z
#    x 3.527520 0.000000 0.000000 
#    y 0.000000 3.472700 0.000000 
#    z 0.000000 0.000000 3.506320 
# 
# 
# High freq. dielectric constant tensor:
#      x y z
#    x 1.758330 0.000000 0.000000 
#    y 0.000000 1.763710 0.000000 
#    z 0.000000 0.000000 1.755410 
# 
# From -- ./inp_files/7322.got.cif
#   From: 2010.03.12/outbox.cif.g09.slc.cpg/sg18_4_cif.got.tgz:7322.got - 2010.04.10 18:53:55.
