data_PCOD8156052
_publ_section_title
;
Structure prediction by ZEFSAII (Michael W. Deem and Ramdas Pophale) SiO2 
 PCOD8156052
Probable space group: P 21 21 2
;
_chemical_formula_sum "Si O2"
_cell_formula_units_Z 18
_cell_length_a 9.404283
_cell_length_b 8.474259
_cell_length_c 10.954689
_cell_angle_alpha 90.000000
_cell_angle_beta 90.000000
_cell_angle_gamma 90.000000
_cell_volume 873.026599
_symmetry_space_group_name_H-M "P 21 21 2"
_symmetry_group_IT_number 18
_symmetry_cell_setting 'orthorhombic'
loop_
_space_group_symop_operation_xyz
x,y,z
-x,-y,z
1/2+x,1/2-y,-z
1/2-x,1/2+y,-z
loop_
_atom_site_type_symbol
_atom_site_label
_atom_site_fract_x
_atom_site_fract_y
_atom_site_fract_z
Si Si1 0.644444 0.577282 0.376411
Si Si2 0.208317 0.908301 0.892662
Si Si3 0.000000 0.500000 0.752150
Si Si4 0.369480 0.096587 0.477694
Si Si5 0.916639 0.761805 0.937997
O O1 0.500000 0.500000 0.329156
O O2 0.718607 0.634785 0.251138
O O3 0.615489 0.714111 0.476055
O O4 0.728896 0.442637 0.448264
O O5 0.074264 0.829705 0.963941
O O6 0.194512 0.097753 0.907602
O O7 0.354181 0.841449 0.950305
O O8 0.866928 0.449477 0.666124
O O9 0.934431 0.644751 0.824933
O O10 0.500000 0.000000 0.541555
#
# Coordination Sequence:
#
# PCOD8156052 Si02
#       5
#     4   4   2   4   4
#     4  12  22  44  68  98 134 172 218 274 327 389
#     4  11  23  41  66  97 131 176 218 269 324 391
#     4  10  20  44  64  90 128 176 210 272 320 384
#     4  10  23  40  67  94 130 173 221 266 329 385
#     4  11  22  42  67  94 132 175 218 268 329 381
#
# _framework density 20.617927999999999
#
# number of rings (size 3 to 8) (size 9 to 14) (size 15 to 20)
#    0.667    0.444    4.444    2.667    3.111    0.000 
#    6.000    2.222    0.000    0.000    0.000    0.000 
#    0.000    0.000    0.000    0.000    0.000    0.000 
#
# Total GULP energy -223032.480125 kJ/mol
# GULP energy per Si atom -12390.693340 kJ/mol
# Density = 2.057100 g / cm^3
# Si number density = 20.617928 Si / 1000 Ang^3
#
#
#
# Elastic Constant Matrix: (Units=GPa)
#
#
# Indices 1 2 3 4 5 6 
#
# 1 67.3148 32.7429 57.3070 0.0000 0.0000 0.0000
# 2 32.7429 104.3524 33.2406 0.0000 0.0000 0.0000
# 3 57.3070 33.2406 104.1836 0.0000 0.0000 0.0000
# 4 0.0000 0.0000 0.0000 30.7593 0.0000 0.0000
# 5 0.0000 0.0000 0.0000 0.0000 34.8539 0.0000
# 6 0.0000 0.0000 0.0000 0.0000 0.0000 41.7530
#
#
#
# Elastic Compliance Matrix: (Units=1/GPa)
#
#
# Indices 1 2 3 4 5 6 
#
# 1 0.029795 -0.004595 -0.014923 0.000000 0.000000 0.000000
# 2 -0.004595 0.011376 -0.001102 0.000000 0.000000 0.000000
# 3 -0.014923 -0.001102 0.018158 0.000000 0.000000 0.000000
# 4 0.000000 0.000000 0.000000 0.032511 0.000000 0.000000
# 5 0.000000 0.000000 0.000000 0.000000 0.028691 0.000000
# 6 0.000000 0.000000 0.000000 0.000000 0.000000 0.023950
#
#
# Mechanical properties :
#
#
# Convention : Reuss Voigt Hill
#
# Bulk Modulus (GPa) = 55.28143 58.04798 56.66470
# Shear Modulus (GPa) = 26.07550 31.64391 28.85970
#
# Velocity S-wave (km/s) = 3.56012 3.92187 3.74537
# Velocity P-wave (km/s) = 6.61587 6.98021 6.80048
#
# Compressibility (1/GPa) = 0.01808926
#
# Stress axis : x y z
#
# Youngs Moduli (GPa) = 33.56271 87.90602 55.07098
#
# Poissons Ratio (x) = 0.40396 0.82181
# Poissons Ratio (y) = 0.15423 0.06068
# Poissons Ratio (z) = 0.50085 0.09686
#
# Static dielectric constant tensor:
#      x y z
#    x 3.557330 0.000000 0.000000 
#    y 0.000000 3.981800 0.000000 
#    z 0.000000 0.000000 3.502990 
# 
# 
# High freq. dielectric constant tensor:
#      x y z
#    x 1.780880 0.000000 0.000000 
#    y 0.000000 1.830190 0.000000 
#    z 0.000000 0.000000 1.789400 
# 
# From -- ./inp_files/5365.got.cif
#   From: 2010.03.12/outbox.cif.g09.slc.cpg/sg18_3_cif.got.tgz:5365.got - 2010.04.10 18:53:55.
