data_PCOD8156486
_publ_section_title
;
Structure prediction by ZEFSAII (Michael W. Deem and Ramdas Pophale) SiO2 
 PCOD8156486
Probable space group: P 21 21 2
;
_chemical_formula_sum "Si O2"
_cell_formula_units_Z 28
_cell_length_a 24.477815
_cell_length_b 8.108504
_cell_length_c 6.482608
_cell_angle_alpha 90.000000
_cell_angle_beta 90.000000
_cell_angle_gamma 90.000000
_cell_volume 1286.658058
_symmetry_space_group_name_H-M "P 21 21 2"
_symmetry_group_IT_number 18
_symmetry_cell_setting 'orthorhombic'
loop_
_space_group_symop_operation_xyz
x,y,z
-x,-y,z
1/2+x,1/2-y,-z
1/2-x,1/2+y,-z
loop_
_atom_site_type_symbol
_atom_site_label
_atom_site_fract_x
_atom_site_fract_y
_atom_site_fract_z
Si Si1 0.403475 0.483116 0.041421
Si Si2 0.000000 0.000000 0.274163
Si Si3 0.608033 0.881219 0.976522
Si Si4 0.299309 0.685353 0.939888
Si Si5 0.346391 0.925164 0.623373
Si Si6 0.558831 0.280983 0.407292
Si Si7 0.000000 0.500000 0.849484
Si Si8 0.798003 0.537017 0.786252
O O1 0.450225 0.451860 0.872914
O O2 0.378964 0.299907 0.068438
O O3 0.355851 0.589021 0.941977
O O4 0.424412 0.568244 0.252867
O O5 0.018290 0.152081 0.416854
O O6 0.544544 0.922294 0.999792
O O7 0.623837 0.920175 0.737255
O O8 0.642498 0.004578 0.117150
O O9 0.306236 0.831485 0.777283
O O10 0.248916 0.573889 0.880270
O O11 0.285429 0.770632 0.160559
O O12 0.388546 0.799353 0.514790
O O13 0.303947 0.996008 0.455918
O O14 0.524852 0.144452 0.287415
#
# Coordination Sequence:
#
# PCOD8156486 Si02
#       8
#     4   2   4   4   4   4   2   4
#     4  12  25  45  67 102 144 186 232 300 357 426
#     4  12  26  40  70 102 140 188 236 292 354 432
#     4  11  26  42  68 103 138 182 239 286 362 422
#     4  11  24  45  72 100 138 185 232 299 358 427
#     4  11  24  46  69 101 141 182 236 293 350 429
#     4  12  25  46  68 103 146 187 236 291 357 426
#     4  12  24  44  72  98 144 192 232 296 362 434
#     4  11  24  48  71 101 138 185 232 294 360 425
#
# _framework density 21.761803
#
# number of rings (size 3 to 8) (size 9 to 14) (size 15 to 20)
#    0.000    0.571    4.286    3.857    4.000    4.571 
#    2.571    0.000    0.000    0.000    0.000    0.000 
#    0.000    0.000    0.000    0.000    0.000    0.000 
#
# Total GULP energy -347156.079603 kJ/mol
# GULP energy per Si atom -12398.431414 kJ/mol
# Density = 2.171227 g / cm^3
# Si number density = 21.761803 Si / 1000 Ang^3
#
#
#
# Elastic Constant Matrix: (Units=GPa)
#
#
# Indices 1 2 3 4 5 6 
#
# 1 80.3008 15.8667 13.4667 0.0000 0.0000 0.0000
# 2 15.8667 102.2434 26.7627 0.0000 0.0000 0.0000
# 3 13.4667 26.7627 91.2155 0.0000 0.0000 0.0000
# 4 0.0000 0.0000 0.0000 26.4151 0.0000 0.0000
# 5 0.0000 0.0000 0.0000 0.0000 42.8815 0.0000
# 6 0.0000 0.0000 0.0000 0.0000 0.0000 36.2588
#
#
#
# Elastic Compliance Matrix: (Units=1/GPa)
#
#
# Indices 1 2 3 4 5 6 
#
# 1 0.013019 -0.001644 -0.001440 0.000000 0.000000 0.000000
# 2 -0.001644 0.010802 -0.002927 0.000000 0.000000 0.000000
# 3 -0.001440 -0.002927 0.012034 0.000000 0.000000 0.000000
# 4 0.000000 0.000000 0.000000 0.037857 0.000000 0.000000
# 5 0.000000 0.000000 0.000000 0.000000 0.023320 0.000000
# 6 0.000000 0.000000 0.000000 0.000000 0.000000 0.027580
#
#
# Mechanical properties :
#
#
# Convention : Reuss Voigt Hill
#
# Bulk Modulus (GPa) = 41.95451 42.88353 42.41902
# Shear Modulus (GPa) = 34.58361 35.62201 35.10281
#
# Velocity S-wave (km/s) = 3.99079 4.05026 4.02063
# Velocity P-wave (km/s) = 6.36836 6.45147 6.41005
#
# Compressibility (1/GPa) = 0.02383534
#
# Stress axis : x y z
#
# Youngs Moduli (GPa) = 76.80847 92.57829 83.09591
#
# Poissons Ratio (x) = 0.15215 0.11965
# Poissons Ratio (y) = 0.12624 0.24319
# Poissons Ratio (z) = 0.11060 0.27094
#
# Static dielectric constant tensor:
#      x y z
#    x 3.967490 0.000000 0.000000 
#    y 0.000000 4.061500 0.000000 
#    z 0.000000 0.000000 4.174750 
# 
# 
# High freq. dielectric constant tensor:
#      x y z
#    x 1.864070 0.000000 0.000000 
#    y 0.000000 1.860640 0.000000 
#    z 0.000000 0.000000 1.860350 
# 
# From -- ./inp_files/727.got.cif
#   From: 2010.03.12/outbox.cif.g09.slc.cpg/sg18_1_cif.got.tgz:727.got - 2010.04.10 18:53:55.
