data_PCOD8156957
_publ_section_title
;
Structure prediction by ZEFSAII (Michael W. Deem and Ramdas Pophale) SiO2 
 PCOD8156957
Probable space group: P 21 21 21
;
_chemical_formula_sum "Si O2"
_cell_formula_units_Z 24
_cell_length_a 9.361491
_cell_length_b 5.493065
_cell_length_c 19.683402
_cell_angle_alpha 90.000000
_cell_angle_beta 90.000000
_cell_angle_gamma 90.000000
_cell_volume 1012.185064
_symmetry_space_group_name_H-M "P 21 21 21"
_symmetry_group_IT_number 19
_symmetry_cell_setting 'orthorhombic'
loop_
_space_group_symop_operation_xyz
x,y,z
1/2-x,-y,1/2+z
1/2+x,1/2-y,-z
-x,1/2+y,1/2-z
loop_
_atom_site_type_symbol
_atom_site_label
_atom_site_fract_x
_atom_site_fract_y
_atom_site_fract_z
Si Si1 0.843733 0.950698 0.465597
Si Si2 0.156909 0.208217 0.602612
Si Si3 0.156869 0.708164 0.897371
Si Si4 0.334024 0.980057 0.710911
Si Si5 0.843691 0.450781 0.034415
Si Si6 0.666000 0.980056 0.710933
O O1 0.750054 0.749903 0.500000
O O2 0.000027 0.854728 0.441141
O O3 0.762790 0.057115 0.398781
O O4 0.868684 0.149964 0.523839
O O5 0.236614 0.990540 0.643088
O O6 0.000024 0.264826 0.635037
O O7 0.131321 0.150066 0.523820
O O8 0.236549 0.490507 0.856877
O O9 0.262771 0.942808 0.898763
O O10 0.500018 0.983060 0.690813
O O11 0.294042 0.229143 0.751353
O O12 0.294042 0.729142 0.748619
#
# Coordination Sequence:
#
# PCOD8156957 Si02
#       6
#     4   4   4   4   4   4
#     4  10  21  37  60  89 121 158 200 254 312 372
#     4  10  22  39  59  88 121 157 204 254 310 369
#     4  10  22  39  59  88 121 157 204 254 310 369
#     4  10  23  42  63  90 123 165 210 254 309 370
#     4  10  21  37  60  89 121 158 200 254 312 372
#     4  10  23  42  63  90 123 165 210 254 309 370
#
# _framework density 23.711079999999999
#
# number of rings (size 3 to 8) (size 9 to 14) (size 15 to 20)
#    0.000    2.000    0.000    2.000    4.667    5.333 
#    0.000    0.000    0.000    0.000    0.000    0.000 
#    0.000    0.000    0.000    0.000    0.000    0.000 
#
# Total GULP energy -297376.618192 kJ/mol
# GULP energy per Si atom -12390.692425 kJ/mol
# Density = 2.365711 g / cm^3
# Si number density = 23.711080 Si / 1000 Ang^3
#
#
#
# Elastic Constant Matrix: (Units=GPa)
#
#
# Indices 1 2 3 4 5 6 
#
# 1 160.0436 13.7610 1.9163 0.0000 0.0000 0.0000
# 2 13.7610 85.0079 -1.6388 0.0000 0.0000 0.0000
# 3 1.9163 -1.6388 47.5021 0.0000 0.0000 0.0000
# 4 0.0000 0.0000 0.0000 38.0924 0.0000 0.0000
# 5 0.0000 0.0000 0.0000 0.0000 33.2538 0.0000
# 6 0.0000 0.0000 0.0000 0.0000 0.0000 28.3704
#
#
#
# Elastic Compliance Matrix: (Units=1/GPa)
#
#
# Indices 1 2 3 4 5 6 
#
# 1 0.006341 -0.001032 -0.000291 0.000000 0.000000 0.000000
# 2 -0.001032 0.011939 0.000454 0.000000 0.000000 0.000000
# 3 -0.000291 0.000454 0.021079 0.000000 0.000000 0.000000
# 4 0.000000 0.000000 0.000000 0.026252 0.000000 0.000000
# 5 0.000000 0.000000 0.000000 0.000000 0.030072 0.000000
# 6 0.000000 0.000000 0.000000 0.000000 0.000000 0.035248
#
#
# Mechanical properties :
#
#
# Convention : Reuss Voigt Hill
#
# Bulk Modulus (GPa) = 26.58209 35.62562 31.10386
# Shear Modulus (GPa) = 34.43283 38.51099 36.47191
#
# Velocity S-wave (km/s) = 3.81489 4.03448 3.92622
# Velocity P-wave (km/s) = 5.53531 6.06302 5.80516
#
# Compressibility (1/GPa) = 0.03761931
#
# Stress axis : x y z
#
# Youngs Moduli (GPa) = 157.71572 83.75618 47.44035
#
# Poissons Ratio (x) = 0.08644 0.01382
# Poissons Ratio (y) = 0.16276 -0.02152
# Poissons Ratio (z) = 0.04596 -0.03799
#
# Static dielectric constant tensor:
#      x y z
#    x 4.968430 0.000000 0.000000 
#    y 0.000000 4.180110 0.000000 
#    z 0.000000 0.000000 4.395820 
# 
# 
# High freq. dielectric constant tensor:
#      x y z
#    x 1.956470 0.000000 0.000000 
#    y 0.000000 1.928680 0.000000 
#    z 0.000000 0.000000 1.918270 
# 
# From -- ./inp_files/478.got.cif
#   From: 2010.03.12/outbox.cif.g09.slc.cpg/sg19_1_cif.got.tgz:478.got - 2010.04.10 18:59:41.
