data_PCOD8156443
_publ_section_title
;
Structure prediction by ZEFSAII (Michael W. Deem and Ramdas Pophale) SiO2 
 PCOD8156443
Probable space group: P 21 21 2
;
_chemical_formula_sum "Si O2"
_cell_formula_units_Z 24
_cell_length_a 9.639346
_cell_length_b 14.520664
_cell_length_c 8.455898
_cell_angle_alpha 90.000000
_cell_angle_beta 90.000000
_cell_angle_gamma 90.000000
_cell_volume 1183.569544
_symmetry_space_group_name_H-M "P 21 21 2"
_symmetry_group_IT_number 18
_symmetry_cell_setting 'orthorhombic'
loop_
_space_group_symop_operation_xyz
x,y,z
-x,-y,z
1/2+x,1/2-y,-z
1/2-x,1/2+y,-z
loop_
_atom_site_type_symbol
_atom_site_label
_atom_site_fract_x
_atom_site_fract_y
_atom_site_fract_z
Si Si1 0.500000 0.500000 0.257964
Si Si2 0.091248 0.193639 0.653365
Si Si3 0.379547 0.748614 0.696195
Si Si4 0.239831 0.408020 0.096575
Si Si5 0.614332 0.825082 0.183083
Si Si6 0.338009 0.255753 0.862684
Si Si7 0.500000 0.000000 0.079315
O O1 0.558828 0.415725 0.365711
O O2 0.376417 0.462826 0.148130
O O3 0.089602 0.249455 0.489704
O O4 0.239849 0.209798 0.732190
O O5 0.970860 0.235536 0.762854
O O6 0.323911 0.847449 0.758884
O O7 0.261789 0.671769 0.728487
O O8 0.517751 0.715799 0.783427
O O9 0.269989 0.344033 0.945068
O O10 0.128388 0.481160 0.036674
O O11 0.531921 0.919391 0.206196
O O12 0.634385 0.820889 0.994466
#
# Coordination Sequence:
#
# PCOD8156443 Si02
#       7
#     2   4   4   4   4   4   2
#     4  12  26  44  70 104 136 178 234 284 344 404
#     4  12  24  46  68  97 143 179 221 288 342 408
#     4  11  24  44  69  96 138 180 222 276 356 400
#     4  11  25  43  73  99 133 179 234 281 339 401
#     4  11  22  44  67  99 131 178 230 276 331 405
#     4  11  21  43  73  94 128 184 223 277 335 402
#     4  12  22  44  70 106 130 174 242 280 326 412
#
# _framework density 20.277642
#
# number of rings (size 3 to 8) (size 9 to 14) (size 15 to 20)
#    0.000    0.667    6.667    3.000    2.333    0.000 
#    6.000    0.000    0.000    0.000    0.000    0.000 
#    0.000    0.000    0.000    0.000    0.000    0.000 
#
# Total GULP energy -297603.849456 kJ/mol
# GULP energy per Si atom -12400.160394 kJ/mol
# Density = 2.023149 g / cm^3
# Si number density = 20.277642 Si / 1000 Ang^3
#
#
#
# Elastic Constant Matrix: (Units=GPa)
#
#
# Indices 1 2 3 4 5 6 
#
# 1 127.5913 42.3100 21.6715 0.0000 0.0000 0.0000
# 2 42.3100 119.3761 24.5413 0.0000 0.0000 0.0000
# 3 21.6715 24.5413 59.4009 0.0000 0.0000 0.0000
# 4 0.0000 0.0000 0.0000 14.4931 0.0000 0.0000
# 5 0.0000 0.0000 0.0000 0.0000 29.0054 0.0000
# 6 0.0000 0.0000 0.0000 0.0000 0.0000 36.4711
#
#
#
# Elastic Compliance Matrix: (Units=1/GPa)
#
#
# Indices 1 2 3 4 5 6 
#
# 1 0.009132 -0.002789 -0.002180 0.000000 0.000000 0.000000
# 2 -0.002789 0.010006 -0.003117 0.000000 0.000000 0.000000
# 3 -0.002180 -0.003117 0.018918 0.000000 0.000000 0.000000
# 4 0.000000 0.000000 0.000000 0.068998 0.000000 0.000000
# 5 0.000000 0.000000 0.000000 0.000000 0.034476 0.000000
# 6 0.000000 0.000000 0.000000 0.000000 0.000000 0.027419
#
#
# Mechanical properties :
#
#
# Convention : Reuss Voigt Hill
#
# Bulk Modulus (GPa) = 45.69089 53.71265 49.70177
# Shear Modulus (GPa) = 25.98554 30.51697 28.25125
#
# Velocity S-wave (km/s) = 3.58367 3.88359 3.73664
# Velocity P-wave (km/s) = 6.30120 6.83050 6.57118
#
# Compressibility (1/GPa) = 0.02188620
#
# Stress axis : x y z
#
# Youngs Moduli (GPa) = 109.49911 99.94038 52.86087
#
# Poissons Ratio (x) = 0.27870 0.11522
# Poissons Ratio (y) = 0.30536 0.16474
# Poissons Ratio (z) = 0.23868 0.31147
#
# Static dielectric constant tensor:
#      x y z
#    x 3.945640 0.000000 0.000000 
#    y 0.000000 3.771900 0.000000 
#    z 0.000000 0.000000 3.478380 
# 
# 
# High freq. dielectric constant tensor:
#      x y z
#    x 1.819770 0.000000 0.000000 
#    y 0.000000 1.787740 0.000000 
#    z 0.000000 0.000000 1.773110 
# 
# From -- ./inp_files/3187.got.cif
#   From: 2010.03.12/outbox.cif.g09.slc.cpg/sg18_2_cif.got.tgz:3187.got - 2010.04.10 18:53:55.
