data_PCOD8156473
_publ_section_title
;
Structure prediction by ZEFSAII (Michael W. Deem and Ramdas Pophale) SiO2 
 PCOD8156473
Probable space group: P 21 21 2
;
_chemical_formula_sum "Si O2"
_cell_formula_units_Z 30
_cell_length_a 20.849166
_cell_length_b 6.402367
_cell_length_c 10.349445
_cell_angle_alpha 90.000000
_cell_angle_beta 90.000000
_cell_angle_gamma 90.000000
_cell_volume 1381.485444
_symmetry_space_group_name_H-M "P 21 21 2"
_symmetry_group_IT_number 18
_symmetry_cell_setting 'orthorhombic'
loop_
_space_group_symop_operation_xyz
x,y,z
-x,-y,z
1/2+x,1/2-y,-z
1/2-x,1/2+y,-z
loop_
_atom_site_type_symbol
_atom_site_label
_atom_site_fract_x
_atom_site_fract_y
_atom_site_fract_z
Si Si1 0.156209 0.018380 0.942142
Si Si2 0.053952 0.824078 0.109960
Si Si3 0.559984 0.345865 0.264628
Si Si4 0.000000 0.500000 0.907232
Si Si5 0.861319 0.386145 0.298906
Si Si6 0.846820 0.684279 0.527232
Si Si7 0.774233 0.002863 0.354700
Si Si8 0.285057 0.808788 0.875197
O O1 0.212476 0.866166 0.902412
O O2 0.110884 0.026577 0.818620
O O3 0.118682 0.936052 0.066903
O O4 0.183408 0.243012 0.987922
O O5 0.071394 0.707827 0.244579
O O6 0.000000 0.000000 0.133222
O O7 0.036878 0.660014 0.999070
O O8 0.500000 0.500000 0.290379
O O9 0.544692 0.135113 0.186425
O O10 0.592439 0.282659 0.399343
O O11 0.877899 0.546135 0.413359
O O12 0.814262 0.214409 0.355907
O O13 0.825455 0.501005 0.181468
O O14 0.801221 0.548358 0.621376
O O15 0.801272 0.864263 0.471358
O O16 0.782733 0.888844 0.219167
#
# Coordination Sequence:
#
# PCOD8156473 Si02
#       8
#     4   4   4   2   4   4   4   4
#     4  12  23  44  69 111 143 179 232 296 368 439
#     4  12  25  46  72 101 143 187 238 293 355 427
#     4  12  27  47  72 106 148 194 239 301 358 443
#     4  12  24  48  72 102 138 196 232 288 378 416
#     4  11  24  47  70 103 138 189 243 291 350 426
#     4  11  26  43  75 104 143 192 242 293 363 425
#     4  11  23  45  70 105 140 186 234 297 357 420
#     4  11  26  40  71 110 141 181 228 303 366 427
#
# _framework density 21.715757
#
# number of rings (size 3 to 8) (size 9 to 14) (size 15 to 20)
#    0.000    0.533    5.333    2.400    5.600    1.067 
#    0.000    4.000    0.000    0.000    0.000    0.000 
#    0.000    0.000    0.000    0.000    0.000    0.000 
#
# Total GULP energy -372070.975041 kJ/mol
# GULP energy per Si atom -12402.365835 kJ/mol
# Density = 2.166633 g / cm^3
# Si number density = 21.715757 Si / 1000 Ang^3
#
#
#
# Elastic Constant Matrix: (Units=GPa)
#
#
# Indices 1 2 3 4 5 6 
#
# 1 141.6230 63.9110 64.4673 0.0000 0.0000 0.0000
# 2 63.9110 111.7606 44.0164 0.0000 0.0000 0.0000
# 3 64.4673 44.0164 97.5785 0.0000 0.0000 0.0000
# 4 0.0000 0.0000 0.0000 33.0967 0.0000 0.0000
# 5 0.0000 0.0000 0.0000 0.0000 207.4963 0.0000
# 6 0.0000 0.0000 0.0000 0.0000 0.0000 40.2216
#
#
#
# Elastic Compliance Matrix: (Units=1/GPa)
#
#
# Indices 1 2 3 4 5 6 
#
# 1 0.011651 -0.004415 -0.005706 0.000000 0.000000 0.000000
# 2 -0.004415 0.012554 -0.002746 0.000000 0.000000 0.000000
# 3 -0.005706 -0.002746 0.015256 0.000000 0.000000 0.000000
# 4 0.000000 0.000000 0.000000 0.030215 0.000000 0.000000
# 5 0.000000 0.000000 0.000000 0.000000 0.004819 0.000000
# 6 0.000000 0.000000 0.000000 0.000000 0.000000 0.024862
#
#
# Mechanical properties :
#
#
# Convention : Reuss Voigt Hill
#
# Bulk Modulus (GPa) = 72.84676 77.30573 75.07625
# Shear Modulus (GPa) = 38.56033 68.06740 53.31386
#
# Velocity S-wave (km/s) = 4.21846 5.60471 4.96025
# Velocity P-wave (km/s) = 7.57269 8.80681 8.21296
#
# Compressibility (1/GPa) = 0.01372745
#
# Stress axis : x y z
#
# Youngs Moduli (GPa) = 85.83114 79.65496 65.54682
#
# Poissons Ratio (x) = 0.35171 0.37398
# Poissons Ratio (y) = 0.37898 0.17998
# Poissons Ratio (z) = 0.48972 0.21872
#
# Static dielectric constant tensor:
#      x y z
#    x 3.845380 0.000000 0.000000 
#    y 0.000000 3.172830 0.000000 
#    z 0.000000 0.000000 3.935610 
# 
# 
# High freq. dielectric constant tensor:
#      x y z
#    x 1.852690 0.000000 0.000000 
#    y 0.000000 1.869320 0.000000 
#    z 0.000000 0.000000 1.855180 
# 
# From -- ./inp_files/6283.got.cif
#   From: 2010.03.12/outbox.cif.g09.slc.cpg/sg18_4_cif.got.tgz:6283.got - 2010.04.10 18:53:55.
