data_PCOD8156408
_publ_section_title
;
Structure prediction by ZEFSAII (Michael W. Deem and Ramdas Pophale) SiO2 
 PCOD8156408
Probable space group: P 21 21 2
;
_chemical_formula_sum "Si O2"
_cell_formula_units_Z 32
_cell_length_a 8.457331
_cell_length_b 13.467224
_cell_length_c 12.398133
_cell_angle_alpha 90.000000
_cell_angle_beta 90.000000
_cell_angle_gamma 90.000000
_cell_volume 1412.107315
_symmetry_space_group_name_H-M "P 21 21 2"
_symmetry_group_IT_number 18
_symmetry_cell_setting 'orthorhombic'
loop_
_space_group_symop_operation_xyz
x,y,z
-x,-y,z
1/2+x,1/2-y,-z
1/2-x,1/2+y,-z
loop_
_atom_site_type_symbol
_atom_site_label
_atom_site_fract_x
_atom_site_fract_y
_atom_site_fract_z
Si Si1 0.926623 0.749775 0.366343
Si Si2 0.522306 0.230782 0.213595
Si Si3 0.814592 0.022576 0.464035
Si Si4 0.663983 0.057192 0.086438
Si Si5 0.268989 0.751448 0.417461
Si Si6 0.735390 0.409899 0.741522
Si Si7 0.872650 0.075088 0.883948
Si Si8 0.327112 0.960736 0.685841
O O1 0.850074 0.796279 0.476372
O O2 0.921689 0.840722 0.278470
O O3 0.822923 0.658571 0.324285
O O4 0.100363 0.703667 0.385831
O O5 0.641129 0.161945 0.145810
O O6 0.612325 0.268795 0.319515
O O7 0.377538 0.165299 0.250241
O O8 0.458846 0.321619 0.142487
O O9 0.774472 0.136604 0.446179
O O10 0.739177 0.986426 0.577534
O O11 0.725334 0.971459 0.365322
O O12 0.000000 0.000000 0.461552
O O13 0.500000 0.000000 0.065754
O O14 0.778631 0.983806 0.156390
O O15 0.739705 0.089402 0.974135
O O16 0.794432 0.018578 0.782205
O O17 0.000000 0.000000 0.932669
O O18 0.500000 0.000000 0.715677
#
# Coordination Sequence:
#
# PCOD8156408 Si02
#       8
#     4   4   4   4   4   4   4   4
#     4  11  24  39  68 102 148 187 233 287 347 430
#     4  11  25  46  73 104 142 180 235 293 361 423
#     4  11  23  39  67 106 146 184 232 286 343 419
#     4  10  25  49  78 105 135 181 239 304 356 422
#     4  11  24  39  63 105 144 188 230 278 351 420
#     4  11  22  45  73 106 138 182 233 298 353 421
#     4  12  28  49  71 102 138 190 239 295 356 422
#     4  11  27  44  66 101 141 194 234 284 356 421
#
# _framework density 22.661168
#
# number of rings (size 3 to 8) (size 9 to 14) (size 15 to 20)
#    0.000    1.000    3.750    1.500    8.750    3.500 
#    2.250    0.000    0.000    0.000    0.000    0.000 
#    0.000    0.000    0.000    0.000    0.000    0.000 
#
# Total GULP energy -396795.306133 kJ/mol
# GULP energy per Si atom -12399.853317 kJ/mol
# Density = 2.260959 g / cm^3
# Si number density = 22.661168 Si / 1000 Ang^3
#
#
#
# Elastic Constant Matrix: (Units=GPa)
#
#
# Indices 1 2 3 4 5 6 
#
# 1 72.1570 33.4029 33.2711 0.0000 0.0000 0.0000
# 2 33.4029 69.5951 40.3599 0.0000 0.0000 0.0000
# 3 33.2711 40.3599 111.9196 0.0000 0.0000 0.0000
# 4 0.0000 0.0000 0.0000 20.7154 0.0000 0.0000
# 5 0.0000 0.0000 0.0000 0.0000 47.6094 0.0000
# 6 0.0000 0.0000 0.0000 0.0000 0.0000 36.4479
#
#
#
# Elastic Compliance Matrix: (Units=1/GPa)
#
#
# Indices 1 2 3 4 5 6 
#
# 1 0.018538 -0.007209 -0.002911 0.000000 0.000000 0.000000
# 2 -0.007209 0.020972 -0.005420 0.000000 0.000000 0.000000
# 3 -0.002911 -0.005420 0.011755 0.000000 0.000000 0.000000
# 4 0.000000 0.000000 0.000000 0.048273 0.000000 0.000000
# 5 0.000000 0.000000 0.000000 0.000000 0.021004 0.000000
# 6 0.000000 0.000000 0.000000 0.000000 0.000000 0.027436
#
#
# Mechanical properties :
#
#
# Convention : Reuss Voigt Hill
#
# Bulk Modulus (GPa) = 49.54243 51.97107 50.75675
# Shear Modulus (GPa) = 26.91240 30.73039 28.82140
#
# Velocity S-wave (km/s) = 3.44990 3.68650 3.57016
# Velocity P-wave (km/s) = 6.14644 6.41125 6.28024
#
# Compressibility (1/GPa) = 0.02018472
#
# Stress axis : x y z
#
# Youngs Moduli (GPa) = 53.94214 47.68251 85.07136
#
# Poissons Ratio (x) = 0.34376 0.24766
# Poissons Ratio (y) = 0.38889 0.46106
# Poissons Ratio (z) = 0.15704 0.25842
#
# Static dielectric constant tensor:
#      x y z
#    x 4.312660 0.000000 0.000000 
#    y 0.000000 4.119250 0.000000 
#    z 0.000000 0.000000 4.094850 
# 
# 
# High freq. dielectric constant tensor:
#      x y z
#    x 1.895150 0.000000 0.000000 
#    y 0.000000 1.909780 0.000000 
#    z 0.000000 0.000000 1.885170 
# 
# From -- ./inp_files/5680.got.cif
#   From: 2010.03.12/outbox.cif.g09.slc.cpg/sg18_3_cif.got.tgz:5680.got - 2010.04.10 18:53:55.
