data_PCOD8156596
_publ_section_title
;
Structure prediction by ZEFSAII (Michael W. Deem and Ramdas Pophale) SiO2 
 PCOD8156596
Probable space group: P 21 21 21
;
_chemical_formula_sum "Si O2"
_cell_formula_units_Z 32
_cell_length_a 7.908636
_cell_length_b 14.306713
_cell_length_c 13.264177
_cell_angle_alpha 90.000000
_cell_angle_beta 90.000000
_cell_angle_gamma 90.000000
_cell_volume 1500.796337
_symmetry_space_group_name_H-M "P 21 21 21"
_symmetry_group_IT_number 19
_symmetry_cell_setting 'orthorhombic'
loop_
_space_group_symop_operation_xyz
x,y,z
1/2-x,-y,1/2+z
1/2+x,1/2-y,-z
-x,1/2+y,1/2-z
loop_
_atom_site_type_symbol
_atom_site_label
_atom_site_fract_x
_atom_site_fract_y
_atom_site_fract_z
Si Si1 0.007912 0.209197 0.498641
Si Si2 0.579284 0.770712 0.379421
Si Si3 0.553620 0.661000 0.179191
Si Si4 0.916958 0.896338 0.087547
Si Si5 0.704957 0.658884 0.569998
Si Si6 0.270693 0.417094 0.597749
Si Si7 0.115791 0.399663 0.181647
Si Si8 0.743229 0.552081 0.021529
O O1 0.115516 0.286976 0.439362
O O2 0.096552 0.109814 0.517058
O O3 0.949547 0.248008 0.606992
O O4 0.855945 0.183662 0.422286
O O5 0.596742 0.692371 0.292292
O O6 0.636213 0.728166 0.485157
O O7 0.384927 0.807352 0.384369
O O8 0.710999 0.853774 0.357929
O O9 0.376710 0.604420 0.178462
O O10 0.691804 0.588934 0.133544
O O11 0.864978 0.914562 0.200269
O O12 0.801591 0.955407 0.009770
O O13 0.108031 0.925081 0.065036
O O14 0.556197 0.656692 0.654929
O O15 0.724257 0.557464 0.521434
O O16 0.399128 0.495870 0.636945
#
# Coordination Sequence:
#
# PCOD8156596 Si02
#       8
#     4   4   4   4   4   4   4   4
#     4  10  18  38  66  98 132 167 219 291 340 397
#     4  12  26  49  68  96 141 189 232 280 347 420
#     4  10  22  41  70  97 128 175 227 286 350 405
#     4  10  22  40  67  99 134 175 223 285 350 405
#     4  12  27  46  69  95 144 187 229 280 346 422
#     4  10  21  41  64  99 135 169 225 295 339 397
#     4  12  25  46  69 102 134 188 229 279 345 421
#     4  10  21  43  65 102 134 168 228 292 337 405
#
# _framework density 21.322012999999998
#
# number of rings (size 3 to 8) (size 9 to 14) (size 15 to 20)
#    0.000    1.500    2.500    6.000    3.500    2.000 
#    6.750    0.000    0.000    0.000    0.000    0.000 
#    0.000    0.000    0.000    0.000    0.000    0.000 
#
# Total GULP energy -396603.234111 kJ/mol
# GULP energy per Si atom -12393.851066 kJ/mol
# Density = 2.127348 g / cm^3
# Si number density = 21.322013 Si / 1000 Ang^3
#
#
#
# Elastic Constant Matrix: (Units=GPa)
#
#
# Indices 1 2 3 4 5 6 
#
# 1 95.6932 17.2831 13.8915 0.0000 0.0000 0.0000
# 2 17.2831 68.2112 26.9332 0.0000 0.0000 0.0000
# 3 13.8915 26.9332 94.7488 0.0000 0.0000 0.0000
# 4 0.0000 0.0000 0.0000 18.7947 0.0000 0.0000
# 5 0.0000 0.0000 0.0000 0.0000 18.3803 0.0000
# 6 0.0000 0.0000 0.0000 0.0000 0.0000 37.0728
#
#
#
# Elastic Compliance Matrix: (Units=1/GPa)
#
#
# Indices 1 2 3 4 5 6 
#
# 1 0.011023 -0.002427 -0.000926 0.000000 0.000000 0.000000
# 2 -0.002427 0.017048 -0.004490 0.000000 0.000000 0.000000
# 3 -0.000926 -0.004490 0.011966 0.000000 0.000000 0.000000
# 4 0.000000 0.000000 0.000000 0.053207 0.000000 0.000000
# 5 0.000000 0.000000 0.000000 0.000000 0.054406 0.000000
# 6 0.000000 0.000000 0.000000 0.000000 0.000000 0.026974
#
#
# Mechanical properties :
#
#
# Convention : Reuss Voigt Hill
#
# Bulk Modulus (GPa) = 41.06725 41.65210 41.35967
# Shear Modulus (GPa) = 25.19800 28.21923 26.70862
#
# Velocity S-wave (km/s) = 3.44144 3.64191 3.54309
# Velocity P-wave (km/s) = 5.92399 6.10425 6.01479
#
# Compressibility (1/GPa) = 0.02435030
#
# Stress axis : x y z
#
# Youngs Moduli (GPa) = 90.72022 58.65669 83.56721
#
# Poissons Ratio (x) = 0.14237 0.07740
# Poissons Ratio (y) = 0.22020 0.37524
# Poissons Ratio (z) = 0.08402 0.26339
#
# Static dielectric constant tensor:
#      x y z
#    x 4.195830 0.000000 0.000000 
#    y 0.000000 3.729080 0.000000 
#    z 0.000000 0.000000 3.634090 
# 
# 
# High freq. dielectric constant tensor:
#      x y z
#    x 1.857330 0.000000 0.000000 
#    y 0.000000 1.829790 0.000000 
#    z 0.000000 0.000000 1.816910 
# 
# From -- ./inp_files/4722.got.cif
#   From: 2010.03.12/outbox.cif.g09.slc.cpg/sg19_3_cif.got.tgz:4722.got - 2010.04.10 18:59:41.
