data_PCOD8156212
_publ_section_title
;
Structure prediction by ZEFSAII (Michael W. Deem and Ramdas Pophale) SiO2 
 PCOD8156212
Probable space group: P 21 21 2
;
_chemical_formula_sum "Si O2"
_cell_formula_units_Z 24
_cell_length_a 12.373118
_cell_length_b 7.399896
_cell_length_c 11.178285
_cell_angle_alpha 90.000000
_cell_angle_beta 90.000000
_cell_angle_gamma 90.000000
_cell_volume 1023.481387
_symmetry_space_group_name_H-M "P 21 21 2"
_symmetry_group_IT_number 18
_symmetry_cell_setting 'orthorhombic'
loop_
_space_group_symop_operation_xyz
x,y,z
-x,-y,z
1/2+x,1/2-y,-z
1/2-x,1/2+y,-z
loop_
_atom_site_type_symbol
_atom_site_label
_atom_site_fract_x
_atom_site_fract_y
_atom_site_fract_z
Si Si1 0.615608 0.925602 0.257852
Si Si2 0.627665 0.130314 0.849010
Si Si3 0.783669 0.103522 0.645234
Si Si4 0.760684 0.203885 0.377406
Si Si5 0.750656 0.954353 0.035415
Si Si6 0.579711 0.668225 0.833605
O O1 0.692777 0.026081 0.351136
O O2 0.650376 0.975186 0.124802
O O3 0.500000 0.000000 0.285118
O O4 0.623818 0.708873 0.279093
O O5 0.668466 0.149923 0.712068
O O6 0.678736 0.277173 0.940814
O O7 0.496383 0.153040 0.857953
O O8 0.689374 0.951867 0.904499
O O9 0.790459 0.192709 0.515670
O O10 0.806252 0.889793 0.643993
O O11 0.866287 0.206490 0.294378
O O12 0.834437 0.123539 0.059756
O O13 0.500000 0.500000 0.815026
#
# Coordination Sequence:
#
# PCOD8156212 Si02
#       6
#     4   4   4   4   4   4
#     4  10  23  44  63  93 129 178 221 272 341 404
#     4  10  22  40  66  98 129 173 222 268 339 411
#     4  11  24  42  66  97 133 172 224 279 342 400
#     4  11  23  44  67  92 137 172 223 291 330 398
#     4   9  21  40  64  91 135 165 216 278 326 392
#     4   9  21  42  68  96 130 182 223 271 344 407
#
# _framework density 23.449379
#
# number of rings (size 3 to 8) (size 9 to 14) (size 15 to 20)
#    0.000    2.000    1.667    1.000    4.667    5.333 
#    0.000    0.000    0.000    0.000    0.000    0.000 
#    0.000    0.000    0.000    0.000    0.000    0.000 
#
# Total GULP energy -297434.950519 kJ/mol
# GULP energy per Si atom -12393.122938 kJ/mol
# Density = 2.339601 g / cm^3
# Si number density = 23.449379 Si / 1000 Ang^3
#
#
#
# Elastic Constant Matrix: (Units=GPa)
#
#
# Indices 1 2 3 4 5 6 
#
# 1 76.7320 -15.7281 46.0304 0.0000 0.0000 0.0000
# 2 -15.7281 74.8831 -11.9900 0.0000 0.0000 0.0000
# 3 46.0304 -11.9900 114.9567 0.0000 0.0000 0.0000
# 4 0.0000 0.0000 0.0000 28.4405 0.0000 0.0000
# 5 0.0000 0.0000 0.0000 0.0000 15.0375 0.0000
# 6 0.0000 0.0000 0.0000 0.0000 0.0000 16.6446
#
#
#
# Elastic Compliance Matrix: (Units=1/GPa)
#
#
# Indices 1 2 3 4 5 6 
#
# 1 0.017643 0.002618 -0.006792 0.000000 0.000000 0.000000
# 2 0.002618 0.013970 0.000409 0.000000 0.000000 0.000000
# 3 -0.006792 0.000409 0.011461 0.000000 0.000000 0.000000
# 4 0.000000 0.000000 0.000000 0.035161 0.000000 0.000000
# 5 0.000000 0.000000 0.000000 0.000000 0.066500 0.000000
# 6 0.000000 0.000000 0.000000 0.000000 0.000000 0.060080
#
#
# Mechanical properties :
#
#
# Convention : Reuss Voigt Hill
#
# Bulk Modulus (GPa) = 28.13382 33.68849 30.91115
# Shear Modulus (GPa) = 22.30229 28.57515 25.43872
#
# Velocity S-wave (km/s) = 3.08731 3.49462 3.29726
# Velocity P-wave (km/s) = 4.97316 5.53902 5.26370
#
# Compressibility (1/GPa) = 0.03554441
#
# Stress axis : x y z
#
# Youngs Moduli (GPa) = 56.67915 71.58451 87.25266
#
# Poissons Ratio (x) = -0.18743 0.59258
# Poissons Ratio (y) = -0.14840 -0.03565
# Poissons Ratio (z) = 0.38494 -0.02925
#
# Static dielectric constant tensor:
#      x y z
#    x 4.294010 0.000000 0.000000 
#    y 0.000000 4.800610 0.000000 
#    z 0.000000 0.000000 4.112740 
# 
# 
# High freq. dielectric constant tensor:
#      x y z
#    x 1.911200 0.000000 0.000000 
#    y 0.000000 1.969540 0.000000 
#    z 0.000000 0.000000 1.919620 
# 
# From -- ./inp_files/5524.got.cif
#   From: 2010.03.12/outbox.cif.g09.slc.cpg/sg18_3_cif.got.tgz:5524.got - 2010.04.10 18:53:55.
