data_PCOD8156490
_publ_section_title
;
Structure prediction by ZEFSAII (Michael W. Deem and Ramdas Pophale) SiO2 
 PCOD8156490
Probable space group: P 21 21 2
;
_chemical_formula_sum "Si O2"
_cell_formula_units_Z 20
_cell_length_a 10.083031
_cell_length_b 14.824212
_cell_length_c 5.304638
_cell_angle_alpha 90.000000
_cell_angle_beta 90.000000
_cell_angle_gamma 90.000000
_cell_volume 792.900098
_symmetry_space_group_name_H-M "P 21 21 2"
_symmetry_group_IT_number 18
_symmetry_cell_setting 'orthorhombic'
loop_
_space_group_symop_operation_xyz
x,y,z
-x,-y,z
1/2+x,1/2-y,-z
1/2-x,1/2+y,-z
loop_
_atom_site_type_symbol
_atom_site_label
_atom_site_fract_x
_atom_site_fract_y
_atom_site_fract_z
Si Si1 0.514696 0.770053 0.528525
Si Si2 0.152943 0.670076 0.980364
Si Si3 0.855038 0.519142 0.782824
Si Si4 0.394831 0.421588 0.456771
Si Si5 0.301743 0.832690 0.853181
O O1 0.559289 0.796197 0.249920
O O2 0.531773 0.663194 0.588542
O O3 0.364262 0.805188 0.578675
O O4 0.589315 0.825798 0.745451
O O5 0.198156 0.567745 0.935183
O O6 0.279312 0.737273 0.994074
O O7 0.736424 0.543710 0.597789
O O8 0.000000 0.500000 0.650890
O O9 0.890478 0.601229 0.974759
O O10 0.500000 0.500000 0.410559
O O11 0.338085 0.384861 0.190346
#
# Coordination Sequence:
#
# PCOD8156490 Si02
#       5
#     4   4   4   4   4
#     4  11  24  48  71 105 153 198 253 309 386 450
#     4  11  25  44  70 104 146 198 243 319 368 456
#     4  12  24  43  75 110 146 197 257 313 385 462
#     4  11  26  48  73 113 153 204 253 325 383 467
#     4  11  25  46  72 107 150 198 258 308 391 456
#
# _framework density 25.223859000000001
#
# number of rings (size 3 to 8) (size 9 to 14) (size 15 to 20)
#    0.000    0.800    4.000    2.400    2.800    1.600 
#    7.200    0.000    0.000    0.000    0.000    0.000 
#    0.000    0.000    0.000    0.000    0.000    0.000 
#
# Total GULP energy -247815.177910 kJ/mol
# GULP energy per Si atom -12390.758896 kJ/mol
# Density = 2.516645 g / cm^3
# Si number density = 25.223859 Si / 1000 Ang^3
#
#
#
# Elastic Constant Matrix: (Units=GPa)
#
#
# Indices 1 2 3 4 5 6 
#
# 1 110.7037 51.9752 15.4435 0.0000 0.0000 0.0000
# 2 51.9752 169.0857 9.1512 0.0000 0.0000 0.0000
# 3 15.4435 9.1512 35.5438 0.0000 0.0000 0.0000
# 4 0.0000 0.0000 0.0000 25.6025 0.0000 0.0000
# 5 0.0000 0.0000 0.0000 0.0000 33.8351 0.0000
# 6 0.0000 0.0000 0.0000 0.0000 0.0000 57.5350
#
#
#
# Elastic Compliance Matrix: (Units=1/GPa)
#
#
# Indices 1 2 3 4 5 6 
#
# 1 0.011090 -0.003193 -0.003996 0.000000 0.000000 0.000000
# 2 -0.003193 0.006917 -0.000394 0.000000 0.000000 0.000000
# 3 -0.003996 -0.000394 0.029972 0.000000 0.000000 0.000000
# 4 0.000000 0.000000 0.000000 0.039059 0.000000 0.000000
# 5 0.000000 0.000000 0.000000 0.000000 0.029555 0.000000
# 6 0.000000 0.000000 0.000000 0.000000 0.000000 0.017381
#
#
# Mechanical properties :
#
#
# Convention : Reuss Voigt Hill
#
# Bulk Modulus (GPa) = 30.47549 52.05255 41.26402
# Shear Modulus (GPa) = 31.23519 39.31205 35.27362
#
# Velocity S-wave (km/s) = 3.52279 3.95210 3.74361
# Velocity P-wave (km/s) = 5.35304 6.44255 5.92290
#
# Compressibility (1/GPa) = 0.03281325
#
# Stress axis : x y z
#
# Youngs Moduli (GPa) = 90.17536 144.57528 33.36441
#
# Poissons Ratio (x) = 0.46156 0.13334
# Poissons Ratio (y) = 0.28789 0.01314
# Poissons Ratio (z) = 0.36037 0.05692
#
# Static dielectric constant tensor:
#      x y z
#    x 4.897100 0.000000 0.000000 
#    y 0.000000 5.235360 0.000000 
#    z 0.000000 0.000000 4.163900 
# 
# 
# High freq. dielectric constant tensor:
#      x y z
#    x 2.003930 0.000000 0.000000 
#    y 0.000000 2.038060 0.000000 
#    z 0.000000 0.000000 1.986490 
# 
# From -- ./inp_files/1027.got.cif
#   From: 2010.03.12/outbox.cif.g09.slc.cpg/sg18_1_cif.got.tgz:1027.got - 2010.04.10 18:53:55.
