data_PCOD8156013
_publ_section_title
;
Structure prediction by ZEFSAII (Michael W. Deem and Ramdas Pophale) SiO2 
 PCOD8156013
Probable space group: P 21 21 2
;
_chemical_formula_sum "Si O2"
_cell_formula_units_Z 32
_cell_length_a 14.495675
_cell_length_b 8.971834
_cell_length_c 10.754054
_cell_angle_alpha 90.000000
_cell_angle_beta 90.000000
_cell_angle_gamma 90.000000
_cell_volume 1398.594725
_symmetry_space_group_name_H-M "P 21 21 2"
_symmetry_group_IT_number 18
_symmetry_cell_setting 'orthorhombic'
loop_
_space_group_symop_operation_xyz
x,y,z
-x,-y,z
1/2+x,1/2-y,-z
1/2-x,1/2+y,-z
loop_
_atom_site_type_symbol
_atom_site_label
_atom_site_fract_x
_atom_site_fract_y
_atom_site_fract_z
Si Si1 0.872076 0.150660 0.359532
Si Si2 0.990448 0.329180 0.201304
Si Si3 0.861527 0.385075 0.746978
Si Si4 0.830549 0.715217 0.680134
Si Si5 0.135029 0.104935 0.914099
Si Si6 0.564046 0.708629 0.053938
Si Si7 0.012026 0.843170 0.599878
Si Si8 0.341197 0.635160 0.798254
O O1 0.918279 0.305219 0.312487
O O2 0.765435 0.187709 0.393135
O O3 0.934036 0.103422 0.476313
O O4 0.879285 0.023338 0.252738
O O5 0.000000 0.500000 0.163846
O O6 0.089632 0.265680 0.242328
O O7 0.948637 0.229364 0.091409
O O8 0.874410 0.558620 0.722460
O O9 0.894340 0.359486 0.888735
O O10 0.924542 0.280673 0.662187
O O11 0.755731 0.334554 0.731045
O O12 0.806474 0.819574 0.801574
O O13 0.906608 0.782980 0.585462
O O14 0.034759 0.173364 0.886648
O O15 0.133958 0.925452 0.910709
O O16 0.172042 0.143398 0.052019
O O17 0.000000 0.000000 0.676248
#
# Coordination Sequence:
#
# PCOD8156013 Si02
#       8
#     4   4   4   4   4   4   4   4
#     4  11  26  49  71 100 144 192 243 296 363 432
#     4  11  24  39  65 104 141 188 238 294 353 422
#     4  11  25  41  68 104 141 183 241 299 356 419
#     4  11  26  44  70 113 136 184 245 298 360 426
#     4  10  20  39  70  99 145 187 231 285 351 440
#     4  10  21  38  63  99 143 183 229 281 354 425
#     4  12  26  47  74  97 141 196 239 297 357 435
#     4  10  23  44  68 103 145 193 232 292 364 429
#
# _framework density 22.880109000000001
#
# number of rings (size 3 to 8) (size 9 to 14) (size 15 to 20)
#    0.000    1.250    2.500    2.250    5.250    6.000 
#    0.000    0.000    0.000    0.000    0.000    0.000 
#    0.000    0.000    0.000    0.000    0.000    0.000 
#
# Total GULP energy -396566.044225 kJ/mol
# GULP energy per Si atom -12392.688882 kJ/mol
# Density = 2.282803 g / cm^3
# Si number density = 22.880109 Si / 1000 Ang^3
#
#
#
# Elastic Constant Matrix: (Units=GPa)
#
#
# Indices 1 2 3 4 5 6 
#
# 1 123.6342 52.0349 40.2686 0.0000 0.0000 0.0000
# 2 52.0349 126.3911 25.1540 0.0000 0.0000 0.0000
# 3 40.2686 25.1540 61.6295 0.0000 0.0000 0.0000
# 4 0.0000 0.0000 0.0000 22.4115 0.0000 0.0000
# 5 0.0000 0.0000 0.0000 0.0000 29.8520 0.0000
# 6 0.0000 0.0000 0.0000 0.0000 0.0000 30.4015
#
#
#
# Elastic Compliance Matrix: (Units=1/GPa)
#
#
# Indices 1 2 3 4 5 6 
#
# 1 0.011573 -0.003548 -0.006114 0.000000 0.000000 0.000000
# 2 -0.003548 0.009699 -0.001641 0.000000 0.000000 0.000000
# 3 -0.006114 -0.001641 0.020890 0.000000 0.000000 0.000000
# 4 0.000000 0.000000 0.000000 0.044620 0.000000 0.000000
# 5 0.000000 0.000000 0.000000 0.000000 0.033499 0.000000
# 6 0.000000 0.000000 0.000000 0.000000 0.000000 0.032893
#
#
# Mechanical properties :
#
#
# Convention : Reuss Voigt Hill
#
# Bulk Modulus (GPa) = 51.12952 60.72997 55.92974
# Shear Modulus (GPa) = 27.42777 29.47949 28.45363
#
# Velocity S-wave (km/s) = 3.46607 3.59337 3.53029
# Velocity P-wave (km/s) = 6.19785 6.61942 6.41210
#
# Compressibility (1/GPa) = 0.01955817
#
# Stress axis : x y z
#
# Youngs Moduli (GPa) = 86.40947 103.10280 47.86932
#
# Poissons Ratio (x) = 0.36579 0.29265
# Poissons Ratio (y) = 0.30656 0.07853
# Poissons Ratio (z) = 0.52827 0.16915
#
# Static dielectric constant tensor:
#      x y z
#    x 4.185690 0.000000 0.000000 
#    y 0.000000 4.037280 0.000000 
#    z 0.000000 0.000000 3.986610 
# 
# 
# High freq. dielectric constant tensor:
#      x y z
#    x 1.907730 0.000000 0.000000 
#    y 0.000000 1.905270 0.000000 
#    z 0.000000 0.000000 1.887660 
# 
# From -- ./inp_files/6156.got.cif
#   From: 2010.03.12/outbox.cif.g09.slc.cpg/sg18_4_cif.got.tgz:6156.got - 2010.04.10 18:53:55.
