data_PCOD8156395
_publ_section_title
;
Structure prediction by ZEFSAII (Michael W. Deem and Ramdas Pophale) SiO2 
 PCOD8156395
Probable space group: P 21 21 2
;
_chemical_formula_sum "Si O2"
_cell_formula_units_Z 12
_cell_length_a 9.894934
_cell_length_b 9.736800
_cell_length_c 5.087777
_cell_angle_alpha 90.000000
_cell_angle_beta 90.000000
_cell_angle_gamma 90.000000
_cell_volume 490.181841
_symmetry_space_group_name_H-M "P 21 21 2"
_symmetry_group_IT_number 18
_symmetry_cell_setting 'orthorhombic'
loop_
_space_group_symop_operation_xyz
x,y,z
-x,-y,z
1/2+x,1/2-y,-z
1/2-x,1/2+y,-z
loop_
_atom_site_type_symbol
_atom_site_label
_atom_site_fract_x
_atom_site_fract_y
_atom_site_fract_z
Si Si1 0.241210 0.373500 0.525375
Si Si2 0.000000 0.500000 0.775780
Si Si3 0.125802 0.256653 0.007104
Si Si4 0.500000 0.500000 0.737311
O O1 0.135475 0.497505 0.594494
O O2 0.220834 0.316672 0.235419
O O3 0.394937 0.424128 0.546454
O O4 0.214746 0.251247 0.739177
O O5 0.000072 0.362612 0.958001
O O6 0.074654 0.105804 0.071141
#
# Coordination Sequence:
#
# PCOD8156395 Si02
#       4
#     4   2   4   2
#     4  10  25  44  73 105 147 187 242 300 369 432
#     4   8  22  44  74  96 162 176 250 288 394 400
#     4  10  25  44  73 105 147 187 242 300 369 432
#     4  12  28  46  84 110 144 198 256 298 372 446
#
# _framework density 24.480710999999999
#
# number of rings (size 3 to 8) (size 9 to 14) (size 15 to 20)
#    2.000    0.000    0.000    1.000    4.667   13.333 
#    0.000    0.000    0.000    0.000    0.000    0.000 
#    0.000    0.000    0.000    0.000    0.000    0.000 
#
# Total GULP energy -148712.270297 kJ/mol
# GULP energy per Si atom -12392.689191 kJ/mol
# Density = 2.442499 g / cm^3
# Si number density = 24.480711 Si / 1000 Ang^3
#
#
#
# Elastic Constant Matrix: (Units=GPa)
#
#
# Indices 1 2 3 4 5 6 
#
# 1 106.6599 5.5946 -2.2797 0.0000 0.0000 0.0000
# 2 5.5946 79.6948 -11.7493 0.0000 0.0000 0.0000
# 3 -2.2797 -11.7493 80.7873 0.0000 0.0000 0.0000
# 4 0.0000 0.0000 0.0000 3.1089 0.0000 0.0000
# 5 0.0000 0.0000 0.0000 0.0000 10.0421 0.0000
# 6 0.0000 0.0000 0.0000 0.0000 0.0000 33.9122
#
#
#
# Elastic Compliance Matrix: (Units=1/GPa)
#
#
# Indices 1 2 3 4 5 6 
#
# 1 0.009413 -0.000635 0.000173 0.000000 0.000000 0.000000
# 2 -0.000635 0.012866 0.001853 0.000000 0.000000 0.000000
# 3 0.000173 0.001853 0.012653 0.000000 0.000000 0.000000
# 4 0.000000 0.000000 0.000000 0.321661 0.000000 0.000000
# 5 0.000000 0.000000 0.000000 0.000000 0.099581 0.000000
# 6 0.000000 0.000000 0.000000 0.000000 0.000000 0.029488
#
#
# Mechanical properties :
#
#
# Convention : Reuss Voigt Hill
#
# Bulk Modulus (GPa) = 26.51587 27.80813 27.16200
# Shear Modulus (GPa) = 10.09184 27.78439 18.93811
#
# Velocity S-wave (km/s) = 2.03256 3.37256 2.78437
# Velocity P-wave (km/s) = 4.04515 5.15261 4.63210
#
# Compressibility (1/GPa) = 0.03771326
#
# Stress axis : x y z
#
# Youngs Moduli (GPa) = 106.24036 77.72617 79.03524
#
# Poissons Ratio (x) = 0.04937 -0.01369
# Poissons Ratio (y) = 0.06749 -0.14647
# Poissons Ratio (z) = -0.01840 -0.14404
#
# Static dielectric constant tensor:
#      x y z
#    x 4.174030 0.000000 0.000000 
#    y 0.000000 4.138470 0.000000 
#    z 0.000000 0.000000 4.167980 
# 
# 
# High freq. dielectric constant tensor:
#      x y z
#    x 1.964380 0.000000 0.000000 
#    y 0.000000 1.957290 0.000000 
#    z 0.000000 0.000000 1.972550 
# 
# From -- ./inp_files/361.got.cif
#   From: 2010.03.12/outbox.cif.g09.slc.cpg/sg18_1_cif.got.tgz:361.got - 2010.04.10 18:53:55.
