data_PCOD8156534
_publ_section_title
;
Structure prediction by ZEFSAII (Michael W. Deem and Ramdas Pophale) SiO2 
 PCOD8156534
Probable space group: P 21 21 2
;
_chemical_formula_sum "Si O2"
_cell_formula_units_Z 30
_cell_length_a 22.954848
_cell_length_b 13.316712
_cell_length_c 6.277439
_cell_angle_alpha 90.000000
_cell_angle_beta 90.000000
_cell_angle_gamma 90.000000
_cell_volume 1918.907012
_symmetry_space_group_name_H-M "P 21 21 2"
_symmetry_group_IT_number 18
_symmetry_cell_setting 'orthorhombic'
loop_
_space_group_symop_operation_xyz
x,y,z
-x,-y,z
1/2+x,1/2-y,-z
1/2-x,1/2+y,-z
loop_
_atom_site_type_symbol
_atom_site_label
_atom_site_fract_x
_atom_site_fract_y
_atom_site_fract_z
Si Si1 0.170925 0.714233 0.194068
Si Si2 0.750292 0.249461 0.579527
Si Si3 0.000000 0.500000 0.497340
Si Si4 0.271560 0.614209 0.965061
Si Si5 0.670910 0.213726 0.194082
Si Si6 0.054894 0.398784 0.873525
Si Si7 0.728516 0.613461 0.035007
Si Si8 0.058158 0.595594 0.120820
O O1 0.192040 0.726717 0.438751
O O2 0.104422 0.683607 0.155932
O O3 0.210792 0.628752 0.087803
O O4 0.178628 0.819601 0.073968
O O5 0.736437 0.348440 0.721429
O O6 0.692806 0.225672 0.437930
O O7 0.764027 0.150152 0.720669
O O8 0.970687 0.585848 0.639178
O O9 0.950271 0.449800 0.354474
O O10 0.321646 0.680812 0.073866
O O11 0.291359 0.500274 0.998888
O O12 0.604236 0.183892 0.160666
O O13 0.710300 0.128466 0.084705
O O14 0.079248 0.505546 0.963763
O O15 0.003089 0.359676 0.029986
#
# Coordination Sequence:
#
# PCOD8156534 Si02
#       8
#     4   4   2   4   4   4   4   4
#     4   9  18  29  46  69  91 121 151 184 228 265
#     4   8  18  30  44  68  94 118 152 184 220 272
#     4   8  18  28  44  66  88 122 150 184 232 264
#     4   9  18  31  46  67  93 121 150 185 227 268
#     4   9  18  29  46  69  91 121 151 184 228 265
#     4   9  18  31  45  67  94 119 152 186 223 271
#     4   9  18  31  46  67  93 121 150 185 227 268
#     4   9  18  31  45  67  94 119 152 186 223 271
#
# _framework density 15.633900000000001
#
# number of rings (size 3 to 8) (size 9 to 14) (size 15 to 20)
#    0.000    4.000    0.000    0.800    0.000   14.933 
#    0.000    0.000    0.000    0.800    0.000    0.000 
#    0.000    0.000    0.000    0.000    0.000    0.000 
#
# Total GULP energy -371682.386506 kJ/mol
# GULP energy per Si atom -12389.412884 kJ/mol
# Density = 1.559832 g / cm^3
# Si number density = 15.633900 Si / 1000 Ang^3
#
#
#
# Elastic Constant Matrix: (Units=GPa)
#
#
# Indices 1 2 3 4 5 6 
#
# 1 98.7785 47.1193 33.0852 0.0000 0.0000 0.0000
# 2 47.1193 107.8396 36.3174 0.0000 0.0000 0.0000
# 3 33.0852 36.3174 112.2437 0.0000 0.0000 0.0000
# 4 0.0000 0.0000 0.0000 10.9348 0.0000 0.0000
# 5 0.0000 0.0000 0.0000 0.0000 9.9547 0.0000
# 6 0.0000 0.0000 0.0000 0.0000 0.0000 31.0114
#
#
#
# Elastic Compliance Matrix: (Units=1/GPa)
#
#
# Indices 1 2 3 4 5 6 
#
# 1 0.013293 -0.005038 -0.002288 0.000000 0.000000 0.000000
# 2 -0.005038 0.012316 -0.002500 0.000000 0.000000 0.000000
# 3 -0.002288 -0.002500 0.010393 0.000000 0.000000 0.000000
# 4 0.000000 0.000000 0.000000 0.091451 0.000000 0.000000
# 5 0.000000 0.000000 0.000000 0.000000 0.100455 0.000000
# 6 0.000000 0.000000 0.000000 0.000000 0.000000 0.032246
#
#
# Mechanical properties :
#
#
# Convention : Reuss Voigt Hill
#
# Bulk Modulus (GPa) = 61.16290 61.32283 61.24286
# Shear Modulus (GPa) = 17.52811 23.86952 20.69881
#
# Velocity S-wave (km/s) = 3.35201 3.91164 3.64259
# Velocity P-wave (km/s) = 7.36126 7.72727 7.54648
#
# Compressibility (1/GPa) = 0.01634978
#
# Stress axis : x y z
#
# Youngs Moduli (GPa) = 75.22643 81.19423 96.22202
#
# Poissons Ratio (x) = 0.40903 0.22019
# Poissons Ratio (y) = 0.37897 0.24056
# Poissons Ratio (z) = 0.17214 0.20299
#
# Static dielectric constant tensor:
#      x y z
#    x 2.749610 0.000000 0.000000 
#    y 0.000000 2.730050 0.000000 
#    z 0.000000 0.000000 3.163820 
# 
# 
# High freq. dielectric constant tensor:
#      x y z
#    x 1.575480 0.000000 0.000000 
#    y 0.000000 1.576030 0.000000 
#    z 0.000000 0.000000 1.617910 
# 
# From -- ./inp_files/2234.got.cif
#   From: 2010.03.12/outbox.cif.g09.slc.cpg/sg18_2_cif.got.tgz:2234.got - 2010.04.10 18:53:55.
