data_PCOD8156116
_publ_section_title
;
Structure prediction by ZEFSAII (Michael W. Deem and Ramdas Pophale) SiO2 
 PCOD8156116
Probable space group: P 21 21 2
;
_chemical_formula_sum "Si O2"
_cell_formula_units_Z 24
_cell_length_a 5.219893
_cell_length_b 12.373268
_cell_length_c 17.598637
_cell_angle_alpha 90.000000
_cell_angle_beta 90.000000
_cell_angle_gamma 90.000000
_cell_volume 1136.645544
_symmetry_space_group_name_H-M "P 21 21 2"
_symmetry_group_IT_number 18
_symmetry_cell_setting 'orthorhombic'
loop_
_space_group_symop_operation_xyz
x,y,z
-x,-y,z
1/2+x,1/2-y,-z
1/2-x,1/2+y,-z
loop_
_atom_site_type_symbol
_atom_site_label
_atom_site_fract_x
_atom_site_fract_y
_atom_site_fract_z
Si Si1 0.127360 0.791449 0.145508
Si Si2 0.000000 0.000000 0.810637
Si Si3 0.500000 0.500000 0.930544
Si Si4 0.313878 0.092730 0.943980
Si Si5 0.568731 0.618405 0.527595
Si Si6 0.874702 0.226578 0.766155
Si Si7 0.572457 0.796148 0.403085
O O1 0.072611 0.712383 0.072171
O O2 0.409083 0.764966 0.175773
O O3 0.156553 0.918234 0.123566
O O4 0.900855 0.772084 0.206815
O O5 0.131142 0.904923 0.760715
O O6 0.788262 0.945478 0.862841
O O7 0.624558 0.407832 0.984510
O O8 0.500000 0.000000 0.973397
O O9 0.500000 0.500000 0.499255
O O10 0.555847 0.686829 0.450986
O O11 0.351055 0.652380 0.587091
O O12 0.843951 0.624837 0.569268
O O13 0.956729 0.272154 0.685110
#
# Coordination Sequence:
#
# PCOD8156116 Si02
#       7
#     4   2   2   4   4   4   4
#     4  11  26  44  63  96 131 161 217 263 312 393
#     4   9  20  38  62  94 119 156 208 266 321 366
#     4  11  28  40  66  92 123 174 212 262 319 380
#     4  10  21  40  65  87 119 161 206 270 316 358
#     4  10  21  41  64  96 128 162 218 259 305 374
#     4  11  23  43  64  93 131 168 205 262 322 379
#     4  10  22  40  65  95 127 168 211 258 312 381
#
# _framework density 21.114761999999999
#
# number of rings (size 3 to 8) (size 9 to 14) (size 15 to 20)
#    0.000    1.667    1.667    1.500    5.833    0.000 
#    9.000    0.000    0.000    0.000    0.000    0.000 
#    0.000    0.000    0.000    0.000    0.000    0.000 
#
# Total GULP energy -297379.231749 kJ/mol
# GULP energy per Si atom -12390.801323 kJ/mol
# Density = 2.106670 g / cm^3
# Si number density = 21.114762 Si / 1000 Ang^3
#
#
#
# Elastic Constant Matrix: (Units=GPa)
#
#
# Indices 1 2 3 4 5 6 
#
# 1 84.0711 10.2967 10.3014 0.0000 0.0000 0.0000
# 2 10.2967 113.9882 25.9422 0.0000 0.0000 0.0000
# 3 10.3014 25.9422 69.2439 0.0000 0.0000 0.0000
# 4 0.0000 0.0000 0.0000 8.3571 0.0000 0.0000
# 5 0.0000 0.0000 0.0000 0.0000 87.9161 0.0000
# 6 0.0000 0.0000 0.0000 0.0000 0.0000 25.0637
#
#
#
# Elastic Compliance Matrix: (Units=1/GPa)
#
#
# Indices 1 2 3 4 5 6 
#
# 1 0.012174 -0.000752 -0.001530 0.000000 0.000000 0.000000
# 2 -0.000752 0.009637 -0.003499 0.000000 0.000000 0.000000
# 3 -0.001530 -0.003499 0.015980 0.000000 0.000000 0.000000
# 4 0.000000 0.000000 0.000000 0.119658 0.000000 0.000000
# 5 0.000000 0.000000 0.000000 0.000000 0.011374 0.000000
# 6 0.000000 0.000000 0.000000 0.000000 0.000000 0.039898
#
#
# Mechanical properties :
#
#
# Convention : Reuss Voigt Hill
#
# Bulk Modulus (GPa) = 38.12209 40.04264 39.08237
# Shear Modulus (GPa) = 21.83162 38.98493 30.40827
#
# Velocity S-wave (km/s) = 3.21900 4.30156 3.79904
# Velocity P-wave (km/s) = 5.64888 6.60884 6.14762
#
# Compressibility (1/GPa) = 0.02623151
#
# Stress axis : x y z
#
# Youngs Moduli (GPa) = 82.14113 103.76693 62.57812
#
# Poissons Ratio (x) = 0.07799 0.09572
# Poissons Ratio (y) = 0.06174 0.21894
# Poissons Ratio (z) = 0.12564 0.36305
#
# Static dielectric constant tensor:
#      x y z
#    x 3.927160 0.000000 0.000000 
#    y 0.000000 3.962060 0.000000 
#    z 0.000000 0.000000 3.512240 
# 
# 
# High freq. dielectric constant tensor:
#      x y z
#    x 1.830160 0.000000 0.000000 
#    y 0.000000 1.838250 0.000000 
#    z 0.000000 0.000000 1.810640 
# 
# From -- ./inp_files/7156.got.cif
#   From: 2010.03.12/outbox.cif.g09.slc.cpg/sg18_4_cif.got.tgz:7156.got - 2010.04.10 18:53:55.
