data_PCOD8156595
_publ_section_title
;
Structure prediction by ZEFSAII (Michael W. Deem and Ramdas Pophale) SiO2 
 PCOD8156595
Probable space group: P 21 21 21
;
_chemical_formula_sum "Si O2"
_cell_formula_units_Z 24
_cell_length_a 17.661166
_cell_length_b 7.713801
_cell_length_c 7.458717
_cell_angle_alpha 90.000000
_cell_angle_beta 90.000000
_cell_angle_gamma 90.000000
_cell_volume 1016.136222
_symmetry_space_group_name_H-M "P 21 21 21"
_symmetry_group_IT_number 19
_symmetry_cell_setting 'orthorhombic'
loop_
_space_group_symop_operation_xyz
x,y,z
1/2-x,-y,1/2+z
1/2+x,1/2-y,-z
-x,1/2+y,1/2-z
loop_
_atom_site_type_symbol
_atom_site_label
_atom_site_fract_x
_atom_site_fract_y
_atom_site_fract_z
Si Si1 0.908862 0.600789 0.913765
Si Si2 0.784042 0.358493 0.872445
Si Si3 0.168442 0.633986 0.928964
Si Si4 0.544465 0.125976 0.120299
Si Si5 0.119513 0.243681 0.221567
Si Si6 0.196890 0.591640 0.323451
O O1 0.818985 0.550917 0.898989
O O2 0.928446 0.766434 0.792693
O O3 0.956745 0.428817 0.860309
O O4 0.923222 0.637374 0.124288
O O5 0.816474 0.307097 0.679023
O O6 0.692952 0.353832 0.864045
O O7 0.820557 0.229750 0.021233
O O8 0.084179 0.562327 0.899206
O O9 0.218155 0.472910 0.856851
O O10 0.189049 0.684579 0.132126
O O11 0.560003 0.235300 0.939728
O O12 0.142115 0.424361 0.318134
#
# Coordination Sequence:
#
# PCOD8156595 Si02
#       6
#     4   4   4   4   4   4
#     4  12  28  43  69  96 141 180 225 284 340 404
#     4  11  23  39  66 104 127 177 223 278 334 391
#     4  10  19  37  68  93 132 169 220 268 329 404
#     4  11  25  46  65 100 137 181 223 278 346 408
#     4  10  25  42  70  99 136 177 227 282 330 415
#     4  10  18  37  66  98 125 172 216 272 327 388
#
# _framework density 23.618883
#
# number of rings (size 3 to 8) (size 9 to 14) (size 15 to 20)
#    0.000    1.333    5.000    2.000    4.667    5.333 
#    0.000    0.000    0.000    0.000    0.000    0.000 
#    0.000    0.000    0.000    0.000    0.000    0.000 
#
# Total GULP energy -297506.128568 kJ/mol
# GULP energy per Si atom -12396.088690 kJ/mol
# Density = 2.356513 g / cm^3
# Si number density = 23.618883 Si / 1000 Ang^3
#
#
#
# Elastic Constant Matrix: (Units=GPa)
#
#
# Indices 1 2 3 4 5 6 
#
# 1 60.1299 10.8842 17.9851 0.0000 0.0000 0.0000
# 2 10.8842 22.2895 12.8235 0.0000 0.0000 0.0000
# 3 17.9851 12.8235 120.8681 0.0000 0.0000 0.0000
# 4 0.0000 0.0000 0.0000 34.8218 0.0000 0.0000
# 5 0.0000 0.0000 0.0000 0.0000 -232.8855 0.0000
# 6 0.0000 0.0000 0.0000 0.0000 0.0000 34.7208
#
#
#
# Elastic Compliance Matrix: (Units=1/GPa)
#
#
# Indices 1 2 3 4 5 6 
#
# 1 0.018655 -0.008001 -0.001927 0.000000 0.000000 0.000000
# 2 -0.008001 0.051212 -0.004243 0.000000 0.000000 0.000000
# 3 -0.001927 -0.004243 0.009010 0.000000 0.000000 0.000000
# 4 0.000000 0.000000 0.000000 0.028718 0.000000 0.000000
# 5 0.000000 0.000000 0.000000 0.000000 -0.004294 0.000000
# 6 0.000000 0.000000 0.000000 0.000000 0.000000 0.028801
#
#
# Mechanical properties :
#
#
# Convention : Reuss Voigt Hill
#
# Bulk Modulus (GPa) = 19.78778 31.85256 25.82017
# Shear Modulus (GPa) = 28.20240 -21.89563 3.15339
#
# Velocity S-wave (km/s) = 3.45927 -3.04803 1.15672
# Velocity P-wave (km/s) = 4.93473 1.06206 3.56928
#
# Compressibility (1/GPa) = 0.05053623
#
# Stress axis : x y z
#
# Youngs Moduli (GPa) = 53.60403 19.52659 110.98326
#
# Poissons Ratio (x) = 0.15623 0.21387
# Poissons Ratio (y) = 0.42888 0.47088
# Poissons Ratio (z) = 0.10330 0.08285
#
# Static dielectric constant tensor:
#      x y z
#    x 3.763370 0.000000 0.000000 
#    y 0.000000 9.579640 0.000000 
#    z 0.000000 0.000000 4.506620 
# 
# 
# High freq. dielectric constant tensor:
#      x y z
#    x 1.920630 0.000000 0.000000 
#    y 0.000000 1.917020 0.000000 
#    z 0.000000 0.000000 1.951440 
# 
# From -- ./inp_files/4118.got.cif
#   From: 2010.03.12/outbox.cif.g09.slc.cpg/sg19_3_cif.got.tgz:4118.got - 2010.04.10 18:59:41.
