data_PCOD8156822
_publ_section_title
;
Structure prediction by ZEFSAII (Michael W. Deem and Ramdas Pophale) SiO2 
 PCOD8156822
Probable space group: P 21 21 21
;
_chemical_formula_sum "Si O2"
_cell_formula_units_Z 32
_cell_length_a 14.052866
_cell_length_b 7.908224
_cell_length_c 12.765461
_cell_angle_alpha 90.000000
_cell_angle_beta 90.000000
_cell_angle_gamma 90.000000
_cell_volume 1418.666686
_symmetry_space_group_name_H-M "P 21 21 21"
_symmetry_group_IT_number 19
_symmetry_cell_setting 'orthorhombic'
loop_
_space_group_symop_operation_xyz
x,y,z
1/2-x,-y,1/2+z
1/2+x,1/2-y,-z
-x,1/2+y,1/2-z
loop_
_atom_site_type_symbol
_atom_site_label
_atom_site_fract_x
_atom_site_fract_y
_atom_site_fract_z
Si Si1 0.490328 0.530830 0.413203
Si Si2 0.618641 0.817901 0.667786
Si Si3 0.130039 0.154145 0.438164
Si Si4 0.285623 0.906620 0.372234
Si Si5 0.670648 0.177814 0.948812
Si Si6 0.557276 0.160808 0.755554
Si Si7 0.862306 0.999701 0.955678
Si Si8 0.007068 0.119050 0.798681
O O1 0.575743 0.486999 0.493162
O O2 0.394179 0.552954 0.479735
O O3 0.515323 0.697699 0.346409
O O4 0.477990 0.385435 0.324330
O O5 0.725913 0.748632 0.680407
O O6 0.550210 0.661233 0.699038
O O7 0.596266 0.971008 0.745909
O O8 0.597653 0.884088 0.550487
O O9 0.060518 0.230229 0.349905
O O10 0.162223 0.309268 0.510554
O O11 0.222989 0.075866 0.382042
O O12 0.310302 0.850753 0.489799
O O13 0.381849 0.935922 0.307019
O O14 0.621182 0.247103 0.844574
O O15 0.764964 0.079670 0.914131
O O16 0.940935 0.989587 0.864143
#
# Coordination Sequence:
#
# PCOD8156822 Si02
#       8
#     4   4   4   4   4   4   4   4
#     4  11  23  42  65  95 131 170 214 270 325 387
#     4  10  20  38  61  91 126 164 214 271 323 383
#     4  11  24  41  63  94 128 165 217 272 326 392
#     4  10  22  41  62  91 128 168 213 265 323 390
#     4  10  22  41  64  88 124 169 212 267 325 383
#     4  11  22  39  67  93 123 169 218 269 330 388
#     4  10  23  40  61  91 126 165 214 266 323 391
#     4  11  24  42  67  93 130 174 216 262 327 394
#
# _framework density 22.55639
#
# number of rings (size 3 to 8) (size 9 to 14) (size 15 to 20)
#    0.000    1.500    0.000    6.000    0.000    9.000 
#    0.000    3.750    0.000    0.000    0.000    0.000 
#    0.000    0.000    0.000    0.000    0.000    0.000 
#
# Total GULP energy -396808.050348 kJ/mol
# GULP energy per Si atom -12400.251573 kJ/mol
# Density = 2.250505 g / cm^3
# Si number density = 22.556390 Si / 1000 Ang^3
#
#
#
# Elastic Constant Matrix: (Units=GPa)
#
#
# Indices 1 2 3 4 5 6 
#
# 1 104.1362 14.3846 33.2003 0.0000 0.0000 0.0000
# 2 14.3846 71.4195 15.7394 0.0000 0.0000 0.0000
# 3 33.2003 15.7394 87.6401 0.0000 0.0000 0.0000
# 4 0.0000 0.0000 0.0000 34.4578 0.0000 0.0000
# 5 0.0000 0.0000 0.0000 0.0000 27.9370 0.0000
# 6 0.0000 0.0000 0.0000 0.0000 0.0000 29.0287
#
#
#
# Elastic Compliance Matrix: (Units=1/GPa)
#
#
# Indices 1 2 3 4 5 6 
#
# 1 0.011047 -0.001356 -0.003941 0.000000 0.000000 0.000000
# 2 -0.001356 0.014745 -0.002134 0.000000 0.000000 0.000000
# 3 -0.003941 -0.002134 0.013287 0.000000 0.000000 0.000000
# 4 0.000000 0.000000 0.000000 0.029021 0.000000 0.000000
# 5 0.000000 0.000000 0.000000 0.000000 0.035795 0.000000
# 6 0.000000 0.000000 0.000000 0.000000 0.000000 0.034449
#
#
# Mechanical properties :
#
#
# Convention : Reuss Voigt Hill
#
# Bulk Modulus (GPa) = 41.29682 43.31605 42.30644
# Shear Modulus (GPa) = 31.00229 31.60948 31.30589
#
# Velocity S-wave (km/s) = 3.71136 3.74753 3.72949
# Velocity P-wave (km/s) = 6.05917 6.16201 6.11081
#
# Compressibility (1/GPa) = 0.02421494
#
# Stress axis : x y z
#
# Youngs Moduli (GPa) = 90.52502 67.81814 75.26372
#
# Poissons Ratio (x) = 0.09199 0.29663
# Poissons Ratio (y) = 0.12278 0.16064
# Poissons Ratio (z) = 0.35677 0.14475
#
# Static dielectric constant tensor:
#      x y z
#    x 4.046990 0.000000 0.000000 
#    y 0.000000 3.999750 0.000000 
#    z 0.000000 0.000000 4.109540 
# 
# 
# High freq. dielectric constant tensor:
#      x y z
#    x 1.886840 0.000000 0.000000 
#    y 0.000000 1.884070 0.000000 
#    z 0.000000 0.000000 1.892570 
# 
# From -- ./inp_files/5234.got.cif
#   From: 2010.03.12/outbox.cif.g09.slc.cpg/sg19_3_cif.got.tgz:5234.got - 2010.04.10 18:59:41.
