data_PCOD8156797
_publ_section_title
;
Structure prediction by ZEFSAII (Michael W. Deem and Ramdas Pophale) SiO2 
 PCOD8156797
Probable space group: P 21 21 21
;
_chemical_formula_sum "Si O2"
_cell_formula_units_Z 32
_cell_length_a 7.839904
_cell_length_b 21.447258
_cell_length_c 9.079747
_cell_angle_alpha 90.000000
_cell_angle_beta 90.000000
_cell_angle_gamma 90.000000
_cell_volume 1526.709009
_symmetry_space_group_name_H-M "P 21 21 21"
_symmetry_group_IT_number 19
_symmetry_cell_setting 'orthorhombic'
loop_
_space_group_symop_operation_xyz
x,y,z
1/2-x,-y,1/2+z
1/2+x,1/2-y,-z
-x,1/2+y,1/2-z
loop_
_atom_site_type_symbol
_atom_site_label
_atom_site_fract_x
_atom_site_fract_y
_atom_site_fract_z
Si Si1 0.231350 0.040691 0.269819
Si Si2 0.393375 0.395553 0.646746
Si Si3 0.169586 0.611556 0.812742
Si Si4 0.898936 0.972190 0.708494
Si Si5 0.960061 0.694343 0.630252
Si Si6 0.192282 0.705632 0.374423
Si Si7 0.588565 0.109104 0.945385
Si Si8 0.770707 0.578041 0.550990
O O1 0.432605 0.061299 0.282740
O O2 0.093681 0.083446 0.357667
O O3 0.218674 0.969984 0.322200
O O4 0.183194 0.041100 0.097653
O O5 0.312031 0.383149 0.487332
O O6 0.275879 0.448900 0.718524
O O7 0.386803 0.330276 0.735244
O O8 0.072716 0.546449 0.774228
O O9 0.348433 0.606467 0.723910
O O10 0.081569 0.677764 0.767811
O O11 0.888437 0.956952 0.533074
O O12 0.798737 0.734588 0.683218
O O13 0.927839 0.622808 0.581563
O O14 0.047135 0.728300 0.489622
O O15 0.316211 0.660982 0.462676
O O16 0.389198 0.125539 0.955074
#
# Coordination Sequence:
#
# PCOD8156797 Si02
#       8
#     4   4   4   4   4   4   4   4
#     4  11  22  36  61  98 133 168 209 266 322 402
#     4  11  23  41  65  95 136 171 211 271 337 384
#     4  11  21  39  59  97 130 164 211 273 324 397
#     4  10  20  37  61  94 132 173 209 251 329 399
#     4  11  22  41  66  87 126 166 228 264 316 390
#     4  10  22  43  66  89 121 176 222 273 314 384
#     4   9  21  37  61  89 123 172 217 256 324 385
#     4  11  21  38  61  97 129 168 215 264 328 393
#
# _framework density 20.960118000000001
#
# number of rings (size 3 to 8) (size 9 to 14) (size 15 to 20)
#    0.000    1.500    2.500    3.750    0.000    2.000 
#    0.000    3.750    0.000    0.000    0.000    0.000 
#    0.000    0.000    0.000    0.000    0.000    0.000 
#
# Total GULP energy -396463.475221 kJ/mol
# GULP energy per Si atom -12389.483601 kJ/mol
# Density = 2.091241 g / cm^3
# Si number density = 20.960118 Si / 1000 Ang^3
#
#
#
# Elastic Constant Matrix: (Units=GPa)
#
#
# Indices 1 2 3 4 5 6 
#
# 1 69.2422 15.5657 22.8473 0.0000 0.0000 0.0000
# 2 15.5657 72.4587 15.6248 0.0000 0.0000 0.0000
# 3 22.8473 15.6248 97.6892 0.0000 0.0000 0.0000
# 4 0.0000 0.0000 0.0000 17.3207 0.0000 0.0000
# 5 0.0000 0.0000 0.0000 0.0000 21.4977 0.0000
# 6 0.0000 0.0000 0.0000 0.0000 0.0000 38.6269
#
#
#
# Elastic Compliance Matrix: (Units=1/GPa)
#
#
# Indices 1 2 3 4 5 6 
#
# 1 0.016163 -0.002752 -0.003340 0.000000 0.000000 0.000000
# 2 -0.002752 0.014763 -0.001718 0.000000 0.000000 0.000000
# 3 -0.003340 -0.001718 0.011292 0.000000 0.000000 0.000000
# 4 0.000000 0.000000 0.000000 0.057734 0.000000 0.000000
# 5 0.000000 0.000000 0.000000 0.000000 0.046517 0.000000
# 6 0.000000 0.000000 0.000000 0.000000 0.000000 0.025889
#
#
# Mechanical properties :
#
#
# Convention : Reuss Voigt Hill
#
# Bulk Modulus (GPa) = 37.59566 38.60731 38.10149
# Shear Modulus (GPa) = 25.40102 27.84587 26.62345
#
# Velocity S-wave (km/s) = 3.48497 3.64884 3.56785
# Velocity P-wave (km/s) = 5.84543 6.01759 5.93214
#
# Compressibility (1/GPa) = 0.02659882
#
# Stress axis : x y z
#
# Youngs Moduli (GPa) = 61.87071 67.73919 88.55508
#
# Poissons Ratio (x) = 0.18641 0.29577
# Poissons Ratio (y) = 0.17026 0.15210
# Poissons Ratio (z) = 0.20665 0.11635
#
# Static dielectric constant tensor:
#      x y z
#    x 4.016430 0.000000 0.000000 
#    y 0.000000 3.570960 0.000000 
#    z 0.000000 0.000000 3.777920 
# 
# 
# High freq. dielectric constant tensor:
#      x y z
#    x 1.829630 0.000000 0.000000 
#    y 0.000000 1.801860 0.000000 
#    z 0.000000 0.000000 1.808430 
# 
# From -- ./inp_files/3127.got.cif
#   From: 2010.03.12/outbox.cif.g09.slc.cpg/sg19_2_cif.got.tgz:3127.got - 2010.04.10 18:59:41.
