data_PCOD8156866
_publ_section_title
;
Structure prediction by ZEFSAII (Michael W. Deem and Ramdas Pophale) SiO2 
 PCOD8156866
Probable space group: P 21 21 21
;
_chemical_formula_sum "Si O2"
_cell_formula_units_Z 32
_cell_length_a 10.804526
_cell_length_b 14.444731
_cell_length_c 9.443300
_cell_angle_alpha 90.000000
_cell_angle_beta 90.000000
_cell_angle_gamma 90.000000
_cell_volume 1473.801398
_symmetry_space_group_name_H-M "P 21 21 21"
_symmetry_group_IT_number 19
_symmetry_cell_setting 'orthorhombic'
loop_
_space_group_symop_operation_xyz
x,y,z
1/2-x,-y,1/2+z
1/2+x,1/2-y,-z
-x,1/2+y,1/2-z
loop_
_atom_site_type_symbol
_atom_site_label
_atom_site_fract_x
_atom_site_fract_y
_atom_site_fract_z
Si Si1 0.981615 0.610859 0.037196
Si Si2 0.160092 0.645709 0.792977
Si Si3 0.077226 0.286761 0.295110
Si Si4 0.366575 0.774540 0.502528
Si Si5 0.046191 0.972927 0.213724
Si Si6 0.387394 0.202052 0.092196
Si Si7 0.007147 0.045133 0.909787
Si Si8 0.828371 0.495963 0.832382
O O1 0.956950 0.718059 0.077415
O O2 0.011012 0.540697 0.166604
O O3 0.867024 0.577039 0.940692
O O4 0.101837 0.611346 0.938705
O O5 0.305460 0.646632 0.823745
O O6 0.116303 0.749132 0.746454
O O7 0.122431 0.577631 0.661268
O O8 0.105519 0.214294 0.169592
O O9 0.972555 0.363054 0.258174
O O10 0.219222 0.746625 0.489978
O O11 0.469084 0.697899 0.456255
O O12 0.400240 0.867753 0.421773
O O13 0.191789 0.986225 0.220045
O O14 0.985746 0.997054 0.060676
O O15 0.333081 0.099926 0.084951
O O16 0.079828 0.979925 0.800415
#
# Coordination Sequence:
#
# PCOD8156866 Si02
#       8
#     4   4   4   4   4   4   4   4
#     4  11  24  43  63  97 132 167 225 274 325 394
#     4   9  23  43  61  85 138 169 205 274 341 396
#     4  11  24  39  66  94 132 172 216 276 338 383
#     4  10  20  40  61  96 131 171 213 273 321 395
#     4  12  23  38  69  97 126 169 225 274 322 395
#     4  10  20  40  69  95 132 176 219 269 339 392
#     4  10  21  40  61  90 125 170 211 269 330 386
#     4  11  23  39  68  96 132 168 226 275 324 389
#
# _framework density 21.71256
#
# number of rings (size 3 to 8) (size 9 to 14) (size 15 to 20)
#    0.000    1.500    2.500    2.250    5.250    1.000 
#    0.000    3.750    0.000    0.000    0.000    0.000 
#    0.000    0.000    0.000    0.000    0.000    0.000 
#
# Total GULP energy -396439.346630 kJ/mol
# GULP energy per Si atom -12388.729582 kJ/mol
# Density = 2.166314 g / cm^3
# Si number density = 21.712560 Si / 1000 Ang^3
#
#
#
# Elastic Constant Matrix: (Units=GPa)
#
#
# Indices 1 2 3 4 5 6 
#
# 1 93.1627 32.9311 22.5264 0.0000 0.0000 0.0000
# 2 32.9311 79.5692 15.9394 0.0000 0.0000 0.0000
# 3 22.5264 15.9394 94.6618 0.0000 0.0000 0.0000
# 4 0.0000 0.0000 0.0000 27.4573 0.0000 0.0000
# 5 0.0000 0.0000 0.0000 0.0000 22.9402 0.0000
# 6 0.0000 0.0000 0.0000 0.0000 0.0000 27.2298
#
#
#
# Elastic Compliance Matrix: (Units=1/GPa)
#
#
# Indices 1 2 3 4 5 6 
#
# 1 0.013028 -0.004937 -0.002269 0.000000 0.000000 0.000000
# 2 -0.004937 0.014878 -0.001330 0.000000 0.000000 0.000000
# 3 -0.002269 -0.001330 0.011328 0.000000 0.000000 0.000000
# 4 0.000000 0.000000 0.000000 0.036420 0.000000 0.000000
# 5 0.000000 0.000000 0.000000 0.000000 0.043592 0.000000
# 6 0.000000 0.000000 0.000000 0.000000 0.000000 0.036725
#
#
# Mechanical properties :
#
#
# Convention : Reuss Voigt Hill
#
# Bulk Modulus (GPa) = 45.12540 45.57640 45.35090
# Shear Modulus (GPa) = 27.71179 28.59193 28.15186
#
# Velocity S-wave (km/s) = 3.57641 3.63276 3.60470
# Velocity P-wave (km/s) = 6.15488 6.21549 6.18526
#
# Compressibility (1/GPa) = 0.02216047
#
# Stress axis : x y z
#
# Youngs Moduli (GPa) = 76.75941 67.21546 88.27834
#
# Poissons Ratio (x) = 0.33186 0.20029
# Poissons Ratio (y) = 0.37898 0.11743
# Poissons Ratio (z) = 0.17415 0.08941
#
# Static dielectric constant tensor:
#      x y z
#    x 3.959960 0.000000 0.000000 
#    y 0.000000 3.798910 0.000000 
#    z 0.000000 0.000000 3.944480 
# 
# 
# High freq. dielectric constant tensor:
#      x y z
#    x 1.849370 0.000000 0.000000 
#    y 0.000000 1.842560 0.000000 
#    z 0.000000 0.000000 1.849570 
# 
# From -- ./inp_files/3605.got.cif
#   From: 2010.03.12/outbox.cif.g09.slc.cpg/sg19_2_cif.got.tgz:3605.got - 2010.04.10 18:59:41.
