data_PCOD8156209
_publ_section_title
;
Structure prediction by ZEFSAII (Michael W. Deem and Ramdas Pophale) SiO2 
 PCOD8156209
Probable space group: P 21 21 2
;
_chemical_formula_sum "Si O2"
_cell_formula_units_Z 28
_cell_length_a 11.255319
_cell_length_b 23.132328
_cell_length_c 5.149779
_cell_angle_alpha 90.000000
_cell_angle_beta 90.000000
_cell_angle_gamma 90.000000
_cell_volume 1340.805374
_symmetry_space_group_name_H-M "P 21 21 2"
_symmetry_group_IT_number 18
_symmetry_cell_setting 'orthorhombic'
loop_
_space_group_symop_operation_xyz
x,y,z
-x,-y,z
1/2+x,1/2-y,-z
1/2-x,1/2+y,-z
loop_
_atom_site_type_symbol
_atom_site_label
_atom_site_fract_x
_atom_site_fract_y
_atom_site_fract_z
Si Si1 0.227845 0.475750 0.770845
Si Si2 0.900821 0.356638 0.144453
Si Si3 0.572803 0.616354 0.771031
Si Si4 0.327333 0.330910 0.275573
Si Si5 0.842987 0.301193 0.646866
Si Si6 0.872127 0.577238 0.278288
Si Si7 0.198119 0.102313 0.163918
O O1 0.352127 0.442169 0.745104
O O2 0.133157 0.455149 0.554566
O O3 0.252344 0.542770 0.719098
O O4 0.176946 0.465253 0.057400
O O5 0.906229 0.308772 0.370610
O O6 0.993177 0.407475 0.206284
O O7 0.933017 0.322305 0.876908
O O8 0.768943 0.385329 0.108010
O O9 0.577547 0.648202 0.492167
O O10 0.442463 0.598334 0.865743
O O11 0.623373 0.659375 0.987917
O O12 0.299563 0.263657 0.311409
O O13 0.202941 0.363895 0.303965
O O14 0.728628 0.344083 0.644742
#
# Coordination Sequence:
#
# PCOD8156209 Si02
#       7
#     4   4   4   4   4   4   4
#     4  10  22  40  66  91 122 162 207 253 312 368
#     4  10  23  41  57  91 124 158 206 249 309 366
#     4  10  22  40  65  91 124 161 206 260 314 370
#     4  10  22  40  63  89 119 163 211 250 312 372
#     4  10  23  39  58  92 122 161 206 254 308 365
#     4  10  22  42  62  89 120 166 204 256 303 370
#     4  10  25  40  62  96 126 159 207 257 317 370
#
# _framework density 20.88297
#
# number of rings (size 3 to 8) (size 9 to 14) (size 15 to 20)
#    0.857    1.143    0.000    2.143    4.000    2.857 
#    0.000    4.286    0.000    0.000    0.000    0.000 
#    0.000    0.000    0.000    0.000    0.000    0.000 
#
# Total GULP energy -347067.289836 kJ/mol
# GULP energy per Si atom -12395.260351 kJ/mol
# Density = 2.083544 g / cm^3
# Si number density = 20.882970 Si / 1000 Ang^3
#
#
#
# Elastic Constant Matrix: (Units=GPa)
#
#
# Indices 1 2 3 4 5 6 
#
# 1 80.1279 12.6319 22.9513 0.0000 0.0000 0.0000
# 2 12.6319 122.3456 32.2656 0.0000 0.0000 0.0000
# 3 22.9513 32.2656 124.2239 0.0000 0.0000 0.0000
# 4 0.0000 0.0000 0.0000 20.3763 0.0000 0.0000
# 5 0.0000 0.0000 0.0000 0.0000 25.6582 0.0000
# 6 0.0000 0.0000 0.0000 0.0000 0.0000 16.5970
#
#
#
# Elastic Compliance Matrix: (Units=1/GPa)
#
#
# Indices 1 2 3 4 5 6 
#
# 1 0.013246 -0.000775 -0.002246 0.000000 0.000000 0.000000
# 2 -0.000775 0.008820 -0.002148 0.000000 0.000000 0.000000
# 3 -0.002246 -0.002148 0.009023 0.000000 0.000000 0.000000
# 4 0.000000 0.000000 0.000000 0.049077 0.000000 0.000000
# 5 0.000000 0.000000 0.000000 0.000000 0.038974 0.000000
# 6 0.000000 0.000000 0.000000 0.000000 0.000000 0.060252
#
#
# Mechanical properties :
#
#
# Convention : Reuss Voigt Hill
#
# Bulk Modulus (GPa) = 48.19103 51.37721 49.78412
# Shear Modulus (GPa) = 25.42652 29.78287 27.60470
#
# Velocity S-wave (km/s) = 3.49316 3.78058 3.63971
# Velocity P-wave (km/s) = 6.27665 6.61157 6.44629
#
# Compressibility (1/GPa) = 0.02075075
#
# Stress axis : x y z
#
# Youngs Moduli (GPa) = 75.49700 113.37863 110.83112
#
# Poissons Ratio (x) = 0.08790 0.24891
# Poissons Ratio (y) = 0.05853 0.23803
# Poissons Ratio (z) = 0.16955 0.24350
#
# Static dielectric constant tensor:
#      x y z
#    x 3.495970 0.000000 0.000000 
#    y 0.000000 3.626260 0.000000 
#    z 0.000000 0.000000 3.892470 
# 
# 
# High freq. dielectric constant tensor:
#      x y z
#    x 1.794560 0.000000 0.000000 
#    y 0.000000 1.819070 0.000000 
#    z 0.000000 0.000000 1.828040 
# 
# From -- ./inp_files/1230.got.cif
#   From: 2010.03.12/outbox.cif.g09.slc.cpg/sg18_1_cif.got.tgz:1230.got - 2010.04.10 18:53:55.
