data_PCOD8156784
_publ_section_title
;
Structure prediction by ZEFSAII (Michael W. Deem and Ramdas Pophale) SiO2 
 PCOD8156784
Probable space group: P 21 21 21
;
_chemical_formula_sum "Si O2"
_cell_formula_units_Z 20
_cell_length_a 9.207087
_cell_length_b 12.184666
_cell_length_c 9.641899
_cell_angle_alpha 90.000000
_cell_angle_beta 90.000000
_cell_angle_gamma 90.000000
_cell_volume 1081.679138
_symmetry_space_group_name_H-M "P 21 21 21"
_symmetry_group_IT_number 19
_symmetry_cell_setting 'orthorhombic'
loop_
_space_group_symop_operation_xyz
x,y,z
1/2-x,-y,1/2+z
1/2+x,1/2-y,-z
-x,1/2+y,1/2-z
loop_
_atom_site_type_symbol
_atom_site_label
_atom_site_fract_x
_atom_site_fract_y
_atom_site_fract_z
Si Si1 0.648243 0.032939 0.381864
Si Si2 0.015753 0.249096 0.676546
Si Si3 0.367196 0.155043 0.080740
Si Si4 0.557883 0.347337 0.045499
Si Si5 0.586833 0.968245 0.073841
O O1 0.521837 0.964419 0.458072
O O2 0.659772 0.999541 0.220768
O O3 0.616220 0.162542 0.401414
O O4 0.801098 0.005117 0.451918
O O5 0.885999 0.316113 0.755226
O O6 0.953358 0.160833 0.568179
O O7 0.105763 0.182759 0.796042
O O8 0.197485 0.147272 0.051368
O O9 0.442918 0.039464 0.045748
O O10 0.446121 0.252383 0.992233
#
# Coordination Sequence:
#
# PCOD8156784 Si02
#       5
#     4   4   4   4   4
#     4  10  20  37  57  79 110 146 177 223 271 318
#     4   8  20  34  56  74 112 144 172 230 268 310
#     4   9  18  33  58  77 107 142 186 215 266 318
#     4   9  18  33  58  77 107 142 186 215 266 318
#     4  10  20  37  57  79 110 146 177 223 271 318
#
# _framework density 18.48977
#
# number of rings (size 3 to 8) (size 9 to 14) (size 15 to 20)
#    1.200    1.600    0.000    1.200    0.000    1.600 
#    0.000   10.000    0.000    0.000    0.000    0.000 
#    0.000    0.000    0.000    0.000    0.000    0.000 
#
# Total GULP energy -247832.539606 kJ/mol
# GULP energy per Si atom -12391.626980 kJ/mol
# Density = 1.844769 g / cm^3
# Si number density = 18.489770 Si / 1000 Ang^3
#
#
#
# Elastic Constant Matrix: (Units=GPa)
#
#
# Indices 1 2 3 4 5 6 
#
# 1 41.0457 20.7447 -1.5771 0.0000 0.0000 0.0000
# 2 20.7447 124.8553 1.9753 0.0000 0.0000 0.0000
# 3 -1.5771 1.9753 19.6833 0.0000 0.0000 0.0000
# 4 0.0000 0.0000 0.0000 12.9596 0.0000 0.0000
# 5 0.0000 0.0000 0.0000 0.0000 17.6690 0.0000
# 6 0.0000 0.0000 0.0000 0.0000 0.0000 22.8373
#
#
#
# Elastic Compliance Matrix: (Units=1/GPa)
#
#
# Indices 1 2 3 4 5 6 
#
# 1 0.026728 -0.004482 0.002591 0.000000 0.000000 0.000000
# 2 -0.004482 0.008774 -0.001240 0.000000 0.000000 0.000000
# 3 0.002591 -0.001240 0.051136 0.000000 0.000000 0.000000
# 4 0.000000 0.000000 0.000000 0.077163 0.000000 0.000000
# 5 0.000000 0.000000 0.000000 0.000000 0.056596 0.000000
# 6 0.000000 0.000000 0.000000 0.000000 0.000000 0.043788
#
#
# Mechanical properties :
#
#
# Convention : Reuss Voigt Hill
#
# Bulk Modulus (GPa) = 12.44128 25.31891 18.88010
# Shear Modulus (GPa) = 16.82156 21.65595 19.23876
#
# Velocity S-wave (km/s) = 3.01952 3.42605 3.22919
# Velocity P-wave (km/s) = 4.34742 5.41974 4.91292
#
# Compressibility (1/GPa) = 0.08037760
#
# Stress axis : x y z
#
# Youngs Moduli (GPa) = 37.41428 113.97911 19.55552
#
# Poissons Ratio (x) = 0.51083 -0.05067
# Poissons Ratio (y) = 0.16768 0.02424
# Poissons Ratio (z) = -0.09695 0.14128
#
# Static dielectric constant tensor:
#      x y z
#    x 2.973360 0.000000 0.000000 
#    y 0.000000 3.603330 0.000000 
#    z 0.000000 0.000000 3.016100 
# 
# 
# High freq. dielectric constant tensor:
#      x y z
#    x 1.691160 0.000000 0.000000 
#    y 0.000000 1.736560 0.000000 
#    z 0.000000 0.000000 1.676590 
# 
# From -- ./inp_files/2659.got.cif
#   From: 2010.03.12/outbox.cif.g09.slc.cpg/sg19_2_cif.got.tgz:2659.got - 2010.04.10 18:59:41.
