data_PCOD8156606
_publ_section_title
;
Structure prediction by ZEFSAII (Michael W. Deem and Ramdas Pophale) SiO2 
 PCOD8156606
Probable space group: P 21 21 21
;
_chemical_formula_sum "Si O2"
_cell_formula_units_Z 28
_cell_length_a 8.409485
_cell_length_b 9.092659
_cell_length_c 17.547006
_cell_angle_alpha 90.000000
_cell_angle_beta 90.000000
_cell_angle_gamma 90.000000
_cell_volume 1341.724435
_symmetry_space_group_name_H-M "P 21 21 21"
_symmetry_group_IT_number 19
_symmetry_cell_setting 'orthorhombic'
loop_
_space_group_symop_operation_xyz
x,y,z
1/2-x,-y,1/2+z
1/2+x,1/2-y,-z
-x,1/2+y,1/2-z
loop_
_atom_site_type_symbol
_atom_site_label
_atom_site_fract_x
_atom_site_fract_y
_atom_site_fract_z
Si Si1 0.087143 0.155525 0.729513
Si Si2 0.842939 0.444170 0.488631
Si Si3 0.220990 0.577413 0.172542
Si Si4 0.485399 0.376380 0.109007
Si Si5 0.946441 0.698831 0.077085
Si Si6 0.724421 0.185677 0.722833
Si Si7 0.785322 0.388200 0.851437
O O1 0.226106 0.259748 0.697856
O O2 0.107016 0.141128 0.820525
O O3 0.911802 0.215255 0.710164
O O4 0.095946 0.993802 0.694257
O O5 0.915730 0.579652 0.535410
O O6 0.678839 0.392205 0.527102
O O7 0.962457 0.306790 0.481134
O O8 0.820445 0.510079 0.405025
O O9 0.361896 0.506784 0.124343
O O10 0.068113 0.587108 0.117753
O O11 0.184807 0.478296 0.247109
O O12 0.390018 0.223912 0.097333
O O13 0.862138 0.791893 0.143422
O O14 0.674432 0.300598 0.790164
#
# Coordination Sequence:
#
# PCOD8156606 Si02
#       7
#     4   4   4   4   4   4   4
#     4  10  18  42  69  93 122 170 223 261 327 391
#     4  12  26  42  63  98 137 181 210 274 338 401
#     4  10  21  41  68  96 125 173 225 272 318 393
#     4  10  22  43  65  96 131 171 213 273 333 390
#     4  12  26  41  65  96 137 174 224 272 331 398
#     4  10  23  40  68  97 124 170 219 282 319 386
#     4  10  22  41  68  94 130 165 222 262 326 391
#
# _framework density 20.868669000000001
#
# number of rings (size 3 to 8) (size 9 to 14) (size 15 to 20)
#    0.000    1.714    1.429    6.000    4.000    3.429 
#    5.143    0.000    0.000    0.000    0.000    0.000 
#    0.000    0.000    0.000    0.000    0.000    0.000 
#
# Total GULP energy -347186.304642 kJ/mol
# GULP energy per Si atom -12399.510880 kJ/mol
# Density = 2.082117 g / cm^3
# Si number density = 20.868669 Si / 1000 Ang^3
#
#
#
# Elastic Constant Matrix: (Units=GPa)
#
#
# Indices 1 2 3 4 5 6 
#
# 1 48.6658 19.4380 30.1805 0.0000 0.0000 0.0000
# 2 19.4380 98.3456 21.9401 0.0000 0.0000 0.0000
# 3 30.1805 21.9401 69.8420 0.0000 0.0000 0.0000
# 4 0.0000 0.0000 0.0000 40.6648 0.0000 0.0000
# 5 0.0000 0.0000 0.0000 0.0000 43.6401 0.0000
# 6 0.0000 0.0000 0.0000 0.0000 0.0000 26.1436
#
#
#
# Elastic Compliance Matrix: (Units=1/GPa)
#
#
# Indices 1 2 3 4 5 6 
#
# 1 0.028952 -0.003152 -0.011521 0.000000 0.000000 0.000000
# 2 -0.003152 0.011278 -0.002181 0.000000 0.000000 0.000000
# 3 -0.011521 -0.002181 0.019981 0.000000 0.000000 0.000000
# 4 0.000000 0.000000 0.000000 0.024591 0.000000 0.000000
# 5 0.000000 0.000000 0.000000 0.000000 0.022915 0.000000
# 6 0.000000 0.000000 0.000000 0.000000 0.000000 0.038250
#
#
# Mechanical properties :
#
#
# Convention : Reuss Voigt Hill
#
# Bulk Modulus (GPa) = 37.72989 39.99672 38.86331
# Shear Modulus (GPa) = 26.52393 31.77604 29.14999
#
# Velocity S-wave (km/s) = 3.56897 3.90637 3.74147
# Velocity P-wave (km/s) = 5.92472 6.28918 6.10967
#
# Compressibility (1/GPa) = 0.02650418
#
# Stress axis : x y z
#
# Youngs Moduli (GPa) = 34.53995 88.67027 50.04649
#
# Poissons Ratio (x) = 0.27950 0.57657
# Poissons Ratio (y) = 0.10888 0.10913
# Poissons Ratio (z) = 0.39792 0.19336
#
# Static dielectric constant tensor:
#      x y z
#    x 3.621450 0.000000 0.000000 
#    y 0.000000 3.826230 0.000000 
#    z 0.000000 0.000000 3.755830 
# 
# 
# High freq. dielectric constant tensor:
#      x y z
#    x 1.803750 0.000000 0.000000 
#    y 0.000000 1.828980 0.000000 
#    z 0.000000 0.000000 1.815820 
# 
# From -- ./inp_files/2960.got.cif
#   From: 2010.03.12/outbox.cif.g09.slc.cpg/sg19_2_cif.got.tgz:2960.got - 2010.04.10 18:59:41.
