data_PCOD8156367
_publ_section_title
;
Structure prediction by ZEFSAII (Michael W. Deem and Ramdas Pophale) SiO2 
 PCOD8156367
Probable space group: P 21 21 2
;
_chemical_formula_sum "Si O2"
_cell_formula_units_Z 26
_cell_length_a 8.549933
_cell_length_b 21.246923
_cell_length_c 6.700929
_cell_angle_alpha 90.000000
_cell_angle_beta 90.000000
_cell_angle_gamma 90.000000
_cell_volume 1217.289208
_symmetry_space_group_name_H-M "P 21 21 2"
_symmetry_group_IT_number 18
_symmetry_cell_setting 'orthorhombic'
loop_
_space_group_symop_operation_xyz
x,y,z
-x,-y,z
1/2+x,1/2-y,-z
1/2-x,1/2+y,-z
loop_
_atom_site_type_symbol
_atom_site_label
_atom_site_fract_x
_atom_site_fract_y
_atom_site_fract_z
Si Si1 0.529840 0.321028 0.891850
Si Si2 0.694540 0.394383 0.211507
Si Si3 0.742471 0.710285 0.157298
Si Si4 0.530366 0.100446 0.906164
Si Si5 0.224138 0.477661 0.398787
Si Si6 0.429421 0.361084 0.476911
Si Si7 0.500000 0.000000 0.249186
O O1 0.670551 0.276306 0.822568
O O2 0.432573 0.347192 0.708353
O O3 0.593708 0.381834 0.011256
O O4 0.411207 0.279970 0.024048
O O5 0.702702 0.467881 0.262177
O O6 0.605930 0.356756 0.388306
O O7 0.869524 0.368581 0.175108
O O8 0.688847 0.688943 0.377533
O O9 0.848652 0.656514 0.054077
O O10 0.502763 0.062436 0.112052
O O11 0.587866 0.054756 0.729993
O O12 0.366766 0.431186 0.441968
O O13 0.153357 0.502155 0.609105
#
# Coordination Sequence:
#
# PCOD8156367 Si02
#       7
#     4   4   4   4   4   4   2
#     4  11  24  45  67  96 127 179 222 264 352 389
#     4  11  22  41  62  95 137 168 213 274 325 393
#     4  10  24  44  66  92 130 165 218 282 315 405
#     4  11  22  40  65  96 133 170 215 279 332 386
#     4  11  22  42  60  97 139 167 222 272 322 398
#     4  10  25  42  65  96 128 173 218 272 335 389
#     4  12  20  36  68  94 126 172 226 248 336 398
#
# _framework density 21.358934999999999
#
# number of rings (size 3 to 8) (size 9 to 14) (size 15 to 20)
#    0.000    1.231    3.077    2.308    2.154    3.692 
#    2.769    1.538    0.000    0.000    0.000    0.000 
#    0.000    0.000    0.000    0.000    0.000    0.000 
#
# Total GULP energy -322428.092171 kJ/mol
# GULP energy per Si atom -12401.080468 kJ/mol
# Density = 2.131032 g / cm^3
# Si number density = 21.358935 Si / 1000 Ang^3
#
#
#
# Elastic Constant Matrix: (Units=GPa)
#
#
# Indices 1 2 3 4 5 6 
#
# 1 104.7122 27.6992 38.5425 0.0000 0.0000 0.0000
# 2 27.6992 69.3512 35.8716 0.0000 0.0000 0.0000
# 3 38.5425 35.8716 120.3154 0.0000 0.0000 0.0000
# 4 0.0000 0.0000 0.0000 23.7334 0.0000 0.0000
# 5 0.0000 0.0000 0.0000 0.0000 31.4351 0.0000
# 6 0.0000 0.0000 0.0000 0.0000 0.0000 37.0141
#
#
#
# Elastic Compliance Matrix: (Units=1/GPa)
#
#
# Indices 1 2 3 4 5 6 
#
# 1 0.011378 -0.003144 -0.002708 0.000000 0.000000 0.000000
# 2 -0.003144 0.017917 -0.004335 0.000000 0.000000 0.000000
# 3 -0.002708 -0.004335 0.010471 0.000000 0.000000 0.000000
# 4 0.000000 0.000000 0.000000 0.042135 0.000000 0.000000
# 5 0.000000 0.000000 0.000000 0.000000 0.031812 0.000000
# 6 0.000000 0.000000 0.000000 0.000000 0.000000 0.027017
#
#
# Mechanical properties :
#
#
# Convention : Reuss Voigt Hill
#
# Bulk Modulus (GPa) = 51.56249 55.40059 53.48154
# Shear Modulus (GPa) = 29.83875 31.25422 30.54648
#
# Velocity S-wave (km/s) = 3.74172 3.82944 3.78584
# Velocity P-wave (km/s) = 6.54681 6.74885 6.64860
#
# Compressibility (1/GPa) = 0.01939394
#
# Stress axis : x y z
#
# Youngs Moduli (GPa) = 87.88677 55.81213 95.49959
#
# Poissons Ratio (x) = 0.17548 0.25857
# Poissons Ratio (y) = 0.27632 0.41397
# Poissons Ratio (z) = 0.23796 0.24193
#
# Static dielectric constant tensor:
#      x y z
#    x 4.062340 0.000000 0.000000 
#    y 0.000000 3.625670 0.000000 
#    z 0.000000 0.000000 3.810070 
# 
# 
# High freq. dielectric constant tensor:
#      x y z
#    x 1.854290 0.000000 0.000000 
#    y 0.000000 1.823490 0.000000 
#    z 0.000000 0.000000 1.836730 
# 
# From -- ./inp_files/660.got.cif
#   From: 2010.03.12/outbox.cif.g09.slc.cpg/sg18_1_cif.got.tgz:660.got - 2010.04.10 18:53:55.
