data_PCOD8156415
_publ_section_title
;
Structure prediction by ZEFSAII (Michael W. Deem and Ramdas Pophale) SiO2 
 PCOD8156415
Probable space group: P 21 21 2
;
_chemical_formula_sum "Si O2"
_cell_formula_units_Z 22
_cell_length_a 15.813437
_cell_length_b 5.082498
_cell_length_c 11.130258
_cell_angle_alpha 90.000000
_cell_angle_beta 90.000000
_cell_angle_gamma 90.000000
_cell_volume 894.558446
_symmetry_space_group_name_H-M "P 21 21 2"
_symmetry_group_IT_number 18
_symmetry_cell_setting 'orthorhombic'
loop_
_space_group_symop_operation_xyz
x,y,z
-x,-y,z
1/2+x,1/2-y,-z
1/2-x,1/2+y,-z
loop_
_atom_site_type_symbol
_atom_site_label
_atom_site_fract_x
_atom_site_fract_y
_atom_site_fract_z
Si Si1 0.500000 0.000000 0.146460
Si Si2 0.675582 0.512213 0.888030
Si Si3 0.084744 0.871086 0.672005
Si Si4 0.657799 0.279469 0.134029
Si Si5 0.099805 0.506690 0.230502
Si Si6 0.302745 0.109923 0.523772
O O1 0.436481 0.168567 0.224838
O O2 0.567819 0.177127 0.075101
O O3 0.770944 0.560146 0.840098
O O4 0.616880 0.768006 0.868228
O O5 0.634559 0.268715 0.818608
O O6 0.687884 0.480835 0.031546
O O7 0.127048 0.719690 0.564633
O O8 0.144757 0.087160 0.735613
O O9 0.000000 0.000000 0.618285
O O10 0.153552 0.580406 0.347674
O O11 0.000000 0.500000 0.259106
O O12 0.227654 0.325891 0.524925
#
# Coordination Sequence:
#
# PCOD8156415 Si02
#       6
#     2   4   4   4   4   4
#     4  10  26  44  80 106 150 190 262 320 384 450
#     4  12  28  49  81 112 161 206 254 323 388 474
#     4  10  26  48  75 109 149 197 257 323 377 455
#     4  11  27  49  77 117 150 205 259 325 390 459
#     4  12  30  51  76 114 163 211 261 314 397 480
#     4  12  29  48  79 110 151 205 258 326 383 460
#
# _framework density 24.593136000000001
#
# number of rings (size 3 to 8) (size 9 to 14) (size 15 to 20)
#    0.000    0.727    0.000    3.818   20.364    4.364 
#    0.000    0.000    0.000    0.000    0.000    0.000 
#    0.000    0.000    0.000    0.000    0.000    0.000 
#
# Total GULP energy -272777.098052 kJ/mol
# GULP energy per Si atom -12398.959002 kJ/mol
# Density = 2.453716 g / cm^3
# Si number density = 24.593136 Si / 1000 Ang^3
#
#
#
# Elastic Constant Matrix: (Units=GPa)
#
#
# Indices 1 2 3 4 5 6 
#
# 1 126.8420 39.6457 41.9604 0.0000 0.0000 0.0000
# 2 39.6457 121.8618 19.5390 0.0000 0.0000 0.0000
# 3 41.9604 19.5390 57.5816 0.0000 0.0000 0.0000
# 4 0.0000 0.0000 0.0000 49.0518 0.0000 0.0000
# 5 0.0000 0.0000 0.0000 0.0000 45.7430 0.0000
# 6 0.0000 0.0000 0.0000 0.0000 0.0000 50.8442
#
#
#
# Elastic Compliance Matrix: (Units=1/GPa)
#
#
# Indices 1 2 3 4 5 6 
#
# 1 0.011030 -0.002432 -0.007212 0.000000 0.000000 0.000000
# 2 -0.002432 0.009214 -0.001354 0.000000 0.000000 0.000000
# 3 -0.007212 -0.001354 0.023082 0.000000 0.000000 0.000000
# 4 0.000000 0.000000 0.000000 0.020387 0.000000 0.000000
# 5 0.000000 0.000000 0.000000 0.000000 0.021861 0.000000
# 6 0.000000 0.000000 0.000000 0.000000 0.000000 0.019668
#
#
# Mechanical properties :
#
#
# Convention : Reuss Voigt Hill
#
# Bulk Modulus (GPa) = 46.88533 56.50840 51.69687
# Shear Modulus (GPa) = 37.21644 42.80383 40.01013
#
# Velocity S-wave (km/s) = 3.89432 4.17643 4.03784
# Velocity P-wave (km/s) = 6.27110 6.80323 6.54258
#
# Compressibility (1/GPa) = 0.02132863
#
# Stress axis : x y z
#
# Youngs Moduli (GPa) = 90.66297 108.52581 43.32378
#
# Poissons Ratio (x) = 0.26393 0.31247
# Poissons Ratio (y) = 0.22049 0.05868
# Poissons Ratio (z) = 0.65389 0.14700
#
# Static dielectric constant tensor:
#      x y z
#    x 4.491440 0.000000 0.000000 
#    y 0.000000 4.781690 0.000000 
#    z 0.000000 0.000000 4.296630 
# 
# 
# High freq. dielectric constant tensor:
#      x y z
#    x 2.001800 0.000000 0.000000 
#    y 0.000000 1.995530 0.000000 
#    z 0.000000 0.000000 1.970460 
# 
# From -- ./inp_files/6024.got.cif
#   From: 2010.03.12/outbox.cif.g09.slc.cpg/sg18_4_cif.got.tgz:6024.got - 2010.04.10 18:53:55.
