data_PCOD8156600
_publ_section_title
;
Structure prediction by ZEFSAII (Michael W. Deem and Ramdas Pophale) SiO2 
 PCOD8156600
Probable space group: P 21 21 21
;
_chemical_formula_sum "Si O2"
_cell_formula_units_Z 32
_cell_length_a 14.192515
_cell_length_b 11.341114
_cell_length_c 9.662061
_cell_angle_alpha 90.000000
_cell_angle_beta 90.000000
_cell_angle_gamma 90.000000
_cell_volume 1555.195006
_symmetry_space_group_name_H-M "P 21 21 21"
_symmetry_group_IT_number 19
_symmetry_cell_setting 'orthorhombic'
loop_
_space_group_symop_operation_xyz
x,y,z
1/2-x,-y,1/2+z
1/2+x,1/2-y,-z
-x,1/2+y,1/2-z
loop_
_atom_site_type_symbol
_atom_site_label
_atom_site_fract_x
_atom_site_fract_y
_atom_site_fract_z
Si Si1 0.138394 0.698384 0.390520
Si Si2 0.521852 0.474961 0.846407
Si Si3 0.567541 0.881013 0.083928
Si Si4 0.368867 0.765125 0.692930
Si Si5 0.991773 0.399745 0.064065
Si Si6 0.735435 0.865160 0.867036
Si Si7 0.700613 0.885903 0.329079
Si Si8 0.066432 0.313327 0.488375
O O1 0.098584 0.815798 0.467158
O O2 0.211958 0.721231 0.263855
O O3 0.180959 0.614852 0.507770
O O4 0.054314 0.627174 0.317257
O O5 0.618660 0.398835 0.867538
O O6 0.536931 0.546748 0.709225
O O7 0.490422 0.562402 0.970211
O O8 0.605166 0.890266 0.240355
O O9 0.497089 0.771013 0.082176
O O10 0.654707 0.857944 0.981963
O O11 0.509658 0.001006 0.051416
O O12 0.412991 0.676139 0.579420
O O13 0.259622 0.731227 0.710599
O O14 0.418482 0.750207 0.841825
O O15 0.835566 0.833058 0.932819
O O16 0.737854 0.996699 0.801533
#
# Coordination Sequence:
#
# PCOD8156600 Si02
#       8
#     4   4   4   4   4   4   4   4
#     4  11  23  40  62  98 129 167 217 271 329 392
#     4  10  18  39  64  92 122 170 216 264 318 395
#     4  12  23  41  68  97 131 168 218 282 322 392
#     4  10  19  36  65  93 126 165 219 265 321 393
#     4  10  20  38  66  90 128 168 214 263 336 388
#     4  12  21  42  68  94 129 173 223 273 315 396
#     4  12  24  39  64 100 131 165 222 274 329 385
#     4  11  22  39  67 100 128 172 225 268 328 393
#
# _framework density 20.576197000000001
#
# number of rings (size 3 to 8) (size 9 to 14) (size 15 to 20)
#    0.000    1.000    6.250    3.000    0.000    1.000 
#    2.250    3.750    0.000    0.000    0.000    0.000 
#    0.000    0.000    0.000    0.000    0.000    0.000 
#
# Total GULP energy -396660.373130 kJ/mol
# GULP energy per Si atom -12395.636660 kJ/mol
# Density = 2.052936 g / cm^3
# Si number density = 20.576197 Si / 1000 Ang^3
#
#
#
# Elastic Constant Matrix: (Units=GPa)
#
#
# Indices 1 2 3 4 5 6 
#
# 1 82.6424 44.7128 27.1334 0.0000 0.0000 0.0000
# 2 44.7128 99.3914 20.6050 0.0000 0.0000 0.0000
# 3 27.1334 20.6050 75.6107 0.0000 0.0000 0.0000
# 4 0.0000 0.0000 0.0000 20.4161 0.0000 0.0000
# 5 0.0000 0.0000 0.0000 0.0000 37.4685 0.0000
# 6 0.0000 0.0000 0.0000 0.0000 0.0000 41.5527
#
#
#
# Elastic Compliance Matrix: (Units=1/GPa)
#
#
# Indices 1 2 3 4 5 6 
#
# 1 0.017225 -0.006855 -0.004313 0.000000 0.000000 0.000000
# 2 -0.006855 0.013392 -0.001189 0.000000 0.000000 0.000000
# 3 -0.004313 -0.001189 0.015098 0.000000 0.000000 0.000000
# 4 0.000000 0.000000 0.000000 0.048981 0.000000 0.000000
# 5 0.000000 0.000000 0.000000 0.000000 0.026689 0.000000
# 6 0.000000 0.000000 0.000000 0.000000 0.000000 0.024066
#
#
# Mechanical properties :
#
#
# Convention : Reuss Voigt Hill
#
# Bulk Modulus (GPa) = 47.62101 49.17186 48.39643
# Shear Modulus (GPa) = 28.22221 30.90036 29.56128
#
# Velocity S-wave (km/s) = 3.70752 3.87945 3.79446
# Velocity P-wave (km/s) = 6.44373 6.63447 6.53979
#
# Compressibility (1/GPa) = 0.02099914
#
# Stress axis : x y z
#
# Youngs Moduli (GPa) = 58.05442 74.67374 66.23543
#
# Poissons Ratio (x) = 0.51188 0.28570
# Poissons Ratio (y) = 0.39795 0.07879
# Poissons Ratio (z) = 0.25041 0.08882
#
# Static dielectric constant tensor:
#      x y z
#    x 3.696650 0.000000 0.000000 
#    y 0.000000 3.954620 0.000000 
#    z 0.000000 0.000000 3.477000 
# 
# 
# High freq. dielectric constant tensor:
#      x y z
#    x 1.793130 0.000000 0.000000 
#    y 0.000000 1.802830 0.000000 
#    z 0.000000 0.000000 1.788220 
# 
# From -- ./inp_files/4001.got.cif
#   From: 2010.03.12/outbox.cif.g09.slc.cpg/sg19_3_cif.got.tgz:4001.got - 2010.04.10 18:59:41.
