data_PCOD8156168
_publ_section_title
;
Structure prediction by ZEFSAII (Michael W. Deem and Ramdas Pophale) SiO2 
 PCOD8156168
Probable space group: P 21 21 2
;
_chemical_formula_sum "Si O2"
_cell_formula_units_Z 30
_cell_length_a 11.039930
_cell_length_b 23.078047
_cell_length_c 6.326056
_cell_angle_alpha 90.000000
_cell_angle_beta 90.000000
_cell_angle_gamma 90.000000
_cell_volume 1611.752696
_symmetry_space_group_name_H-M "P 21 21 2"
_symmetry_group_IT_number 18
_symmetry_cell_setting 'orthorhombic'
loop_
_space_group_symop_operation_xyz
x,y,z
-x,-y,z
1/2+x,1/2-y,-z
1/2-x,1/2+y,-z
loop_
_atom_site_type_symbol
_atom_site_label
_atom_site_fract_x
_atom_site_fract_y
_atom_site_fract_z
Si Si1 0.207620 0.160242 0.458954
Si Si2 0.884452 0.248483 0.376166
Si Si3 0.500000 0.315200 0.250000
Si Si4 0.118996 0.557422 0.628997
Si Si5 0.618996 0.057422 0.128997
Si Si6 0.707620 0.660242 0.958954
Si Si7 0.000000 0.500000 0.250000
Si Si8 0.115548 0.248483 0.123834
O O1 0.294947 0.197463 0.608573
O O2 0.086973 0.145965 0.598457
O O3 0.271038 0.102167 0.377477
O O4 0.174435 0.195329 0.249415
O O5 0.917837 0.226980 0.608989
O O6 0.000000 0.272445 0.250000
O O7 0.825566 0.195329 0.250585
O O8 0.413027 0.354035 0.098457
O O9 0.582163 0.273020 0.108989
O O10 0.164781 0.500000 0.750000
O O11 0.084534 0.541336 0.390230
O O12 0.000000 0.582888 0.750000
O O13 0.728962 0.102167 0.122523
O O14 0.584534 0.041336 0.890230
O O15 0.794947 0.697463 0.108573
#
# Coordination Sequence:
#
# PCOD8156168 Si02
#       8
#     4   4   4   4   4   4   2   4
#     4  11  21  37  59  83 126 153 189 244 291 356
#     4  10  22  35  54  88 118 152 189 234 293 354
#     4  10  22  38  52  85 119 158 200 228 292 362
#     4   9  21  37  57  87 118 148 197 249 293 340
#     4   9  21  37  57  87 118 148 197 249 293 340
#     4  11  21  37  59  83 126 153 189 244 291 356
#     4   8  18  40  56  92 108 148 198 236 300 350
#     4  10  22  35  54  88 118 152 189 234 293 354
#
# _framework density 18.613277
#
# number of rings (size 3 to 8) (size 9 to 14) (size 15 to 20)
#    0.000    2.400    2.667    0.000    3.733    4.267 
#    0.000    0.000    0.000   19.200    0.000    0.000 
#    0.000    0.000    0.000    0.000    0.000    0.000 
#
# Total GULP energy -371956.512327 kJ/mol
# GULP energy per Si atom -12398.550411 kJ/mol
# Density = 1.857091 g / cm^3
# Si number density = 18.613277 Si / 1000 Ang^3
#
#
#
# Elastic Constant Matrix: (Units=GPa)
#
#
# Indices 1 2 3 4 5 6 
#
# 1 109.7329 65.5062 40.6830 0.0000 0.0000 0.0000
# 2 65.5062 99.6334 42.5891 0.0000 0.0000 0.0000
# 3 40.6830 42.5891 108.4364 0.0000 0.0000 0.0000
# 4 0.0000 0.0000 0.0000 17.1921 0.0000 0.0000
# 5 0.0000 0.0000 0.0000 0.0000 34.6410 0.0000
# 6 0.0000 0.0000 0.0000 0.0000 0.0000 18.9762
#
#
#
# Elastic Compliance Matrix: (Units=1/GPa)
#
#
# Indices 1 2 3 4 5 6 
#
# 1 0.015413 -0.009207 -0.002166 0.000000 0.000000 0.000000
# 2 -0.009207 0.017562 -0.003443 0.000000 0.000000 0.000000
# 3 -0.002166 -0.003443 0.011387 0.000000 0.000000 0.000000
# 4 0.000000 0.000000 0.000000 0.058166 0.000000 0.000000
# 5 0.000000 0.000000 0.000000 0.000000 0.028868 0.000000
# 6 0.000000 0.000000 0.000000 0.000000 0.000000 0.052698
#
#
# Mechanical properties :
#
#
# Convention : Reuss Voigt Hill
#
# Bulk Modulus (GPa) = 67.89706 68.37324 68.13515
# Shear Modulus (GPa) = 22.86902 25.43015 24.14959
#
# Velocity S-wave (km/s) = 3.50900 3.70027 3.60591
# Velocity P-wave (km/s) = 7.27835 7.42087 7.34996
#
# Compressibility (1/GPa) = 0.01472818
#
# Stress axis : x y z
#
# Youngs Moduli (GPa) = 64.88202 56.94030 87.81883
#
# Poissons Ratio (x) = 0.52427 0.19023
# Poissons Ratio (y) = 0.59739 0.30239
# Poissons Ratio (z) = 0.14055 0.19606
#
# Static dielectric constant tensor:
#      x y z
#    x 3.581750 0.000000 0.000000 
#    y 0.000000 3.017210 0.000000 
#    z 0.000000 0.000000 3.604710 
# 
# 
# High freq. dielectric constant tensor:
#      x y z
#    x 1.726470 0.000000 0.000000 
#    y 0.000000 1.684730 0.000000 
#    z 0.000000 0.000000 1.743770 
# 
# From -- ./inp_files/1254.got.cif
#   From: 2010.03.12/outbox.cif.g09.slc.cpg/sg18_1_cif.got.tgz:1254.got - 2010.04.10 18:53:55.
