data_PCOD8156881
_publ_section_title
;
Structure prediction by ZEFSAII (Michael W. Deem and Ramdas Pophale) SiO2 
 PCOD8156881
Probable space group: P 21 21 21
;
_chemical_formula_sum "Si O2"
_cell_formula_units_Z 32
_cell_length_a 15.919333
_cell_length_b 8.974363
_cell_length_c 10.793823
_cell_angle_alpha 90.000000
_cell_angle_beta 90.000000
_cell_angle_gamma 90.000000
_cell_volume 1542.068947
_symmetry_space_group_name_H-M "P 21 21 21"
_symmetry_group_IT_number 19
_symmetry_cell_setting 'orthorhombic'
loop_
_space_group_symop_operation_xyz
x,y,z
1/2-x,-y,1/2+z
1/2+x,1/2-y,-z
-x,1/2+y,1/2-z
loop_
_atom_site_type_symbol
_atom_site_label
_atom_site_fract_x
_atom_site_fract_y
_atom_site_fract_z
Si Si1 0.218611 0.255088 0.701686
Si Si2 0.040625 0.230943 0.793885
Si Si3 0.989734 0.596180 0.152203
Si Si4 0.896620 0.140014 0.960124
Si Si5 0.351274 0.683952 0.942322
Si Si6 0.050241 0.548532 0.892826
Si Si7 0.392510 0.189359 0.797099
Si Si8 0.214125 0.589315 0.766262
O O1 0.141204 0.201122 0.790020
O O2 0.194772 0.235210 0.557369
O O3 0.301796 0.161641 0.734248
O O4 0.243237 0.425420 0.727610
O O5 0.024117 0.406337 0.810254
O O6 0.991481 0.143615 0.903540
O O7 0.004008 0.186776 0.659389
O O8 0.929824 0.721949 0.099862
O O9 0.941593 0.465169 0.224663
O O10 0.057962 0.670661 0.240655
O O11 0.036346 0.518835 0.036942
O O12 0.829016 0.171252 0.850867
O O13 0.882062 0.273040 0.057485
O O14 0.882131 0.979513 0.019617
O O15 0.292501 0.679491 0.820505
O O16 0.148587 0.580333 0.879238
#
# Coordination Sequence:
#
# PCOD8156881 Si02
#       8
#     4   4   4   4   4   4   4   4
#     4  10  21  40  69  95 132 166 227 280 329 407
#     4  10  20  40  68  99 130 172 222 273 339 395
#     4  12  26  44  67  90 140 176 220 282 341 406
#     4  10  21  41  69  95 134 173 227 273 334 416
#     4  11  21  44  66  99 130 175 225 279 340 407
#     4  10  20  40  67  96 128 175 219 276 332 399
#     4  12  25  46  63  99 133 180 221 283 337 411
#     4   9  20  37  69  97 123 177 219 270 336 407
#
# _framework density 20.751342000000001
#
# number of rings (size 3 to 8) (size 9 to 14) (size 15 to 20)
#    0.000    1.500    3.750    2.250    0.000    0.000 
#    9.000    1.250    0.000    0.000    0.000    0.000 
#    0.000    0.000    0.000    0.000    0.000    0.000 
#
# Total GULP energy -396787.265412 kJ/mol
# GULP energy per Si atom -12399.602044 kJ/mol
# Density = 2.070411 g / cm^3
# Si number density = 20.751342 Si / 1000 Ang^3
#
#
#
# Elastic Constant Matrix: (Units=GPa)
#
#
# Indices 1 2 3 4 5 6 
#
# 1 95.4510 22.7509 47.3667 0.0000 0.0000 0.0000
# 2 22.7509 48.1093 17.6454 0.0000 0.0000 0.0000
# 3 47.3667 17.6454 88.4895 0.0000 0.0000 0.0000
# 4 0.0000 0.0000 0.0000 26.1112 0.0000 0.0000
# 5 0.0000 0.0000 0.0000 0.0000 34.5869 0.0000
# 6 0.0000 0.0000 0.0000 0.0000 0.0000 30.1017
#
#
#
# Elastic Compliance Matrix: (Units=1/GPa)
#
#
# Indices 1 2 3 4 5 6 
#
# 1 0.015123 -0.004513 -0.007195 0.000000 0.000000 0.000000
# 2 -0.004513 0.023773 -0.002325 0.000000 0.000000 0.000000
# 3 -0.007195 -0.002325 0.015616 0.000000 0.000000 0.000000
# 4 0.000000 0.000000 0.000000 0.038298 0.000000 0.000000
# 5 0.000000 0.000000 0.000000 0.000000 0.028913 0.000000
# 6 0.000000 0.000000 0.000000 0.000000 0.000000 0.033221
#
#
# Mechanical properties :
#
#
# Convention : Reuss Voigt Hill
#
# Bulk Modulus (GPa) = 37.81284 45.28621 41.54952
# Shear Modulus (GPa) = 26.06575 27.77908 26.92241
#
# Velocity S-wave (km/s) = 3.54799 3.66275 3.60583
# Velocity P-wave (km/s) = 5.91995 6.30541 6.11572
#
# Compressibility (1/GPa) = 0.02644604
#
# Stress axis : x y z
#
# Youngs Moduli (GPa) = 66.12612 42.06502 64.03791
#
# Poissons Ratio (x) = 0.18982 0.46075
# Poissons Ratio (y) = 0.29840 0.14889
# Poissons Ratio (z) = 0.47578 0.09780
#
# Static dielectric constant tensor:
#      x y z
#    x 3.821650 0.000000 0.000000 
#    y 0.000000 3.527670 0.000000 
#    z 0.000000 0.000000 3.869710 
# 
# 
# High freq. dielectric constant tensor:
#      x y z
#    x 1.817320 0.000000 0.000000 
#    y 0.000000 1.791390 0.000000 
#    z 0.000000 0.000000 1.814760 
# 
# From -- ./inp_files/5262.got.cif
#   From: 2010.03.12/outbox.cif.g09.slc.cpg/sg19_3_cif.got.tgz:5262.got - 2010.04.10 18:59:41.
