data_PCOD8156557
_publ_section_title
;
Structure prediction by ZEFSAII (Michael W. Deem and Ramdas Pophale) SiO2 
 PCOD8156557
Probable space group: P 21 21 21
;
_chemical_formula_sum "Si O2"
_cell_formula_units_Z 28
_cell_length_a 32.553125
_cell_length_b 8.726551
_cell_length_c 4.953669
_cell_angle_alpha 90.000000
_cell_angle_beta 90.000000
_cell_angle_gamma 90.000000
_cell_volume 1407.220979
_symmetry_space_group_name_H-M "P 21 21 21"
_symmetry_group_IT_number 19
_symmetry_cell_setting 'orthorhombic'
loop_
_space_group_symop_operation_xyz
x,y,z
1/2-x,-y,1/2+z
1/2+x,1/2-y,-z
-x,1/2+y,1/2-z
loop_
_atom_site_type_symbol
_atom_site_label
_atom_site_fract_x
_atom_site_fract_y
_atom_site_fract_z
Si Si1 0.919573 0.254222 0.428184
Si Si2 0.421695 0.759160 0.035596
Si Si3 0.837114 0.391568 0.563614
Si Si4 0.948467 0.077266 0.930467
Si Si5 0.543487 0.420255 0.958485
Si Si6 0.662479 0.397808 0.562834
Si Si7 0.249784 0.099716 0.551323
O O1 0.872104 0.265023 0.518090
O O2 0.937814 0.420079 0.355679
O O3 0.946790 0.179600 0.663058
O O4 0.920697 0.150687 0.162977
O O5 0.431216 0.589819 0.140191
O O6 0.437295 0.882647 0.251826
O O7 0.372830 0.774608 0.994783
O O8 0.445129 0.788534 0.754820
O O9 0.840702 0.455283 0.866136
O O10 0.792326 0.310457 0.515285
O O11 0.842525 0.537312 0.364518
O O12 0.994904 0.066784 0.028270
O O13 0.707015 0.313460 0.522218
O O14 0.250638 0.945434 0.365969
#
# Coordination Sequence:
#
# PCOD8156557 Si02
#       7
#     4   4   4   4   4   4   4
#     4  12  23  40  60  82 115 149 191 237 281 341
#     4  12  23  40  60  83 115 148 190 237 282 341
#     4  10  18  34  55  85 110 143 186 229 279 326
#     4  12  26  38  55  84 115 150 187 236 293 329
#     4  12  23  41  60  79 107 153 198 237 273 333
#     4  10  17  34  56  85 110 143 186 228 281 328
#     4   8  16  27  52  82 112 134 176 236 271 320
#
# _framework density 19.897373999999999
#
# number of rings (size 3 to 8) (size 9 to 14) (size 15 to 20)
#    0.000    1.143    2.857    5.143    0.000    0.000 
#    0.000    0.000    0.000    1.714    0.000    0.000 
#    0.000    0.000    0.000    0.000    0.000    0.000 
#
# Total GULP energy -347234.405179 kJ/mol
# GULP energy per Si atom -12401.228756 kJ/mol
# Density = 1.985209 g / cm^3
# Si number density = 19.897374 Si / 1000 Ang^3
#
#
#
# Elastic Constant Matrix: (Units=GPa)
#
#
# Indices 1 2 3 4 5 6 
#
# 1 120.7405 28.6867 -7.9316 0.0000 0.0000 0.0000
# 2 28.6867 55.7517 7.0038 0.0000 0.0000 0.0000
# 3 -7.9316 7.0038 76.0333 0.0000 0.0000 0.0000
# 4 0.0000 0.0000 0.0000 19.3275 0.0000 0.0000
# 5 0.0000 0.0000 0.0000 0.0000 28.2925 0.0000
# 6 0.0000 0.0000 0.0000 0.0000 0.0000 3.4601
#
#
#
# Elastic Compliance Matrix: (Units=1/GPa)
#
#
# Indices 1 2 3 4 5 6 
#
# 1 0.009596 -0.005123 0.001473 0.000000 0.000000 0.000000
# 2 -0.005123 0.020881 -0.002458 0.000000 0.000000 0.000000
# 3 0.001473 -0.002458 0.013532 0.000000 0.000000 0.000000
# 4 0.000000 0.000000 0.000000 0.051740 0.000000 0.000000
# 5 0.000000 0.000000 0.000000 0.000000 0.035345 0.000000
# 6 0.000000 0.000000 0.000000 0.000000 0.000000 0.289009
#
#
# Mechanical properties :
#
#
# Convention : Reuss Voigt Hill
#
# Bulk Modulus (GPa) = 31.45212 34.22703 32.83958
# Shear Modulus (GPa) = 11.28880 25.20046 18.24463
#
# Velocity S-wave (km/s) = 2.38450 3.56268 3.03138
# Velocity P-wave (km/s) = 4.83969 5.84489 5.36588
#
# Compressibility (1/GPa) = 0.03179436
#
# Stress axis : x y z
#
# Youngs Moduli (GPa) = 104.20934 47.88980 73.89789
#
# Poissons Ratio (x) = 0.24532 -0.10884
# Poissons Ratio (y) = 0.53383 0.18163
# Poissons Ratio (z) = -0.15349 0.11771
#
# Static dielectric constant tensor:
#      x y z
#    x 4.136830 0.000000 0.000000 
#    y 0.000000 3.103600 0.000000 
#    z 0.000000 0.000000 3.782040 
# 
# 
# High freq. dielectric constant tensor:
#      x y z
#    x 1.803660 0.000000 0.000000 
#    y 0.000000 1.710950 0.000000 
#    z 0.000000 0.000000 1.798420 
# 
# From -- ./inp_files/2299.got.cif
#   From: 2010.03.12/outbox.cif.g09.slc.cpg/sg19_2_cif.got.tgz:2299.got - 2010.04.10 18:59:41.
