data_PCOD8156874
_publ_section_title
;
Structure prediction by ZEFSAII (Michael W. Deem and Ramdas Pophale) SiO2 
 PCOD8156874
Probable space group: P 21 21 21
;
_chemical_formula_sum "Si O2"
_cell_formula_units_Z 32
_cell_length_a 11.630943
_cell_length_b 9.099755
_cell_length_c 14.189353
_cell_angle_alpha 90.000000
_cell_angle_beta 90.000000
_cell_angle_gamma 90.000000
_cell_volume 1501.783125
_symmetry_space_group_name_H-M "P 21 21 21"
_symmetry_group_IT_number 19
_symmetry_cell_setting 'orthorhombic'
loop_
_space_group_symop_operation_xyz
x,y,z
1/2-x,-y,1/2+z
1/2+x,1/2-y,-z
-x,1/2+y,1/2-z
loop_
_atom_site_type_symbol
_atom_site_label
_atom_site_fract_x
_atom_site_fract_y
_atom_site_fract_z
Si Si1 0.095322 0.011614 0.565567
Si Si2 0.163136 0.843173 0.871718
Si Si3 0.359875 0.981678 0.551388
Si Si4 0.532494 0.079232 0.709345
Si Si5 0.988015 0.543137 0.734714
Si Si6 0.079177 0.271109 0.922860
Si Si7 0.082477 0.098891 0.359268
Si Si8 0.210091 0.520374 0.826078
O O1 0.229924 0.997886 0.586064
O O2 0.040413 0.089913 0.657174
O O3 0.063164 0.105771 0.472374
O O4 0.040673 0.850008 0.552893
O O5 0.281674 0.925793 0.843973
O O6 0.189169 0.671836 0.881949
O O7 0.071632 0.885728 0.789856
O O8 0.113096 0.898738 0.971038
O O9 0.447631 0.002964 0.635814
O O10 0.376983 0.816950 0.513089
O O11 0.537165 0.253343 0.691540
O O12 0.483305 0.040353 0.813108
O O13 0.658100 0.005649 0.703551
O O14 0.941138 0.663516 0.664475
O O15 0.126723 0.520441 0.733250
O O16 0.178023 0.387393 0.895599
#
# Coordination Sequence:
#
# PCOD8156874 Si02
#       8
#     4   4   4   4   4   4   4   4
#     4  10  22  42  65  91 128 166 216 258 323 366
#     4   9  20  42  65  90 130 162 216 255 316 378
#     4  10  23  39  65  93 126 175 205 258 315 387
#     4  11  25  41  63  93 130 171 211 258 328 368
#     4  10  20  40  65  91 125 168 208 256 320 372
#     4  10  23  39  68  97 124 163 214 264 308 384
#     4  10  24  43  63  91 128 171 212 270 307 391
#     4  10  21  38  62  96 127 160 210 269 303 372
#
# _framework density 21.308005000000001
#
# number of rings (size 3 to 8) (size 9 to 14) (size 15 to 20)
#    0.000    2.000    0.000    2.250    7.000    4.000 
#    0.000    1.250    0.000    0.000    0.000    0.000 
#    0.000    0.000    0.000    0.000    0.000    0.000 
#
# Total GULP energy -396743.830718 kJ/mol
# GULP energy per Si atom -12398.244710 kJ/mol
# Density = 2.125951 g / cm^3
# Si number density = 21.308005 Si / 1000 Ang^3
#
#
#
# Elastic Constant Matrix: (Units=GPa)
#
#
# Indices 1 2 3 4 5 6 
#
# 1 134.9953 24.4832 48.1822 0.0000 0.0000 0.0000
# 2 24.4832 70.6288 20.2933 0.0000 0.0000 0.0000
# 3 48.1822 20.2933 86.2232 0.0000 0.0000 0.0000
# 4 0.0000 0.0000 0.0000 28.5796 0.0000 0.0000
# 5 0.0000 0.0000 0.0000 0.0000 25.7786 0.0000
# 6 0.0000 0.0000 0.0000 0.0000 0.0000 33.9188
#
#
#
# Elastic Compliance Matrix: (Units=1/GPa)
#
#
# Indices 1 2 3 4 5 6 
#
# 1 0.009483 -0.001893 -0.004854 0.000000 0.000000 0.000000
# 2 -0.001893 0.015563 -0.002605 0.000000 0.000000 0.000000
# 3 -0.004854 -0.002605 0.014923 0.000000 0.000000 0.000000
# 4 0.000000 0.000000 0.000000 0.034990 0.000000 0.000000
# 5 0.000000 0.000000 0.000000 0.000000 0.038792 0.000000
# 6 0.000000 0.000000 0.000000 0.000000 0.000000 0.029482
#
#
# Mechanical properties :
#
#
# Convention : Reuss Voigt Hill
#
# Bulk Modulus (GPa) = 47.02307 53.08496 50.05402
# Shear Modulus (GPa) = 29.58115 30.91463 30.24789
#
# Velocity S-wave (km/s) = 3.72998 3.81313 3.77179
# Velocity P-wave (km/s) = 6.37703 6.65987 6.51998
#
# Compressibility (1/GPa) = 0.02126616
#
# Stress axis : x y z
#
# Youngs Moduli (GPa) = 105.44751 64.25417 67.00896
#
# Poissons Ratio (x) = 0.12162 0.32526
# Poissons Ratio (y) = 0.19959 0.17457
# Poissons Ratio (z) = 0.51183 0.16740
#
# Static dielectric constant tensor:
#      x y z
#    x 4.097200 0.000000 0.000000 
#    y 0.000000 3.866620 0.000000 
#    z 0.000000 0.000000 3.794510 
# 
# 
# High freq. dielectric constant tensor:
#      x y z
#    x 1.846860 0.000000 0.000000 
#    y 0.000000 1.834690 0.000000 
#    z 0.000000 0.000000 1.826650 
# 
# From -- ./inp_files/6167.got.cif
#   From: 2010.03.12/outbox.cif.g09.slc.cpg/sg19_4_cif.got.tgz:6167.got - 2010.04.10 18:59:41.
