data_PCOD8156656
_publ_section_title
;
Structure prediction by ZEFSAII (Michael W. Deem and Ramdas Pophale) SiO2 
 PCOD8156656
Probable space group: P 21 21 21
;
_chemical_formula_sum "Si O2"
_cell_formula_units_Z 28
_cell_length_a 16.058532
_cell_length_b 5.276413
_cell_length_c 14.284379
_cell_angle_alpha 90.000000
_cell_angle_beta 90.000000
_cell_angle_gamma 90.000000
_cell_volume 1210.336102
_symmetry_space_group_name_H-M "P 21 21 21"
_symmetry_group_IT_number 19
_symmetry_cell_setting 'orthorhombic'
loop_
_space_group_symop_operation_xyz
x,y,z
1/2-x,-y,1/2+z
1/2+x,1/2-y,-z
-x,1/2+y,1/2-z
loop_
_atom_site_type_symbol
_atom_site_label
_atom_site_fract_x
_atom_site_fract_y
_atom_site_fract_z
Si Si1 0.951258 0.278012 0.268579
Si Si2 0.638752 0.768700 0.589561
Si Si3 0.428793 0.264932 0.240927
Si Si4 0.296077 0.770517 0.996944
Si Si5 0.018146 0.239144 0.959978
Si Si6 0.894565 0.735161 0.812445
Si Si7 0.895812 0.236002 0.478154
O O1 0.870623 0.254872 0.201636
O O2 0.929919 0.216478 0.374334
O O3 0.982777 0.566279 0.263373
O O4 0.695982 0.538598 0.554517
O O5 0.547512 0.750613 0.544415
O O6 0.680672 0.039025 0.570197
O O7 0.468328 0.265253 0.136817
O O8 0.502954 0.265098 0.316908
O O9 0.369557 0.513642 0.247029
O O10 0.369550 0.016107 0.247116
O O11 0.359697 0.764013 0.084010
O O12 0.203206 0.739278 0.032132
O O13 0.076550 0.487534 0.964387
O O14 0.074215 0.987600 0.968496
#
# Coordination Sequence:
#
# PCOD8156656 Si02
#       7
#     4   4   4   4   4   4   4
#     4  12  23  42  70  99 126 167 227 278 320 387
#     4  12  23  41  73  92 125 173 225 256 330 398
#     4  10  20  33  63  90 111 153 215 251 291 365
#     4  12  24  43  61  93 134 174 203 271 343 388
#     4  12  21  41  68  92 124 167 219 271 306 392
#     4  10  19  36  58  87 119 157 197 253 307 369
#     4  12  26  42  63  95 135 165 212 278 329 381
#
# _framework density 23.134067999999999
#
# number of rings (size 3 to 8) (size 9 to 14) (size 15 to 20)
#    0.000    0.571    5.714    3.429    0.000    0.000 
#    5.143    0.000    0.000    0.000    0.000    0.000 
#    0.000    0.000    0.000    0.000    0.000    0.000 
#
# Total GULP energy -347055.826400 kJ/mol
# GULP energy per Si atom -12394.850943 kJ/mol
# Density = 2.308141 g / cm^3
# Si number density = 23.134068 Si / 1000 Ang^3
#
#
#
# Elastic Constant Matrix: (Units=GPa)
#
#
# Indices 1 2 3 4 5 6 
#
# 1 54.5824 27.8541 31.2976 0.0000 0.0000 0.0000
# 2 27.8541 192.0384 -6.5925 0.0000 0.0000 0.0000
# 3 31.2976 -6.5925 66.1337 0.0000 0.0000 0.0000
# 4 0.0000 0.0000 0.0000 24.7668 0.0000 0.0000
# 5 0.0000 0.0000 0.0000 0.0000 14.4292 0.0000
# 6 0.0000 0.0000 0.0000 0.0000 0.0000 22.8198
#
#
#
# Elastic Compliance Matrix: (Units=1/GPa)
#
#
# Indices 1 2 3 4 5 6 
#
# 1 0.028770 -0.004656 -0.014080 0.000000 0.000000 0.000000
# 2 -0.004656 0.005979 0.002800 0.000000 0.000000 0.000000
# 3 -0.014080 0.002800 0.022063 0.000000 0.000000 0.000000
# 4 0.000000 0.000000 0.000000 0.040377 0.000000 0.000000
# 5 0.000000 0.000000 0.000000 0.000000 0.069304 0.000000
# 6 0.000000 0.000000 0.000000 0.000000 0.000000 0.043822
#
#
# Mechanical properties :
#
#
# Convention : Reuss Voigt Hill
#
# Bulk Modulus (GPa) = 40.09707 46.43030 43.26369
# Shear Modulus (GPa) = 19.96004 29.74951 24.85477
#
# Velocity S-wave (km/s) = 2.94053 3.58992 3.28133
# Velocity P-wave (km/s) = 5.37578 6.10713 5.75309
#
# Compressibility (1/GPa) = 0.02493948
#
# Stress axis : x y z
#
# Youngs Moduli (GPa) = 34.75795 167.25841 45.32449
#
# Poissons Ratio (x) = 0.77881 0.63815
# Poissons Ratio (y) = 0.16184 -0.12689
# Poissons Ratio (z) = 0.48938 -0.46825
#
# Static dielectric constant tensor:
#      x y z
#    x 4.032960 0.000000 0.000000 
#    y 0.000000 5.411120 0.000000 
#    z 0.000000 0.000000 4.238730 
# 
# 
# High freq. dielectric constant tensor:
#      x y z
#    x 1.867320 0.000000 0.000000 
#    y 0.000000 1.958730 0.000000 
#    z 0.000000 0.000000 1.920540 
# 
# From -- ./inp_files/1513.got.cif
#   From: 2010.03.12/outbox.cif.g09.slc.cpg/sg19_1_cif.got.tgz:1513.got - 2010.04.10 18:59:41.
