data_PCOD8156524
_publ_section_title
;
Structure prediction by ZEFSAII (Michael W. Deem and Ramdas Pophale) SiO2 
 PCOD8156524
Probable space group: P 21 21 2
;
_chemical_formula_sum "Si O2"
_cell_formula_units_Z 18
_cell_length_a 5.664138
_cell_length_b 11.077068
_cell_length_c 11.967478
_cell_angle_alpha 90.000000
_cell_angle_beta 90.000000
_cell_angle_gamma 90.000000
_cell_volume 750.864005
_symmetry_space_group_name_H-M "P 21 21 2"
_symmetry_group_IT_number 18
_symmetry_cell_setting 'orthorhombic'
loop_
_space_group_symop_operation_xyz
x,y,z
-x,-y,z
1/2+x,1/2-y,-z
1/2-x,1/2+y,-z
loop_
_atom_site_type_symbol
_atom_site_label
_atom_site_fract_x
_atom_site_fract_y
_atom_site_fract_z
Si Si1 0.110406 0.626472 0.562182
Si Si2 0.500000 0.500000 0.174075
Si Si3 0.924012 0.869817 0.243376
Si Si4 0.767993 0.810265 0.671743
Si Si5 0.311383 0.273115 0.062258
O O1 0.362114 0.622533 0.624627
O O2 0.109613 0.637759 0.428955
O O3 0.000000 0.500000 0.598139
O O4 0.981367 0.742301 0.612532
O O5 0.334996 0.576530 0.254385
O O6 0.336838 0.412918 0.098455
O O7 0.708746 0.816183 0.169312
O O8 0.141327 0.777538 0.239556
O O9 0.000000 0.000000 0.194894
O O10 0.559535 0.238183 0.002262
#
# Coordination Sequence:
#
# PCOD8156524 Si02
#       5
#     4   2   4   4   4
#     4  12  26  44  75 114 163 215 267 322 403 495
#     4  12  30  56  84 118 164 208 278 348 414 504
#     4  12  27  51  78 112 160 211 269 336 411 488
#     4  12  27  47  75 119 160 216 264 326 409 491
#     4  12  31  59  86 121 156 216 282 353 422 479
#
# _framework density 23.972382
#
# number of rings (size 3 to 8) (size 9 to 14) (size 15 to 20)
#    0.000    0.000    6.667    1.333    9.333    2.667 
#    4.000    0.000    0.000    0.000    0.000    0.000 
#    0.000    0.000    0.000    0.000    0.000    0.000 
#
# Total GULP energy -223108.528545 kJ/mol
# GULP energy per Si atom -12394.918253 kJ/mol
# Density = 2.391782 g / cm^3
# Si number density = 23.972382 Si / 1000 Ang^3
#
#
#
# Elastic Constant Matrix: (Units=GPa)
#
#
# Indices 1 2 3 4 5 6 
#
# 1 127.5350 67.9168 64.2144 0.0000 0.0000 0.0000
# 2 67.9168 202.2448 69.8478 0.0000 0.0000 0.0000
# 3 64.2144 69.8478 123.5512 0.0000 0.0000 0.0000
# 4 0.0000 0.0000 0.0000 37.4618 0.0000 0.0000
# 5 0.0000 0.0000 0.0000 0.0000 -82.7707 0.0000
# 6 0.0000 0.0000 0.0000 0.0000 0.0000 53.4213
#
#
#
# Elastic Compliance Matrix: (Units=1/GPa)
#
#
# Indices 1 2 3 4 5 6 
#
# 1 0.011361 -0.002207 -0.004657 0.000000 0.000000 0.000000
# 2 -0.002207 0.006573 -0.002569 0.000000 0.000000 0.000000
# 3 -0.004657 -0.002569 0.011967 0.000000 0.000000 0.000000
# 4 0.000000 0.000000 0.000000 0.026694 0.000000 0.000000
# 5 0.000000 0.000000 0.000000 0.000000 -0.012082 0.000000
# 6 0.000000 0.000000 0.000000 0.000000 0.000000 0.018719
#
#
# Mechanical properties :
#
#
# Convention : Reuss Voigt Hill
#
# Bulk Modulus (GPa) = 90.62298 95.25432 92.93865
# Shear Modulus (GPa) = 58.29143 18.37930 38.33537
#
# Velocity S-wave (km/s) = 4.93648 2.77191 4.00327
# Velocity P-wave (km/s) = 8.38910 7.07573 7.76025
#
# Compressibility (1/GPa) = 0.01103473
#
# Stress axis : x y z
#
# Youngs Moduli (GPa) = 88.01951 152.14295 83.56577
#
# Poissons Ratio (x) = 0.33575 0.38919
# Poissons Ratio (y) = 0.19424 0.21467
# Poissons Ratio (z) = 0.40993 0.39083
#
# Static dielectric constant tensor:
#      x y z
#    x 4.425170 0.000000 0.000000 
#    y 0.000000 5.340790 0.000000 
#    z 0.000000 0.000000 4.709060 
# 
# 
# High freq. dielectric constant tensor:
#      x y z
#    x 1.947240 0.000000 0.000000 
#    y 0.000000 1.968180 0.000000 
#    z 0.000000 0.000000 1.963630 
# 
# From -- ./inp_files/5005.got.cif
#   From: 2010.03.12/outbox.cif.g09.slc.cpg/sg18_3_cif.got.tgz:5005.got - 2010.04.10 18:53:55.
