data_PCOD8156084
_publ_section_title
;
Structure prediction by ZEFSAII (Michael W. Deem and Ramdas Pophale) SiO2 
 PCOD8156084
Probable space group: P 21 21 2
;
_chemical_formula_sum "Si O2"
_cell_formula_units_Z 18
_cell_length_a 4.932510
_cell_length_b 12.535103
_cell_length_c 11.679474
_cell_angle_alpha 90.000000
_cell_angle_beta 90.000000
_cell_angle_gamma 90.000000
_cell_volume 722.136282
_symmetry_space_group_name_H-M "P 21 21 2"
_symmetry_group_IT_number 18
_symmetry_cell_setting 'orthorhombic'
loop_
_space_group_symop_operation_xyz
x,y,z
-x,-y,z
1/2+x,1/2-y,-z
1/2-x,1/2+y,-z
loop_
_atom_site_type_symbol
_atom_site_label
_atom_site_fract_x
_atom_site_fract_y
_atom_site_fract_z
Si Si1 0.935759 0.885415 0.030581
Si Si2 0.699011 0.415236 0.303508
Si Si3 0.997755 0.274019 0.571302
Si Si4 0.935932 0.661480 0.114624
Si Si5 0.000000 0.500000 0.513444
O O1 0.128554 0.867080 0.918993
O O2 0.629648 0.884582 0.984833
O O3 0.977009 0.790263 0.122409
O O4 0.000000 0.000000 0.088548
O O5 0.500000 0.500000 0.240553
O O6 0.552814 0.299423 0.317475
O O7 0.978519 0.395453 0.233492
O O8 0.758164 0.463104 0.429136
O O9 0.184796 0.240102 0.463514
O O10 0.066729 0.399145 0.595627
#
# Coordination Sequence:
#
# PCOD8156084 Si02
#       5
#     4   4   4   4   2
#     4  10  21  40  61  85 128 159 193 249 314 362
#     4  11  22  37  63  95 121 156 214 257 291 369
#     4  10  21  38  59  87 124 161 194 250 315 351
#     4  10  23  36  62  94 116 160 206 248 300 364
#     4  10  22  38  62  88 126 158 206 246 316 352
#
# _framework density 24.926041000000001
#
# number of rings (size 3 to 8) (size 9 to 14) (size 15 to 20)
#    0.000    1.778    2.222    1.333    6.222    0.000 
#    0.000    0.000   34.222    0.000    0.000    0.000 
#    0.000    0.000    0.000    0.000    0.000    0.000 
#
# Total GULP energy -223118.104399 kJ/mol
# GULP energy per Si atom -12395.450244 kJ/mol
# Density = 2.486931 g / cm^3
# Si number density = 24.926041 Si / 1000 Ang^3
#
#
#
# Elastic Constant Matrix: (Units=GPa)
#
#
# Indices 1 2 3 4 5 6 
#
# 1 61.1095 4.3799 -0.4829 0.0000 0.0000 0.0000
# 2 4.3799 218.5918 20.6037 0.0000 0.0000 0.0000
# 3 -0.4829 20.6037 39.0054 0.0000 0.0000 0.0000
# 4 0.0000 0.0000 0.0000 26.8044 0.0000 0.0000
# 5 0.0000 0.0000 0.0000 0.0000 21.2214 0.0000
# 6 0.0000 0.0000 0.0000 0.0000 0.0000 34.9871
#
#
#
# Elastic Compliance Matrix: (Units=1/GPa)
#
#
# Indices 1 2 3 4 5 6 
#
# 1 0.016393 -0.000366 0.000396 0.000000 0.000000 0.000000
# 2 -0.000366 0.004823 -0.002552 0.000000 0.000000 0.000000
# 3 0.000396 -0.002552 0.026990 0.000000 0.000000 0.000000
# 4 0.000000 0.000000 0.000000 0.037307 0.000000 0.000000
# 5 0.000000 0.000000 0.000000 0.000000 0.047122 0.000000
# 6 0.000000 0.000000 0.000000 0.000000 0.000000 0.028582
#
#
# Mechanical properties :
#
#
# Convention : Reuss Voigt Hill
#
# Bulk Modulus (GPa) = 23.16787 40.85645 32.01216
# Shear Modulus (GPa) = 27.67802 36.21632 31.94717
#
# Velocity S-wave (km/s) = 3.33589 3.81590 3.58394
# Velocity P-wave (km/s) = 4.91451 5.98677 5.47694
#
# Compressibility (1/GPa) = 0.04316322
#
# Stress axis : x y z
#
# Youngs Moduli (GPa) = 61.00011 207.35689 37.05022
#
# Poissons Ratio (x) = 0.07585 -0.01468
# Poissons Ratio (y) = 0.02231 0.09455
# Poissons Ratio (z) = -0.02417 0.52916
#
# Static dielectric constant tensor:
#      x y z
#    x 4.451350 0.000000 0.000000 
#    y 0.000000 5.237380 0.000000 
#    z 0.000000 0.000000 3.648670 
# 
# 
# High freq. dielectric constant tensor:
#      x y z
#    x 2.002700 0.000000 0.000000 
#    y 0.000000 2.026550 0.000000 
#    z 0.000000 0.000000 1.915420 
# 
# From -- ./inp_files/5006.got.cif
#   From: 2010.03.12/outbox.cif.g09.slc.cpg/sg18_3_cif.got.tgz:5006.got - 2010.04.10 18:53:55.
