data_PCOD8156154
_publ_section_title
;
Structure prediction by ZEFSAII (Michael W. Deem and Ramdas Pophale) SiO2 
 PCOD8156154
Probable space group: P 21 21 2
;
_chemical_formula_sum "Si O2"
_cell_formula_units_Z 24
_cell_length_a 8.225640
_cell_length_b 10.318121
_cell_length_c 12.775576
_cell_angle_alpha 90.000000
_cell_angle_beta 90.000000
_cell_angle_gamma 90.000000
_cell_volume 1084.303363
_symmetry_space_group_name_H-M "P 21 21 2"
_symmetry_group_IT_number 18
_symmetry_cell_setting 'orthorhombic'
loop_
_space_group_symop_operation_xyz
x,y,z
-x,-y,z
1/2+x,1/2-y,-z
1/2-x,1/2+y,-z
loop_
_atom_site_type_symbol
_atom_site_label
_atom_site_fract_x
_atom_site_fract_y
_atom_site_fract_z
Si Si1 0.295903 0.103505 0.203405
Si Si2 0.623305 0.738703 0.564474
Si Si3 0.310554 0.880053 0.845653
Si Si4 0.976867 0.751247 0.650612
Si Si5 0.500000 0.500000 0.682657
Si Si6 0.000000 0.500000 0.336663
Si Si7 0.500000 0.500000 0.209896
Si Si8 0.000000 0.500000 0.978601
O O1 0.193684 0.230808 0.180823
O O2 0.453012 0.134628 0.276657
O O3 0.355551 0.053315 0.091750
O O4 0.167474 0.001512 0.250870
O O5 0.807690 0.708034 0.598345
O O6 0.610762 0.722384 0.439310
O O7 0.504331 0.630901 0.614231
O O8 0.568898 0.884261 0.592207
O O9 0.358758 0.950259 0.738385
O O10 0.138525 0.948878 0.869671
O O11 0.430488 0.889862 0.944216
O O12 0.945689 0.879817 0.717874
#
# Coordination Sequence:
#
# PCOD8156154 Si02
#       8
#     4   4   4   4   2   2   2   2
#     4  11  25  46  66 101 139 175 232 298 349 417
#     4  12  25  41  70  99 143 183 234 271 351 417
#     4  10  23  45  70  96 130 181 235 283 359 417
#     4  11  25  41  67 102 141 185 227 289 344 423
#     4  12  25  43  70 102 140 184 223 293 346 416
#     4  11  22  45  68  98 132 189 222 291 332 434
#     4  10  21  43  68  96 138 176 233 285 348 420
#     4  11  26  43  68  98 134 171 234 295 356 418
#
# _framework density 22.134028000000001
#
# number of rings (size 3 to 8) (size 9 to 14) (size 15 to 20)
#    0.000    1.000    3.333    2.500    2.333    8.000 
#    0.000    0.000    0.000    0.000    0.000    0.000 
#    0.000    0.000    0.000    0.000    0.000    0.000 
#
# Total GULP energy -297617.172224 kJ/mol
# GULP energy per Si atom -12400.715509 kJ/mol
# Density = 2.208365 g / cm^3
# Si number density = 22.134028 Si / 1000 Ang^3
#
#
#
# Elastic Constant Matrix: (Units=GPa)
#
#
# Indices 1 2 3 4 5 6 
#
# 1 75.7035 2.6010 18.4302 0.0000 0.0000 0.0000
# 2 2.6010 92.2513 18.3874 0.0000 0.0000 0.0000
# 3 18.4302 18.3874 102.0026 0.0000 0.0000 0.0000
# 4 0.0000 0.0000 0.0000 23.5670 0.0000 0.0000
# 5 0.0000 0.0000 0.0000 0.0000 63.7430 0.0000
# 6 0.0000 0.0000 0.0000 0.0000 0.0000 37.8173
#
#
#
# Elastic Compliance Matrix: (Units=1/GPa)
#
#
# Indices 1 2 3 4 5 6 
#
# 1 0.013818 0.000112 -0.002517 0.000000 0.000000 0.000000
# 2 0.000112 0.011245 -0.002047 0.000000 0.000000 0.000000
# 3 -0.002517 -0.002047 0.010627 0.000000 0.000000 0.000000
# 4 0.000000 0.000000 0.000000 0.042432 0.000000 0.000000
# 5 0.000000 0.000000 0.000000 0.000000 0.015688 0.000000
# 6 0.000000 0.000000 0.000000 0.000000 0.000000 0.026443
#
#
# Mechanical properties :
#
#
# Convention : Reuss Voigt Hill
#
# Bulk Modulus (GPa) = 37.33246 38.75496 38.04371
# Shear Modulus (GPa) = 36.20909 40.39473 38.30191
#
# Velocity S-wave (km/s) = 4.04902 4.27664 4.16439
# Velocity P-wave (km/s) = 6.22596 6.47561 6.35201
#
# Compressibility (1/GPa) = 0.02678634
#
# Stress axis : x y z
#
# Youngs Moduli (GPa) = 72.36765 88.92957 94.09560
#
# Poissons Ratio (x) = -0.00997 0.23683
# Poissons Ratio (y) = -0.00811 0.19264
# Poissons Ratio (z) = 0.18215 0.18206
#
# Static dielectric constant tensor:
#      x y z
#    x 4.041480 0.000000 0.000000 
#    y 0.000000 3.381310 0.000000 
#    z 0.000000 0.000000 3.900180 
# 
# 
# High freq. dielectric constant tensor:
#      x y z
#    x 1.881750 0.000000 0.000000 
#    y 0.000000 1.874830 0.000000 
#    z 0.000000 0.000000 1.866030 
# 
# From -- ./inp_files/5570.got.cif
#   From: 2010.03.12/outbox.cif.g09.slc.cpg/sg18_3_cif.got.tgz:5570.got - 2010.04.10 18:53:55.
