data_PCOD8156648
_publ_section_title
;
Structure prediction by ZEFSAII (Michael W. Deem and Ramdas Pophale) SiO2 
 PCOD8156648
Probable space group: P 21 21 21
;
_chemical_formula_sum "Si O2"
_cell_formula_units_Z 32
_cell_length_a 8.762303
_cell_length_b 21.975255
_cell_length_c 9.347754
_cell_angle_alpha 90.000000
_cell_angle_beta 90.000000
_cell_angle_gamma 90.000000
_cell_volume 1799.945954
_symmetry_space_group_name_H-M "P 21 21 21"
_symmetry_group_IT_number 19
_symmetry_cell_setting 'orthorhombic'
loop_
_space_group_symop_operation_xyz
x,y,z
1/2-x,-y,1/2+z
1/2+x,1/2-y,-z
-x,1/2+y,1/2-z
loop_
_atom_site_type_symbol
_atom_site_label
_atom_site_fract_x
_atom_site_fract_y
_atom_site_fract_z
Si Si1 0.365537 0.019809 0.599466
Si Si2 0.595205 0.531000 0.584994
Si Si3 0.793080 0.671386 0.230185
Si Si4 0.459046 0.430541 0.739789
Si Si5 0.455671 0.147074 0.493906
Si Si6 0.954246 0.341601 0.963184
Si Si7 0.292478 0.664795 0.231441
Si Si8 0.042817 0.767115 0.256593
O O1 0.321840 0.042119 0.760917
O O2 0.432622 0.074636 0.505459
O O3 0.214959 0.992706 0.529985
O O4 0.494299 0.966303 0.613437
O O5 0.462589 0.479777 0.609037
O O6 0.515880 0.592332 0.530927
O O7 0.912451 0.618403 0.200955
O O8 0.680743 0.676824 0.095960
O O9 0.701854 0.656908 0.374593
O O10 0.878728 0.735344 0.245195
O O11 0.296081 0.398835 0.756551
O O12 0.615817 0.159881 0.416425
O O13 0.455400 0.176206 0.649925
O O14 0.096655 0.324028 0.864500
O O15 0.935948 0.290489 0.083037
O O16 0.178299 0.721052 0.218324
#
# Coordination Sequence:
#
# PCOD8156648 Si02
#       8
#     4   4   4   4   4   4   4   4
#     4  10  19  35  61  84 107 145 188 225 269 333
#     4  10  19  35  61  84 107 145 188 225 269 333
#     4  10  20  34  58  75 108 149 180 224 277 329
#     4   9  19  36  54  82 110 141 179 223 275 324
#     4  11  20  37  57  82 108 145 189 226 275 331
#     4  11  20  37  57  82 108 145 189 226 275 331
#     4  10  24  36  55  82 115 148 176 229 292 317
#     4  11  21  38  55  79 111 144 189 232 270 328
#
# _framework density 17.778313000000001
#
# number of rings (size 3 to 8) (size 9 to 14) (size 15 to 20)
#    0.750    1.000    3.750    1.500    1.750    1.000 
#    0.000    0.000    2.750    0.000    0.000    0.000 
#    0.000    0.000    0.000    0.000    0.000    0.000 
#
# Total GULP energy -396708.299473 kJ/mol
# GULP energy per Si atom -12397.134359 kJ/mol
# Density = 1.773785 g / cm^3
# Si number density = 17.778313 Si / 1000 Ang^3
#
#
#
# Elastic Constant Matrix: (Units=GPa)
#
#
# Indices 1 2 3 4 5 6 
#
# 1 66.6144 18.9253 15.2826 0.0000 0.0000 0.0000
# 2 18.9253 76.5322 6.9239 0.0000 0.0000 0.0000
# 3 15.2826 6.9239 74.4486 0.0000 0.0000 0.0000
# 4 0.0000 0.0000 0.0000 32.2194 0.0000 0.0000
# 5 0.0000 0.0000 0.0000 0.0000 18.1781 0.0000
# 6 0.0000 0.0000 0.0000 0.0000 0.0000 28.8515
#
#
#
# Elastic Compliance Matrix: (Units=1/GPa)
#
#
# Indices 1 2 3 4 5 6 
#
# 1 0.016824 -0.003880 -0.003093 0.000000 0.000000 0.000000
# 2 -0.003880 0.014072 -0.000512 0.000000 0.000000 0.000000
# 3 -0.003093 -0.000512 0.014115 0.000000 0.000000 0.000000
# 4 0.000000 0.000000 0.000000 0.031037 0.000000 0.000000
# 5 0.000000 0.000000 0.000000 0.000000 0.055011 0.000000
# 6 0.000000 0.000000 0.000000 0.000000 0.000000 0.034660
#
#
# Mechanical properties :
#
#
# Convention : Reuss Voigt Hill
#
# Bulk Modulus (GPa) = 33.28890 33.31763 33.30326
# Shear Modulus (GPa) = 26.21878 27.61405 26.91641
#
# Velocity S-wave (km/s) = 3.84443 3.94540 3.89524
# Velocity P-wave (km/s) = 6.20252 6.28778 6.24530
#
# Compressibility (1/GPa) = 0.03004004
#
# Stress axis : x y z
#
# Youngs Moduli (GPa) = 59.43983 71.06151 70.84883
#
# Poissons Ratio (x) = 0.27575 0.21911
# Poissons Ratio (y) = 0.23065 0.03629
# Poissons Ratio (z) = 0.18383 0.03640
#
# Static dielectric constant tensor:
#      x y z
#    x 3.152680 0.000000 0.000000 
#    y 0.000000 3.351930 0.000000 
#    z 0.000000 0.000000 3.228230 
# 
# 
# High freq. dielectric constant tensor:
#      x y z
#    x 1.674420 0.000000 0.000000 
#    y 0.000000 1.698760 0.000000 
#    z 0.000000 0.000000 1.687620 
# 
# From -- ./inp_files/3248.got.cif
#   From: 2010.03.12/outbox.cif.g09.slc.cpg/sg19_2_cif.got.tgz:3248.got - 2010.04.10 18:59:41.
