data_PCOD8156858
_publ_section_title
;
Structure prediction by ZEFSAII (Michael W. Deem and Ramdas Pophale) SiO2 
 PCOD8156858
Probable space group: P 21 21 21
;
_chemical_formula_sum "Si O2"
_cell_formula_units_Z 32
_cell_length_a 8.881176
_cell_length_b 14.279191
_cell_length_c 11.904594
_cell_angle_alpha 90.000000
_cell_angle_beta 90.000000
_cell_angle_gamma 90.000000
_cell_volume 1509.693093
_symmetry_space_group_name_H-M "P 21 21 21"
_symmetry_group_IT_number 19
_symmetry_cell_setting 'orthorhombic'
loop_
_space_group_symop_operation_xyz
x,y,z
1/2-x,-y,1/2+z
1/2+x,1/2-y,-z
-x,1/2+y,1/2-z
loop_
_atom_site_type_symbol
_atom_site_label
_atom_site_fract_x
_atom_site_fract_y
_atom_site_fract_z
Si Si1 0.524998 0.242583 0.227109
Si Si2 0.848068 0.987404 0.078226
Si Si3 0.170720 0.409702 0.653265
Si Si4 0.009065 0.056290 0.279575
Si Si5 0.271773 0.828632 0.639928
Si Si6 0.831149 0.834830 0.518463
Si Si7 0.110377 0.964968 0.494066
Si Si8 0.056508 0.562347 0.822981
O O1 0.621674 0.198164 0.329359
O O2 0.378647 0.176556 0.214273
O O3 0.487269 0.350306 0.247191
O O4 0.625786 0.238489 0.115248
O O5 0.972571 0.983880 0.177317
O O6 0.709865 0.918240 0.108922
O O7 0.802292 0.097084 0.060859
O O8 0.905834 0.946390 0.960937
O O9 0.353019 0.417383 0.656991
O O10 0.094519 0.469387 0.752298
O O11 0.089729 0.145719 0.221819
O O12 0.126921 0.012081 0.370310
O O13 0.285936 0.724615 0.589977
O O14 0.254133 0.905244 0.538119
O O15 0.969282 0.897057 0.479402
O O16 0.078367 0.042691 0.589813
#
# Coordination Sequence:
#
# PCOD8156858 Si02
#       8
#     4   4   4   4   4   4   4   4
#     4  11  23  39  67  97 127 170 225 271 329 397
#     4  10  21  40  68  94 125 179 217 266 325 401
#     4  11  20  42  71  93 126 174 229 260 335 407
#     4  11  23  41  66  96 131 176 212 270 337 398
#     4  11  25  38  64 100 134 162 221 286 322 379
#     4  10  20  39  65  96 122 167 229 264 318 386
#     4  10  22  45  62  93 138 172 212 274 333 398
#     4  10  20  40  67  89 129 174 209 275 325 382
#
# _framework density 21.196361
#
# number of rings (size 3 to 8) (size 9 to 14) (size 15 to 20)
#    0.000    1.500    7.500    0.750    7.000    2.000 
#    2.250    0.000    2.750    0.000    0.000    0.000 
#    0.000    0.000    0.000    0.000    0.000    0.000 
#
# Total GULP energy -396618.603964 kJ/mol
# GULP energy per Si atom -12394.331374 kJ/mol
# Density = 2.114812 g / cm^3
# Si number density = 21.196361 Si / 1000 Ang^3
#
#
#
# Elastic Constant Matrix: (Units=GPa)
#
#
# Indices 1 2 3 4 5 6 
#
# 1 31.6109 16.7777 12.9091 0.0000 0.0000 0.0000
# 2 16.7777 83.9380 22.4368 0.0000 0.0000 0.0000
# 3 12.9091 22.4368 95.7496 0.0000 0.0000 0.0000
# 4 0.0000 0.0000 0.0000 44.7573 0.0000 0.0000
# 5 0.0000 0.0000 0.0000 0.0000 26.5214 0.0000
# 6 0.0000 0.0000 0.0000 0.0000 0.0000 18.9809
#
#
#
# Elastic Compliance Matrix: (Units=1/GPa)
#
#
# Indices 1 2 3 4 5 6 
#
# 1 0.036408 -0.006364 -0.003417 0.000000 0.000000 0.000000
# 2 -0.006364 0.013822 -0.002381 0.000000 0.000000 0.000000
# 3 -0.003417 -0.002381 0.011463 0.000000 0.000000 0.000000
# 4 0.000000 0.000000 0.000000 0.022343 0.000000 0.000000
# 5 0.000000 0.000000 0.000000 0.000000 0.037705 0.000000
# 6 0.000000 0.000000 0.000000 0.000000 0.000000 0.052685
#
#
# Mechanical properties :
#
#
# Convention : Reuss Voigt Hill
#
# Bulk Modulus (GPa) = 26.76068 35.06063 30.91066
# Shear Modulus (GPa) = 23.67365 28.66358 26.16862
#
# Velocity S-wave (km/s) = 3.34559 3.68134 3.51747
# Velocity P-wave (km/s) = 5.25133 5.88612 5.57777
#
# Compressibility (1/GPa) = 0.03736825
#
# Stress axis : x y z
#
# Youngs Moduli (GPa) = 27.46664 72.34851 87.24064
#
# Poissons Ratio (x) = 0.46041 0.29813
# Poissons Ratio (y) = 0.17479 0.20771
# Poissons Ratio (z) = 0.09386 0.17225
#
# Static dielectric constant tensor:
#      x y z
#    x 3.680940 0.000000 0.000000 
#    y 0.000000 3.549090 0.000000 
#    z 0.000000 0.000000 3.943060 
# 
# 
# High freq. dielectric constant tensor:
#      x y z
#    x 1.810970 0.000000 0.000000 
#    y 0.000000 1.807590 0.000000 
#    z 0.000000 0.000000 1.838320 
# 
# From -- ./inp_files/4694.got.cif
#   From: 2010.03.12/outbox.cif.g09.slc.cpg/sg19_3_cif.got.tgz:4694.got - 2010.04.10 18:59:41.
