data_PCOD8156553
_publ_section_title
;
Structure prediction by ZEFSAII (Michael W. Deem and Ramdas Pophale) SiO2 
 PCOD8156553
Probable space group: P 21 21 21
;
_chemical_formula_sum "Si O2"
_cell_formula_units_Z 24
_cell_length_a 5.336498
_cell_length_b 18.666092
_cell_length_c 13.157185
_cell_angle_alpha 90.000000
_cell_angle_beta 90.000000
_cell_angle_gamma 90.000000
_cell_volume 1310.607758
_symmetry_space_group_name_H-M "P 21 21 21"
_symmetry_group_IT_number 19
_symmetry_cell_setting 'orthorhombic'
loop_
_space_group_symop_operation_xyz
x,y,z
1/2-x,-y,1/2+z
1/2+x,1/2-y,-z
-x,1/2+y,1/2-z
loop_
_atom_site_type_symbol
_atom_site_label
_atom_site_fract_x
_atom_site_fract_y
_atom_site_fract_z
Si Si1 0.000003 0.403358 0.375841
Si Si2 0.500000 0.009290 0.823444
Si Si3 0.000000 0.314280 0.654932
Si Si4 0.000003 0.170314 0.551582
Si Si5 0.500000 0.350340 0.689971
Si Si6 0.500001 0.023679 0.428118
O O1 0.252461 0.358166 0.392570
O O2 1.000000 0.473178 0.449501
O O3 0.999999 0.429533 0.260337
O O4 0.747551 0.358163 0.392571
O O5 0.500002 0.931224 0.769103
O O6 0.751485 0.017591 0.890753
O O7 0.248514 0.017590 0.890752
O O8 0.999998 0.256907 0.563640
O O9 0.249919 0.307770 0.725015
O O10 0.000003 0.393472 0.607076
O O11 0.750082 0.307771 0.725016
O O12 0.000002 0.147709 0.434259
#
# Coordination Sequence:
#
# PCOD8156553 Si02
#       6
#     4   4   4   4   4   4
#     4  12  21  31  49  71 100 134 163 192 236 288
#     4  10  20  33  47  65 100 133 164 194 229 282
#     4  10  18  28  49  68 101 131 149 182 250 304
#     4  12  19  30  47  76  99 130 152 193 245 300
#     4  10  17  31  45  66  98 132 152 190 231 284
#     4  10  19  35  47  70 100 130 156 199 237 278
#
# _framework density 18.312117000000001
#
# number of rings (size 3 to 8) (size 9 to 14) (size 15 to 20)
#    0.000    1.333    6.667    3.000    0.000    0.000 
#    0.000    0.000    0.000    0.000    0.000    0.000 
#    0.000  106.667    0.000    0.000    0.000    0.000 
#
# Total GULP energy -297348.996898 kJ/mol
# GULP energy per Si atom -12389.541537 kJ/mol
# Density = 1.827044 g / cm^3
# Si number density = 18.312117 Si / 1000 Ang^3
#
#
#
# Elastic Constant Matrix: (Units=GPa)
#
#
# Indices 1 2 3 4 5 6 
#
# 1 199.0869 17.5644 6.3092 0.0000 0.0000 0.0000
# 2 17.5644 37.0998 7.3806 0.0000 0.0000 0.0000
# 3 6.3092 7.3806 8.5637 0.0000 0.0000 0.0000
# 4 0.0000 0.0000 0.0000 20.7423 0.0000 0.0000
# 5 0.0000 0.0000 0.0000 0.0000 13.5654 0.0000
# 6 0.0000 0.0000 0.0000 0.0000 0.0000 11.4416
#
#
#
# Elastic Compliance Matrix: (Units=1/GPa)
#
#
# Indices 1 2 3 4 5 6 
#
# 1 0.005273 -0.002080 -0.002092 0.000000 0.000000 0.000000
# 2 -0.002080 0.033353 -0.027212 0.000000 0.000000 0.000000
# 3 -0.002092 -0.027212 0.141766 0.000000 0.000000 0.000000
# 4 0.000000 0.000000 0.000000 0.048211 0.000000 0.000000
# 5 0.000000 0.000000 0.000000 0.000000 0.073717 0.000000
# 6 0.000000 0.000000 0.000000 0.000000 0.000000 0.087400
#
#
# Mechanical properties :
#
#
# Convention : Reuss Voigt Hill
#
# Bulk Modulus (GPa) = 8.50179 34.13988 21.32084
# Shear Modulus (GPa) = 10.16889 23.38293 16.77591
#
# Velocity S-wave (km/s) = 2.35906 3.57726 3.03001
# Velocity P-wave (km/s) = 3.47462 5.97882 4.88975
#
# Compressibility (1/GPa) = 0.11762224
#
# Stress axis : x y z
#
# Youngs Moduli (GPa) = 189.65448 29.98246 7.05389
#
# Poissons Ratio (x) = 0.06237 0.01476
# Poissons Ratio (y) = 0.39451 0.19195
# Poissons Ratio (z) = 0.39673 0.81590
#
# Static dielectric constant tensor:
#      x y z
#    x 5.294430 0.000000 0.000000 
#    y 0.000000 3.070670 0.000000 
#    z 0.000000 0.000000 2.831370 
# 
# 
# High freq. dielectric constant tensor:
#      x y z
#    x 1.765030 0.000000 0.000000 
#    y 0.000000 1.676800 0.000000 
#    z 0.000000 0.000000 1.633220 
# 
# From -- ./inp_files/1011.got.cif
#   From: 2010.03.12/outbox.cif.g09.slc.cpg/sg19_1_cif.got.tgz:1011.got - 2010.04.10 18:59:41.
