data_PCOD8156704
_publ_section_title
;
Structure prediction by ZEFSAII (Michael W. Deem and Ramdas Pophale) SiO2 
 PCOD8156704
Probable space group: P 21 21 21
;
_chemical_formula_sum "Si O2"
_cell_formula_units_Z 28
_cell_length_a 10.250678
_cell_length_b 15.222965
_cell_length_c 8.667114
_cell_angle_alpha 90.000000
_cell_angle_beta 90.000000
_cell_angle_gamma 90.000000
_cell_volume 1352.465979
_symmetry_space_group_name_H-M "P 21 21 21"
_symmetry_group_IT_number 19
_symmetry_cell_setting 'orthorhombic'
loop_
_space_group_symop_operation_xyz
x,y,z
1/2-x,-y,1/2+z
1/2+x,1/2-y,-z
-x,1/2+y,1/2-z
loop_
_atom_site_type_symbol
_atom_site_label
_atom_site_fract_x
_atom_site_fract_y
_atom_site_fract_z
Si Si1 0.011911 0.660976 0.492229
Si Si2 0.423667 0.660304 0.594731
Si Si3 0.746831 0.405934 0.850910
Si Si4 0.662804 0.903473 0.985166
Si Si5 0.246122 0.425844 0.847245
Si Si6 0.085510 0.001166 0.403785
Si Si7 0.826687 0.221385 0.739876
O O1 0.107487 0.595515 0.403152
O O2 0.055387 0.671596 0.670299
O O3 0.023584 0.758741 0.420262
O O4 0.863534 0.627525 0.471600
O O5 0.359734 0.637630 0.427706
O O6 0.501098 0.578562 0.667444
O O7 0.311359 0.682462 0.712495
O O8 0.691078 0.466648 0.717036
O O9 0.825601 0.325735 0.770684
O O10 0.848172 0.466337 0.940580
O O11 0.662748 0.805554 0.059480
O O12 0.712101 0.973689 0.112374
O O13 0.757897 0.910330 0.836867
O O14 0.512329 0.919554 0.940727
#
# Coordination Sequence:
#
# PCOD8156704 Si02
#       7
#     4   4   4   4   4   4   4
#     4  10  19  40  65  88 126 167 206 256 320 375
#     4   9  20  40  65  89 125 164 211 256 320 374
#     4  11  24  42  61  95 132 168 211 259 322 381
#     4  11  22  42  66  92 127 161 222 266 311 379
#     4  10  20  38  65  93 121 167 210 267 310 370
#     4  11  23  43  60  93 130 166 210 261 316 378
#     4  10  22  41  66  94 123 165 214 263 315 385
#
# _framework density 20.702922999999998
#
# number of rings (size 3 to 8) (size 9 to 14) (size 15 to 20)
#    0.000    1.714    2.857    2.571    2.000    0.000 
#    5.143    0.000    0.000    0.000    0.000    0.000 
#    0.000    0.000    0.000    0.000    0.000    0.000 
#
# Total GULP energy -347151.140075 kJ/mol
# GULP energy per Si atom -12398.255003 kJ/mol
# Density = 2.065580 g / cm^3
# Si number density = 20.702923 Si / 1000 Ang^3
#
#
#
# Elastic Constant Matrix: (Units=GPa)
#
#
# Indices 1 2 3 4 5 6 
#
# 1 52.8090 20.4376 4.1744 0.0000 0.0000 0.0000
# 2 20.4376 63.0966 25.3700 0.0000 0.0000 0.0000
# 3 4.1744 25.3700 79.7239 0.0000 0.0000 0.0000
# 4 0.0000 0.0000 0.0000 32.4431 0.0000 0.0000
# 5 0.0000 0.0000 0.0000 0.0000 22.8684 0.0000
# 6 0.0000 0.0000 0.0000 0.0000 0.0000 25.3458
#
#
#
# Elastic Compliance Matrix: (Units=1/GPa)
#
#
# Indices 1 2 3 4 5 6 
#
# 1 0.021761 -0.007557 0.001266 0.000000 0.000000 0.000000
# 2 -0.007557 0.020799 -0.006223 0.000000 0.000000 0.000000
# 3 0.001266 -0.006223 0.014457 0.000000 0.000000 0.000000
# 4 0.000000 0.000000 0.000000 0.030823 0.000000 0.000000
# 5 0.000000 0.000000 0.000000 0.000000 0.043729 0.000000
# 6 0.000000 0.000000 0.000000 0.000000 0.000000 0.039454
#
#
# Mechanical properties :
#
#
# Convention : Reuss Voigt Hill
#
# Bulk Modulus (GPa) = 31.26236 32.84372 32.05304
# Shear Modulus (GPa) = 24.18786 25.84128 25.01457
#
# Velocity S-wave (km/s) = 3.42179 3.53681 3.47978
# Velocity P-wave (km/s) = 5.54480 5.70767 5.62682
#
# Compressibility (1/GPa) = 0.03198735
#
# Stress axis : x y z
#
# Youngs Moduli (GPa) = 45.95385 48.07969 69.16917
#
# Poissons Ratio (x) = 0.36336 -0.08754
# Poissons Ratio (y) = 0.34729 0.43044
# Poissons Ratio (z) = -0.05816 0.29920
#
# Static dielectric constant tensor:
#      x y z
#    x 3.825890 0.000000 0.000000 
#    y 0.000000 3.833450 0.000000 
#    z 0.000000 0.000000 3.583830 
# 
# 
# High freq. dielectric constant tensor:
#      x y z
#    x 1.812650 0.000000 0.000000 
#    y 0.000000 1.809890 0.000000 
#    z 0.000000 0.000000 1.790990 
# 
# From -- ./inp_files/3503.got.cif
#   From: 2010.03.12/outbox.cif.g09.slc.cpg/sg19_2_cif.got.tgz:3503.got - 2010.04.10 18:59:41.
