data_PCOD8156668
_publ_section_title
;
Structure prediction by ZEFSAII (Michael W. Deem and Ramdas Pophale) SiO2 
 PCOD8156668
Probable space group: P 21 21 21
;
_chemical_formula_sum "Si O2"
_cell_formula_units_Z 28
_cell_length_a 13.684323
_cell_length_b 11.259658
_cell_length_c 9.569386
_cell_angle_alpha 90.000000
_cell_angle_beta 90.000000
_cell_angle_gamma 90.000000
_cell_volume 1474.458621
_symmetry_space_group_name_H-M "P 21 21 21"
_symmetry_group_IT_number 19
_symmetry_cell_setting 'orthorhombic'
loop_
_space_group_symop_operation_xyz
x,y,z
1/2-x,-y,1/2+z
1/2+x,1/2-y,-z
-x,1/2+y,1/2-z
loop_
_atom_site_type_symbol
_atom_site_label
_atom_site_fract_x
_atom_site_fract_y
_atom_site_fract_z
Si Si1 0.336576 0.013621 0.750977
Si Si2 0.244105 0.383042 0.722342
Si Si3 0.608197 0.301218 0.940580
Si Si4 0.970532 0.579533 0.018699
Si Si5 0.137098 0.147287 0.749320
Si Si6 0.559285 0.753053 0.768912
Si Si7 0.670448 0.051109 0.992841
O O1 0.225728 0.055060 0.768180
O O2 0.407754 0.118978 0.699178
O O3 0.338776 0.908845 0.637875
O O4 0.375142 0.969478 0.901210
O O5 0.174910 0.271916 0.686008
O O6 0.349431 0.335593 0.769423
O O7 0.253768 0.467991 0.589098
O O8 0.199278 0.461625 0.845925
O O9 0.508220 0.263727 0.866783
O O10 0.681052 0.187625 0.941533
O O11 0.585416 0.336728 0.100785
O O12 0.004359 0.702239 0.091622
O O13 0.058189 0.485924 0.027747
O O14 0.943473 0.598821 0.857478
#
# Coordination Sequence:
#
# PCOD8156668 Si02
#       7
#     4   4   4   4   4   4   4
#     4  10  19  37  59  79 113 152 190 227 283 353
#     4   9  21  37  58  80 116 145 188 234 280 337
#     4  10  20  36  58  84 113 148 194 232 288 339
#     4  10  20  36  59  80 115 146 188 235 280 340
#     4  10  21  37  55  87 115 144 188 243 284 330
#     4   9  19  37  56  80 107 156 190 225 281 346
#     4  10  20  38  57  86 111 149 186 234 282 337
#
# _framework density 18.990020000000001
#
# number of rings (size 3 to 8) (size 9 to 14) (size 15 to 20)
#    0.000    2.286    1.429    0.857    0.000    3.429 
#    5.143    1.429    0.000    0.000    0.000    0.000 
#    0.000    0.000    0.000    0.000    0.000    0.000 
#
# Total GULP energy -347221.724526 kJ/mol
# GULP energy per Si atom -12400.775876 kJ/mol
# Density = 1.894680 g / cm^3
# Si number density = 18.990020 Si / 1000 Ang^3
#
#
#
# Elastic Constant Matrix: (Units=GPa)
#
#
# Indices 1 2 3 4 5 6 
#
# 1 50.8575 19.4369 27.2340 0.0000 0.0000 0.0000
# 2 19.4369 98.8842 43.0136 0.0000 0.0000 0.0000
# 3 27.2340 43.0136 99.4486 0.0000 0.0000 0.0000
# 4 0.0000 0.0000 0.0000 31.1234 0.0000 0.0000
# 5 0.0000 0.0000 0.0000 0.0000 32.8596 0.0000
# 6 0.0000 0.0000 0.0000 0.0000 0.0000 12.6177
#
#
#
# Elastic Compliance Matrix: (Units=1/GPa)
#
#
# Indices 1 2 3 4 5 6 
#
# 1 0.023436 -0.002235 -0.005451 0.000000 0.000000 0.000000
# 2 -0.002235 0.012670 -0.004868 0.000000 0.000000 0.000000
# 3 -0.005451 -0.004868 0.013654 0.000000 0.000000 0.000000
# 4 0.000000 0.000000 0.000000 0.032130 0.000000 0.000000
# 5 0.000000 0.000000 0.000000 0.000000 0.030432 0.000000
# 6 0.000000 0.000000 0.000000 0.000000 0.000000 0.079254
#
#
# Mechanical properties :
#
#
# Convention : Reuss Voigt Hill
#
# Bulk Modulus (GPa) = 40.56651 47.61769 44.09210
# Shear Modulus (GPa) = 22.23195 25.95387 24.09291
#
# Velocity S-wave (km/s) = 3.42529 3.70092 3.56577
# Velocity P-wave (km/s) = 6.08702 6.58725 6.34207
#
# Compressibility (1/GPa) = 0.02465087
#
# Stress axis : x y z
#
# Youngs Moduli (GPa) = 42.66903 78.92881 73.24070
#
# Poissons Ratio (x) = 0.17644 0.39924
# Poissons Ratio (y) = 0.09539 0.35651
# Poissons Ratio (z) = 0.23259 0.38420
#
# Static dielectric constant tensor:
#      x y z
#    x 3.332340 0.000000 0.000000 
#    y 0.000000 3.631500 0.000000 
#    z 0.000000 0.000000 3.348350 
# 
# 
# High freq. dielectric constant tensor:
#      x y z
#    x 1.727130 0.000000 0.000000 
#    y 0.000000 1.747600 0.000000 
#    z 0.000000 0.000000 1.733980 
# 
# From -- ./inp_files/3556.got.cif
#   From: 2010.03.12/outbox.cif.g09.slc.cpg/sg19_2_cif.got.tgz:3556.got - 2010.04.10 18:59:41.
