data_PCOD8156691
_publ_section_title
;
Structure prediction by ZEFSAII (Michael W. Deem and Ramdas Pophale) SiO2 
 PCOD8156691
Probable space group: P 21 21 21
;
_chemical_formula_sum "Si O2"
_cell_formula_units_Z 28
_cell_length_a 14.651403
_cell_length_b 10.693519
_cell_length_c 8.990741
_cell_angle_alpha 90.000000
_cell_angle_beta 90.000000
_cell_angle_gamma 90.000000
_cell_volume 1408.624853
_symmetry_space_group_name_H-M "P 21 21 21"
_symmetry_group_IT_number 19
_symmetry_cell_setting 'orthorhombic'
loop_
_space_group_symop_operation_xyz
x,y,z
1/2-x,-y,1/2+z
1/2+x,1/2-y,-z
-x,1/2+y,1/2-z
loop_
_atom_site_type_symbol
_atom_site_label
_atom_site_fract_x
_atom_site_fract_y
_atom_site_fract_z
Si Si1 0.034132 0.451302 0.891431
Si Si2 0.744933 0.376520 0.773244
Si Si3 0.205685 0.445552 0.434936
Si Si4 0.315034 0.630006 0.603149
Si Si5 0.556302 0.192247 0.405130
Si Si6 0.847518 0.560412 0.965970
Si Si7 0.626371 0.796524 0.105921
O O1 0.035161 0.349610 0.761826
O O2 0.079967 0.578234 0.824404
O O3 0.933609 0.468746 0.957180
O O4 0.087626 0.401562 0.034880
O O5 0.687846 0.279174 0.873862
O O6 0.766275 0.499183 0.869875
O O7 0.684443 0.420310 0.634530
O O8 0.837387 0.303416 0.726079
O O9 0.235227 0.582783 0.490834
O O10 0.200435 0.444127 0.257171
O O11 0.105953 0.413732 0.498597
O O12 0.284830 0.344252 0.488163
O O13 0.625311 0.308082 0.393874
O O14 0.458140 0.229216 0.482051
#
# Coordination Sequence:
#
# PCOD8156691 Si02
#       7
#     4   4   4   4   4   4   4
#     4  10  22  39  64  95 122 164 218 260 314 385
#     4  11  22  44  59  91 130 170 207 262 319 379
#     4  10  19  38  64  89 120 164 211 264 312 367
#     4  10  21  40  64  90 127 158 218 268 309 383
#     4  11  19  37  65  87 122 170 207 258 320 371
#     4  11  24  41  62  92 133 170 210 261 321 383
#     4   9  19  37  60  86 120 156 211 255 301 382
#
# _framework density 19.877542999999999
#
# number of rings (size 3 to 8) (size 9 to 14) (size 15 to 20)
#    0.000    1.714    4.286    2.571    2.000    0.000 
#    2.571    1.429    0.000    0.000    0.000    0.000 
#    0.000    0.000    0.000    0.000    0.000    0.000 
#
# Total GULP energy -346934.321967 kJ/mol
# GULP energy per Si atom -12390.511499 kJ/mol
# Density = 1.983230 g / cm^3
# Si number density = 19.877543 Si / 1000 Ang^3
#
#
#
# Elastic Constant Matrix: (Units=GPa)
#
#
# Indices 1 2 3 4 5 6 
#
# 1 97.3235 17.5978 36.6374 0.0000 0.0000 0.0000
# 2 17.5978 53.6184 21.2766 0.0000 0.0000 0.0000
# 3 36.6374 21.2766 70.2149 0.0000 0.0000 0.0000
# 4 0.0000 0.0000 0.0000 37.8662 0.0000 0.0000
# 5 0.0000 0.0000 0.0000 0.0000 27.8836 0.0000
# 6 0.0000 0.0000 0.0000 0.0000 0.0000 25.8068
#
#
#
# Elastic Compliance Matrix: (Units=1/GPa)
#
#
# Indices 1 2 3 4 5 6 
#
# 1 0.012935 -0.001781 -0.006209 0.000000 0.000000 0.000000
# 2 -0.001781 0.021445 -0.005569 0.000000 0.000000 0.000000
# 3 -0.006209 -0.005569 0.019169 0.000000 0.000000 0.000000
# 4 0.000000 0.000000 0.000000 0.026409 0.000000 0.000000
# 5 0.000000 0.000000 0.000000 0.000000 0.035863 0.000000
# 6 0.000000 0.000000 0.000000 0.000000 0.000000 0.038749
#
#
# Mechanical properties :
#
#
# Convention : Reuss Voigt Hill
#
# Bulk Modulus (GPa) = 37.83584 41.35339 39.59462
# Shear Modulus (GPa) = 26.24685 28.02099 27.13392
#
# Velocity S-wave (km/s) = 3.63771 3.75864 3.69867
# Velocity P-wave (km/s) = 6.05968 6.29967 6.18084
#
# Compressibility (1/GPa) = 0.02642996
#
# Stress axis : x y z
#
# Youngs Moduli (GPa) = 77.31188 46.63164 52.16634
#
# Poissons Ratio (x) = 0.08306 0.32392
# Poissons Ratio (y) = 0.13771 0.29050
# Poissons Ratio (z) = 0.48006 0.25968
#
# Static dielectric constant tensor:
#      x y z
#    x 3.914340 0.000000 0.000000 
#    y 0.000000 3.733000 0.000000 
#    z 0.000000 0.000000 3.271730 
# 
# 
# High freq. dielectric constant tensor:
#      x y z
#    x 1.787260 0.000000 0.000000 
#    y 0.000000 1.775940 0.000000 
#    z 0.000000 0.000000 1.741450 
# 
# From -- ./inp_files/3875.got.cif
#   From: 2010.03.12/outbox.cif.g09.slc.cpg/sg19_2_cif.got.tgz:3875.got - 2010.04.10 18:59:41.
