data_PCOD8156060
_publ_section_title
;
Structure prediction by ZEFSAII (Michael W. Deem and Ramdas Pophale) SiO2 
 PCOD8156060
Probable space group: P 21 21 2
;
_chemical_formula_sum "Si O2"
_cell_formula_units_Z 32
_cell_length_a 13.164761
_cell_length_b 21.243130
_cell_length_c 6.564907
_cell_angle_alpha 90.000000
_cell_angle_beta 90.000000
_cell_angle_gamma 90.000000
_cell_volume 1835.946680
_symmetry_space_group_name_H-M "P 21 21 2"
_symmetry_group_IT_number 18
_symmetry_cell_setting 'orthorhombic'
loop_
_space_group_symop_operation_xyz
x,y,z
-x,-y,z
1/2+x,1/2-y,-z
1/2-x,1/2+y,-z
loop_
_atom_site_type_symbol
_atom_site_label
_atom_site_fract_x
_atom_site_fract_y
_atom_site_fract_z
Si Si1 0.402839 0.651105 0.634708
Si Si2 0.898321 0.737613 0.659408
Si Si3 0.398321 0.237613 0.159408
Si Si4 0.597161 0.651105 0.865293
Si Si5 0.714707 0.679195 0.478238
Si Si6 0.879595 0.072028 0.777160
Si Si7 0.285292 0.679195 0.021762
Si Si8 0.379594 0.572028 0.277160
O O1 0.438915 0.703954 0.474253
O O2 0.500000 0.622762 0.750001
O O3 0.351217 0.594297 0.506482
O O4 0.327032 0.682284 0.793073
O O5 0.835798 0.689448 0.514708
O O6 0.827454 0.763786 0.841727
O O7 1.000000 0.704480 0.750000
O O8 0.327454 0.263786 0.341728
O O9 0.438916 0.296046 0.025748
O O10 0.335799 0.189448 0.014708
O O11 0.672967 0.682285 0.706928
O O12 0.648782 0.594298 0.993519
O O13 0.688081 0.611561 0.382274
O O14 0.000000 0.083347 0.750000
O O15 0.848447 0.000000 0.750000
O O16 0.311917 0.611560 0.117728
#
# Coordination Sequence:
#
# PCOD8156060 Si02
#       8
#     4   4   4   4   4   4   4   4
#     4  11  18  33  54  77 112 145 172 218 271 320
#     4  11  21  32  53  83 114 141 180 216 270 338
#     4  11  21  32  53  83 114 141 180 216 270 338
#     4  11  18  33  54  77 112 145 172 218 271 320
#     4  11  20  33  52  79 113 145 173 223 273 320
#     4  10  21  35  51  78 109 144 187 219 265 333
#     4  11  20  33  52  79 113 145 173 223 273 320
#     4  10  21  35  51  78 109 144 187 219 265 333
#
# _framework density 17.429701999999999
#
# number of rings (size 3 to 8) (size 9 to 14) (size 15 to 20)
#    0.000    1.250    7.500    1.500    0.000    1.000 
#    0.000    0.000    0.000    0.000    0.000    5.250 
#    0.000    0.000    0.000    0.000    0.000    0.000 
#
# Total GULP energy -396629.031098 kJ/mol
# GULP energy per Si atom -12394.657222 kJ/mol
# Density = 1.739003 g / cm^3
# Si number density = 17.429702 Si / 1000 Ang^3
#
#
#
# Elastic Constant Matrix: (Units=GPa)
#
#
# Indices 1 2 3 4 5 6 
#
# 1 100.1389 47.9567 36.9427 0.0000 0.0000 0.0000
# 2 47.9567 91.9667 35.7737 0.0000 0.0000 0.0000
# 3 36.9427 35.7737 104.3708 0.0000 0.0000 0.0000
# 4 0.0000 0.0000 0.0000 12.9310 0.0000 0.0000
# 5 0.0000 0.0000 0.0000 0.0000 34.0135 0.0000
# 6 0.0000 0.0000 0.0000 0.0000 0.0000 21.4315
#
#
#
# Elastic Compliance Matrix: (Units=1/GPa)
#
#
# Indices 1 2 3 4 5 6 
#
# 1 0.013999 -0.006199 -0.002830 0.000000 0.000000 0.000000
# 2 -0.006199 0.015291 -0.003047 0.000000 0.000000 0.000000
# 3 -0.002830 -0.003047 0.011627 0.000000 0.000000 0.000000
# 4 0.000000 0.000000 0.000000 0.077334 0.000000 0.000000
# 5 0.000000 0.000000 0.000000 0.000000 0.029400 0.000000
# 6 0.000000 0.000000 0.000000 0.000000 0.000000 0.046660
#
#
# Mechanical properties :
#
#
# Convention : Reuss Voigt Hill
#
# Bulk Modulus (GPa) = 59.64762 59.75805 59.70283
# Shear Modulus (GPa) = 22.31622 25.39542 23.85582
#
# Velocity S-wave (km/s) = 3.58209 3.82123 3.70359
# Velocity P-wave (km/s) = 7.16970 7.33681 7.25373
#
# Compressibility (1/GPa) = 0.01676513
#
# Stress axis : x y z
#
# Youngs Moduli (GPa) = 71.43401 65.39709 86.00376
#
# Poissons Ratio (x) = 0.40539 0.24342
# Poissons Ratio (y) = 0.44281 0.26205
# Poissons Ratio (z) = 0.20218 0.19927
#
# Static dielectric constant tensor:
#      x y z
#    x 3.111580 0.000000 0.000000 
#    y 0.000000 2.931040 0.000000 
#    z 0.000000 0.000000 3.582360 
# 
# 
# High freq. dielectric constant tensor:
#      x y z
#    x 1.647230 0.000000 0.000000 
#    y 0.000000 1.634330 0.000000 
#    z 0.000000 0.000000 1.699700 
# 
# From -- ./inp_files/1327.got.cif
#   From: 2010.03.12/outbox.cif.g09.slc.cpg/sg18_1_cif.got.tgz:1327.got - 2010.04.10 18:53:55.
