data_PCOD8156068
_publ_section_title
;
Structure prediction by ZEFSAII (Michael W. Deem and Ramdas Pophale) SiO2 
 PCOD8156068
Probable space group: P 21 21 2
;
_chemical_formula_sum "Si O2"
_cell_formula_units_Z 30
_cell_length_a 12.115300
_cell_length_b 14.688508
_cell_length_c 8.269098
_cell_angle_alpha 90.000000
_cell_angle_beta 90.000000
_cell_angle_gamma 90.000000
_cell_volume 1471.532966
_symmetry_space_group_name_H-M "P 21 21 2"
_symmetry_group_IT_number 18
_symmetry_cell_setting 'orthorhombic'
loop_
_space_group_symop_operation_xyz
x,y,z
-x,-y,z
1/2+x,1/2-y,-z
1/2-x,1/2+y,-z
loop_
_atom_site_type_symbol
_atom_site_label
_atom_site_fract_x
_atom_site_fract_y
_atom_site_fract_z
Si Si1 0.624368 0.507658 0.039821
Si Si2 0.305049 0.092237 0.538307
Si Si3 0.500000 0.000000 0.364198
Si Si4 0.198482 0.632690 0.089429
Si Si5 0.613183 0.536763 0.419459
Si Si6 0.502739 0.153156 0.128152
Si Si7 0.264663 0.819828 0.982502
Si Si8 0.656629 0.731290 0.334849
O O1 0.500000 0.500000 0.963929
O O2 0.693611 0.415200 0.010192
O O3 0.612745 0.524888 0.228382
O O4 0.696931 0.589990 0.964962
O O5 0.409837 0.038563 0.481591
O O6 0.319452 0.101912 0.728754
O O7 0.294665 0.188537 0.446530
O O8 0.203332 0.026740 0.494917
O O9 0.549429 0.079767 0.253622
O O10 0.092310 0.606948 0.981566
O O11 0.213404 0.740612 0.091497
O O12 0.500000 0.500000 0.495600
O O13 0.627967 0.645328 0.450753
O O14 0.451579 0.238205 0.230241
O O15 0.604568 0.179268 0.014652
O O16 0.251754 0.798060 0.791652
#
# Coordination Sequence:
#
# PCOD8156068 Si02
#       8
#     4   4   2   4   4   4   4   4
#     4   9  19  35  60  87 121 160 202 243 308 368
#     4  10  22  40  61  93 123 159 201 254 317 370
#     4  10  22  40  62  82 122 162 198 260 314 362
#     4  10  22  36  61  92 124 156 208 258 298 377
#     4   9  19  37  61  85 118 162 200 245 307 371
#     4  10  21  38  62  86 123 160 212 250 308 365
#     4  10  21  36  63  90 118 167 201 255 305 362
#     4   9  21  40  59  92 125 160 204 255 310 373
#
# _framework density 20.386903
#
# number of rings (size 3 to 8) (size 9 to 14) (size 15 to 20)
#    0.000    2.400    0.000    0.800    9.333    4.800 
#    4.800    0.000    0.000    6.400    0.000    0.000 
#    0.000    0.000    0.000    0.000    0.000    0.000 
#
# Total GULP energy -371876.060087 kJ/mol
# GULP energy per Si atom -12395.868670 kJ/mol
# Density = 2.034050 g / cm^3
# Si number density = 20.386903 Si / 1000 Ang^3
#
#
#
# Elastic Constant Matrix: (Units=GPa)
#
#
# Indices 1 2 3 4 5 6 
#
# 1 116.1642 69.5167 37.9326 0.0000 0.0000 0.0000
# 2 69.5167 155.2235 41.0427 0.0000 0.0000 0.0000
# 3 37.9326 41.0427 58.8280 0.0000 0.0000 0.0000
# 4 0.0000 0.0000 0.0000 21.1236 0.0000 0.0000
# 5 0.0000 0.0000 0.0000 0.0000 7.6347 0.0000
# 6 0.0000 0.0000 0.0000 0.0000 0.0000 29.4238
#
#
#
# Elastic Compliance Matrix: (Units=1/GPa)
#
#
# Indices 1 2 3 4 5 6 
#
# 1 0.012976 -0.004413 -0.005288 0.000000 0.000000 0.000000
# 2 -0.004413 0.009400 -0.003713 0.000000 0.000000 0.000000
# 3 -0.005288 -0.003713 0.022999 0.000000 0.000000 0.000000
# 4 0.000000 0.000000 0.000000 0.047341 0.000000 0.000000
# 5 0.000000 0.000000 0.000000 0.000000 0.130981 0.000000
# 6 0.000000 0.000000 0.000000 0.000000 0.000000 0.033986
#
#
# Mechanical properties :
#
#
# Convention : Reuss Voigt Hill
#
# Bulk Modulus (GPa) = 53.91638 69.68886 61.80262
# Shear Modulus (GPa) = 17.20019 23.75132 20.47575
#
# Velocity S-wave (km/s) = 2.90778 3.41695 3.17260
# Velocity P-wave (km/s) = 6.14635 7.05867 6.61825
#
# Compressibility (1/GPa) = 0.01854724
#
# Stress axis : x y z
#
# Youngs Moduli (GPa) = 77.06331 106.37769 43.48030
#
# Poissons Ratio (x) = 0.46946 0.22993
# Poissons Ratio (y) = 0.34009 0.16143
# Poissons Ratio (z) = 0.40753 0.39496
#
# Static dielectric constant tensor:
#      x y z
#    x 3.899520 0.000000 0.000000 
#    y 0.000000 4.120580 0.000000 
#    z 0.000000 0.000000 3.435080 
# 
# 
# High freq. dielectric constant tensor:
#      x y z
#    x 1.796550 0.000000 0.000000 
#    y 0.000000 1.812910 0.000000 
#    z 0.000000 0.000000 1.770940 
# 
# From -- ./inp_files/3918.got.cif
#   From: 2010.03.12/outbox.cif.g09.slc.cpg/sg18_2_cif.got.tgz:3918.got - 2010.04.10 18:53:55.
