data_PCOD8156380
_publ_section_title
;
Structure prediction by ZEFSAII (Michael W. Deem and Ramdas Pophale) SiO2 
 PCOD8156380
Probable space group: P 21 21 2
;
_chemical_formula_sum "Si O2"
_cell_formula_units_Z 32
_cell_length_a 13.799411
_cell_length_b 8.429128
_cell_length_c 12.285840
_cell_angle_alpha 90.000000
_cell_angle_beta 90.000000
_cell_angle_gamma 90.000000
_cell_volume 1429.052071
_symmetry_space_group_name_H-M "P 21 21 2"
_symmetry_group_IT_number 18
_symmetry_cell_setting 'orthorhombic'
loop_
_space_group_symop_operation_xyz
x,y,z
-x,-y,z
1/2+x,1/2-y,-z
1/2-x,1/2+y,-z
loop_
_atom_site_type_symbol
_atom_site_label
_atom_site_fract_x
_atom_site_fract_y
_atom_site_fract_z
Si Si1 0.076527 0.638633 0.811920
Si Si2 0.420251 0.365097 0.384872
Si Si3 0.424322 0.724965 0.775214
Si Si4 0.440090 0.160898 0.597900
Si Si5 0.490985 0.689530 0.004574
Si Si6 0.711770 0.326156 0.088340
Si Si7 0.728213 0.011829 0.708184
Si Si8 0.772722 0.991555 0.139452
O O1 0.050876 0.768320 0.721891
O O2 0.181301 0.561282 0.787972
O O3 0.000000 0.500000 0.808108
O O4 0.078582 0.728342 0.929795
O O5 0.500000 0.500000 0.403165
O O6 0.421637 0.246256 0.485445
O O7 0.311341 0.434205 0.376129
O O8 0.500216 0.720226 0.676666
O O9 0.372100 0.555570 0.797915
O O10 0.339149 0.846580 0.748730
O O11 0.481602 0.771717 0.885925
O O12 0.336020 0.122979 0.650674
O O13 0.500000 0.000000 0.578587
O O14 0.500000 0.500000 0.993752
O O15 0.398091 0.735295 0.078349
O O16 0.717284 0.451157 0.185155
O O17 0.781038 0.178480 0.118062
O O18 0.740363 0.405023 0.975311
#
# Coordination Sequence:
#
# PCOD8156380 Si02
#       8
#     4   4   4   4   4   4   4   4
#     4  12  24  41  66 102 138 188 233 292 353 421
#     4  12  27  48  74 103 136 190 241 301 357 432
#     4  10  24  46  70 105 139 189 236 295 357 432
#     4  10  26  50  74 103 140 184 241 305 360 427
#     4  11  24  38  65 102 145 185 231 286 352 430
#     4  11  23  41  61 103 141 188 227 288 349 430
#     4  11  24  46  74 103 141 182 237 298 366 428
#     4  11  24  39  67 101 149 187 236 284 355 432
#
# _framework density 22.392465000000001
#
# number of rings (size 3 to 8) (size 9 to 14) (size 15 to 20)
#    0.000    1.000    2.500    3.750    5.250    4.000 
#    2.250    0.000    0.000    0.000    0.000    0.000 
#    0.000    0.000    0.000    0.000    0.000    0.000 
#
# Total GULP energy -396861.492698 kJ/mol
# GULP energy per Si atom -12401.921647 kJ/mol
# Density = 2.234150 g / cm^3
# Si number density = 22.392465 Si / 1000 Ang^3
#
#
#
# Elastic Constant Matrix: (Units=GPa)
#
#
# Indices 1 2 3 4 5 6 
#
# 1 93.5495 34.8148 59.5447 0.0000 0.0000 0.0000
# 2 34.8148 67.5714 21.0852 0.0000 0.0000 0.0000
# 3 59.5447 21.0852 93.1634 0.0000 0.0000 0.0000
# 4 0.0000 0.0000 0.0000 43.1456 0.0000 0.0000
# 5 0.0000 0.0000 0.0000 0.0000 24.1258 0.0000
# 6 0.0000 0.0000 0.0000 0.0000 0.0000 34.1229
#
#
#
# Elastic Compliance Matrix: (Units=1/GPa)
#
#
# Indices 1 2 3 4 5 6 
#
# 1 0.020729 -0.007043 -0.011655 0.000000 0.000000 0.000000
# 2 -0.007043 0.018317 0.000356 0.000000 0.000000 0.000000
# 3 -0.011655 0.000356 0.018102 0.000000 0.000000 0.000000
# 4 0.000000 0.000000 0.000000 0.023177 0.000000 0.000000
# 5 0.000000 0.000000 0.000000 0.000000 0.041449 0.000000
# 6 0.000000 0.000000 0.000000 0.000000 0.000000 0.029306
#
#
# Mechanical properties :
#
#
# Convention : Reuss Voigt Hill
#
# Bulk Modulus (GPa) = 48.86552 53.90818 51.38685
# Shear Modulus (GPa) = 25.69554 29.53483 27.61518
#
# Velocity S-wave (km/s) = 3.39116 3.63569 3.51556
# Velocity P-wave (km/s) = 6.09943 6.46149 6.28307
#
# Compressibility (1/GPa) = 0.02046433
#
# Stress axis : x y z
#
# Youngs Moduli (GPa) = 48.24145 54.59406 55.24175
#
# Poissons Ratio (x) = 0.38453 0.64383
# Poissons Ratio (y) = 0.33979 -0.01967
# Poissons Ratio (z) = 0.56224 -0.01944
#
# Static dielectric constant tensor:
#      x y z
#    x 4.402490 0.000000 0.000000 
#    y 0.000000 4.053240 0.000000 
#    z 0.000000 0.000000 3.973610 
# 
# 
# High freq. dielectric constant tensor:
#      x y z
#    x 1.898710 0.000000 0.000000 
#    y 0.000000 1.886180 0.000000 
#    z 0.000000 0.000000 1.872710 
# 
# From -- ./inp_files/6082.got.cif
#   From: 2010.03.12/outbox.cif.g09.slc.cpg/sg18_4_cif.got.tgz:6082.got - 2010.04.10 18:53:55.
