data_PCOD8156011
_publ_section_title
;
Structure prediction by ZEFSAII (Michael W. Deem and Ramdas Pophale) SiO2 
 PCOD8156011
Probable space group: P 21 21 2
;
_chemical_formula_sum "Si O2"
_cell_formula_units_Z 18
_cell_length_a 11.017204
_cell_length_b 9.036697
_cell_length_c 9.162011
_cell_angle_alpha 90.000000
_cell_angle_beta 90.000000
_cell_angle_gamma 90.000000
_cell_volume 912.161884
_symmetry_space_group_name_H-M "P 21 21 2"
_symmetry_group_IT_number 18
_symmetry_cell_setting 'orthorhombic'
loop_
_space_group_symop_operation_xyz
x,y,z
-x,-y,z
1/2+x,1/2-y,-z
1/2-x,1/2+y,-z
loop_
_atom_site_type_symbol
_atom_site_label
_atom_site_fract_x
_atom_site_fract_y
_atom_site_fract_z
Si Si1 0.590861 0.709132 0.249746
Si Si2 0.000000 0.000000 0.994036
Si Si3 0.804571 0.977350 0.537065
Si Si4 0.150418 0.333705 0.646969
Si Si5 0.201279 0.062423 0.222395
O O1 0.609211 0.581967 0.369290
O O2 0.492508 0.820595 0.320814
O O3 0.713796 0.793439 0.211499
O O4 0.542519 0.638119 0.101399
O O5 0.892350 0.934798 0.091339
O O6 0.677157 0.061871 0.496448
O O7 0.784572 0.826119 0.626782
O O8 0.867273 0.936078 0.380628
O O9 0.215741 0.413133 0.785321
#
# Coordination Sequence:
#
# PCOD8156011 Si02
#       5
#     4   2   4   4   4
#     4  12  23  43  67  94 133 176 219 274 328 390
#     4  12  28  38  70  90 142 178 218 266 324 398
#     4  10  20  39  68  94 125 162 223 275 331 376
#     4  10  21  40  67  99 123 167 219 275 329 386
#     4  10  25  42  64  96 128 172 217 269 327 390
#
# _framework density 19.733339000000001
#
# number of rings (size 3 to 8) (size 9 to 14) (size 15 to 20)
#    1.333    0.000    4.444    0.667    6.222    0.000 
#    0.000    0.000    0.000    0.000    0.000    0.000 
#    0.000    0.000    0.000    0.000    0.000    0.000 
#
# Total GULP energy -223005.499614 kJ/mol
# GULP energy per Si atom -12389.194423 kJ/mol
# Density = 1.968842 g / cm^3
# Si number density = 19.733339 Si / 1000 Ang^3
#
#
#
# Elastic Constant Matrix: (Units=GPa)
#
#
# Indices 1 2 3 4 5 6 
#
# 1 96.1183 43.8496 59.7699 0.0000 0.0000 0.0000
# 2 43.8496 96.1840 45.0248 0.0000 0.0000 0.0000
# 3 59.7699 45.0248 117.1655 0.0000 0.0000 0.0000
# 4 0.0000 0.0000 0.0000 35.1236 0.0000 0.0000
# 5 0.0000 0.0000 0.0000 0.0000 39.2126 0.0000
# 6 0.0000 0.0000 0.0000 0.0000 0.0000 37.0352
#
#
#
# Elastic Compliance Matrix: (Units=1/GPa)
#
#
# Indices 1 2 3 4 5 6 
#
# 1 0.016639 -0.004405 -0.006795 0.000000 0.000000 0.000000
# 2 -0.004405 0.013843 -0.003073 0.000000 0.000000 0.000000
# 3 -0.006795 -0.003073 0.013182 0.000000 0.000000 0.000000
# 4 0.000000 0.000000 0.000000 0.028471 0.000000 0.000000
# 5 0.000000 0.000000 0.000000 0.000000 0.025502 0.000000
# 6 0.000000 0.000000 0.000000 0.000000 0.000000 0.027001
#
#
# Mechanical properties :
#
#
# Convention : Reuss Voigt Hill
#
# Bulk Modulus (GPa) = 66.14274 67.41737 66.78005
# Shear Modulus (GPa) = 31.60084 32.99586 32.29835
#
# Velocity S-wave (km/s) = 4.00608 4.09355 4.05005
# Velocity P-wave (km/s) = 7.41548 7.52205 7.46895
#
# Compressibility (1/GPa) = 0.01511882
#
# Stress axis : x y z
#
# Youngs Moduli (GPa) = 60.10032 72.23798 75.85914
#
# Poissons Ratio (x) = 0.31817 0.51550
# Poissons Ratio (y) = 0.26471 0.23310
# Poissons Ratio (z) = 0.40841 0.22197
#
# Static dielectric constant tensor:
#      x y z
#    x 3.346810 0.000000 0.000000 
#    y 0.000000 3.747980 0.000000 
#    z 0.000000 0.000000 3.493270 
# 
# 
# High freq. dielectric constant tensor:
#      x y z
#    x 1.751870 0.000000 0.000000 
#    y 0.000000 1.784920 0.000000 
#    z 0.000000 0.000000 1.752280 
# 
# From -- ./inp_files/3614.got.cif
#   From: 2010.03.12/outbox.cif.g09.slc.cpg/sg18_2_cif.got.tgz:3614.got - 2010.04.10 18:53:55.
