data_PCOD8156813
_publ_section_title
;
Structure prediction by ZEFSAII (Michael W. Deem and Ramdas Pophale) SiO2 
 PCOD8156813
Probable space group: P 21 21 21
;
_chemical_formula_sum "Si O2"
_cell_formula_units_Z 32
_cell_length_a 15.232552
_cell_length_b 6.465807
_cell_length_c 16.034713
_cell_angle_alpha 90.000000
_cell_angle_beta 90.000000
_cell_angle_gamma 90.000000
_cell_volume 1579.270771
_symmetry_space_group_name_H-M "P 21 21 21"
_symmetry_group_IT_number 19
_symmetry_cell_setting 'orthorhombic'
loop_
_space_group_symop_operation_xyz
x,y,z
1/2-x,-y,1/2+z
1/2+x,1/2-y,-z
-x,1/2+y,1/2-z
loop_
_atom_site_type_symbol
_atom_site_label
_atom_site_fract_x
_atom_site_fract_y
_atom_site_fract_z
Si Si1 0.045291 0.542190 0.028233
Si Si2 0.497479 0.577246 0.346602
Si Si3 0.074199 0.694061 0.403379
Si Si4 0.806563 0.809341 0.378720
Si Si5 0.420713 0.074949 0.632836
Si Si6 0.317346 0.339026 0.750746
Si Si7 0.884962 0.084721 0.917342
Si Si8 0.874167 0.752251 0.786885
O O1 0.135831 0.429474 0.052595
O O2 0.054309 0.782185 0.053583
O O3 0.962238 0.423804 0.072603
O O4 0.034615 0.544579 0.928546
O O5 0.535927 0.797738 0.371880
O O6 0.573371 0.460120 0.295141
O O7 0.414826 0.604496 0.285676
O O8 0.163225 0.681349 0.349270
O O9 0.093094 0.562264 0.485840
O O10 0.001932 0.574728 0.347793
O O11 0.836069 0.571157 0.378865
O O12 0.706496 0.794549 0.407838
O O13 0.812179 0.928428 0.288470
O O14 0.400502 0.224073 0.709649
O O15 0.227296 0.214484 0.735541
O O16 0.878333 0.859283 0.877383
#
# Coordination Sequence:
#
# PCOD8156813 Si02
#       8
#     4   4   4   4   4   4   4   4
#     4   9  21  37  59  90 114 156 200 241 299 366
#     4  11  21  38  62  84 118 156 205 246 302 363
#     4  10  22  36  60  86 117 159 196 246 300 360
#     4   9  20  38  61  85 121 155 192 249 298 354
#     4  10  20  38  60  83 118 155 195 242 307 352
#     4  10  23  36  58  90 117 154 203 245 297 359
#     4  10  21  40  59  87 122 156 198 248 301 352
#     4  11  22  39  61  87 117 161 201 253 300 354
#
# _framework density 20.262515
#
# number of rings (size 3 to 8) (size 9 to 14) (size 15 to 20)
#    0.000    2.000    1.250    1.500    7.000    0.000 
#    0.000    0.000    0.000    0.000    0.000    0.000 
#    0.000    0.000    0.000    0.000    0.000    0.000 
#
# Total GULP energy -396706.231189 kJ/mol
# GULP energy per Si atom -12397.069725 kJ/mol
# Density = 2.021640 g / cm^3
# Si number density = 20.262515 Si / 1000 Ang^3
#
#
#
# Elastic Constant Matrix: (Units=GPa)
#
#
# Indices 1 2 3 4 5 6 
#
# 1 71.4740 6.9200 41.1853 0.0000 0.0000 0.0000
# 2 6.9200 62.2098 21.8201 0.0000 0.0000 0.0000
# 3 41.1853 21.8201 105.0377 0.0000 0.0000 0.0000
# 4 0.0000 0.0000 0.0000 16.8395 0.0000 0.0000
# 5 0.0000 0.0000 0.0000 0.0000 28.3677 0.0000
# 6 0.0000 0.0000 0.0000 0.0000 0.0000 31.9589
#
#
#
# Elastic Compliance Matrix: (Units=1/GPa)
#
#
# Indices 1 2 3 4 5 6 
#
# 1 0.018090 0.000513 -0.007200 0.000000 0.000000 0.000000
# 2 0.000513 0.017352 -0.003806 0.000000 0.000000 0.000000
# 3 -0.007200 -0.003806 0.013134 0.000000 0.000000 0.000000
# 4 0.000000 0.000000 0.000000 0.059384 0.000000 0.000000
# 5 0.000000 0.000000 0.000000 0.000000 0.035251 0.000000
# 6 0.000000 0.000000 0.000000 0.000000 0.000000 0.031290
#
#
# Mechanical properties :
#
#
# Convention : Reuss Voigt Hill
#
# Bulk Modulus (GPa) = 36.24311 42.06360 39.15335
# Shear Modulus (GPa) = 24.42782 26.68629 25.55705
#
# Velocity S-wave (km/s) = 3.47589 3.63302 3.55533
# Velocity P-wave (km/s) = 5.83393 6.19700 6.01821
#
# Compressibility (1/GPa) = 0.02759145
#
# Stress axis : x y z
#
# Youngs Moduli (GPa) = 55.27886 57.62865 76.13818
#
# Poissons Ratio (x) = -0.02956 0.54817
# Poissons Ratio (y) = -0.02836 0.28977
# Poissons Ratio (z) = 0.39799 0.21933
#
# Static dielectric constant tensor:
#      x y z
#    x 3.723640 0.000000 0.000000 
#    y 0.000000 3.563290 0.000000 
#    z 0.000000 0.000000 3.636640 
# 
# 
# High freq. dielectric constant tensor:
#      x y z
#    x 1.795980 0.000000 0.000000 
#    y 0.000000 1.782370 0.000000 
#    z 0.000000 0.000000 1.784180 
# 
# From -- ./inp_files/6779.got.cif
#   From: 2010.03.12/outbox.cif.g09.slc.cpg/sg19_4_cif.got.tgz:6779.got - 2010.04.10 18:59:41.
