data_PCOD8156897
_publ_section_title
;
Structure prediction by ZEFSAII (Michael W. Deem and Ramdas Pophale) SiO2 
 PCOD8156897
Probable space group: P 21 21 21
;
_chemical_formula_sum "Si O2"
_cell_formula_units_Z 28
_cell_length_a 7.296007
_cell_length_b 9.767143
_cell_length_c 18.608311
_cell_angle_alpha 90.000000
_cell_angle_beta 90.000000
_cell_angle_gamma 90.000000
_cell_volume 1326.049524
_symmetry_space_group_name_H-M "P 21 21 21"
_symmetry_group_IT_number 19
_symmetry_cell_setting 'orthorhombic'
loop_
_space_group_symop_operation_xyz
x,y,z
1/2-x,-y,1/2+z
1/2+x,1/2-y,-z
-x,1/2+y,1/2-z
loop_
_atom_site_type_symbol
_atom_site_label
_atom_site_fract_x
_atom_site_fract_y
_atom_site_fract_z
Si Si1 0.990645 0.556433 0.626568
Si Si2 0.721507 0.359070 0.687755
Si Si3 0.854199 0.009174 0.302042
Si Si4 0.390463 0.149276 0.158407
Si Si5 0.670127 0.911934 0.517980
Si Si6 0.075590 0.285738 0.088366
Si Si7 0.214055 0.558956 0.850933
O O1 0.797847 0.486058 0.641551
O O2 0.155615 0.464515 0.661869
O O3 0.993328 0.708667 0.661156
O O4 0.012528 0.559882 0.540475
O O5 0.499028 0.367863 0.683560
O O6 0.787684 0.379880 0.768084
O O7 0.807248 0.221200 0.655655
O O8 0.833332 0.993961 0.216385
O O9 0.936115 0.868864 0.336586
O O10 0.234291 0.168690 0.097208
O O11 0.520130 0.019729 0.143286
O O12 0.617500 0.780238 0.567376
O O13 0.861836 0.884333 0.477373
O O14 0.683826 0.037346 0.573233
#
# Coordination Sequence:
#
# PCOD8156897 Si02
#       7
#     4   4   4   4   4   4   4
#     4  10  23  46  63  93 131 170 216 270 325 384
#     4  12  22  41  64  94 131 171 205 281 334 379
#     4  10  23  39  66  91 132 161 220 262 317 390
#     4  10  20  41  66  92 125 166 222 268 317 385
#     4  10  22  40  65  92 129 167 221 263 317 393
#     4  10  21  42  65  99 121 173 224 269 312 379
#     4  12  23  41  63 101 129 166 220 269 326 392
#
# _framework density 21.115351
#
# number of rings (size 3 to 8) (size 9 to 14) (size 15 to 20)
#    0.000    1.714    4.286    2.571    4.000    0.000 
#   10.286    0.000    0.000    0.000    0.000    0.000 
#    0.000    0.000    0.000    0.000    0.000    0.000 
#
# Total GULP energy -347054.724173 kJ/mol
# GULP energy per Si atom -12394.811578 kJ/mol
# Density = 2.106729 g / cm^3
# Si number density = 21.115351 Si / 1000 Ang^3
#
#
#
# Elastic Constant Matrix: (Units=GPa)
#
#
# Indices 1 2 3 4 5 6 
#
# 1 50.6327 17.5711 1.5454 0.0000 0.0000 0.0000
# 2 17.5711 60.5242 1.7212 0.0000 0.0000 0.0000
# 3 1.5454 1.7212 96.8511 0.0000 0.0000 0.0000
# 4 0.0000 0.0000 0.0000 30.2268 0.0000 0.0000
# 5 0.0000 0.0000 0.0000 0.0000 21.2856 0.0000
# 6 0.0000 0.0000 0.0000 0.0000 0.0000 36.2879
#
#
#
# Elastic Compliance Matrix: (Units=1/GPa)
#
#
# Indices 1 2 3 4 5 6 
#
# 1 0.021968 -0.006371 -0.000237 0.000000 0.000000 0.000000
# 2 -0.006371 0.018378 -0.000225 0.000000 0.000000 0.000000
# 3 -0.000237 -0.000225 0.010333 0.000000 0.000000 0.000000
# 4 0.000000 0.000000 0.000000 0.033083 0.000000 0.000000
# 5 0.000000 0.000000 0.000000 0.000000 0.046980 0.000000
# 6 0.000000 0.000000 0.000000 0.000000 0.000000 0.027557
#
#
# Mechanical properties :
#
#
# Convention : Reuss Voigt Hill
#
# Bulk Modulus (GPa) = 27.01753 27.74259 27.38006
# Shear Modulus (GPa) = 27.12903 30.03808 28.58355
#
# Velocity S-wave (km/s) = 3.58830 3.77579 3.68324
# Velocity P-wave (km/s) = 5.47639 5.67238 5.57525
#
# Compressibility (1/GPa) = 0.03701301
#
# Stress axis : x y z
#
# Youngs Moduli (GPa) = 45.52019 54.41196 96.77812
#
# Poissons Ratio (x) = 0.34666 0.02297
# Poissons Ratio (y) = 0.29001 0.02177
# Poissons Ratio (z) = 0.01080 0.01224
#
# Static dielectric constant tensor:
#      x y z
#    x 3.841700 0.000000 0.000000 
#    y 0.000000 3.615260 0.000000 
#    z 0.000000 0.000000 3.971540 
# 
# 
# High freq. dielectric constant tensor:
#      x y z
#    x 1.819830 0.000000 0.000000 
#    y 0.000000 1.796590 0.000000 
#    z 0.000000 0.000000 1.838830 
# 
# From -- ./inp_files/2940.got.cif
#   From: 2010.03.12/outbox.cif.g09.slc.cpg/sg19_2_cif.got.tgz:2940.got - 2010.04.10 18:59:41.
