data_PCOD8156101
_publ_section_title
;
Structure prediction by ZEFSAII (Michael W. Deem and Ramdas Pophale) SiO2 
 PCOD8156101
Probable space group: P 21 21 2
;
_chemical_formula_sum "Si O2"
_cell_formula_units_Z 28
_cell_length_a 5.286252
_cell_length_b 22.035854
_cell_length_c 11.066966
_cell_angle_alpha 90.000000
_cell_angle_beta 90.000000
_cell_angle_gamma 90.000000
_cell_volume 1289.158524
_symmetry_space_group_name_H-M "P 21 21 2"
_symmetry_group_IT_number 18
_symmetry_cell_setting 'orthorhombic'
loop_
_space_group_symop_operation_xyz
x,y,z
-x,-y,z
1/2+x,1/2-y,-z
1/2-x,1/2+y,-z
loop_
_atom_site_type_symbol
_atom_site_label
_atom_site_fract_x
_atom_site_fract_y
_atom_site_fract_z
Si Si1 0.083354 0.226016 0.791426
Si Si2 0.532578 0.875590 0.808371
Si Si3 0.363281 0.826883 0.045660
Si Si4 0.705783 0.182379 0.602141
Si Si5 0.051631 0.799474 0.369422
Si Si6 0.000000 0.500000 0.063894
Si Si7 0.360125 0.627213 0.835593
Si Si8 0.500000 0.500000 0.908708
O O1 0.201470 0.159423 0.804331
O O2 0.042456 0.257585 0.923059
O O3 0.243685 0.280173 0.729074
O O4 0.841719 0.219160 0.709203
O O5 0.423504 0.874480 0.670739
O O6 0.571726 0.944071 0.849306
O O7 0.356210 0.836658 0.900736
O O8 0.584822 0.870578 0.100490
O O9 0.079216 0.842134 0.084905
O O10 0.520390 0.236744 0.561207
O O11 0.850788 0.159216 0.482854
O O12 0.847287 0.841098 0.297488
O O13 0.251963 0.483464 0.988853
O O14 0.431418 0.556335 0.822639
#
# Coordination Sequence:
#
# PCOD8156101 Si02
#       8
#     4   4   4   4   4   2   4   2
#     4  10  23  36  62  93 129 165 214 275 339 407
#     4  11  26  39  64  96 131 182 222 275 343 417
#     4  11  23  40  61 100 137 161 210 277 345 401
#     4  11  21  39  62  94 128 178 219 272 343 413
#     4  10  21  39  63  91 131 170 221 272 339 406
#     4  12  26  46  68  92 140 180 228 274 338 430
#     4  11  22  40  68  95 124 173 220 276 328 399
#     4  12  22  44  68  94 128 176 230 278 336 404
#
# _framework density 21.719595000000002
#
# number of rings (size 3 to 8) (size 9 to 14) (size 15 to 20)
#    0.000    1.143    5.714    0.000    6.000    0.000 
#    0.000    0.000    3.143    0.000    0.000    0.000 
#    0.000    0.000    0.000    0.000    0.000    0.000 
#
# Total GULP energy -346888.451215 kJ/mol
# GULP energy per Si atom -12388.873258 kJ/mol
# Density = 2.167016 g / cm^3
# Si number density = 21.719595 Si / 1000 Ang^3
#
#
#
# Elastic Constant Matrix: (Units=GPa)
#
#
# Indices 1 2 3 4 5 6 
#
# 1 62.3292 -6.3708 9.4301 0.0000 0.0000 0.0000
# 2 -6.3708 96.7828 25.0505 0.0000 0.0000 0.0000
# 3 9.4301 25.0505 104.1665 0.0000 0.0000 0.0000
# 4 0.0000 0.0000 0.0000 23.4466 0.0000 0.0000
# 5 0.0000 0.0000 0.0000 0.0000 20.9056 0.0000
# 6 0.0000 0.0000 0.0000 0.0000 0.0000 22.1866
#
#
#
# Elastic Compliance Matrix: (Units=1/GPa)
#
#
# Indices 1 2 3 4 5 6 
#
# 1 0.016487 0.001569 -0.001870 0.000000 0.000000 0.000000
# 2 0.001569 0.011168 -0.002828 0.000000 0.000000 0.000000
# 3 -0.001870 -0.002828 0.010449 0.000000 0.000000 0.000000
# 4 0.000000 0.000000 0.000000 0.042650 0.000000 0.000000
# 5 0.000000 0.000000 0.000000 0.000000 0.047834 0.000000
# 6 0.000000 0.000000 0.000000 0.000000 0.000000 0.045072
#
#
# Mechanical properties :
#
#
# Convention : Reuss Voigt Hill
#
# Bulk Modulus (GPa) = 31.39981 35.49979 33.44980
# Shear Modulus (GPa) = 26.24217 28.98568 27.61393
#
# Velocity S-wave (km/s) = 3.47973 3.65710 3.56951
# Velocity P-wave (km/s) = 5.53470 5.84915 5.69410
#
# Compressibility (1/GPa) = 0.03184732
#
# Stress axis : x y z
#
# Youngs Moduli (GPa) = 60.65329 89.54461 95.69995
#
# Poissons Ratio (x) = -0.14052 0.17895
# Poissons Ratio (y) = -0.09518 0.27061
# Poissons Ratio (z) = 0.11342 0.25321
#
# Static dielectric constant tensor:
#      x y z
#    x 3.980140 0.000000 0.000000 
#    y 0.000000 3.790920 0.000000 
#    z 0.000000 0.000000 4.041890 
# 
# 
# High freq. dielectric constant tensor:
#      x y z
#    x 1.860950 0.000000 0.000000 
#    y 0.000000 1.826950 0.000000 
#    z 0.000000 0.000000 1.848400 
# 
# From -- ./inp_files/5225.got.cif
#   From: 2010.03.12/outbox.cif.g09.slc.cpg/sg18_3_cif.got.tgz:5225.got - 2010.04.10 18:53:55.
