data_PCOD8156277
_publ_section_title
;
Structure prediction by ZEFSAII (Michael W. Deem and Ramdas Pophale) SiO2 
 PCOD8156277
Probable space group: P 21 21 2
;
_chemical_formula_sum "Si O2"
_cell_formula_units_Z 18
_cell_length_a 9.276427
_cell_length_b 10.837475
_cell_length_c 8.285364
_cell_angle_alpha 90.000000
_cell_angle_beta 90.000000
_cell_angle_gamma 90.000000
_cell_volume 832.952878
_symmetry_space_group_name_H-M "P 21 21 2"
_symmetry_group_IT_number 18
_symmetry_cell_setting 'orthorhombic'
loop_
_space_group_symop_operation_xyz
x,y,z
-x,-y,z
1/2+x,1/2-y,-z
1/2-x,1/2+y,-z
loop_
_atom_site_type_symbol
_atom_site_label
_atom_site_fract_x
_atom_site_fract_y
_atom_site_fract_z
Si Si1 0.614838 0.291560 0.695649
Si Si2 0.603903 0.885381 0.825825
Si Si3 0.000000 0.000000 0.094151
Si Si4 0.118369 0.790649 0.881900
Si Si5 0.396902 0.616579 0.344989
O O1 0.465388 0.216986 0.707185
O O2 0.604244 0.418475 0.794914
O O3 0.738904 0.206524 0.772947
O O4 0.650558 0.320066 0.510950
O O5 0.755191 0.927289 0.750019
O O6 0.500000 0.000000 0.843722
O O7 0.623200 0.827641 0.003003
O O8 0.105729 0.917831 0.982854
O O9 0.979195 0.782026 0.764600
O O10 0.500000 0.500000 0.378169
#
# Coordination Sequence:
#
# PCOD8156277 Si02
#       5
#     4   4   2   4   4
#     4  11  24  44  72 103 140 184 235 290 358 413
#     4  11  25  43  69 103 138 186 240 283 349 427
#     4  10  22  44  72 104 136 190 232 294 340 428
#     4  11  24  44  73 100 140 187 237 286 351 414
#     4  12  24  45  70 100 145 181 231 298 356 414
#
# _framework density 21.609864999999999
#
# number of rings (size 3 to 8) (size 9 to 14) (size 15 to 20)
#    0.000    0.889    2.222    5.333    3.111    0.000 
#    0.000    2.222    0.000    0.000    0.000    0.000 
#    0.000    0.000    0.000    0.000    0.000    0.000 
#
# Total GULP energy -223269.805918 kJ/mol
# GULP energy per Si atom -12403.878107 kJ/mol
# Density = 2.156068 g / cm^3
# Si number density = 21.609865 Si / 1000 Ang^3
#
#
#
# Elastic Constant Matrix: (Units=GPa)
#
#
# Indices 1 2 3 4 5 6 
#
# 1 130.4952 39.2704 48.6130 0.0000 0.0000 0.0000
# 2 39.2704 95.2686 47.9278 0.0000 0.0000 0.0000
# 3 48.6130 47.9278 147.8542 0.0000 0.0000 0.0000
# 4 0.0000 0.0000 0.0000 22.9501 0.0000 0.0000
# 5 0.0000 0.0000 0.0000 0.0000 37.0554 0.0000
# 6 0.0000 0.0000 0.0000 0.0000 0.0000 37.1523
#
#
#
# Elastic Compliance Matrix: (Units=1/GPa)
#
#
# Indices 1 2 3 4 5 6 
#
# 1 0.009296 -0.002741 -0.002168 0.000000 0.000000 0.000000
# 2 -0.002741 0.013350 -0.003426 0.000000 0.000000 0.000000
# 3 -0.002168 -0.003426 0.008587 0.000000 0.000000 0.000000
# 4 0.000000 0.000000 0.000000 0.043573 0.000000 0.000000
# 5 0.000000 0.000000 0.000000 0.000000 0.026987 0.000000
# 6 0.000000 0.000000 0.000000 0.000000 0.000000 0.026916
#
#
# Mechanical properties :
#
#
# Convention : Reuss Voigt Hill
#
# Bulk Modulus (GPa) = 68.67063 71.69335 70.18199
# Shear Modulus (GPa) = 33.28170 35.28535 34.28353
#
# Velocity S-wave (km/s) = 3.92869 4.04522 3.98738
# Velocity P-wave (km/s) = 7.24057 7.42069 7.33118
#
# Compressibility (1/GPa) = 0.01456227
#
# Stress axis : x y z
#
# Youngs Moduli (GPa) = 107.57823 74.90491 116.45779
#
# Poissons Ratio (x) = 0.20533 0.25245
# Poissons Ratio (y) = 0.29489 0.39902
# Poissons Ratio (z) = 0.23320 0.25665
#
# Static dielectric constant tensor:
#      x y z
#    x 3.952500 0.000000 0.000000 
#    y 0.000000 3.911410 0.000000 
#    z 0.000000 0.000000 4.028600 
# 
# 
# High freq. dielectric constant tensor:
#      x y z
#    x 1.852360 0.000000 0.000000 
#    y 0.000000 1.847910 0.000000 
#    z 0.000000 0.000000 1.857340 
# 
# From -- ./inp_files/2884.got.cif
#   From: 2010.03.12/outbox.cif.g09.slc.cpg/sg18_2_cif.got.tgz:2884.got - 2010.04.10 18:53:55.
