data_PCOD8156736
_publ_section_title
;
Structure prediction by ZEFSAII (Michael W. Deem and Ramdas Pophale) SiO2 
 PCOD8156736
Probable space group: P 21 21 21
;
_chemical_formula_sum "Si O2"
_cell_formula_units_Z 32
_cell_length_a 8.414296
_cell_length_b 8.828430
_cell_length_c 20.322802
_cell_angle_alpha 90.000000
_cell_angle_beta 90.000000
_cell_angle_gamma 90.000000
_cell_volume 1509.679819
_symmetry_space_group_name_H-M "P 21 21 21"
_symmetry_group_IT_number 19
_symmetry_cell_setting 'orthorhombic'
loop_
_space_group_symop_operation_xyz
x,y,z
1/2-x,-y,1/2+z
1/2+x,1/2-y,-z
-x,1/2+y,1/2-z
loop_
_atom_site_type_symbol
_atom_site_label
_atom_site_fract_x
_atom_site_fract_y
_atom_site_fract_z
Si Si1 0.819371 0.504750 0.448049
Si Si2 0.714043 0.953502 0.800383
Si Si3 0.635979 0.369678 0.708587
Si Si4 0.357908 0.622099 0.892380
Si Si5 0.908438 0.962983 0.670522
Si Si6 0.292007 0.220201 0.157024
Si Si7 0.110449 0.223092 0.622816
Si Si8 0.819843 0.404020 0.585562
O O1 0.795832 0.660938 0.408830
O O2 0.676548 0.389926 0.432069
O O3 0.811728 0.528921 0.527237
O O4 0.987008 0.434455 0.428247
O O5 0.761557 0.102091 0.841446
O O6 0.529239 0.957792 0.780495
O O7 0.833430 0.933576 0.740736
O O8 0.738530 0.803212 0.843807
O O9 0.610832 0.197871 0.680565
O O10 0.722816 0.364614 0.778639
O O11 0.743557 0.463408 0.654876
O O12 0.234040 0.482692 0.882727
O O13 0.276874 0.752678 0.937289
O O14 0.020726 0.820716 0.651920
O O15 0.006938 0.121444 0.673710
O O16 0.003080 0.357935 0.594188
#
# Coordination Sequence:
#
# PCOD8156736 Si02
#       8
#     4   4   4   4   4   4   4   4
#     4  11  20  37  60  90 115 156 206 255 299 356
#     4  12  20  36  57  84 122 158 198 247 312 366
#     4  10  21  38  58  86 123 156 204 246 300 361
#     4   9  18  37  57  88 113 153 202 249 299 342
#     4  10  20  36  57  83 122 153 207 245 298 364
#     4  11  24  36  59  92 122 158 199 255 309 364
#     4  10  20  34  59  83 114 161 201 255 297 362
#     4   9  19  36  59  86 115 153 211 254 290 355
#
# _framework density 21.196549999999998
#
# number of rings (size 3 to 8) (size 9 to 14) (size 15 to 20)
#    0.750    1.000    2.500    3.000    0.000    0.000 
#    0.000    5.000    0.000    0.000    0.000    0.000 
#    0.000    0.000    0.000    0.000    0.000    0.000 
#
# Total GULP energy -396584.296941 kJ/mol
# GULP energy per Si atom -12393.259279 kJ/mol
# Density = 2.114831 g / cm^3
# Si number density = 21.196550 Si / 1000 Ang^3
#
#
#
# Elastic Constant Matrix: (Units=GPa)
#
#
# Indices 1 2 3 4 5 6 
#
# 1 101.3219 10.6818 3.5799 0.0000 0.0000 0.0000
# 2 10.6818 35.5489 0.9274 0.0000 0.0000 0.0000
# 3 3.5799 0.9274 51.7874 0.0000 0.0000 0.0000
# 4 0.0000 0.0000 0.0000 18.9963 0.0000 0.0000
# 5 0.0000 0.0000 0.0000 0.0000 17.7997 0.0000
# 6 0.0000 0.0000 0.0000 0.0000 0.0000 25.8619
#
#
#
# Elastic Compliance Matrix: (Units=1/GPa)
#
#
# Indices 1 2 3 4 5 6 
#
# 1 0.010214 -0.003052 -0.000651 0.000000 0.000000 0.000000
# 2 -0.003052 0.029055 -0.000309 0.000000 0.000000 0.000000
# 3 -0.000651 -0.000309 0.019360 0.000000 0.000000 0.000000
# 4 0.000000 0.000000 0.000000 0.052642 0.000000 0.000000
# 5 0.000000 0.000000 0.000000 0.000000 0.056181 0.000000
# 6 0.000000 0.000000 0.000000 0.000000 0.000000 0.038667
#
#
# Mechanical properties :
#
#
# Convention : Reuss Voigt Hill
#
# Bulk Modulus (GPa) = 19.76124 24.33738 22.04931
# Shear Modulus (GPa) = 21.64376 24.09619 22.86997
#
# Velocity S-wave (km/s) = 3.19893 3.37530 3.28830
# Velocity P-wave (km/s) = 4.79451 5.16690 4.98418
#
# Compressibility (1/GPa) = 0.05060411
#
# Stress axis : x y z
#
# Youngs Moduli (GPa) = 97.90168 34.41693 51.65212
#
# Poissons Ratio (x) = 0.10505 0.03365
# Poissons Ratio (y) = 0.29882 0.01598
# Poissons Ratio (z) = 0.06378 0.01065
#
# Static dielectric constant tensor:
#      x y z
#    x 3.979850 0.000000 0.000000 
#    y 0.000000 3.468170 0.000000 
#    z 0.000000 0.000000 3.635870 
# 
# 
# High freq. dielectric constant tensor:
#      x y z
#    x 1.847470 0.000000 0.000000 
#    y 0.000000 1.795580 0.000000 
#    z 0.000000 0.000000 1.809730 
# 
# From -- ./inp_files/7048.got.cif
#   From: 2010.03.12/outbox.cif.g09.slc.cpg/sg19_4_cif.got.tgz:7048.got - 2010.04.10 18:59:41.
