data_PCOD8156585
_publ_section_title
;
Structure prediction by ZEFSAII (Michael W. Deem and Ramdas Pophale) SiO2 
 PCOD8156585
Probable space group: P 21 21 21
;
_chemical_formula_sum "Si O2"
_cell_formula_units_Z 32
_cell_length_a 12.696576
_cell_length_b 11.766617
_cell_length_c 9.670707
_cell_angle_alpha 90.000000
_cell_angle_beta 90.000000
_cell_angle_gamma 90.000000
_cell_volume 1444.762496
_symmetry_space_group_name_H-M "P 21 21 21"
_symmetry_group_IT_number 19
_symmetry_cell_setting 'orthorhombic'
loop_
_space_group_symop_operation_xyz
x,y,z
1/2-x,-y,1/2+z
1/2+x,1/2-y,-z
-x,1/2+y,1/2-z
loop_
_atom_site_type_symbol
_atom_site_label
_atom_site_fract_x
_atom_site_fract_y
_atom_site_fract_z
Si Si1 0.952181 0.446721 0.587749
Si Si2 0.175127 0.450848 0.516772
Si Si3 0.180841 0.246358 0.725974
Si Si4 0.169459 0.340894 0.007245
Si Si5 0.955774 0.204665 0.650284
Si Si6 0.273766 0.726256 0.792416
Si Si7 0.525134 0.528069 0.413825
Si Si8 0.267709 0.927409 0.003016
O O1 0.955796 0.312203 0.545614
O O2 0.953024 0.451806 0.752864
O O3 0.842278 0.494613 0.524972
O O4 0.056632 0.505314 0.524800
O O5 0.190433 0.364658 0.644369
O O6 0.260466 0.548180 0.532816
O O7 0.185681 0.384375 0.373290
O O8 0.221231 0.268354 0.881574
O O9 0.241505 0.145121 0.646125
O O10 0.059341 0.207475 0.745919
O O11 0.047931 0.372911 0.974673
O O12 0.167675 0.264968 0.145599
O O13 0.850077 0.208505 0.741207
O O14 0.961039 0.089438 0.560806
O O15 0.294119 0.841173 0.877813
O O16 0.638812 0.520223 0.489578
#
# Coordination Sequence:
#
# PCOD8156585 Si02
#       8
#     4   4   4   4   4   4   4   4
#     4  10  20  40  66  86 123 167 214 251 309 380
#     4  10  18  34  59  93 118 157 203 259 309 360
#     4   9  19  37  63  88 120 165 211 241 317 379
#     4  12  20  34  64  99 123 157 209 269 313 369
#     4   9  17  37  61  87 115 165 201 245 305 375
#     4  10  20  34  59  91 130 152 204 266 314 361
#     4  11  20  38  68  89 121 166 214 247 313 384
#     4   9  22  42  64  85 118 177 208 252 308 384
#
# _framework density 22.148969999999998
#
# number of rings (size 3 to 8) (size 9 to 14) (size 15 to 20)
#    0.000    2.000    3.750    2.250    0.000    0.000 
#    2.250    6.250    2.750    0.000    0.000    0.000 
#    0.000    0.000    0.000    0.000    0.000    0.000 
#
# Total GULP energy -396599.261946 kJ/mol
# GULP energy per Si atom -12393.726936 kJ/mol
# Density = 2.209856 g / cm^3
# Si number density = 22.148970 Si / 1000 Ang^3
#
#
#
# Elastic Constant Matrix: (Units=GPa)
#
#
# Indices 1 2 3 4 5 6 
#
# 1 138.8784 9.7033 36.2746 0.0000 0.0000 0.0000
# 2 9.7033 16.6446 9.6816 0.0000 0.0000 0.0000
# 3 36.2746 9.6816 127.4481 0.0000 0.0000 0.0000
# 4 0.0000 0.0000 0.0000 7.4603 0.0000 0.0000
# 5 0.0000 0.0000 0.0000 0.0000 29.3711 0.0000
# 6 0.0000 0.0000 0.0000 0.0000 0.0000 30.7057
#
#
#
# Elastic Compliance Matrix: (Units=1/GPa)
#
#
# Indices 1 2 3 4 5 6 
#
# 1 0.007967 -0.003479 -0.002003 0.000000 0.000000 0.000000
# 2 -0.003479 0.064376 -0.003900 0.000000 0.000000 0.000000
# 3 -0.002003 -0.003900 0.008713 0.000000 0.000000 0.000000
# 4 0.000000 0.000000 0.000000 0.134042 0.000000 0.000000
# 5 0.000000 0.000000 0.000000 0.000000 0.034047 0.000000
# 6 0.000000 0.000000 0.000000 0.000000 0.000000 0.032567
#
#
# Mechanical properties :
#
#
# Convention : Reuss Voigt Hill
#
# Bulk Modulus (GPa) = 16.05370 43.81002 29.93186
# Shear Modulus (GPa) = 15.56462 28.66154 22.11308
#
# Velocity S-wave (km/s) = 2.65377 3.60117 3.16314
# Velocity P-wave (km/s) = 4.08091 6.09212 5.18496
#
# Compressibility (1/GPa) = 0.06229093
#
# Stress axis : x y z
#
# Youngs Moduli (GPa) = 125.51971 15.53364 114.77407
#
# Poissons Ratio (x) = 0.05405 0.22992
# Poissons Ratio (y) = 0.43671 0.44763
# Poissons Ratio (z) = 0.25145 0.06058
#
# Static dielectric constant tensor:
#      x y z
#    x 4.248760 0.000000 0.000000 
#    y 0.000000 4.159720 0.000000 
#    z 0.000000 0.000000 3.769110 
# 
# 
# High freq. dielectric constant tensor:
#      x y z
#    x 1.873060 0.000000 0.000000 
#    y 0.000000 1.862440 0.000000 
#    z 0.000000 0.000000 1.840820 
# 
# From -- ./inp_files/3595.got.cif
#   From: 2010.03.12/outbox.cif.g09.slc.cpg/sg19_2_cif.got.tgz:3595.got - 2010.04.10 18:59:41.
