data_PCOD8156884
_publ_section_title
;
Structure prediction by ZEFSAII (Michael W. Deem and Ramdas Pophale) SiO2 
 PCOD8156884
Probable space group: P 21 21 21
;
_chemical_formula_sum "Si O2"
_cell_formula_units_Z 28
_cell_length_a 12.267596
_cell_length_b 9.452306
_cell_length_c 11.345596
_cell_angle_alpha 90.000000
_cell_angle_beta 90.000000
_cell_angle_gamma 90.000000
_cell_volume 1315.602084
_symmetry_space_group_name_H-M "P 21 21 21"
_symmetry_group_IT_number 19
_symmetry_cell_setting 'orthorhombic'
loop_
_space_group_symop_operation_xyz
x,y,z
1/2-x,-y,1/2+z
1/2+x,1/2-y,-z
-x,1/2+y,1/2-z
loop_
_atom_site_type_symbol
_atom_site_label
_atom_site_fract_x
_atom_site_fract_y
_atom_site_fract_z
Si Si1 0.188855 0.079818 0.710234
Si Si2 0.100771 0.879958 0.891075
Si Si3 0.577283 0.542574 0.846431
Si Si4 0.448600 0.121536 0.068963
Si Si5 0.956217 0.774686 0.332750
Si Si6 0.795262 0.183137 0.792544
Si Si7 0.116167 0.378920 0.730430
O O1 0.310134 0.017428 0.722836
O O2 0.198212 0.248169 0.715605
O O3 0.124875 0.028318 0.826252
O O4 0.124007 0.019389 0.594914
O O5 0.176566 0.756704 0.833733
O O6 0.973335 0.851041 0.870533
O O7 0.118997 0.896406 0.028911
O O8 0.514564 0.391815 0.849776
O O9 0.500845 0.662503 0.789630
O O10 0.377189 0.256024 0.109182
O O11 0.560621 0.116104 0.141798
O O12 0.482334 0.134532 0.933297
O O13 0.826774 0.790915 0.336064
O O14 0.811310 0.016453 0.786592
#
# Coordination Sequence:
#
# PCOD8156884 Si02
#       7
#     4   4   4   4   4   4   4
#     4  10  22  42  70  97 129 187 230 273 349 425
#     4  10  21  45  68  93 136 180 236 279 344 423
#     4  12  27  43  67  99 141 184 227 301 353 427
#     4  10  21  44  73  90 137 186 228 285 344 424
#     4  12  27  45  65 107 141 178 240 295 363 406
#     4  10  22  45  68 102 140 178 235 294 336 428
#     4  10  20  40  69 102 126 181 238 273 343 417
#
# _framework density 21.283028999999999
#
# number of rings (size 3 to 8) (size 9 to 14) (size 15 to 20)
#    0.000    1.714    2.857    5.143    4.000    4.571 
#    2.571    0.000    0.000    0.000    0.000    0.000 
#    0.000    0.000    0.000    0.000    0.000    0.000 
#
# Total GULP energy -347147.062810 kJ/mol
# GULP energy per Si atom -12398.109386 kJ/mol
# Density = 2.123459 g / cm^3
# Si number density = 21.283029 Si / 1000 Ang^3
#
#
#
# Elastic Constant Matrix: (Units=GPa)
#
#
# Indices 1 2 3 4 5 6 
#
# 1 65.7136 19.0971 24.7342 0.0000 0.0000 0.0000
# 2 19.0971 153.7765 31.8436 0.0000 0.0000 0.0000
# 3 24.7342 31.8436 89.2710 0.0000 0.0000 0.0000
# 4 0.0000 0.0000 0.0000 14.3145 0.0000 0.0000
# 5 0.0000 0.0000 0.0000 0.0000 18.3510 0.0000
# 6 0.0000 0.0000 0.0000 0.0000 0.0000 31.3992
#
#
#
# Elastic Compliance Matrix: (Units=1/GPa)
#
#
# Indices 1 2 3 4 5 6 
#
# 1 0.017206 -0.001241 -0.004324 0.000000 0.000000 0.000000
# 2 -0.001241 0.007111 -0.002193 0.000000 0.000000 0.000000
# 3 -0.004324 -0.002193 0.013182 0.000000 0.000000 0.000000
# 4 0.000000 0.000000 0.000000 0.069859 0.000000 0.000000
# 5 0.000000 0.000000 0.000000 0.000000 0.054493 0.000000
# 6 0.000000 0.000000 0.000000 0.000000 0.000000 0.031848
#
#
# Mechanical properties :
#
#
# Convention : Reuss Voigt Hill
#
# Bulk Modulus (GPa) = 45.49083 51.12344 48.30714
# Shear Modulus (GPa) = 23.09001 28.35201 25.72101
#
# Velocity S-wave (km/s) = 3.29736 3.65381 3.48015
# Velocity P-wave (km/s) = 5.99311 6.47096 6.23662
#
# Compressibility (1/GPa) = 0.02198245
#
# Stress axis : x y z
#
# Youngs Moduli (GPa) = 58.11929 140.62426 75.86008
#
# Poissons Ratio (x) = 0.17455 0.32806
# Poissons Ratio (y) = 0.07214 0.16634
# Poissons Ratio (z) = 0.25134 0.30834
#
# Static dielectric constant tensor:
#      x y z
#    x 3.714770 0.000000 0.000000 
#    y 0.000000 3.891730 0.000000 
#    z 0.000000 0.000000 3.596120 
# 
# 
# High freq. dielectric constant tensor:
#      x y z
#    x 1.834670 0.000000 0.000000 
#    y 0.000000 1.841470 0.000000 
#    z 0.000000 0.000000 1.813490 
# 
# From -- ./inp_files/4957.got.cif
#   From: 2010.03.12/outbox.cif.g09.slc.cpg/sg19_3_cif.got.tgz:4957.got - 2010.04.10 18:59:41.
