data_PCOD8156560
_publ_section_title
;
Structure prediction by ZEFSAII (Michael W. Deem and Ramdas Pophale) SiO2 
 PCOD8156560
Probable space group: P 21 21 21
;
_chemical_formula_sum "Si O2"
_cell_formula_units_Z 28
_cell_length_a 8.703100
_cell_length_b 15.407751
_cell_length_c 9.336055
_cell_angle_alpha 90.000000
_cell_angle_beta 90.000000
_cell_angle_gamma 90.000000
_cell_volume 1251.920141
_symmetry_space_group_name_H-M "P 21 21 21"
_symmetry_group_IT_number 19
_symmetry_cell_setting 'orthorhombic'
loop_
_space_group_symop_operation_xyz
x,y,z
1/2-x,-y,1/2+z
1/2+x,1/2-y,-z
-x,1/2+y,1/2-z
loop_
_atom_site_type_symbol
_atom_site_label
_atom_site_fract_x
_atom_site_fract_y
_atom_site_fract_z
Si Si1 0.547656 0.953427 0.404404
Si Si2 0.705842 0.167841 0.806044
Si Si3 0.661061 0.349387 0.905337
Si Si4 0.636762 0.496199 0.372833
Si Si5 0.803895 0.250895 0.531384
Si Si6 0.047285 0.904577 0.107538
Si Si7 0.028891 0.137293 0.406606
O O1 0.717516 0.915747 0.379144
O O2 0.439438 0.875448 0.458091
O O3 0.477104 0.993969 0.260913
O O4 0.560598 0.025494 0.528264
O O5 0.682719 0.245865 0.919512
O O6 0.821826 0.207546 0.687517
O O7 0.543372 0.138216 0.739528
O O8 0.821579 0.403353 0.908000
O O9 0.573053 0.374094 0.757880
O O10 0.554115 0.453639 0.511284
O O11 0.796269 0.447492 0.334289
O O12 0.630058 0.286574 0.515033
O O13 0.914153 0.333514 0.513018
O O14 0.853584 0.174019 0.419993
#
# Coordination Sequence:
#
# PCOD8156560 Si02
#       7
#     4   4   4   4   4   4   4
#     4  11  23  41  62  94 123 159 205 259 314 367
#     4  11  22  41  61  91 127 159 203 265 304 363
#     4  10  21  39  60  88 124 159 204 249 309 367
#     4  10  20  39  66  90 122 162 205 248 306 377
#     4  10  17  36  62  87 115 159 207 245 287 367
#     4  10  22  41  61  91 125 165 205 252 306 374
#     4  10  19  35  64  87 116 165 205 248 298 365
#
# _framework density 22.365642999999999
#
# number of rings (size 3 to 8) (size 9 to 14) (size 15 to 20)
#    0.000    1.714    4.286    3.429    0.000    1.143 
#    5.143    2.857    0.000    0.000    0.000    0.000 
#    0.000    0.000    0.000    0.000    0.000    0.000 
#
# Total GULP energy -347011.360079 kJ/mol
# GULP energy per Si atom -12393.262860 kJ/mol
# Density = 2.231474 g / cm^3
# Si number density = 22.365643 Si / 1000 Ang^3
#
#
#
# Elastic Constant Matrix: (Units=GPa)
#
#
# Indices 1 2 3 4 5 6 
#
# 1 41.1922 11.1954 -6.7797 0.0000 0.0000 0.0000
# 2 11.1954 78.2457 -12.7617 0.0000 0.0000 0.0000
# 3 -6.7797 -12.7617 23.1764 0.0000 0.0000 0.0000
# 4 0.0000 0.0000 0.0000 34.9834 0.0000 0.0000
# 5 0.0000 0.0000 0.0000 0.0000 22.0412 0.0000
# 6 0.0000 0.0000 0.0000 0.0000 0.0000 31.8371
#
#
#
# Elastic Compliance Matrix: (Units=1/GPa)
#
#
# Indices 1 2 3 4 5 6 
#
# 1 0.026023 -0.002727 0.006111 0.000000 0.000000 0.000000
# 2 -0.002727 0.014327 0.007091 0.000000 0.000000 0.000000
# 3 0.006111 0.007091 0.048840 0.000000 0.000000 0.000000
# 4 0.000000 0.000000 0.000000 0.028585 0.000000 0.000000
# 5 0.000000 0.000000 0.000000 0.000000 0.045370 0.000000
# 6 0.000000 0.000000 0.000000 0.000000 0.000000 0.031410
#
#
# Mechanical properties :
#
#
# Convention : Reuss Voigt Hill
#
# Bulk Modulus (GPa) = 9.07927 13.99138 11.53532
# Shear Modulus (GPa) = 23.77365 27.83637 25.80501
#
# Velocity S-wave (km/s) = 3.26383 3.53172 3.40042
# Velocity P-wave (km/s) = 4.27455 4.78540 4.53717
#
# Compressibility (1/GPa) = 0.11014105
#
# Stress axis : x y z
#
# Youngs Moduli (GPa) = 38.42705 69.79845 20.47519
#
# Poissons Ratio (x) = 0.19032 -0.12512
# Poissons Ratio (y) = 0.10478 -0.14520
# Poissons Ratio (z) = -0.23483 -0.49496
#
# Static dielectric constant tensor:
#      x y z
#    x 3.912480 0.000000 0.000000 
#    y 0.000000 4.326490 0.000000 
#    z 0.000000 0.000000 3.729040 
# 
# 
# High freq. dielectric constant tensor:
#      x y z
#    x 1.859270 0.000000 0.000000 
#    y 0.000000 1.895230 0.000000 
#    z 0.000000 0.000000 1.856460 
# 
# From -- ./inp_files/2993.got.cif
#   From: 2010.03.12/outbox.cif.g09.slc.cpg/sg19_2_cif.got.tgz:2993.got - 2010.04.10 18:59:41.
