data_PCOD8156158
_publ_section_title
;
Structure prediction by ZEFSAII (Michael W. Deem and Ramdas Pophale) SiO2 
 PCOD8156158
Probable space group: P 21 21 2
;
_chemical_formula_sum "Si O2"
_cell_formula_units_Z 18
_cell_length_a 4.998709
_cell_length_b 22.967237
_cell_length_c 6.222223
_cell_angle_alpha 90.000000
_cell_angle_beta 90.000000
_cell_angle_gamma 90.000000
_cell_volume 714.351858
_symmetry_space_group_name_H-M "P 21 21 2"
_symmetry_group_IT_number 18
_symmetry_cell_setting 'orthorhombic'
loop_
_space_group_symop_operation_xyz
x,y,z
-x,-y,z
1/2+x,1/2-y,-z
1/2-x,1/2+y,-z
loop_
_atom_site_type_symbol
_atom_site_label
_atom_site_fract_x
_atom_site_fract_y
_atom_site_fract_z
Si Si1 0.184425 0.432602 0.635199
Si Si2 0.653420 0.183921 0.138863
Si Si3 0.000000 0.000000 0.014190
Si Si4 0.178888 0.071021 0.636432
Si Si5 0.154912 0.186102 0.851640
O O1 0.195536 0.363365 0.675704
O O2 0.277443 0.465242 0.850004
O O3 0.385883 0.447135 0.443414
O O4 0.890975 0.451682 0.544094
O O5 0.689095 0.248437 0.240857
O O6 0.356654 0.175682 0.048047
O O7 0.858551 0.175011 0.942229
O O8 0.809412 0.957365 0.873195
O O9 0.214994 0.140669 0.660175
#
# Coordination Sequence:
#
# PCOD8156158 Si02
#       5
#     4   4   2   4   4
#     4  12  28  48  76 110 141 198 253 297 374 440
#     4  10  21  43  74 106 147 190 232 300 375 432
#     4  12  30  54  72 104 164 194 246 328 352 436
#     4  12  28  48  76 110 141 198 253 297 374 440
#     4  10  21  43  74 106 147 190 232 300 375 432
#
# _framework density 25.197665000000001
#
# number of rings (size 3 to 8) (size 9 to 14) (size 15 to 20)
#    0.000    0.889    2.222    3.333    0.000    7.111 
#    0.000    0.000    0.000    0.000    0.000    0.000 
#    0.000    0.000    0.000    0.000    0.000    0.000 
#
# Total GULP energy -223285.580158 kJ/mol
# GULP energy per Si atom -12404.754453 kJ/mol
# Density = 2.514031 g / cm^3
# Si number density = 25.197665 Si / 1000 Ang^3
#
#
#
# Elastic Constant Matrix: (Units=GPa)
#
#
# Indices 1 2 3 4 5 6 
#
# 1 126.2439 47.1227 44.4387 0.0000 0.0000 0.0000
# 2 47.1227 123.0884 58.1444 0.0000 0.0000 0.0000
# 3 44.4387 58.1444 113.0660 0.0000 0.0000 0.0000
# 4 0.0000 0.0000 0.0000 49.2318 0.0000 0.0000
# 5 0.0000 0.0000 0.0000 0.0000 41.8403 0.0000
# 6 0.0000 0.0000 0.0000 0.0000 0.0000 37.8506
#
#
#
# Elastic Compliance Matrix: (Units=1/GPa)
#
#
# Indices 1 2 3 4 5 6 
#
# 1 0.009760 -0.002542 -0.002529 0.000000 0.000000 0.000000
# 2 -0.002542 0.011393 -0.004860 0.000000 0.000000 0.000000
# 3 -0.002529 -0.004860 0.012338 0.000000 0.000000 0.000000
# 4 0.000000 0.000000 0.000000 0.020312 0.000000 0.000000
# 5 0.000000 0.000000 0.000000 0.000000 0.023900 0.000000
# 6 0.000000 0.000000 0.000000 0.000000 0.000000 0.026420
#
#
# Mechanical properties :
#
#
# Convention : Reuss Voigt Hill
#
# Bulk Modulus (GPa) = 73.37066 73.53445 73.45256
# Shear Modulus (GPa) = 38.90220 39.96403 39.43312
#
# Velocity S-wave (km/s) = 3.93349 3.98681 3.96024
# Velocity P-wave (km/s) = 7.05769 7.10206 7.07991
#
# Compressibility (1/GPa) = 0.01362943
#
# Stress axis : x y z
#
# Youngs Moduli (GPa) = 102.45710 87.77248 81.05365
#
# Poissons Ratio (x) = 0.22312 0.20497
# Poissons Ratio (y) = 0.26044 0.39391
# Poissons Ratio (z) = 0.25910 0.42656
#
# Static dielectric constant tensor:
#      x y z
#    x 4.489150 0.000000 0.000000 
#    y 0.000000 5.129840 0.000000 
#    z 0.000000 0.000000 4.042780 
# 
# 
# High freq. dielectric constant tensor:
#      x y z
#    x 2.013400 0.000000 0.000000 
#    y 0.000000 2.041210 0.000000 
#    z 0.000000 0.000000 1.977130 
# 
# From -- ./inp_files/223.got.cif
#   From: 2010.03.12/outbox.cif.g09.slc.cpg/sg18_1_cif.got.tgz:223.got - 2010.04.10 18:53:55.
