data_PCOD8156552
_publ_section_title
;
Structure prediction by ZEFSAII (Michael W. Deem and Ramdas Pophale) SiO2 
 PCOD8156552
Probable space group: P 21 21 21
;
_chemical_formula_sum "Si O2"
_cell_formula_units_Z 32
_cell_length_a 19.830834
_cell_length_b 15.161666
_cell_length_c 5.304779
_cell_angle_alpha 90.000000
_cell_angle_beta 90.000000
_cell_angle_gamma 90.000000
_cell_volume 1594.979847
_symmetry_space_group_name_H-M "P 21 21 21"
_symmetry_group_IT_number 19
_symmetry_cell_setting 'orthorhombic'
loop_
_space_group_symop_operation_xyz
x,y,z
1/2-x,-y,1/2+z
1/2+x,1/2-y,-z
-x,1/2+y,1/2-z
loop_
_atom_site_type_symbol
_atom_site_label
_atom_site_fract_x
_atom_site_fract_y
_atom_site_fract_z
Si Si1 0.598498 0.559242 0.250002
Si Si2 0.182958 0.199443 0.249985
Si Si3 0.661542 0.007296 0.249979
Si Si4 0.983691 0.066643 0.749998
Si Si5 0.798587 0.902593 0.249979
Si Si6 0.209836 0.093807 0.749984
Si Si7 0.050495 0.116078 0.249997
Si Si8 0.859499 0.439456 0.250002
O O1 0.520986 0.528846 0.250001
O O2 0.646110 0.471130 0.250009
O O3 0.617294 0.614875 0.500606
O O4 0.617296 0.614875 0.999400
O O5 0.209088 0.298430 0.250001
O O6 0.210680 0.153805 0.502207
O O7 0.100947 0.199392 0.249998
O O8 0.210674 0.153820 0.997730
O O9 0.661344 0.067266 0.500270
O O10 0.595547 0.947134 0.249998
O O11 0.723827 0.941152 0.249984
O O12 0.661339 0.067254 0.999667
O O13 0.004169 0.120149 0.498681
O O14 0.004167 0.120149 0.001318
O O15 0.280143 0.038589 0.750005
O O16 0.099244 0.030756 0.249991
#
# Coordination Sequence:
#
# PCOD8156552 Si02
#       8
#     4   4   4   4   4   4   4   4
#     4  10  17  29  45  79 107 145 190 221 248 320
#     4  12  21  34  53  82 118 144 183 231 284 333
#     4  10  21  42  65  83 101 139 195 248 289 319
#     4  10  18  33  58  78 106 137 182 227 269 330
#     4  10  23  40  62  87 106 135 192 252 287 324
#     4  12  19  30  50  80 115 159 184 223 263 321
#     4  10  19  32  51  89 112 149 187 212 260 348
#     4  10  18  28  46  74 115 150 193 220 248 299
#
# _framework density 20.062949
#
# number of rings (size 3 to 8) (size 9 to 14) (size 15 to 20)
#    0.000    1.500    5.000    3.000    0.000    0.000 
#    0.000    0.000    0.000   18.000    0.000    0.000 
#    0.000    0.000    0.000    0.000    0.000    0.000 
#
# Total GULP energy -396612.852828 kJ/mol
# GULP energy per Si atom -12394.151651 kJ/mol
# Density = 2.001729 g / cm^3
# Si number density = 20.062949 Si / 1000 Ang^3
#
#
#
# Elastic Constant Matrix: (Units=GPa)
#
#
# Indices 1 2 3 4 5 6 
#
# 1 65.5244 7.1004 26.0794 0.0000 0.0000 0.0000
# 2 7.1004 52.4887 27.0191 0.0000 0.0000 0.0000
# 3 26.0794 27.0191 215.8635 0.0000 0.0000 0.0000
# 4 0.0000 0.0000 0.0000 11.2989 0.0000 0.0000
# 5 0.0000 0.0000 0.0000 0.0000 19.5115 0.0000
# 6 0.0000 0.0000 0.0000 0.0000 0.0000 10.0989
#
#
#
# Elastic Compliance Matrix: (Units=1/GPa)
#
#
# Indices 1 2 3 4 5 6 
#
# 1 0.016110 -0.001258 -0.001789 0.000000 0.000000 0.000000
# 2 -0.001258 0.020462 -0.002409 0.000000 0.000000 0.000000
# 3 -0.001789 -0.002409 0.005150 0.000000 0.000000 0.000000
# 4 0.000000 0.000000 0.000000 0.088504 0.000000 0.000000
# 5 0.000000 0.000000 0.000000 0.000000 0.051252 0.000000
# 6 0.000000 0.000000 0.000000 0.000000 0.000000 0.099021
#
#
# Mechanical properties :
#
#
# Convention : Reuss Voigt Hill
#
# Bulk Modulus (GPa) = 32.45770 50.47493 41.46631
# Shear Modulus (GPa) = 16.57375 26.42703 21.50039
#
# Velocity S-wave (km/s) = 2.87729 3.63327 3.27715
# Velocity P-wave (km/s) = 5.22029 6.54322 5.91884
#
# Compressibility (1/GPa) = 0.03080933
#
# Stress axis : x y z
#
# Youngs Moduli (GPa) = 62.07397 48.87087 194.16666
#
# Poissons Ratio (x) = 0.06150 0.34732
# Poissons Ratio (y) = 0.07812 0.46778
# Poissons Ratio (z) = 0.11104 0.11774
#
# Static dielectric constant tensor:
#      x y z
#    x 3.558510 0.000000 0.000000 
#    y 0.000000 2.977560 0.000000 
#    z 0.000000 0.000000 5.571980 
# 
# 
# High freq. dielectric constant tensor:
#      x y z
#    x 1.780360 0.000000 0.000000 
#    y 0.000000 1.707670 0.000000 
#    z 0.000000 0.000000 1.831940 
# 
# From -- ./inp_files/1792.got.cif
#   From: 2010.03.12/outbox.cif.g09.slc.cpg/sg19_1_cif.got.tgz:1792.got - 2010.04.10 18:59:41.
