data_PCOD8156198
_publ_section_title
;
Structure prediction by ZEFSAII (Michael W. Deem and Ramdas Pophale) SiO2 
 PCOD8156198
Probable space group: P 21 21 2
;
_chemical_formula_sum "Si O2"
_cell_formula_units_Z 24
_cell_length_a 11.713251
_cell_length_b 9.166410
_cell_length_c 11.270983
_cell_angle_alpha 90.000000
_cell_angle_beta 90.000000
_cell_angle_gamma 90.000000
_cell_volume 1210.148100
_symmetry_space_group_name_H-M "P 21 21 2"
_symmetry_group_IT_number 18
_symmetry_cell_setting 'orthorhombic'
loop_
_space_group_symop_operation_xyz
x,y,z
-x,-y,z
1/2+x,1/2-y,-z
1/2-x,1/2+y,-z
loop_
_atom_site_type_symbol
_atom_site_label
_atom_site_fract_x
_atom_site_fract_y
_atom_site_fract_z
Si Si1 0.538979 0.772018 0.883409
Si Si2 0.329169 0.951086 0.818033
Si Si3 0.581417 0.618623 0.108015
Si Si4 0.161023 0.115913 0.478186
Si Si5 0.000000 0.000000 0.669434
Si Si6 0.500000 0.500000 0.724671
Si Si7 0.130597 0.445700 0.451789
O O1 0.411053 0.832922 0.879410
O O2 0.554002 0.625168 0.806911
O O3 0.626809 0.884874 0.827630
O O4 0.573264 0.758004 0.022641
O O5 0.209859 0.938703 0.884568
O O6 0.321615 0.919533 0.679362
O O7 0.500000 0.500000 0.042140
O O8 0.531844 0.637670 0.242908
O O9 0.145028 0.286047 0.509363
O O10 0.293662 0.064775 0.476120
O O11 0.108625 0.031207 0.589632
O O12 0.099732 0.069963 0.356067
O O13 0.000000 0.500000 0.452927
#
# Coordination Sequence:
#
# PCOD8156198 Si02
#       7
#     4   4   4   4   2   2   4
#     4  11  23  41  68  96 123 175 217 271 335 390
#     4  11  23  42  64  94 132 166 220 275 325 392
#     4  10  22  39  65  90 127 167 213 266 330 385
#     4  11  25  39  68  95 134 175 221 273 333 388
#     4   9  21  40  62  92 129 173 206 274 328 385
#     4  11  21  42  66  98 127 171 232 268 328 401
#     4  12  24  43  68  97 135 176 225 273 333 401
#
# _framework density 19.832283
#
# number of rings (size 3 to 8) (size 9 to 14) (size 15 to 20)
#    0.500    0.667    5.833    0.000    9.333    0.000 
#    0.000    0.000    7.333    0.000    0.000    0.000 
#    0.000    0.000    0.000    0.000    0.000    0.000 
#
# Total GULP energy -297447.307631 kJ/mol
# GULP energy per Si atom -12393.637818 kJ/mol
# Density = 1.978714 g / cm^3
# Si number density = 19.832283 Si / 1000 Ang^3
#
#
#
# Elastic Constant Matrix: (Units=GPa)
#
#
# Indices 1 2 3 4 5 6 
#
# 1 137.4166 33.5260 22.4592 0.0000 0.0000 0.0000
# 2 33.5260 97.4365 24.4404 0.0000 0.0000 0.0000
# 3 22.4592 24.4404 95.6943 0.0000 0.0000 0.0000
# 4 0.0000 0.0000 0.0000 20.9458 0.0000 0.0000
# 5 0.0000 0.0000 0.0000 0.0000 18.9145 0.0000
# 6 0.0000 0.0000 0.0000 0.0000 0.0000 28.3707
#
#
#
# Elastic Compliance Matrix: (Units=1/GPa)
#
#
# Indices 1 2 3 4 5 6 
#
# 1 0.008086 -0.002464 -0.001268 0.000000 0.000000 0.000000
# 2 -0.002464 0.011716 -0.002414 0.000000 0.000000 0.000000
# 3 -0.001268 -0.002414 0.011364 0.000000 0.000000 0.000000
# 4 0.000000 0.000000 0.000000 0.047742 0.000000 0.000000
# 5 0.000000 0.000000 0.000000 0.000000 0.052870 0.000000
# 6 0.000000 0.000000 0.000000 0.000000 0.000000 0.035248
#
#
# Mechanical properties :
#
#
# Convention : Reuss Voigt Hill
#
# Bulk Modulus (GPa) = 52.98471 54.59984 53.79227
# Shear Modulus (GPa) = 26.93823 30.32096 28.62959
#
# Velocity S-wave (km/s) = 3.68951 3.91432 3.80358
# Velocity P-wave (km/s) = 6.70257 6.92963 6.81704
#
# Compressibility (1/GPa) = 0.01887337
#
# Stress axis : x y z
#
# Youngs Moduli (GPa) = 123.67700 85.35021 87.99571
#
# Poissons Ratio (x) = 0.21030 0.11161
# Poissons Ratio (y) = 0.30473 0.21243
# Poissons Ratio (z) = 0.15687 0.20604
#
# Static dielectric constant tensor:
#      x y z
#    x 3.688500 0.000000 0.000000 
#    y 0.000000 3.538050 0.000000 
#    z 0.000000 0.000000 3.638250 
# 
# 
# High freq. dielectric constant tensor:
#      x y z
#    x 1.780700 0.000000 0.000000 
#    y 0.000000 1.759610 0.000000 
#    z 0.000000 0.000000 1.774840 
# 
# From -- ./inp_files/5551.got.cif
#   From: 2010.03.12/outbox.cif.g09.slc.cpg/sg18_3_cif.got.tgz:5551.got - 2010.04.10 18:53:55.
