data_PCOD8156725
_publ_section_title
;
Structure prediction by ZEFSAII (Michael W. Deem and Ramdas Pophale) SiO2 
 PCOD8156725
Probable space group: P 21 21 21
;
_chemical_formula_sum "Si O2"
_cell_formula_units_Z 32
_cell_length_a 5.137128
_cell_length_b 14.378138
_cell_length_c 19.740870
_cell_angle_alpha 90.000000
_cell_angle_beta 90.000000
_cell_angle_gamma 90.000000
_cell_volume 1458.106759
_symmetry_space_group_name_H-M "P 21 21 21"
_symmetry_group_IT_number 19
_symmetry_cell_setting 'orthorhombic'
loop_
_space_group_symop_operation_xyz
x,y,z
1/2-x,-y,1/2+z
1/2+x,1/2-y,-z
-x,1/2+y,1/2-z
loop_
_atom_site_type_symbol
_atom_site_label
_atom_site_fract_x
_atom_site_fract_y
_atom_site_fract_z
Si Si1 0.674305 0.011689 0.902713
Si Si2 0.839941 0.303237 0.523134
Si Si3 0.661928 0.429241 0.866117
Si Si4 0.158976 0.390060 0.792284
Si Si5 0.665043 0.905787 0.266262
Si Si6 0.171787 0.318370 0.647530
Si Si7 0.658302 0.634908 0.806632
Si Si8 0.180253 0.009545 0.987607
O O1 0.766826 0.084040 0.845416
O O2 0.647204 0.905013 0.875553
O O3 0.395636 0.042837 0.932768
O O4 0.888829 0.016056 0.960517
O O5 0.600198 0.233453 0.514298
O O6 0.759688 0.402677 0.491839
O O7 0.906294 0.317885 0.603312
O O8 0.414759 0.372172 0.837688
O O9 0.657857 0.536761 0.844271
O O10 0.909616 0.373738 0.838800
O O11 0.684189 0.424659 0.947046
O O12 0.171977 0.493678 0.766151
O O13 0.123487 0.322920 0.727989
O O14 0.383421 0.861801 0.251372
O O15 0.886554 0.844129 0.230532
O O16 0.305983 0.217042 0.637341
#
# Coordination Sequence:
#
# PCOD8156725 Si02
#       8
#     4   4   4   4   4   4   4   4
#     4  10  21  36  55  78 109 140 180 222 260 321
#     4  11  23  35  50  77 117 150 172 208 257 324
#     4  10  20  35  52  78 106 136 178 219 266 310
#     4   9  20  35  53  73 106 140 176 227 259 305
#     4   9  19  35  51  75 103 138 177 219 266 304
#     4  10  22  36  55  82 111 146 182 213 266 320
#     4  10  20  32  53  77 107 138 170 216 262 319
#     4  11  21  34  55  78 103 144 183 216 262 321
#
# _framework density 21.946266999999999
#
# number of rings (size 3 to 8) (size 9 to 14) (size 15 to 20)
#    0.000    2.000    0.000    3.750    0.000   14.000 
#    0.000    0.000    0.000    0.000    0.000   17.500 
#    0.000    0.000    0.000    0.000    0.000    0.000 
#
# Total GULP energy -396718.914039 kJ/mol
# GULP energy per Si atom -12397.466064 kJ/mol
# Density = 2.189632 g / cm^3
# Si number density = 21.946267 Si / 1000 Ang^3
#
#
#
# Elastic Constant Matrix: (Units=GPa)
#
#
# Indices 1 2 3 4 5 6 
#
# 1 105.3180 6.2918 17.5600 0.0000 0.0000 0.0000
# 2 6.2918 16.1949 4.3803 0.0000 0.0000 0.0000
# 3 17.5600 4.3803 82.2089 0.0000 0.0000 0.0000
# 4 0.0000 0.0000 0.0000 30.4936 0.0000 0.0000
# 5 0.0000 0.0000 0.0000 0.0000 29.7050 0.0000
# 6 0.0000 0.0000 0.0000 0.0000 0.0000 14.9768
#
#
#
# Elastic Compliance Matrix: (Units=1/GPa)
#
#
# Indices 1 2 3 4 5 6 
#
# 1 0.010023 -0.003363 -0.001962 0.000000 0.000000 0.000000
# 2 -0.003363 0.063779 -0.002680 0.000000 0.000000 0.000000
# 3 -0.001962 -0.002680 0.012726 0.000000 0.000000 0.000000
# 4 0.000000 0.000000 0.000000 0.032794 0.000000 0.000000
# 5 0.000000 0.000000 0.000000 0.000000 0.033664 0.000000
# 6 0.000000 0.000000 0.000000 0.000000 0.000000 0.066770
#
#
# Mechanical properties :
#
#
# Convention : Reuss Voigt Hill
#
# Bulk Modulus (GPa) = 14.18073 28.90954 21.54514
# Shear Modulus (GPa) = 19.28473 26.73439 23.00956
#
# Velocity S-wave (km/s) = 2.96755 3.49402 3.24149
# Velocity P-wave (km/s) = 4.26818 5.42946 4.88346
#
# Compressibility (1/GPa) = 0.07051825
#
# Stress axis : x y z
#
# Youngs Moduli (GPa) = 99.76978 15.67909 78.57956
#
# Poissons Ratio (x) = 0.05273 0.15415
# Poissons Ratio (y) = 0.33556 0.21058
# Poissons Ratio (z) = 0.19572 0.04202
#
# Static dielectric constant tensor:
#      x y z
#    x 4.111340 0.000000 0.000000 
#    y 0.000000 3.753250 0.000000 
#    z 0.000000 0.000000 4.021910 
# 
# 
# High freq. dielectric constant tensor:
#      x y z
#    x 1.869850 0.000000 0.000000 
#    y 0.000000 1.823230 0.000000 
#    z 0.000000 0.000000 1.862600 
# 
# From -- ./inp_files/2069.got.cif
#   From: 2010.03.12/outbox.cif.g09.slc.cpg/sg19_2_cif.got.tgz:2069.got - 2010.04.10 18:59:41.
