data_PCOD8156547
_publ_section_title
;
Structure prediction by ZEFSAII (Michael W. Deem and Ramdas Pophale) SiO2 
 PCOD8156547
Probable space group: P 21 21 21
;
_chemical_formula_sum "Si O2"
_cell_formula_units_Z 32
_cell_length_a 13.627395
_cell_length_b 9.483584
_cell_length_c 12.957453
_cell_angle_alpha 90.000000
_cell_angle_beta 90.000000
_cell_angle_gamma 90.000000
_cell_volume 1674.576460
_symmetry_space_group_name_H-M "P 21 21 21"
_symmetry_group_IT_number 19
_symmetry_cell_setting 'orthorhombic'
loop_
_space_group_symop_operation_xyz
x,y,z
1/2-x,-y,1/2+z
1/2+x,1/2-y,-z
-x,1/2+y,1/2-z
loop_
_atom_site_type_symbol
_atom_site_label
_atom_site_fract_x
_atom_site_fract_y
_atom_site_fract_z
Si Si1 0.896252 0.488530 0.118380
Si Si2 0.355528 0.311342 0.096178
Si Si3 0.499696 0.486628 0.828485
Si Si4 0.348992 0.708276 0.833257
Si Si5 0.350850 0.787041 0.604495
Si Si6 0.324637 0.483958 0.296672
Si Si7 0.029268 0.384378 0.943833
Si Si8 0.172917 0.691235 0.367901
O O1 0.840942 0.638194 0.115295
O O2 0.817224 0.360639 0.121384
O O3 0.963430 0.469530 0.217174
O O4 0.963378 0.479878 0.017744
O O5 0.267078 0.196198 0.106898
O O6 0.348850 0.437771 0.179652
O O7 0.459639 0.232641 0.110012
O O8 0.341036 0.377683 0.982461
O O9 0.437631 0.613972 0.881309
O O10 0.592073 0.437837 0.900227
O O11 0.427892 0.351776 0.810738
O O12 0.378001 0.713746 0.712703
O O13 0.243249 0.635125 0.850517
O O14 0.383426 0.691101 0.507731
O O15 0.425112 0.510047 0.359018
O O16 0.264411 0.631456 0.302418
#
# Coordination Sequence:
#
# PCOD8156547 Si02
#       8
#     4   4   4   4   4   4   4   4
#     4  10  18  33  57  92 124 143 193 255 301 353
#     4  10  21  38  57  91 118 155 210 252 289 376
#     4  10  16  31  55  92 117 146 193 253 304 337
#     4   9  19  33  56  94 126 141 197 263 294 344
#     4  10  17  33  60  86 112 157 195 249 302 345
#     4  10  22  38  62  85 117 170 199 245 297 363
#     4  11  20  38  63  85 118 167 197 237 312 378
#     4  10  19  34  62  87 114 159 204 240 305 366
#
# _framework density 19.109309
#
# number of rings (size 3 to 8) (size 9 to 14) (size 15 to 20)
#    0.000    2.000    5.000    0.750    0.000    0.000 
#    0.000    8.750    0.000    7.500    0.000    0.000 
#    0.000    0.000    0.000    0.000    0.000    0.000 
#
# Total GULP energy -396471.366465 kJ/mol
# GULP energy per Si atom -12389.730202 kJ/mol
# Density = 1.906582 g / cm^3
# Si number density = 19.109309 Si / 1000 Ang^3
#
#
#
# Elastic Constant Matrix: (Units=GPa)
#
#
# Indices 1 2 3 4 5 6 
#
# 1 93.5189 43.7511 33.5878 0.0000 0.0000 0.0000
# 2 43.7511 115.3850 37.5367 0.0000 0.0000 0.0000
# 3 33.5878 37.5367 81.6987 0.0000 0.0000 0.0000
# 4 0.0000 0.0000 0.0000 24.3947 0.0000 0.0000
# 5 0.0000 0.0000 0.0000 0.0000 25.0280 0.0000
# 6 0.0000 0.0000 0.0000 0.0000 0.0000 36.0676
#
#
#
# Elastic Compliance Matrix: (Units=1/GPa)
#
#
# Indices 1 2 3 4 5 6 
#
# 1 0.013978 -0.004034 -0.003894 0.000000 0.000000 0.000000
# 2 -0.004034 0.011354 -0.003558 0.000000 0.000000 0.000000
# 3 -0.003894 -0.003558 0.015476 0.000000 0.000000 0.000000
# 4 0.000000 0.000000 0.000000 0.040993 0.000000 0.000000
# 5 0.000000 0.000000 0.000000 0.000000 0.039955 0.000000
# 6 0.000000 0.000000 0.000000 0.000000 0.000000 0.027726
#
#
# Mechanical properties :
#
#
# Convention : Reuss Voigt Hill
#
# Bulk Modulus (GPa) = 56.06313 57.81709 56.94011
# Shear Modulus (GPa) = 28.02731 28.81321 28.42026
#
# Velocity S-wave (km/s) = 3.83389 3.88727 3.86067
# Velocity P-wave (km/s) = 7.00000 7.10418 7.05229
#
# Compressibility (1/GPa) = 0.01783704
#
# Stress axis : x y z
#
# Youngs Moduli (GPa) = 71.53858 88.07767 64.61786
#
# Poissons Ratio (x) = 0.35527 0.25159
# Poissons Ratio (y) = 0.28856 0.22992
# Poissons Ratio (z) = 0.27854 0.31339
#
# Static dielectric constant tensor:
#      x y z
#    x 3.597590 0.000000 0.000000 
#    y 0.000000 3.430310 0.000000 
#    z 0.000000 0.000000 3.394200 
# 
# 
# High freq. dielectric constant tensor:
#      x y z
#    x 1.745950 0.000000 0.000000 
#    y 0.000000 1.725530 0.000000 
#    z 0.000000 0.000000 1.720850 
# 
# From -- ./inp_files/6263.got.cif
#   From: 2010.03.12/outbox.cif.g09.slc.cpg/sg19_4_cif.got.tgz:6263.got - 2010.04.10 18:59:41.
