data_PCOD8156744
_publ_section_title
;
Structure prediction by ZEFSAII (Michael W. Deem and Ramdas Pophale) SiO2 
 PCOD8156744
Probable space group: P 21 21 21
;
_chemical_formula_sum "Si O2"
_cell_formula_units_Z 32
_cell_length_a 9.045495
_cell_length_b 19.887296
_cell_length_c 9.229322
_cell_angle_alpha 90.000000
_cell_angle_beta 90.000000
_cell_angle_gamma 90.000000
_cell_volume 1660.266763
_symmetry_space_group_name_H-M "P 21 21 21"
_symmetry_group_IT_number 19
_symmetry_cell_setting 'orthorhombic'
loop_
_space_group_symop_operation_xyz
x,y,z
1/2-x,-y,1/2+z
1/2+x,1/2-y,-z
-x,1/2+y,1/2-z
loop_
_atom_site_type_symbol
_atom_site_label
_atom_site_fract_x
_atom_site_fract_y
_atom_site_fract_z
Si Si1 0.828093 0.546042 0.328625
Si Si2 0.673986 0.429189 0.157818
Si Si3 0.827566 0.820636 0.168794
Si Si4 0.329480 0.331750 0.623423
Si Si5 0.828093 0.046042 0.171375
Si Si6 0.329480 0.831750 0.876578
Si Si7 0.827566 0.320636 0.331205
Si Si8 0.173985 0.570811 0.657819
O O1 0.731087 0.486937 0.263423
O O2 0.779948 0.554004 0.494461
O O3 0.791576 0.615637 0.248552
O O4 0.000000 0.527024 0.313469
O O5 0.746867 0.358266 0.200034
O O6 0.500000 0.422221 0.175021
O O7 0.790840 0.741876 0.185017
O O8 0.746866 0.858266 0.299966
O O9 1.000000 0.836103 0.177231
O O10 0.769147 0.848981 0.015720
O O11 0.291576 0.384363 0.748552
O O12 0.500000 0.335362 0.575070
O O13 0.290840 0.258124 0.685017
O O14 0.731087 0.986937 0.236577
O O15 0.779948 0.054004 0.005539
O O16 0.230854 0.848981 0.015720
#
# Coordination Sequence:
#
# PCOD8156744 Si02
#       8
#     4   4   4   4   4   4   4   4
#     4  10  22  39  57  79 108 142 182 226 272 323
#     4  11  23  37  55  80 109 142 181 225 271 321
#     4  10  20  35  57  84 112 144 181 220 267 323
#     4   9  19  37  59  82 111 145 180 222 270 320
#     4  10  22  39  57  79 108 142 182 226 272 323
#     4   9  19  37  59  82 111 145 180 222 270 320
#     4  10  20  35  57  84 112 144 181 220 267 323
#     4  11  23  37  55  80 109 142 181 225 271 321
#
# _framework density 19.274010000000001
#
# number of rings (size 3 to 8) (size 9 to 14) (size 15 to 20)
#    0.000    2.000    0.000    3.000    0.000    9.000 
#    0.000    0.000    0.000    0.000    0.000    0.000 
#    0.000    0.000    0.000    0.000    0.000    0.000 
#
# Total GULP energy -396985.110939 kJ/mol
# GULP energy per Si atom -12405.784717 kJ/mol
# Density = 1.923014 g / cm^3
# Si number density = 19.274010 Si / 1000 Ang^3
#
#
#
# Elastic Constant Matrix: (Units=GPa)
#
#
# Indices 1 2 3 4 5 6 
#
# 1 64.4770 24.5111 29.9331 0.0000 0.0000 0.0000
# 2 24.5111 75.2166 26.0798 0.0000 0.0000 0.0000
# 3 29.9331 26.0798 78.1524 0.0000 0.0000 0.0000
# 4 0.0000 0.0000 0.0000 39.5509 0.0000 0.0000
# 5 0.0000 0.0000 0.0000 0.0000 32.9415 0.0000
# 6 0.0000 0.0000 0.0000 0.0000 0.0000 33.4262
#
#
#
# Elastic Compliance Matrix: (Units=1/GPa)
#
#
# Indices 1 2 3 4 5 6 
#
# 1 0.020064 -0.004381 -0.006223 0.000000 0.000000 0.000000
# 2 -0.004381 0.015991 -0.003658 0.000000 0.000000 0.000000
# 3 -0.006223 -0.003658 0.016400 0.000000 0.000000 0.000000
# 4 0.000000 0.000000 0.000000 0.025284 0.000000 0.000000
# 5 0.000000 0.000000 0.000000 0.000000 0.030357 0.000000
# 6 0.000000 0.000000 0.000000 0.000000 0.000000 0.029917
#
#
# Mechanical properties :
#
#
# Convention : Reuss Voigt Hill
#
# Bulk Modulus (GPa) = 41.78727 42.09933 41.94330
# Shear Modulus (GPa) = 28.65133 30.33852 29.49493
#
# Velocity S-wave (km/s) = 3.85973 3.97175 3.91614
# Velocity P-wave (km/s) = 6.44912 6.55157 6.50054
#
# Compressibility (1/GPa) = 0.02393073
#
# Stress axis : x y z
#
# Youngs Moduli (GPa) = 49.84163 62.53542 60.97666
#
# Poissons Ratio (x) = 0.27394 0.37944
# Poissons Ratio (y) = 0.21833 0.22308
# Poissons Ratio (z) = 0.31015 0.22878
#
# Static dielectric constant tensor:
#      x y z
#    x 3.531240 0.000000 0.000000 
#    y 0.000000 3.665520 0.000000 
#    z 0.000000 0.000000 3.529930 
# 
# 
# High freq. dielectric constant tensor:
#      x y z
#    x 1.753540 0.000000 0.000000 
#    y 0.000000 1.762520 0.000000 
#    z 0.000000 0.000000 1.748920 
# 
# From -- ./inp_files/3176.got.cif
#   From: 2010.03.12/outbox.cif.g09.slc.cpg/sg19_2_cif.got.tgz:3176.got - 2010.04.10 18:59:41.
