data_PCOD8156852
_publ_section_title
;
Structure prediction by ZEFSAII (Michael W. Deem and Ramdas Pophale) SiO2 
 PCOD8156852
Probable space group: P 21 21 21
;
_chemical_formula_sum "Si O2"
_cell_formula_units_Z 32
_cell_length_a 6.628273
_cell_length_b 11.902660
_cell_length_c 18.973913
_cell_angle_alpha 90.000000
_cell_angle_beta 90.000000
_cell_angle_gamma 90.000000
_cell_volume 1496.929408
_symmetry_space_group_name_H-M "P 21 21 21"
_symmetry_group_IT_number 19
_symmetry_cell_setting 'orthorhombic'
loop_
_space_group_symop_operation_xyz
x,y,z
1/2-x,-y,1/2+z
1/2+x,1/2-y,-z
-x,1/2+y,1/2-z
loop_
_atom_site_type_symbol
_atom_site_label
_atom_site_fract_x
_atom_site_fract_y
_atom_site_fract_z
Si Si1 0.912539 0.425325 0.450128
Si Si2 0.655280 0.726453 0.635836
Si Si3 0.680435 0.275622 0.760374
Si Si4 0.096581 0.216513 0.729729
Si Si5 0.405391 0.006716 0.945526
Si Si6 0.388870 0.304051 0.629720
Si Si7 0.650014 0.513876 0.332450
Si Si8 0.697383 0.059189 0.065823
O O1 0.784123 0.437518 0.522443
O O2 0.907159 0.294768 0.427983
O O3 0.813889 0.511373 0.394694
O O4 0.144388 0.463094 0.457728
O O5 0.431671 0.732243 0.669653
O O6 0.685447 0.602010 0.605213
O O7 0.688231 0.822022 0.576454
O O8 0.822259 0.754528 0.694443
O O9 0.857653 0.194214 0.734093
O O10 0.531903 0.285236 0.695955
O O11 0.801543 0.388821 0.777636
O O12 0.164667 0.301934 0.665870
O O13 0.192272 0.097292 0.711772
O O14 0.556797 0.922182 0.905361
O O15 0.535923 0.072574 0.003611
O O16 0.423016 0.521527 0.363640
#
# Coordination Sequence:
#
# PCOD8156852 Si02
#       8
#     4   4   4   4   4   4   4   4
#     4  10  23  43  64  88 130 171 211 266 309 387
#     4  11  24  41  62  98 128 162 218 261 330 381
#     4  11  21  39  67  92 131 165 204 280 316 389
#     4  10  22  40  68  93 127 165 204 275 319 390
#     4  11  27  41  66  96 129 173 216 271 311 392
#     4  10  24  43  63  99 125 162 222 262 328 377
#     4  10  20  39  63  94 123 166 216 251 336 374
#     4  11  23  40  65  88 127 178 211 262 321 386
#
# _framework density 21.377095000000001
#
# number of rings (size 3 to 8) (size 9 to 14) (size 15 to 20)
#    0.000    1.500    2.500    1.500    3.500    3.000 
#    0.000    0.000    0.000    0.000    0.000    0.000 
#    0.000    0.000    0.000    0.000    0.000    0.000 
#
# Total GULP energy -396725.814833 kJ/mol
# GULP energy per Si atom -12397.681714 kJ/mol
# Density = 2.132844 g / cm^3
# Si number density = 21.377095 Si / 1000 Ang^3
#
#
#
# Elastic Constant Matrix: (Units=GPa)
#
#
# Indices 1 2 3 4 5 6 
#
# 1 89.6598 7.6444 12.3730 0.0000 0.0000 0.0000
# 2 7.6444 88.8224 33.4869 0.0000 0.0000 0.0000
# 3 12.3730 33.4869 68.9049 0.0000 0.0000 0.0000
# 4 0.0000 0.0000 0.0000 30.6866 0.0000 0.0000
# 5 0.0000 0.0000 0.0000 0.0000 28.0192 0.0000
# 6 0.0000 0.0000 0.0000 0.0000 0.0000 27.8814
#
#
#
# Elastic Compliance Matrix: (Units=1/GPa)
#
#
# Indices 1 2 3 4 5 6 
#
# 1 0.011441 -0.000257 -0.001929 0.000000 0.000000 0.000000
# 2 -0.000257 0.013790 -0.006655 0.000000 0.000000 0.000000
# 3 -0.001929 -0.006655 0.018094 0.000000 0.000000 0.000000
# 4 0.000000 0.000000 0.000000 0.032588 0.000000 0.000000
# 5 0.000000 0.000000 0.000000 0.000000 0.035690 0.000000
# 6 0.000000 0.000000 0.000000 0.000000 0.000000 0.035866
#
#
# Mechanical properties :
#
#
# Convention : Reuss Voigt Hill
#
# Bulk Modulus (GPa) = 39.00076 39.37730 39.18903
# Shear Modulus (GPa) = 28.78532 30.24296 29.51414
#
# Velocity S-wave (km/s) = 3.67352 3.76538 3.71973
# Velocity P-wave (km/s) = 6.02302 6.11264 6.06800
#
# Compressibility (1/GPa) = 0.02564053
#
# Stress axis : x y z
#
# Youngs Moduli (GPa) = 87.40134 72.51771 55.26787
#
# Poissons Ratio (x) = 0.01866 0.10664
# Poissons Ratio (y) = 0.02249 0.36783
# Poissons Ratio (z) = 0.16864 0.48264
#
# Static dielectric constant tensor:
#      x y z
#    x 4.074230 0.000000 0.000000 
#    y 0.000000 3.596870 0.000000 
#    z 0.000000 0.000000 3.884020 
# 
# 
# High freq. dielectric constant tensor:
#      x y z
#    x 1.844980 0.000000 0.000000 
#    y 0.000000 1.828970 0.000000 
#    z 0.000000 0.000000 1.837710 
# 
# From -- ./inp_files/5493.got.cif
#   From: 2010.03.12/outbox.cif.g09.slc.cpg/sg19_3_cif.got.tgz:5493.got - 2010.04.10 18:59:41.
