data_PCOD8156430
_publ_section_title
;
Structure prediction by ZEFSAII (Michael W. Deem and Ramdas Pophale) SiO2 
 PCOD8156430
Probable space group: P 21 21 2
;
_chemical_formula_sum "Si O2"
_cell_formula_units_Z 18
_cell_length_a 13.751217
_cell_length_b 6.307834
_cell_length_c 8.521084
_cell_angle_alpha 90.000000
_cell_angle_beta 90.000000
_cell_angle_gamma 90.000000
_cell_volume 739.122185
_symmetry_space_group_name_H-M "P 21 21 2"
_symmetry_group_IT_number 18
_symmetry_cell_setting 'orthorhombic'
loop_
_space_group_symop_operation_xyz
x,y,z
-x,-y,z
1/2+x,1/2-y,-z
1/2-x,1/2+y,-z
loop_
_atom_site_type_symbol
_atom_site_label
_atom_site_fract_x
_atom_site_fract_y
_atom_site_fract_z
Si Si1 0.664655 0.991253 0.341281
Si Si2 0.753708 0.111265 0.841287
Si Si3 0.613467 0.267010 0.080364
Si Si4 0.845703 0.270161 0.353688
Si Si5 0.500000 0.500000 0.831089
O O1 0.731893 0.823349 0.253901
O O2 0.610282 0.877453 0.487196
O O3 0.585701 0.106724 0.223626
O O4 0.741870 0.167513 0.401134
O O5 0.859467 0.999866 0.853456
O O6 0.671390 0.961382 0.766410
O O7 0.714665 0.171690 0.013642
O O8 0.535074 0.303378 0.942254
O O9 0.917790 0.095427 0.281566
#
# Coordination Sequence:
#
# PCOD8156430 Si02
#       5
#     4   4   4   4   2
#     4  11  22  43  75 105 138 196 247 291 347 456
#     4  11  20  42  75  99 129 195 242 287 340 455
#     4  11  23  41  73 104 141 183 244 296 361 429
#     4  11  24  43  77 104 143 186 250 295 366 429
#     4  12  26  46  72 112 152 188 234 320 376 420
#
# _framework density 24.353213
#
# number of rings (size 3 to 8) (size 9 to 14) (size 15 to 20)
#    0.000    0.889    6.667    1.333    0.000    0.889 
#    0.000    1.111    9.778    0.000    0.000    0.000 
#    0.000    0.000    0.000    0.000    0.000    0.000 
#
# Total GULP energy -223091.194160 kJ/mol
# GULP energy per Si atom -12393.955231 kJ/mol
# Density = 2.429778 g / cm^3
# Si number density = 24.353213 Si / 1000 Ang^3
#
#
#
# Elastic Constant Matrix: (Units=GPa)
#
#
# Indices 1 2 3 4 5 6 
#
# 1 50.2160 18.0784 29.0184 0.0000 0.0000 0.0000
# 2 18.0784 103.6431 48.0567 0.0000 0.0000 0.0000
# 3 29.0184 48.0567 142.3476 0.0000 0.0000 0.0000
# 4 0.0000 0.0000 0.0000 55.8727 0.0000 0.0000
# 5 0.0000 0.0000 0.0000 0.0000 27.8482 0.0000
# 6 0.0000 0.0000 0.0000 0.0000 0.0000 26.7209
#
#
#
# Elastic Compliance Matrix: (Units=1/GPa)
#
#
# Indices 1 2 3 4 5 6 
#
# 1 0.022980 -0.002177 -0.003950 0.000000 0.000000 0.000000
# 2 -0.002177 0.011645 -0.003488 0.000000 0.000000 0.000000
# 3 -0.003950 -0.003488 0.009008 0.000000 0.000000 0.000000
# 4 0.000000 0.000000 0.000000 0.017898 0.000000 0.000000
# 5 0.000000 0.000000 0.000000 0.000000 0.035909 0.000000
# 6 0.000000 0.000000 0.000000 0.000000 0.000000 0.037424
#
#
# Mechanical properties :
#
#
# Convention : Reuss Voigt Hill
#
# Bulk Modulus (GPa) = 40.97622 54.05707 47.51665
# Shear Modulus (GPa) = 30.82092 35.49191 33.15641
#
# Velocity S-wave (km/s) = 3.56136 3.82171 3.69383
# Velocity P-wave (km/s) = 5.81148 6.45904 6.14380
#
# Compressibility (1/GPa) = 0.02440440
#
# Stress axis : x y z
#
# Youngs Moduli (GPa) = 43.51581 85.87083 111.01655
#
# Poissons Ratio (x) = 0.18695 0.43848
# Poissons Ratio (y) = 0.09474 0.38719
# Poissons Ratio (z) = 0.17187 0.29949
#
# Static dielectric constant tensor:
#      x y z
#    x 3.739200 0.000000 0.000000 
#    y 0.000000 4.581630 0.000000 
#    z 0.000000 0.000000 4.563380 
# 
# 
# High freq. dielectric constant tensor:
#      x y z
#    x 1.917070 0.000000 0.000000 
#    y 0.000000 1.988670 0.000000 
#    z 0.000000 0.000000 1.977910 
# 
# From -- ./inp_files/2441.got.cif
#   From: 2010.03.12/outbox.cif.g09.slc.cpg/sg18_2_cif.got.tgz:2441.got - 2010.04.10 18:53:55.
