data_PCOD8156020
_publ_section_title
;
Structure prediction by ZEFSAII (Michael W. Deem and Ramdas Pophale) SiO2 
 PCOD8156020
Probable space group: P 21 21 2
;
_chemical_formula_sum "Si O2"
_cell_formula_units_Z 30
_cell_length_a 13.225060
_cell_length_b 5.096122
_cell_length_c 21.494400
_cell_angle_alpha 90.000000
_cell_angle_beta 90.000000
_cell_angle_gamma 90.000000
_cell_volume 1448.647743
_symmetry_space_group_name_H-M "P 21 21 2"
_symmetry_group_IT_number 18
_symmetry_cell_setting 'orthorhombic'
loop_
_space_group_symop_operation_xyz
x,y,z
-x,-y,z
1/2+x,1/2-y,-z
1/2-x,1/2+y,-z
loop_
_atom_site_type_symbol
_atom_site_label
_atom_site_fract_x
_atom_site_fract_y
_atom_site_fract_z
Si Si1 0.387163 0.111326 0.705874
Si Si2 0.500000 0.500000 0.772662
Si Si3 0.935131 0.745183 0.876115
Si Si4 0.239344 0.599093 0.179230
Si Si5 0.819117 0.509952 0.432267
Si Si6 0.683732 0.245782 0.999795
Si Si7 0.357318 0.623660 0.868805
Si Si8 0.115084 0.986135 0.503920
O O1 0.408727 0.411841 0.726327
O O2 0.298403 0.018175 0.751659
O O3 0.347621 0.059895 0.637501
O O4 0.500000 0.000000 0.717201
O O5 0.448928 0.707627 0.821798
O O6 0.854728 0.803667 0.821087
O O7 0.000000 0.500000 0.852412
O O8 0.882705 0.668791 0.940878
O O9 0.000000 0.000000 0.888469
O O10 0.235058 0.326138 0.141240
O O11 0.170655 0.822823 0.146837
O O12 0.861612 0.795888 0.450985
O O13 0.697155 0.486331 0.440462
O O14 0.874557 0.301237 0.475458
O O15 0.614447 0.345822 0.941701
O O16 0.758212 0.480648 0.019273
O O17 0.000000 0.000000 0.529553
#
# Coordination Sequence:
#
# PCOD8156020 Si02
#       8
#     4   2   4   4   4   4   4   4
#     4  11  22  39  62  95 122 163 207 262 315 382
#     4  10  24  36  58  90 130 158 196 256 324 388
#     4  12  25  42  61  89 118 163 212 257 305 385
#     4  11  23  41  62  82 126 161 201 256 316 370
#     4  10  23  35  64  95 129 164 220 253 312 365
#     4  12  22  40  63  86 114 153 203 257 321 372
#     4  11  21  40  57  86 122 155 194 249 323 378
#     4  10  20  40  59  93 132 176 202 261 308 364
#
# _framework density 20.708966
#
# number of rings (size 3 to 8) (size 9 to 14) (size 15 to 20)
#    0.000    1.067    4.000    2.800    3.733    0.000 
#    2.400    0.667    0.000    3.200    0.000    0.000 
#    0.000    0.000    0.000    0.000    0.000    0.000 
#
# Total GULP energy -371676.790605 kJ/mol
# GULP energy per Si atom -12389.226354 kJ/mol
# Density = 2.066183 g / cm^3
# Si number density = 20.708966 Si / 1000 Ang^3
#
#
#
# Elastic Constant Matrix: (Units=GPa)
#
#
# Indices 1 2 3 4 5 6 
#
# 1 129.7147 18.7481 47.7895 0.0000 0.0000 0.0000
# 2 18.7481 80.3949 6.2604 0.0000 0.0000 0.0000
# 3 47.7895 6.2604 112.4130 0.0000 0.0000 0.0000
# 4 0.0000 0.0000 0.0000 19.6895 0.0000 0.0000
# 5 0.0000 0.0000 0.0000 0.0000 43.8048 0.0000
# 6 0.0000 0.0000 0.0000 0.0000 0.0000 36.1405
#
#
#
# Elastic Compliance Matrix: (Units=1/GPa)
#
#
# Indices 1 2 3 4 5 6 
#
# 1 0.009419 -0.001893 -0.003899 0.000000 0.000000 0.000000
# 2 -0.001893 0.012873 0.000088 0.000000 0.000000 0.000000
# 3 -0.003899 0.000088 0.010548 0.000000 0.000000 0.000000
# 4 0.000000 0.000000 0.000000 0.050788 0.000000 0.000000
# 5 0.000000 0.000000 0.000000 0.000000 0.022829 0.000000
# 6 0.000000 0.000000 0.000000 0.000000 0.000000 0.027670
#
#
# Mechanical properties :
#
#
# Convention : Reuss Voigt Hill
#
# Bulk Modulus (GPa) = 46.65761 52.01316 49.33538
# Shear Modulus (GPa) = 32.74825 36.57529 34.66177
#
# Velocity S-wave (km/s) = 3.98094 4.20713 4.09560
# Velocity P-wave (km/s) = 6.61132 6.98360 6.80001
#
# Compressibility (1/GPa) = 0.02143273
#
# Stress axis : x y z
#
# Youngs Moduli (GPa) = 106.16536 77.68075 94.80100
#
# Poissons Ratio (x) = 0.14705 0.36962
# Poissons Ratio (y) = 0.20097 -0.00833
# Poissons Ratio (z) = 0.41393 -0.00682
#
# Static dielectric constant tensor:
#      x y z
#    x 4.049620 0.000000 0.000000 
#    y 0.000000 3.982690 0.000000 
#    z 0.000000 0.000000 3.568100 
# 
# 
# High freq. dielectric constant tensor:
#      x y z
#    x 1.803410 0.000000 0.000000 
#    y 0.000000 1.827640 0.000000 
#    z 0.000000 0.000000 1.788510 
# 
# From -- ./inp_files/7576.got.cif
#   From: 2010.03.12/outbox.cif.g09.slc.cpg/sg18_4_cif.got.tgz:7576.got - 2010.04.10 18:53:55.
