data_PCOD8156593
_publ_section_title
;
Structure prediction by ZEFSAII (Michael W. Deem and Ramdas Pophale) SiO2 
 PCOD8156593
Probable space group: P 21 21 21
;
_chemical_formula_sum "Si O2"
_cell_formula_units_Z 32
_cell_length_a 16.518638
_cell_length_b 9.062782
_cell_length_c 10.503880
_cell_angle_alpha 90.000000
_cell_angle_beta 90.000000
_cell_angle_gamma 90.000000
_cell_volume 1572.481414
_symmetry_space_group_name_H-M "P 21 21 21"
_symmetry_group_IT_number 19
_symmetry_cell_setting 'orthorhombic'
loop_
_space_group_symop_operation_xyz
x,y,z
1/2-x,-y,1/2+z
1/2+x,1/2-y,-z
-x,1/2+y,1/2-z
loop_
_atom_site_type_symbol
_atom_site_label
_atom_site_fract_x
_atom_site_fract_y
_atom_site_fract_z
Si Si1 0.128034 0.080931 0.188626
Si Si2 0.450205 0.473399 0.739932
Si Si3 0.125431 0.289788 0.410902
Si Si4 0.637597 0.730629 0.863984
Si Si5 0.019583 0.748576 0.911640
Si Si6 0.270150 0.547281 0.096608
Si Si7 0.369701 0.648472 0.520358
Si Si8 0.425656 0.532484 0.261515
O O1 0.159888 0.175404 0.307043
O O2 0.127505 0.180740 0.062277
O O3 0.041385 0.010011 0.216512
O O4 0.177362 0.928452 0.169234
O O5 0.399927 0.555908 0.848212
O O6 0.433506 0.295908 0.728902
O O7 0.431934 0.548985 0.602879
O O8 0.201669 0.332373 0.494266
O O9 0.053390 0.212237 0.490164
O O10 0.703912 0.855354 0.830366
O O11 0.602385 0.723081 0.009083
O O12 0.033711 0.614709 0.815034
O O13 0.992192 0.890317 0.828851
O O14 0.223240 0.408011 0.035161
O O15 0.344564 0.490729 0.182312
O O16 0.398664 0.641508 0.374894
#
# Coordination Sequence:
#
# PCOD8156593 Si02
#       8
#     4   4   4   4   4   4   4   4
#     4  11  20  35  62  95 117 153 210 270 306 356
#     4  10  18  36  66  89 118 159 202 259 314 370
#     4  10  21  40  63  89 124 160 219 250 320 373
#     4  11  21  38  60  95 128 157 206 261 326 356
#     4  11  22  40  64  92 126 168 202 279 299 386
#     4  10  24  42  61  85 125 181 198 253 317 398
#     4  10  22  37  63  87 125 164 212 254 316 386
#     4  11  24  42  65  90 127 166 221 252 326 377
#
# _framework density 20.350003000000001
#
# number of rings (size 3 to 8) (size 9 to 14) (size 15 to 20)
#    0.000    1.500    5.000    0.750    7.000    0.000 
#    2.250    2.500    0.000    0.000    0.000    0.000 
#    0.000    0.000    0.000    0.000    0.000    0.000 
#
# Total GULP energy -396577.805243 kJ/mol
# GULP energy per Si atom -12393.056414 kJ/mol
# Density = 2.030369 g / cm^3
# Si number density = 20.350003 Si / 1000 Ang^3
#
#
#
# Elastic Constant Matrix: (Units=GPa)
#
#
# Indices 1 2 3 4 5 6 
#
# 1 59.4704 16.3619 18.3665 0.0000 0.0000 0.0000
# 2 16.3619 113.6743 21.1986 0.0000 0.0000 0.0000
# 3 18.3665 21.1986 75.3057 0.0000 0.0000 0.0000
# 4 0.0000 0.0000 0.0000 27.0450 0.0000 0.0000
# 5 0.0000 0.0000 0.0000 0.0000 21.5539 0.0000
# 6 0.0000 0.0000 0.0000 0.0000 0.0000 12.6060
#
#
#
# Elastic Compliance Matrix: (Units=1/GPa)
#
#
# Indices 1 2 3 4 5 6 
#
# 1 0.018578 -0.001930 -0.003988 0.000000 0.000000 0.000000
# 2 -0.001930 0.009485 -0.002199 0.000000 0.000000 0.000000
# 3 -0.003988 -0.002199 0.014871 0.000000 0.000000 0.000000
# 4 0.000000 0.000000 0.000000 0.036975 0.000000 0.000000
# 5 0.000000 0.000000 0.000000 0.000000 0.046395 0.000000
# 6 0.000000 0.000000 0.000000 0.000000 0.000000 0.079328
#
#
# Mechanical properties :
#
#
# Convention : Reuss Voigt Hill
#
# Bulk Modulus (GPa) = 37.45433 40.03383 38.74408
# Shear Modulus (GPa) = 21.66698 25.07586 23.37142
#
# Velocity S-wave (km/s) = 3.26654 3.51412 3.39259
# Velocity P-wave (km/s) = 5.71595 6.01504 5.86740
#
# Compressibility (1/GPa) = 0.02669918
#
# Stress axis : x y z
#
# Youngs Moduli (GPa) = 53.82806 105.42917 67.24576
#
# Poissons Ratio (x) = 0.20352 0.26815
# Poissons Ratio (y) = 0.10391 0.14789
# Poissons Ratio (z) = 0.21464 0.23186
#
# Static dielectric constant tensor:
#      x y z
#    x 3.588340 0.000000 0.000000 
#    y 0.000000 3.705620 0.000000 
#    z 0.000000 0.000000 3.817580 
# 
# 
# High freq. dielectric constant tensor:
#      x y z
#    x 1.780060 0.000000 0.000000 
#    y 0.000000 1.794940 0.000000 
#    z 0.000000 0.000000 1.793530 
# 
# From -- ./inp_files/5400.got.cif
#   From: 2010.03.12/outbox.cif.g09.slc.cpg/sg19_3_cif.got.tgz:5400.got - 2010.04.10 18:59:41.
