data_PCOD8156821
_publ_section_title
;
Structure prediction by ZEFSAII (Michael W. Deem and Ramdas Pophale) SiO2 
 PCOD8156821
Probable space group: P 21 21 21
;
_chemical_formula_sum "Si O2"
_cell_formula_units_Z 32
_cell_length_a 8.579421
_cell_length_b 16.153792
_cell_length_c 10.665607
_cell_angle_alpha 90.000000
_cell_angle_beta 90.000000
_cell_angle_gamma 90.000000
_cell_volume 1478.148419
_symmetry_space_group_name_H-M "P 21 21 21"
_symmetry_group_IT_number 19
_symmetry_cell_setting 'orthorhombic'
loop_
_space_group_symop_operation_xyz
x,y,z
1/2-x,-y,1/2+z
1/2+x,1/2-y,-z
-x,1/2+y,1/2-z
loop_
_atom_site_type_symbol
_atom_site_label
_atom_site_fract_x
_atom_site_fract_y
_atom_site_fract_z
Si Si1 0.945393 0.419038 0.906476
Si Si2 0.988834 0.596663 0.633091
Si Si3 0.538970 0.586241 0.135111
Si Si4 0.342730 0.900330 0.113253
Si Si5 0.846026 0.686883 0.407845
Si Si6 0.016387 0.356228 0.383579
Si Si7 0.862234 0.672730 0.135666
Si Si8 0.157290 0.382619 0.129577
O O1 0.038401 0.405702 0.773705
O O2 0.837904 0.500285 0.888590
O O3 0.829718 0.343201 0.935196
O O4 0.067045 0.429185 0.018277
O O5 0.171872 0.579259 0.635846
O O6 0.901390 0.508579 0.613243
O O7 0.936003 0.634938 0.766622
O O8 0.954119 0.660921 0.522809
O O9 0.678109 0.653053 0.131094
O O10 0.425412 0.605771 0.017229
O O11 0.171510 0.859786 0.119646
O O12 0.434739 0.874186 0.984858
O O13 0.914902 0.647279 0.277462
O O14 0.841564 0.785277 0.398067
O O15 0.095147 0.267525 0.379981
O O16 0.076196 0.405730 0.261779
#
# Coordination Sequence:
#
# PCOD8156821 Si02
#       8
#     4   4   4   4   4   4   4   4
#     4  10  21  41  64  88 122 161 204 249 300 362
#     4  11  23  39  62  91 125 163 205 250 303 365
#     4   9  21  40  60  87 121 160 200 249 307 360
#     4  10  22  40  64  91 120 163 204 248 311 365
#     4  10  20  38  61  87 123 162 202 253 307 359
#     4  10  21  39  63  89 119 156 203 252 304 365
#     4   9  20  37  60  90 118 153 202 249 301 364
#     4  11  24  38  58  93 126 160 206 254 301 360
#
# _framework density 21.648705
#
# number of rings (size 3 to 8) (size 9 to 14) (size 15 to 20)
#    0.000    2.000    0.000    3.000    0.000   13.000 
#    0.000    3.750    0.000    0.000    0.000    0.000 
#    0.000    0.000    0.000    0.000    0.000    0.000 
#
# Total GULP energy -396423.142683 kJ/mol
# GULP energy per Si atom -12388.223209 kJ/mol
# Density = 2.159943 g / cm^3
# Si number density = 21.648705 Si / 1000 Ang^3
#
#
#
# Elastic Constant Matrix: (Units=GPa)
#
#
# Indices 1 2 3 4 5 6 
#
# 1 65.4570 23.7878 52.7134 0.0000 0.0000 0.0000
# 2 23.7878 67.3969 30.8201 0.0000 0.0000 0.0000
# 3 52.7134 30.8201 219.3729 0.0000 0.0000 0.0000
# 4 0.0000 0.0000 0.0000 34.5225 0.0000 0.0000
# 5 0.0000 0.0000 0.0000 0.0000 21.1920 0.0000
# 6 0.0000 0.0000 0.0000 0.0000 0.0000 28.1496
#
#
#
# Elastic Compliance Matrix: (Units=1/GPa)
#
#
# Indices 1 2 3 4 5 6 
#
# 1 0.020604 -0.005352 -0.004199 0.000000 0.000000 0.000000
# 2 -0.005352 0.017246 -0.001137 0.000000 0.000000 0.000000
# 3 -0.004199 -0.001137 0.005727 0.000000 0.000000 0.000000
# 4 0.000000 0.000000 0.000000 0.028967 0.000000 0.000000
# 5 0.000000 0.000000 0.000000 0.000000 0.047188 0.000000
# 6 0.000000 0.000000 0.000000 0.000000 0.000000 0.035525
#
#
# Mechanical properties :
#
#
# Convention : Reuss Voigt Hill
#
# Bulk Modulus (GPa) = 45.04207 62.98548 54.01378
# Shear Modulus (GPa) = 27.16917 33.09985 30.13451
#
# Velocity S-wave (km/s) = 3.54644 3.91442 3.73497
# Velocity P-wave (km/s) = 6.13358 7.04186 6.60335
#
# Compressibility (1/GPa) = 0.02220147
#
# Stress axis : x y z
#
# Youngs Moduli (GPa) = 48.53513 57.98319 174.60680
#
# Poissons Ratio (x) = 0.31032 0.73317
# Poissons Ratio (y) = 0.25976 0.19852
# Poissons Ratio (z) = 0.20380 0.06592
#
# Static dielectric constant tensor:
#      x y z
#    x 3.456700 0.000000 0.000000 
#    y 0.000000 3.721170 0.000000 
#    z 0.000000 0.000000 4.905170 
# 
# 
# High freq. dielectric constant tensor:
#      x y z
#    x 1.805550 0.000000 0.000000 
#    y 0.000000 1.839120 0.000000 
#    z 0.000000 0.000000 1.893130 
# 
# From -- ./inp_files/4723.got.cif
#   From: 2010.03.12/outbox.cif.g09.slc.cpg/sg19_3_cif.got.tgz:4723.got - 2010.04.10 18:59:41.
