data_PCOD8156976
_publ_section_title
;
Structure prediction by ZEFSAII (Michael W. Deem and Ramdas Pophale) SiO2 
 PCOD8156976
Probable space group: P 21 21 21
;
_chemical_formula_sum "Si O2"
_cell_formula_units_Z 32
_cell_length_a 8.923888
_cell_length_b 19.970400
_cell_length_c 8.673247
_cell_angle_alpha 90.000000
_cell_angle_beta 90.000000
_cell_angle_gamma 90.000000
_cell_volume 1545.690684
_symmetry_space_group_name_H-M "P 21 21 21"
_symmetry_group_IT_number 19
_symmetry_cell_setting 'orthorhombic'
loop_
_space_group_symop_operation_xyz
x,y,z
1/2-x,-y,1/2+z
1/2+x,1/2-y,-z
-x,1/2+y,1/2-z
loop_
_atom_site_type_symbol
_atom_site_label
_atom_site_fract_x
_atom_site_fract_y
_atom_site_fract_z
Si Si1 0.554222 0.798988 0.570752
Si Si2 0.945774 0.201012 0.429252
Si Si3 0.889303 0.578882 0.929135
Si Si4 0.396967 0.677105 0.429471
Si Si5 0.389300 0.921118 0.429136
Si Si6 0.452538 0.056019 0.570786
Si Si7 0.047459 0.943981 0.429213
Si Si8 0.396971 0.677105 0.070533
O O1 0.526711 0.813314 0.750002
O O2 0.506063 0.723940 0.529188
O O3 0.726787 0.807279 0.525882
O O4 0.455097 0.849353 0.470819
O O5 0.773208 0.192722 0.474118
O O6 0.044897 0.150647 0.529186
O O7 0.993931 0.276060 0.470818
O O8 0.911693 0.563768 0.749999
O O9 0.714635 0.579353 0.973071
O O10 0.975661 0.521345 0.024091
O O11 0.431565 0.600570 0.473804
O O12 0.427158 0.689606 0.250002
O O13 0.214632 0.920648 0.473071
O O14 0.475658 0.978655 0.524091
O O15 0.487898 0.064728 0.749999
O O16 0.568432 0.100570 0.473799
#
# Coordination Sequence:
#
# PCOD8156976 Si02
#       8
#     4   4   4   4   4   4   4   4
#     4  11  24  40  59  85 116 151 192 237 286 340
#     4  11  24  40  59  85 116 151 192 237 286 340
#     4  10  21  38  61  88 117 151 191 234 283 339
#     4  11  24  40  59  85 116 151 192 237 286 340
#     4  10  21  38  61  88 117 151 191 234 283 339
#     4  10  21  38  61  88 117 151 191 234 283 339
#     4  10  21  38  61  88 117 151 191 234 283 339
#     4  11  24  40  59  85 116 151 192 237 286 340
#
# _framework density 20.702718999999998
#
# number of rings (size 3 to 8) (size 9 to 14) (size 15 to 20)
#    0.000    1.500    0.000    4.500    0.000   14.000 
#    0.000    0.000    0.000    0.000    0.000    0.000 
#    0.000    0.000    0.000    0.000    0.000    0.000 
#
# Total GULP energy -397084.284104 kJ/mol
# GULP energy per Si atom -12408.883878 kJ/mol
# Density = 2.065560 g / cm^3
# Si number density = 20.702719 Si / 1000 Ang^3
#
#
#
# Elastic Constant Matrix: (Units=GPa)
#
#
# Indices 1 2 3 4 5 6 
#
# 1 36.2311 -2.5301 31.8433 0.0000 0.0000 0.0000
# 2 -2.5301 66.5814 6.2451 0.0000 0.0000 0.0000
# 3 31.8433 6.2451 55.0006 0.0000 0.0000 0.0000
# 4 0.0000 0.0000 0.0000 43.8098 0.0000 0.0000
# 5 0.0000 0.0000 0.0000 0.0000 29.5235 0.0000
# 6 0.0000 0.0000 0.0000 0.0000 0.0000 38.4337
#
#
#
# Elastic Compliance Matrix: (Units=1/GPa)
#
#
# Indices 1 2 3 4 5 6 
#
# 1 0.058067 0.005418 -0.034234 0.000000 0.000000 0.000000
# 2 0.005418 0.015686 -0.004918 0.000000 0.000000 0.000000
# 3 -0.034234 -0.004918 0.038560 0.000000 0.000000 0.000000
# 4 0.000000 0.000000 0.000000 0.022826 0.000000 0.000000
# 5 0.000000 0.000000 0.000000 0.000000 0.033871 0.000000
# 6 0.000000 0.000000 0.000000 0.000000 0.000000 0.026019
#
#
# Mechanical properties :
#
#
# Convention : Reuss Voigt Hill
#
# Bulk Modulus (GPa) = 22.29878 25.43664 23.86771
# Shear Modulus (GPa) = 18.02160 30.50371 24.26265
#
# Velocity S-wave (km/s) = 2.95361 3.84267 3.42710
# Velocity P-wave (km/s) = 4.73562 5.65699 5.21668
#
# Compressibility (1/GPa) = 0.04484550
#
# Stress axis : x y z
#
# Youngs Moduli (GPa) = 17.22159 63.74974 25.93366
#
# Poissons Ratio (x) = -0.34536 0.88780
# Poissons Ratio (y) = -0.09330 0.12753
# Poissons Ratio (z) = 0.58956 0.31350
#
# Static dielectric constant tensor:
#      x y z
#    x 3.666200 0.000000 0.000000 
#    y 0.000000 3.702250 0.000000 
#    z 0.000000 0.000000 3.696700 
# 
# 
# High freq. dielectric constant tensor:
#      x y z
#    x 1.804040 0.000000 0.000000 
#    y 0.000000 1.821100 0.000000 
#    z 0.000000 0.000000 1.819330 
# 
# From -- ./inp_files/3195.got.cif
#   From: 2010.03.12/outbox.cif.g09.slc.cpg/sg19_2_cif.got.tgz:3195.got - 2010.04.10 18:59:41.
