data_PCOD8156358
_publ_section_title
;
Structure prediction by ZEFSAII (Michael W. Deem and Ramdas Pophale) SiO2 
 PCOD8156358
Probable space group: P 21 21 2
;
_chemical_formula_sum "Si O2"
_cell_formula_units_Z 24
_cell_length_a 13.300363
_cell_length_b 8.887020
_cell_length_c 9.281147
_cell_angle_alpha 90.000000
_cell_angle_beta 90.000000
_cell_angle_gamma 90.000000
_cell_volume 1097.037070
_symmetry_space_group_name_H-M "P 21 21 2"
_symmetry_group_IT_number 18
_symmetry_cell_setting 'orthorhombic'
loop_
_space_group_symop_operation_xyz
x,y,z
-x,-y,z
1/2+x,1/2-y,-z
1/2-x,1/2+y,-z
loop_
_atom_site_type_symbol
_atom_site_label
_atom_site_fract_x
_atom_site_fract_y
_atom_site_fract_z
Si Si1 0.000000 0.500000 0.315765
Si Si2 0.485029 0.304437 0.557676
Si Si3 0.681631 0.131170 0.863460
Si Si4 0.717960 0.659086 0.665401
Si Si5 0.321202 0.637840 0.106606
Si Si6 0.215715 0.168019 0.386387
Si Si7 0.500000 0.500000 0.293077
O O1 0.027879 0.626261 0.431939
O O2 0.088780 0.453663 0.208978
O O3 0.402465 0.366889 0.671156
O O4 0.595437 0.356130 0.604032
O O5 0.458914 0.366168 0.397152
O O6 0.745133 0.214618 0.738665
O O7 0.751970 0.004890 0.938900
O O8 0.643040 0.264340 0.969393
O O9 0.756490 0.740817 0.806488
O O10 0.743362 0.769602 0.534765
O O11 0.767443 0.493826 0.645879
O O12 0.415240 0.573178 0.193488
#
# Coordination Sequence:
#
# PCOD8156358 Si02
#       7
#     2   4   4   4   4   4   2
#     4  10  24  42  70 102 134 182 236 288 344 420
#     4  11  21  40  69  98 141 169 238 290 343 415
#     4  11  25  47  66 101 138 190 230 280 350 428
#     4  12  21  41  69 100 137 180 228 293 345 413
#     4  12  26  46  70  98 147 184 236 286 357 422
#     4  11  23  39  68 103 134 179 233 284 346 412
#     4  12  24  46  66 112 138 180 234 300 362 406
#
# _framework density 21.877110999999999
#
# number of rings (size 3 to 8) (size 9 to 14) (size 15 to 20)
#    0.000    0.667    5.000    3.000    2.333    1.333 
#    6.000    2.500    0.000    0.000    0.000    0.000 
#    0.000    0.000    0.000    0.000    0.000    0.000 
#
# Total GULP energy -297402.623795 kJ/mol
# GULP energy per Si atom -12391.775991 kJ/mol
# Density = 2.182732 g / cm^3
# Si number density = 21.877111 Si / 1000 Ang^3
#
#
#
# Elastic Constant Matrix: (Units=GPa)
#
#
# Indices 1 2 3 4 5 6 
#
# 1 73.4524 31.2603 18.5092 0.0000 0.0000 0.0000
# 2 31.2603 162.3648 27.6135 0.0000 0.0000 0.0000
# 3 18.5092 27.6135 62.9605 0.0000 0.0000 0.0000
# 4 0.0000 0.0000 0.0000 55.6032 0.0000 0.0000
# 5 0.0000 0.0000 0.0000 0.0000 22.9054 0.0000
# 6 0.0000 0.0000 0.0000 0.0000 0.0000 25.3134
#
#
#
# Elastic Compliance Matrix: (Units=1/GPa)
#
#
# Indices 1 2 3 4 5 6 
#
# 1 0.015517 -0.002390 -0.003513 0.000000 0.000000 0.000000
# 2 -0.002390 0.007023 -0.002378 0.000000 0.000000 0.000000
# 3 -0.003513 -0.002378 0.017959 0.000000 0.000000 0.000000
# 4 0.000000 0.000000 0.000000 0.017985 0.000000 0.000000
# 5 0.000000 0.000000 0.000000 0.000000 0.043658 0.000000
# 6 0.000000 0.000000 0.000000 0.000000 0.000000 0.039505
#
#
# Mechanical properties :
#
#
# Convention : Reuss Voigt Hill
#
# Bulk Modulus (GPa) = 41.77699 50.39373 46.08536
# Shear Modulus (GPa) = 30.08654 35.52406 32.80530
#
# Velocity S-wave (km/s) = 3.71246 4.03401 3.87657
# Velocity P-wave (km/s) = 6.12488 6.69198 6.41470
#
# Compressibility (1/GPa) = 0.02393662
#
# Stress axis : x y z
#
# Youngs Moduli (GPa) = 64.44664 142.37917 55.68325
#
# Poissons Ratio (x) = 0.34027 0.19564
# Poissons Ratio (y) = 0.15402 0.13240
# Poissons Ratio (z) = 0.22643 0.33855
#
# Static dielectric constant tensor:
#      x y z
#    x 4.034970 0.000000 0.000000 
#    y 0.000000 4.457070 0.000000 
#    z 0.000000 0.000000 3.828010 
# 
# 
# High freq. dielectric constant tensor:
#      x y z
#    x 1.851380 0.000000 0.000000 
#    y 0.000000 1.895230 0.000000 
#    z 0.000000 0.000000 1.841090 
# 
# From -- ./inp_files/3189.got.cif
#   From: 2010.03.12/outbox.cif.g09.slc.cpg/sg18_2_cif.got.tgz:3189.got - 2010.04.10 18:53:55.
