data_PCOD8156917
_publ_section_title
;
Structure prediction by ZEFSAII (Michael W. Deem and Ramdas Pophale) SiO2 
 PCOD8156917
Probable space group: P 21 21 21
;
_chemical_formula_sum "Si O2"
_cell_formula_units_Z 32
_cell_length_a 11.164934
_cell_length_b 14.451491
_cell_length_c 8.470188
_cell_angle_alpha 90.000000
_cell_angle_beta 90.000000
_cell_angle_gamma 90.000000
_cell_volume 1366.664353
_symmetry_space_group_name_H-M "P 21 21 21"
_symmetry_group_IT_number 19
_symmetry_cell_setting 'orthorhombic'
loop_
_space_group_symop_operation_xyz
x,y,z
1/2-x,-y,1/2+z
1/2+x,1/2-y,-z
-x,1/2+y,1/2-z
loop_
_atom_site_type_symbol
_atom_site_label
_atom_site_fract_x
_atom_site_fract_y
_atom_site_fract_z
Si Si1 0.774055 0.392908 0.191444
Si Si2 0.547760 0.292225 0.728740
Si Si3 0.395919 0.450298 0.587930
Si Si4 0.966968 0.375879 0.437926
Si Si5 0.179476 0.826129 0.773114
Si Si6 0.832984 0.002908 0.075419
Si Si7 0.138449 0.714759 0.476768
Si Si8 0.629408 0.501347 0.416069
O O1 0.891908 0.416170 0.292241
O O2 0.777422 0.288325 0.120905
O O3 0.664597 0.408886 0.315911
O O4 0.771852 0.469752 0.050316
O O5 0.443259 0.351134 0.644588
O O6 0.561559 0.197272 0.634173
O O7 0.676632 0.340964 0.723050
O O8 0.498005 0.278756 0.908570
O O9 0.354031 0.510848 0.737818
O O10 0.281558 0.442061 0.473400
O O11 0.499841 0.498871 0.491083
O O12 0.879135 0.319007 0.554708
O O13 0.048070 0.459433 0.509915
O O14 0.141733 0.740026 0.662135
O O15 0.119410 0.917391 0.707744
O O16 0.811643 0.110739 0.034871
#
# Coordination Sequence:
#
# PCOD8156917 Si02
#       8
#     4   4   4   4   4   4   4   4
#     4  10  20  42  72 107 139 187 233 309 359 426
#     4  10  24  48  69 100 147 181 240 309 360 434
#     4  11  25  46  68 103 141 193 233 304 361 438
#     4  11  24  43  73 101 143 185 244 297 363 431
#     4  11  25  45  73 107 139 189 240 304 368 436
#     4  11  26  46  74  98 150 190 246 290 369 443
#     4   9  24  46  71 105 144 190 236 296 378 435
#     4  11  22  42  72 101 143 181 246 295 366 425
#
# _framework density 23.414674000000002
#
# number of rings (size 3 to 8) (size 9 to 14) (size 15 to 20)
#    0.000    1.500    1.250    2.250    7.000    0.000 
#    4.500    1.250    0.000    0.000    0.000    0.000 
#    0.000    0.000    0.000    0.000    0.000    0.000 
#
# Total GULP energy -396590.371956 kJ/mol
# GULP energy per Si atom -12393.449124 kJ/mol
# Density = 2.336138 g / cm^3
# Si number density = 23.414674 Si / 1000 Ang^3
#
#
#
# Elastic Constant Matrix: (Units=GPa)
#
#
# Indices 1 2 3 4 5 6 
#
# 1 98.5581 19.7625 33.9787 0.0000 0.0000 0.0000
# 2 19.7625 76.2933 20.6811 0.0000 0.0000 0.0000
# 3 33.9787 20.6811 87.8088 0.0000 0.0000 0.0000
# 4 0.0000 0.0000 0.0000 36.7225 0.0000 0.0000
# 5 0.0000 0.0000 0.0000 0.0000 45.5514 0.0000
# 6 0.0000 0.0000 0.0000 0.0000 0.0000 30.8126
#
#
#
# Elastic Compliance Matrix: (Units=1/GPa)
#
#
# Indices 1 2 3 4 5 6 
#
# 1 0.011980 -0.001972 -0.004171 0.000000 0.000000 0.000000
# 2 -0.001972 0.014326 -0.002611 0.000000 0.000000 0.000000
# 3 -0.004171 -0.002611 0.013617 0.000000 0.000000 0.000000
# 4 0.000000 0.000000 0.000000 0.027231 0.000000 0.000000
# 5 0.000000 0.000000 0.000000 0.000000 0.021953 0.000000
# 6 0.000000 0.000000 0.000000 0.000000 0.000000 0.032454
#
#
# Mechanical properties :
#
#
# Convention : Reuss Voigt Hill
#
# Bulk Modulus (GPa) = 44.61455 45.72276 45.16865
# Shear Modulus (GPa) = 34.11983 35.16651 34.64317
#
# Velocity S-wave (km/s) = 3.82147 3.87964 3.85066
# Velocity P-wave (km/s) = 6.21023 6.29592 6.25322
#
# Compressibility (1/GPa) = 0.02241421
#
# Stress axis : x y z
#
# Youngs Moduli (GPa) = 83.47340 69.80320 73.43556
#
# Poissons Ratio (x) = 0.13769 0.30631
# Poissons Ratio (y) = 0.16465 0.19173
# Poissons Ratio (z) = 0.34818 0.18224
#
# Static dielectric constant tensor:
#      x y z
#    x 3.944520 0.000000 0.000000 
#    y 0.000000 4.075190 0.000000 
#    z 0.000000 0.000000 4.568410 
# 
# 
# High freq. dielectric constant tensor:
#      x y z
#    x 1.908990 0.000000 0.000000 
#    y 0.000000 1.923240 0.000000 
#    z 0.000000 0.000000 1.934530 
# 
# From -- ./inp_files/3607.got.cif
#   From: 2010.03.12/outbox.cif.g09.slc.cpg/sg19_2_cif.got.tgz:3607.got - 2010.04.10 18:59:41.
