data_PCOD8156772
_publ_section_title
;
Structure prediction by ZEFSAII (Michael W. Deem and Ramdas Pophale) SiO2 
 PCOD8156772
Probable space group: P 21 21 21
;
_chemical_formula_sum "Si O2"
_cell_formula_units_Z 24
_cell_length_a 8.466059
_cell_length_b 4.914144
_cell_length_c 29.368828
_cell_angle_alpha 90.000000
_cell_angle_beta 90.000000
_cell_angle_gamma 90.000000
_cell_volume 1221.844069
_symmetry_space_group_name_H-M "P 21 21 21"
_symmetry_group_IT_number 19
_symmetry_cell_setting 'orthorhombic'
loop_
_space_group_symop_operation_xyz
x,y,z
1/2-x,-y,1/2+z
1/2+x,1/2-y,-z
-x,1/2+y,1/2-z
loop_
_atom_site_type_symbol
_atom_site_label
_atom_site_fract_x
_atom_site_fract_y
_atom_site_fract_z
Si Si1 0.889664 0.949409 0.964376
Si Si2 0.828039 0.544947 0.467539
Si Si3 0.367744 0.576380 0.136121
Si Si4 0.069691 0.147035 0.227221
Si Si5 0.429096 0.338174 0.227863
Si Si6 0.339701 0.923111 0.633002
O O1 0.815896 0.659363 0.977109
O O2 0.957477 0.946098 0.912453
O O3 0.746865 0.158536 0.971374
O O4 0.035339 0.015698 0.996194
O O5 0.904081 0.494090 0.416981
O O6 0.472302 0.466453 0.178224
O O7 0.211799 0.390792 0.131742
O O8 0.311314 0.885567 0.145368
O O9 0.246105 0.260947 0.232183
O O10 0.034992 0.054868 0.174603
O O11 0.947874 0.382861 0.241040
O O12 0.464712 0.571094 0.265079
#
# Coordination Sequence:
#
# PCOD8156772 Si02
#       6
#     4   4   4   4   4   4
#     4  10  20  36  58  81 107 140 178 219 264 316
#     4  10  20  36  58  81 107 140 178 219 264 316
#     4   9  18  34  55  76 104 145 179 205 259 333
#     4  11  21  36  56  79 107 141 181 222 262 313
#     4  11  21  36  56  79 107 141 181 222 262 313
#     4   9  18  34  55  76 104 145 179 205 259 333
#
# _framework density 19.642441999999999
#
# number of rings (size 3 to 8) (size 9 to 14) (size 15 to 20)
#    0.000    2.000    0.000    6.000    0.000    0.000 
#    0.000    5.000    0.000    0.000    0.000    0.000 
#    0.000    0.000    0.000    0.000    0.000    0.000 
#
# Total GULP energy -297463.377818 kJ/mol
# GULP energy per Si atom -12394.307409 kJ/mol
# Density = 1.959773 g / cm^3
# Si number density = 19.642442 Si / 1000 Ang^3
#
#
#
# Elastic Constant Matrix: (Units=GPa)
#
#
# Indices 1 2 3 4 5 6 
#
# 1 42.8505 1.0248 43.9396 0.0000 0.0000 0.0000
# 2 1.0248 69.8167 11.4809 0.0000 0.0000 0.0000
# 3 43.9396 11.4809 123.1736 0.0000 0.0000 0.0000
# 4 0.0000 0.0000 0.0000 -220.9243 0.0000 0.0000
# 5 0.0000 0.0000 0.0000 0.0000 35.6080 0.0000
# 6 0.0000 0.0000 0.0000 0.0000 0.0000 26.8319
#
#
#
# Elastic Compliance Matrix: (Units=1/GPa)
#
#
# Indices 1 2 3 4 5 6 
#
# 1 0.036984 0.001652 -0.013347 0.000000 0.000000 0.000000
# 2 0.001652 0.014620 -0.001952 0.000000 0.000000 0.000000
# 3 -0.013347 -0.001952 0.013062 0.000000 0.000000 0.000000
# 4 0.000000 0.000000 0.000000 -0.004526 0.000000 0.000000
# 5 0.000000 0.000000 0.000000 0.000000 0.028084 0.000000
# 6 0.000000 0.000000 0.000000 0.000000 0.000000 0.037269
#
#
# Mechanical properties :
#
#
# Convention : Reuss Voigt Hill
#
# Bulk Modulus (GPa) = 26.75847 38.74793 32.75320
# Shear Modulus (GPa) = 30.25834 -19.73718 5.26058
#
# Velocity S-wave (km/s) = 3.92912 -3.17333 1.63829
# Velocity P-wave (km/s) = 5.85119 2.51848 4.50439
#
# Compressibility (1/GPa) = 0.03737134
#
# Stress axis : x y z
#
# Youngs Moduli (GPa) = 27.03874 68.39959 76.55842
#
# Poissons Ratio (x) = -0.11300 1.02184
# Poissons Ratio (y) = -0.04467 0.14944
# Poissons Ratio (z) = 0.36089 0.13352
#
# Static dielectric constant tensor:
#      x y z
#    x 4.421200 0.000000 0.000000 
#    y 0.000000 3.864990 0.000000 
#    z 0.000000 0.000000 4.083490 
# 
# 
# High freq. dielectric constant tensor:
#      x y z
#    x 1.702610 0.000000 0.000000 
#    y 0.000000 1.794070 0.000000 
#    z 0.000000 0.000000 1.783470 
# 
# From -- ./inp_files/569.got.cif
#   From: 2010.03.12/outbox.cif.g09.slc.cpg/sg19_1_cif.got.tgz:569.got - 2010.04.10 18:59:41.
