data_PCOD8156885
_publ_section_title
;
Structure prediction by ZEFSAII (Michael W. Deem and Ramdas Pophale) SiO2 
 PCOD8156885
Probable space group: P 21 21 21
;
_chemical_formula_sum "Si O2"
_cell_formula_units_Z 32
_cell_length_a 10.209376
_cell_length_b 9.380907
_cell_length_c 15.612555
_cell_angle_alpha 90.000000
_cell_angle_beta 90.000000
_cell_angle_gamma 90.000000
_cell_volume 1495.264458
_symmetry_space_group_name_H-M "P 21 21 21"
_symmetry_group_IT_number 19
_symmetry_cell_setting 'orthorhombic'
loop_
_space_group_symop_operation_xyz
x,y,z
1/2-x,-y,1/2+z
1/2+x,1/2-y,-z
-x,1/2+y,1/2-z
loop_
_atom_site_type_symbol
_atom_site_label
_atom_site_fract_x
_atom_site_fract_y
_atom_site_fract_z
Si Si1 0.379863 0.593020 0.021423
Si Si2 0.045988 0.622435 0.233059
Si Si3 0.589488 0.807938 0.952880
Si Si4 0.413703 0.450155 0.200804
Si Si5 0.511440 0.611945 0.523611
Si Si6 0.460052 0.673211 0.347332
Si Si7 0.132257 0.330956 0.180142
Si Si8 0.182543 0.665686 0.402614
O O1 0.509860 0.679208 0.995324
O O2 0.382533 0.452731 0.962979
O O3 0.239890 0.676717 0.012043
O O4 0.402336 0.551278 0.119428
O O5 0.092234 0.711743 0.149786
O O6 0.030213 0.456371 0.208352
O O7 0.160934 0.631836 0.302465
O O8 0.911162 0.684622 0.273247
O O9 0.499663 0.942735 0.976252
O O10 0.458761 0.544876 0.280567
O O11 0.523513 0.326984 0.195990
O O12 0.276841 0.367491 0.213174
O O13 0.559220 0.654855 0.426756
O O14 0.381074 0.675909 0.575558
O O15 0.629979 0.675963 0.579323
O O16 0.336781 0.665547 0.411928
#
# Coordination Sequence:
#
# PCOD8156885 Si02
#       8
#     4   4   4   4   4   4   4   4
#     4  12  24  45  70 100 140 185 225 286 346 408
#     4  10  20  40  69  98 126 177 226 279 327 401
#     4  11  24  42  67 104 142 174 230 285 342 405
#     4  12  26  46  66  97 142 175 221 283 352 412
#     4  10  22  41  68  95 128 178 229 271 326 408
#     4  12  25  44  69  97 137 181 220 279 352 409
#     4  10  20  43  67  97 130 167 226 277 330 394
#     4  11  21  43  74  92 133 183 231 278 337 403
#
# _framework density 21.400895999999999
#
# number of rings (size 3 to 8) (size 9 to 14) (size 15 to 20)
#    0.000    1.000    6.250    0.750    1.750    1.000 
#    6.750    0.000    0.000    0.000    0.000    0.000 
#    0.000    0.000    0.000    0.000    0.000    0.000 
#
# Total GULP energy -396445.156028 kJ/mol
# GULP energy per Si atom -12388.911126 kJ/mol
# Density = 2.135219 g / cm^3
# Si number density = 21.400896 Si / 1000 Ang^3
#
#
#
# Elastic Constant Matrix: (Units=GPa)
#
#
# Indices 1 2 3 4 5 6 
#
# 1 42.1056 36.3992 27.5160 0.0000 0.0000 0.0000
# 2 36.3992 87.7139 35.6397 0.0000 0.0000 0.0000
# 3 27.5160 35.6397 127.4190 0.0000 0.0000 0.0000
# 4 0.0000 0.0000 0.0000 28.0029 0.0000 0.0000
# 5 0.0000 0.0000 0.0000 0.0000 15.2947 0.0000
# 6 0.0000 0.0000 0.0000 0.0000 0.0000 37.1233
#
#
#
# Elastic Compliance Matrix: (Units=1/GPa)
#
#
# Indices 1 2 3 4 5 6 
#
# 1 0.039113 -0.014440 -0.004407 0.000000 0.000000 0.000000
# 2 -0.014440 0.018194 -0.001970 0.000000 0.000000 0.000000
# 3 -0.004407 -0.001970 0.009351 0.000000 0.000000 0.000000
# 4 0.000000 0.000000 0.000000 0.035711 0.000000 0.000000
# 5 0.000000 0.000000 0.000000 0.000000 0.065382 0.000000
# 6 0.000000 0.000000 0.000000 0.000000 0.000000 0.026937
#
#
# Mechanical properties :
#
#
# Convention : Reuss Voigt Hill
#
# Bulk Modulus (GPa) = 39.96546 50.70538 45.33542
# Shear Modulus (GPa) = 20.43607 26.59642 23.51624
#
# Velocity S-wave (km/s) = 3.09353 3.52912 3.31848
# Velocity P-wave (km/s) = 5.61026 6.35223 5.99274
#
# Compressibility (1/GPa) = 0.02502161
#
# Stress axis : x y z
#
# Youngs Moduli (GPa) = 25.56672 54.96398 106.93961
#
# Poissons Ratio (x) = 0.79370 0.47133
# Poissons Ratio (y) = 0.36919 0.21072
# Poissons Ratio (z) = 0.11268 0.10831
#
# Static dielectric constant tensor:
#      x y z
#    x 3.710560 0.000000 0.000000 
#    y 0.000000 3.779760 0.000000 
#    z 0.000000 0.000000 4.235610 
# 
# 
# High freq. dielectric constant tensor:
#      x y z
#    x 1.818560 0.000000 0.000000 
#    y 0.000000 1.830450 0.000000 
#    z 0.000000 0.000000 1.865590 
# 
# From -- ./inp_files/6104.got.cif
#   From: 2010.03.12/outbox.cif.g09.slc.cpg/sg19_4_cif.got.tgz:6104.got - 2010.04.10 18:59:41.
