data_PCOD8156733
_publ_section_title
;
Structure prediction by ZEFSAII (Michael W. Deem and Ramdas Pophale) SiO2 
 PCOD8156733
Probable space group: P 21 21 21
;
_chemical_formula_sum "Si O2"
_cell_formula_units_Z 32
_cell_length_a 19.166920
_cell_length_b 7.726434
_cell_length_c 8.929357
_cell_angle_alpha 90.000000
_cell_angle_beta 90.000000
_cell_angle_gamma 90.000000
_cell_volume 1322.365822
_symmetry_space_group_name_H-M "P 21 21 21"
_symmetry_group_IT_number 19
_symmetry_cell_setting 'orthorhombic'
loop_
_space_group_symop_operation_xyz
x,y,z
1/2-x,-y,1/2+z
1/2+x,1/2-y,-z
-x,1/2+y,1/2-z
loop_
_atom_site_type_symbol
_atom_site_label
_atom_site_fract_x
_atom_site_fract_y
_atom_site_fract_z
Si Si1 0.377096 0.057659 0.887262
Si Si2 0.819043 0.723138 0.439544
Si Si3 0.241521 0.132584 0.533397
Si Si4 0.025176 0.213218 0.512477
Si Si5 0.879395 0.228019 0.407312
Si Si6 0.385599 0.593146 0.800882
Si Si7 0.364935 0.691682 0.241206
Si Si8 0.677926 0.895552 0.448746
O O1 0.380749 0.116761 0.715200
O O2 0.361758 0.221131 0.998243
O O3 0.315387 0.909825 0.904636
O O4 0.449416 0.971302 0.943154
O O5 0.785644 0.538246 0.440891
O O6 0.867173 0.734066 0.292298
O O7 0.866394 0.774127 0.582504
O O8 0.758891 0.866089 0.419825
O O9 0.304914 0.270623 0.503832
O O10 0.200647 0.195069 0.681099
O O11 0.045596 0.366972 0.396829
O O12 0.061770 0.240551 0.673376
O O13 0.941830 0.234896 0.529393
O O14 0.896341 0.054707 0.319367
O O15 0.325189 0.542028 0.920205
O O16 0.355329 0.487605 0.198835
#
# Coordination Sequence:
#
# PCOD8156733 Si02
#       8
#     4   4   4   4   4   4   4   4
#     4   9  19  35  58  89 120 156 207 260 310 368
#     4  11  20  34  56  85 121 160 204 259 317 373
#     4  10  20  34  57  85 121 160 204 258 308 361
#     4  10  21  38  60  85 119 162 208 258 311 380
#     4  11  20  37  60  87 119 162 216 262 313 382
#     4  10  21  34  56  85 115 158 205 258 313 373
#     4  10  21  38  58  88 125 159 203 257 316 376
#     4   9  18  34  57  84 118 157 201 254 308 375
#
# _framework density 24.199052999999999
#
# number of rings (size 3 to 8) (size 9 to 14) (size 15 to 20)
#    0.000    2.000    0.000    5.250    0.000    2.000 
#    0.000   10.000    0.000    1.500    0.000    0.000 
#    0.000    0.000    0.000    0.000    0.000    0.000 
#
# Total GULP energy -396485.445233 kJ/mol
# GULP energy per Si atom -12390.170164 kJ/mol
# Density = 2.414397 g / cm^3
# Si number density = 24.199053 Si / 1000 Ang^3
#
#
#
# Elastic Constant Matrix: (Units=GPa)
#
#
# Indices 1 2 3 4 5 6 
#
# 1 90.4607 -7.8218 25.0965 0.0000 0.0000 0.0000
# 2 -7.8218 62.9381 18.7483 0.0000 0.0000 0.0000
# 3 25.0965 18.7483 57.5109 0.0000 0.0000 0.0000
# 4 0.0000 0.0000 0.0000 7.1238 0.0000 0.0000
# 5 0.0000 0.0000 0.0000 0.0000 16.3701 0.0000
# 6 0.0000 0.0000 0.0000 0.0000 0.0000 18.5699
#
#
#
# Elastic Compliance Matrix: (Units=1/GPa)
#
#
# Indices 1 2 3 4 5 6 
#
# 1 0.013333 0.003755 -0.007042 0.000000 0.000000 0.000000
# 2 0.003755 0.018655 -0.007720 0.000000 0.000000 0.000000
# 3 -0.007042 -0.007720 0.022978 0.000000 0.000000 0.000000
# 4 0.000000 0.000000 0.000000 0.140374 0.000000 0.000000
# 5 0.000000 0.000000 0.000000 0.000000 0.061087 0.000000
# 6 0.000000 0.000000 0.000000 0.000000 0.000000 0.053851
#
#
# Mechanical properties :
#
#
# Convention : Reuss Voigt Hill
#
# Bulk Modulus (GPa) = 30.34828 31.43952 30.89390
# Shear Modulus (GPa) = 14.56554 20.07187 17.31870
#
# Velocity S-wave (km/s) = 2.45604 2.88314 2.67812
# Velocity P-wave (km/s) = 4.53995 4.90954 4.72836
#
# Compressibility (1/GPa) = 0.03295080
#
# Stress axis : x y z
#
# Youngs Moduli (GPa) = 75.00235 53.60523 43.52040
#
# Poissons Ratio (x) = -0.20127 0.30648
# Poissons Ratio (y) = -0.28162 0.33597
# Poissons Ratio (z) = 0.52818 0.41383
#
# Static dielectric constant tensor:
#      x y z
#    x 4.352890 0.000000 0.000000 
#    y 0.000000 4.870600 0.000000 
#    z 0.000000 0.000000 4.172980 
# 
# 
# High freq. dielectric constant tensor:
#      x y z
#    x 1.938670 0.000000 0.000000 
#    y 0.000000 1.983800 0.000000 
#    z 0.000000 0.000000 1.942910 
# 
# From -- ./inp_files/4314.got.cif
#   From: 2010.03.12/outbox.cif.g09.slc.cpg/sg19_3_cif.got.tgz:4314.got - 2010.04.10 18:59:41.
