data_PCOD8156152
_publ_section_title
;
Structure prediction by ZEFSAII (Michael W. Deem and Ramdas Pophale) SiO2 
 PCOD8156152
Probable space group: P 21 21 2
;
_chemical_formula_sum "Si O2"
_cell_formula_units_Z 30
_cell_length_a 18.329452
_cell_length_b 12.134337
_cell_length_c 6.094256
_cell_angle_alpha 90.000000
_cell_angle_beta 90.000000
_cell_angle_gamma 90.000000
_cell_volume 1355.458504
_symmetry_space_group_name_H-M "P 21 21 2"
_symmetry_group_IT_number 18
_symmetry_cell_setting 'orthorhombic'
loop_
_space_group_symop_operation_xyz
x,y,z
-x,-y,z
1/2+x,1/2-y,-z
1/2-x,1/2+y,-z
loop_
_atom_site_type_symbol
_atom_site_label
_atom_site_fract_x
_atom_site_fract_y
_atom_site_fract_z
Si Si1 0.992790 0.298893 0.117096
Si Si2 0.410756 0.666619 0.606708
Si Si3 0.500000 0.000000 0.567015
Si Si4 0.651759 0.687964 0.000687
Si Si5 0.906326 0.641121 0.719271
Si Si6 0.720112 0.351186 0.922294
Si Si7 0.747276 0.568224 0.690353
Si Si8 0.336819 0.511642 0.306216
O O1 0.917000 0.268801 0.003253
O O2 0.053712 0.347376 0.952752
O O3 0.020800 0.183553 0.228359
O O4 0.975756 0.395398 0.289777
O O5 0.427326 0.754032 0.420483
O O6 0.339644 0.692220 0.751412
O O7 0.398993 0.548945 0.484835
O O8 0.567648 0.031203 0.408423
O O9 0.720690 0.755953 0.083342
O O10 0.631306 0.587306 0.162202
O O11 0.675388 0.637199 0.765780
O O12 0.818977 0.639899 0.737466
O O13 0.758244 0.462551 0.843108
O O14 0.685282 0.380848 0.161160
O O15 0.734534 0.532444 0.438087
#
# Coordination Sequence:
#
# PCOD8156152 Si02
#       8
#     4   4   2   4   4   4   4   4
#     4  11  25  42  65  98 139 177 221 283 340 406
#     4  10  21  43  64  93 127 176 225 264 334 403
#     4  10  26  40  64 102 138 176 232 268 348 410
#     4  11  24  41  64 101 133 169 225 280 332 397
#     4  11  23  43  68  95 134 183 216 276 341 410
#     4  10  22  40  67  93 129 171 218 287 329 395
#     4  10  23  40  66  95 126 171 225 269 336 401
#     4  10  22  42  66  95 127 177 226 276 338 393
#
# _framework density 22.132733000000002
#
# number of rings (size 3 to 8) (size 9 to 14) (size 15 to 20)
#    0.000    1.600    0.000    3.600    5.600    5.333 
#    0.000   16.000    0.000    0.000    0.000    0.000 
#    0.000    0.000    0.000    0.000    0.000    0.000 
#
# Total GULP energy -371838.704443 kJ/mol
# GULP energy per Si atom -12394.623481 kJ/mol
# Density = 2.208236 g / cm^3
# Si number density = 22.132733 Si / 1000 Ang^3
#
#
#
# Elastic Constant Matrix: (Units=GPa)
#
#
# Indices 1 2 3 4 5 6 
#
# 1 78.3472 30.5532 33.7996 0.0000 0.0000 0.0000
# 2 30.5532 82.0096 26.1771 0.0000 0.0000 0.0000
# 3 33.7996 26.1771 102.0870 0.0000 0.0000 0.0000
# 4 0.0000 0.0000 0.0000 28.5421 0.0000 0.0000
# 5 0.0000 0.0000 0.0000 0.0000 29.8021 0.0000
# 6 0.0000 0.0000 0.0000 0.0000 0.0000 38.2978
#
#
#
# Elastic Compliance Matrix: (Units=1/GPa)
#
#
# Indices 1 2 3 4 5 6 
#
# 1 0.016449 -0.004781 -0.004220 0.000000 0.000000 0.000000
# 2 -0.004781 0.014670 -0.002179 0.000000 0.000000 0.000000
# 3 -0.004220 -0.002179 0.011751 0.000000 0.000000 0.000000
# 4 0.000000 0.000000 0.000000 0.035036 0.000000 0.000000
# 5 0.000000 0.000000 0.000000 0.000000 0.033555 0.000000
# 6 0.000000 0.000000 0.000000 0.000000 0.000000 0.026111
#
#
# Mechanical properties :
#
#
# Convention : Reuss Voigt Hill
#
# Bulk Modulus (GPa) = 48.75486 49.27818 49.01652
# Shear Modulus (GPa) = 29.98159 30.78933 30.38546
#
# Velocity S-wave (km/s) = 3.68452 3.73382 3.70925
# Velocity P-wave (km/s) = 6.33854 6.39545 6.36706
#
# Compressibility (1/GPa) = 0.02051078
#
# Stress axis : x y z
#
# Youngs Moduli (GPa) = 60.79510 68.16459 85.09599
#
# Poissons Ratio (x) = 0.32590 0.35910
# Poissons Ratio (y) = 0.29066 0.18541
# Poissons Ratio (z) = 0.25655 0.14852
#
# Static dielectric constant tensor:
#      x y z
#    x 3.802760 0.000000 0.000000 
#    y 0.000000 4.008210 0.000000 
#    z 0.000000 0.000000 4.282640 
# 
# 
# High freq. dielectric constant tensor:
#      x y z
#    x 1.850740 0.000000 0.000000 
#    y 0.000000 1.876240 0.000000 
#    z 0.000000 0.000000 1.884560 
# 
# From -- ./inp_files/1997.got.cif
#   From: 2010.03.12/outbox.cif.g09.slc.cpg/sg18_1_cif.got.tgz:1997.got - 2010.04.10 18:53:55.
