data_PCOD8156182
_publ_section_title
;
Structure prediction by ZEFSAII (Michael W. Deem and Ramdas Pophale) SiO2 
 PCOD8156182
Probable space group: P 21 21 2
;
_chemical_formula_sum "Si O2"
_cell_formula_units_Z 30
_cell_length_a 11.343284
_cell_length_b 19.401287
_cell_length_c 6.513793
_cell_angle_alpha 90.000000
_cell_angle_beta 90.000000
_cell_angle_gamma 90.000000
_cell_volume 1433.518490
_symmetry_space_group_name_H-M "P 21 21 2"
_symmetry_group_IT_number 18
_symmetry_cell_setting 'orthorhombic'
loop_
_space_group_symop_operation_xyz
x,y,z
-x,-y,z
1/2+x,1/2-y,-z
1/2-x,1/2+y,-z
loop_
_atom_site_type_symbol
_atom_site_label
_atom_site_fract_x
_atom_site_fract_y
_atom_site_fract_z
Si Si1 0.522487 0.306260 0.043986
Si Si2 0.720406 0.863600 0.011928
Si Si3 0.206322 0.990086 0.066116
Si Si4 0.464515 0.188411 0.315057
Si Si5 0.500000 0.500000 0.633152
Si Si6 0.363158 0.249680 0.714001
Si Si7 0.618769 0.589482 0.313336
Si Si8 0.700633 0.127754 0.356393
O O1 0.537389 0.231159 0.143750
O O2 0.440630 0.346302 0.204490
O O3 0.643089 0.343046 0.986300
O O4 0.453386 0.299031 0.832212
O O5 0.654860 0.843162 0.221474
O O6 0.708730 0.946615 0.999578
O O7 0.660897 0.824307 0.820192
O O8 0.274811 0.926750 0.172831
O O9 0.142771 0.968103 0.857027
O O10 0.110325 0.020220 0.224869
O O11 0.423417 0.236890 0.497832
O O12 0.558812 0.130614 0.387875
O O13 0.528430 0.564726 0.488590
O O14 0.245041 0.295051 0.697260
O O15 0.742045 0.606950 0.425766
#
# Coordination Sequence:
#
# PCOD8156182 Si02
#       8
#     4   4   4   4   2   4   4   4
#     4  11  22  39  69 101 133 168 221 286 346 402
#     4  11  26  42  67  99 136 179 222 281 347 415
#     4  11  24  43  66  97 144 176 229 282 340 418
#     4  11  26  43  65  97 138 178 234 285 340 418
#     4  10  22  38  64 104 132 176 214 280 354 394
#     4  11  24  42  66  99 131 176 226 286 344 398
#     4  11  22  39  69 100 134 178 221 281 346 405
#     4  11  24  44  67  96 134 185 225 278 350 405
#
# _framework density 20.927527999999999
#
# number of rings (size 3 to 8) (size 9 to 14) (size 15 to 20)
#    0.000    1.067    4.000    2.000    3.733    5.867 
#    0.000    0.000    0.000    0.000    0.000    0.000 
#    0.000    0.000    0.000    0.000    0.000    0.000 
#
# Total GULP energy -371932.474661 kJ/mol
# GULP energy per Si atom -12397.749155 kJ/mol
# Density = 2.087990 g / cm^3
# Si number density = 20.927528 Si / 1000 Ang^3
#
#
#
# Elastic Constant Matrix: (Units=GPa)
#
#
# Indices 1 2 3 4 5 6 
#
# 1 81.9838 38.4900 48.8158 0.0000 0.0000 0.0000
# 2 38.4900 103.5401 38.6326 0.0000 0.0000 0.0000
# 3 48.8158 38.6326 111.6816 0.0000 0.0000 0.0000
# 4 0.0000 0.0000 0.0000 30.5171 0.0000 0.0000
# 5 0.0000 0.0000 0.0000 0.0000 24.9185 0.0000
# 6 0.0000 0.0000 0.0000 0.0000 0.0000 30.6951
#
#
#
# Elastic Compliance Matrix: (Units=1/GPa)
#
#
# Indices 1 2 3 4 5 6 
#
# 1 0.018027 -0.004319 -0.006386 0.000000 0.000000 0.000000
# 2 -0.004319 0.012124 -0.002306 0.000000 0.000000 0.000000
# 3 -0.006386 -0.002306 0.012543 0.000000 0.000000 0.000000
# 4 0.000000 0.000000 0.000000 0.032769 0.000000 0.000000
# 5 0.000000 0.000000 0.000000 0.000000 0.040131 0.000000
# 6 0.000000 0.000000 0.000000 0.000000 0.000000 0.032578
#
#
# Mechanical properties :
#
#
# Convention : Reuss Voigt Hill
#
# Bulk Modulus (GPa) = 59.97768 61.00913 60.49341
# Shear Modulus (GPa) = 27.81618 28.64396 28.23007
#
# Velocity S-wave (km/s) = 3.64973 3.70364 3.67678
# Velocity P-wave (km/s) = 6.81782 6.89239 6.85521
#
# Compressibility (1/GPa) = 0.01667287
#
# Stress axis : x y z
#
# Youngs Moduli (GPa) = 55.47089 82.48064 79.72588
#
# Poissons Ratio (x) = 0.35622 0.50911
# Poissons Ratio (y) = 0.23957 0.18386
# Poissons Ratio (z) = 0.35423 0.19021
#
# Static dielectric constant tensor:
#      x y z
#    x 3.692010 0.000000 0.000000 
#    y 0.000000 3.813410 0.000000 
#    z 0.000000 0.000000 3.873610 
# 
# 
# High freq. dielectric constant tensor:
#      x y z
#    x 1.810680 0.000000 0.000000 
#    y 0.000000 1.819990 0.000000 
#    z 0.000000 0.000000 1.829830 
# 
# From -- ./inp_files/1274.got.cif
#   From: 2010.03.12/outbox.cif.g09.slc.cpg/sg18_1_cif.got.tgz:1274.got - 2010.04.10 18:53:55.
