data_PCOD8156144
_publ_section_title
;
Structure prediction by ZEFSAII (Michael W. Deem and Ramdas Pophale) SiO2 
 PCOD8156144
Probable space group: P 21 21 2
;
_chemical_formula_sum "Si O2"
_cell_formula_units_Z 32
_cell_length_a 14.857804
_cell_length_b 16.341831
_cell_length_c 6.546196
_cell_angle_alpha 90.000000
_cell_angle_beta 90.000000
_cell_angle_gamma 90.000000
_cell_volume 1589.440754
_symmetry_space_group_name_H-M "P 21 21 2"
_symmetry_group_IT_number 18
_symmetry_cell_setting 'orthorhombic'
loop_
_space_group_symop_operation_xyz
x,y,z
-x,-y,z
1/2+x,1/2-y,-z
1/2-x,1/2+y,-z
loop_
_atom_site_type_symbol
_atom_site_label
_atom_site_fract_x
_atom_site_fract_y
_atom_site_fract_z
Si Si1 0.838912 0.902160 0.641427
Si Si2 0.399607 0.007238 0.091020
Si Si3 0.697568 0.840972 0.960762
Si Si4 0.751011 0.048373 0.405282
Si Si5 0.980580 0.909554 0.982945
Si Si6 0.665530 0.659556 0.920222
Si Si7 0.331657 0.875940 0.795816
Si Si8 0.148538 0.194922 0.256363
O O1 0.759270 0.888602 0.800428
O O2 0.849812 0.822855 0.497897
O O3 0.815413 0.980857 0.505744
O O4 0.932082 0.914198 0.762950
O O5 0.321860 0.992038 0.255569
O O6 0.500000 0.000000 0.186188
O O7 0.395225 0.942304 0.904857
O O8 0.386033 0.099641 0.008848
O O9 0.663451 0.755761 0.865666
O O10 0.752185 0.821130 0.167169
O O11 0.818548 0.109916 0.289060
O O12 0.692917 0.097207 0.568958
O O13 0.921164 0.865272 0.151257
O O14 0.073776 0.861697 0.963607
O O15 0.000000 0.000000 0.065359
O O16 0.741719 0.633643 0.076196
O O17 0.382119 0.788512 0.781573
#
# Coordination Sequence:
#
# PCOD8156144 Si02
#       8
#     4   4   4   4   4   4   4   4
#     4  11  21  39  66  89 127 167 208 256 316 375
#     4  11  24  40  66  92 124 166 212 265 316 373
#     4  10  21  42  63  88 123 169 203 258 320 376
#     4  11  21  41  69  92 124 172 211 256 320 386
#     4  11  24  38  62  95 125 160 209 261 313 380
#     4  10  23  40  64  92 127 166 211 258 323 382
#     4  10  22  42  65  88 125 167 210 260 319 379
#     4  10  22  40  63  90 123 163 209 255 313 378
#
# _framework density 20.132866
#
# number of rings (size 3 to 8) (size 9 to 14) (size 15 to 20)
#    0.000    1.500    2.500    2.250    5.250    4.000 
#    0.000    0.000    0.000    0.000    0.000    0.000 
#    0.000    0.000    0.000    0.000    0.000    0.000 
#
# Total GULP energy -396872.459405 kJ/mol
# GULP energy per Si atom -12402.264356 kJ/mol
# Density = 2.008704 g / cm^3
# Si number density = 20.132866 Si / 1000 Ang^3
#
#
#
# Elastic Constant Matrix: (Units=GPa)
#
#
# Indices 1 2 3 4 5 6 
#
# 1 84.2728 41.3759 18.5308 0.0000 0.0000 0.0000
# 2 41.3759 136.8137 31.7332 0.0000 0.0000 0.0000
# 3 18.5308 31.7332 92.0900 0.0000 0.0000 0.0000
# 4 0.0000 0.0000 0.0000 32.8731 0.0000 0.0000
# 5 0.0000 0.0000 0.0000 0.0000 13.1733 0.0000
# 6 0.0000 0.0000 0.0000 0.0000 0.0000 27.4865
#
#
#
# Elastic Compliance Matrix: (Units=1/GPa)
#
#
# Indices 1 2 3 4 5 6 
#
# 1 0.014121 -0.003925 -0.001489 0.000000 0.000000 0.000000
# 2 -0.003925 0.009035 -0.002324 0.000000 0.000000 0.000000
# 3 -0.001489 -0.002324 0.011959 0.000000 0.000000 0.000000
# 4 0.000000 0.000000 0.000000 0.030420 0.000000 0.000000
# 5 0.000000 0.000000 0.000000 0.000000 0.075911 0.000000
# 6 0.000000 0.000000 0.000000 0.000000 0.000000 0.036382
#
#
# Mechanical properties :
#
#
# Convention : Reuss Voigt Hill
#
# Bulk Modulus (GPa) = 50.91662 55.16182 53.03922
# Shear Modulus (GPa) = 25.01877 29.47568 27.24723
#
# Velocity S-wave (km/s) = 3.52900 3.83045 3.68281
# Velocity P-wave (km/s) = 6.47690 6.85722 6.66978
#
# Compressibility (1/GPa) = 0.01963995
#
# Stress axis : x y z
#
# Youngs Moduli (GPa) = 70.81776 110.67812 83.61739
#
# Poissons Ratio (x) = 0.43443 0.12450
# Poissons Ratio (y) = 0.27797 0.19429
# Poissons Ratio (z) = 0.10544 0.25717
#
# Static dielectric constant tensor:
#      x y z
#    x 3.502200 0.000000 0.000000 
#    y 0.000000 3.977360 0.000000 
#    z 0.000000 0.000000 3.672060 
# 
# 
# High freq. dielectric constant tensor:
#      x y z
#    x 1.772550 0.000000 0.000000 
#    y 0.000000 1.804710 0.000000 
#    z 0.000000 0.000000 1.784220 
# 
# From -- ./inp_files/1632.got.cif
#   From: 2010.03.12/outbox.cif.g09.slc.cpg/sg18_1_cif.got.tgz:1632.got - 2010.04.10 18:53:55.
