data_PCOD8156901
_publ_section_title
;
Structure prediction by ZEFSAII (Michael W. Deem and Ramdas Pophale) SiO2 
 PCOD8156901
Probable space group: P 21 21 21
;
_chemical_formula_sum "Si O2"
_cell_formula_units_Z 32
_cell_length_a 14.279001
_cell_length_b 11.825133
_cell_length_c 9.234277
_cell_angle_alpha 90.000000
_cell_angle_beta 90.000000
_cell_angle_gamma 90.000000
_cell_volume 1559.217699
_symmetry_space_group_name_H-M "P 21 21 21"
_symmetry_group_IT_number 19
_symmetry_cell_setting 'orthorhombic'
loop_
_space_group_symop_operation_xyz
x,y,z
1/2-x,-y,1/2+z
1/2+x,1/2-y,-z
-x,1/2+y,1/2-z
loop_
_atom_site_type_symbol
_atom_site_label
_atom_site_fract_x
_atom_site_fract_y
_atom_site_fract_z
Si Si1 0.959235 0.641533 0.679242
Si Si2 0.269975 0.741243 0.667330
Si Si3 0.955666 0.637964 0.351488
Si Si4 0.858077 0.085043 0.656748
Si Si5 0.813043 0.829411 0.657494
Si Si6 0.870015 0.176186 0.342822
Si Si7 0.310365 0.037651 0.292670
Si Si8 0.664862 0.576283 0.887056
O O1 0.987921 0.669873 0.513596
O O2 0.885619 0.738820 0.724036
O O3 0.914433 0.516476 0.705333
O O4 0.052571 0.647096 0.773372
O O5 0.376130 0.776589 0.710810
O O6 0.234677 0.637156 0.766034
O O7 0.273415 0.705810 0.499814
O O8 0.201390 0.850717 0.691668
O O9 0.915255 0.513637 0.362480
O O10 0.042372 0.629913 0.245301
O O11 0.857760 0.106937 0.487937
O O12 0.863443 0.950433 0.667746
O O13 0.724504 0.839794 0.757905
O O14 0.888723 0.306445 0.376058
O O15 0.283193 0.067159 0.457714
O O16 0.242619 0.937720 0.237429
#
# Coordination Sequence:
#
# PCOD8156901 Si02
#       8
#     4   4   4   4   4   4   4   4
#     4  10  23  43  65  98 125 177 230 270 332 399
#     4  10  22  45  67  96 134 178 225 277 341 394
#     4   9  23  41  65  95 134 173 223 276 332 398
#     4  12  26  40  67  98 139 178 221 282 341 402
#     4  11  25  45  66  96 137 180 222 273 346 413
#     4  12  24  42  63 102 134 174 225 272 340 402
#     4  10  20  41  69  95 124 167 227 285 318 392
#     4  10  21  39  66  96 127 169 225 275 330 390
#
# _framework density 20.523112999999999
#
# number of rings (size 3 to 8) (size 9 to 14) (size 15 to 20)
#    0.000    1.500    2.500    2.250    1.750    6.000 
#    0.000    0.000    0.000    0.000    0.000    0.000 
#    0.000    0.000    0.000    0.000    0.000    0.000 
#
# Total GULP energy -396746.101076 kJ/mol
# GULP energy per Si atom -12398.315659 kJ/mol
# Density = 2.047640 g / cm^3
# Si number density = 20.523113 Si / 1000 Ang^3
#
#
#
# Elastic Constant Matrix: (Units=GPa)
#
#
# Indices 1 2 3 4 5 6 
#
# 1 109.5458 37.8031 73.6059 0.0000 0.0000 0.0000
# 2 37.8031 109.5663 41.0602 0.0000 0.0000 0.0000
# 3 73.6059 41.0602 112.7329 0.0000 0.0000 0.0000
# 4 0.0000 0.0000 0.0000 36.5548 0.0000 0.0000
# 5 0.0000 0.0000 0.0000 0.0000 25.3402 0.0000
# 6 0.0000 0.0000 0.0000 0.0000 0.0000 25.3894
#
#
#
# Elastic Compliance Matrix: (Units=1/GPa)
#
#
# Indices 1 2 3 4 5 6 
#
# 1 0.016609 -0.001930 -0.010141 0.000000 0.000000 0.000000
# 2 -0.001930 0.010794 -0.002671 0.000000 0.000000 0.000000
# 3 -0.010141 -0.002671 0.016465 0.000000 0.000000 0.000000
# 4 0.000000 0.000000 0.000000 0.027356 0.000000 0.000000
# 5 0.000000 0.000000 0.000000 0.000000 0.039463 0.000000
# 6 0.000000 0.000000 0.000000 0.000000 0.000000 0.039387
#
#
# Mechanical properties :
#
#
# Convention : Reuss Voigt Hill
#
# Bulk Modulus (GPa) = 69.52901 70.75371 70.14136
# Shear Modulus (GPa) = 27.12194 29.41524 28.26859
#
# Velocity S-wave (km/s) = 3.63923 3.78997 3.71536
# Velocity P-wave (km/s) = 7.18405 7.32815 7.25646
#
# Compressibility (1/GPa) = 0.01438248
#
# Stress axis : x y z
#
# Youngs Moduli (GPa) = 60.20932 92.64535 60.73501
#
# Poissons Ratio (x) = 0.17880 0.61593
# Poissons Ratio (y) = 0.11620 0.16224
# Poissons Ratio (z) = 0.61060 0.24748
#
# Static dielectric constant tensor:
#      x y z
#    x 3.558450 0.000000 0.000000 
#    y 0.000000 3.918370 0.000000 
#    z 0.000000 0.000000 3.800690 
# 
# 
# High freq. dielectric constant tensor:
#      x y z
#    x 1.792970 0.000000 0.000000 
#    y 0.000000 1.813650 0.000000 
#    z 0.000000 0.000000 1.806090 
# 
# From -- ./inp_files/3934.got.cif
#   From: 2010.03.12/outbox.cif.g09.slc.cpg/sg19_2_cif.got.tgz:3934.got - 2010.04.10 18:59:41.
