data_PCOD8156765
_publ_section_title
;
Structure prediction by ZEFSAII (Michael W. Deem and Ramdas Pophale) SiO2 
 PCOD8156765
Probable space group: P 21 21 21
;
_chemical_formula_sum "Si O2"
_cell_formula_units_Z 20
_cell_length_a 5.102138
_cell_length_b 21.417011
_cell_length_c 8.341661
_cell_angle_alpha 90.000000
_cell_angle_beta 90.000000
_cell_angle_gamma 90.000000
_cell_volume 911.514533
_symmetry_space_group_name_H-M "P 21 21 21"
_symmetry_group_IT_number 19
_symmetry_cell_setting 'orthorhombic'
loop_
_space_group_symop_operation_xyz
x,y,z
1/2-x,-y,1/2+z
1/2+x,1/2-y,-z
-x,1/2+y,1/2-z
loop_
_atom_site_type_symbol
_atom_site_label
_atom_site_fract_x
_atom_site_fract_y
_atom_site_fract_z
Si Si1 0.079341 0.526731 0.298230
Si Si2 0.178977 0.271577 0.200026
Si Si3 0.831684 0.663764 0.777793
Si Si4 0.573533 0.463440 0.432842
Si Si5 0.455318 0.343902 0.948110
O O1 0.333748 0.483434 0.318641
O O2 0.153762 0.596318 0.355207
O O3 0.833692 0.502822 0.399769
O O4 0.009286 0.524779 0.113372
O O5 0.444765 0.282674 0.302486
O O6 0.950640 0.305505 0.299388
O O7 0.118268 0.198572 0.177551
O O8 0.213378 0.302730 0.021145
O O9 0.865300 0.609383 0.907176
O O10 0.859921 0.635287 0.597424
#
# Coordination Sequence:
#
# PCOD8156765 Si02
#       5
#     4   4   4   4   4
#     4  12  27  42  69  93 136 171 224 276 330 396
#     4  10  20  35  66  94 124 172 212 264 314 401
#     4  10  20  37  63  87 130 164 216 259 323 379
#     4  12  26  46  62 101 127 181 217 277 336 391
#     4  10  21  38  64  97 127 168 223 254 327 387
#
# _framework density 21.941506
#
# number of rings (size 3 to 8) (size 9 to 14) (size 15 to 20)
#    1.200    0.000    2.000    4.800    5.600    0.000 
#    0.000    2.000    0.000    0.000    0.000    0.000 
#    0.000    0.000    0.000    0.000    0.000    0.000 
#
# Total GULP energy -247965.253124 kJ/mol
# GULP energy per Si atom -12398.262656 kJ/mol
# Density = 2.189157 g / cm^3
# Si number density = 21.941506 Si / 1000 Ang^3
#
#
#
# Elastic Constant Matrix: (Units=GPa)
#
#
# Indices 1 2 3 4 5 6 
#
# 1 118.9325 15.2684 -2.1314 0.0000 0.0000 0.0000
# 2 15.2684 37.6454 18.0285 0.0000 0.0000 0.0000
# 3 -2.1314 18.0285 30.8327 0.0000 0.0000 0.0000
# 4 0.0000 0.0000 0.0000 -10.0383 0.0000 0.0000
# 5 0.0000 0.0000 0.0000 0.0000 8.3061 0.0000
# 6 0.0000 0.0000 0.0000 0.0000 0.0000 30.3252
#
#
#
# Elastic Compliance Matrix: (Units=1/GPa)
#
#
# Indices 1 2 3 4 5 6 
#
# 1 0.009198 -0.005604 0.003913 0.000000 0.000000 0.000000
# 2 -0.005604 0.040310 -0.023958 0.000000 0.000000 0.000000
# 3 0.003913 -0.023958 0.046712 0.000000 0.000000 0.000000
# 4 0.000000 0.000000 0.000000 -0.099619 0.000000 0.000000
# 5 0.000000 0.000000 0.000000 0.000000 0.120394 0.000000
# 6 0.000000 0.000000 0.000000 0.000000 0.000000 0.032976
#
#
# Mechanical properties :
#
#
# Convention : Reuss Voigt Hill
#
# Bulk Modulus (GPa) = 22.26095 27.74906 25.00500
# Shear Modulus (GPa) = 23.12218 16.13494 19.62856
#
# Velocity S-wave (km/s) = 3.24977 2.71470 2.99421
# Velocity P-wave (km/s) = 4.92432 4.74346 4.83473
#
# Compressibility (1/GPa) = 0.04492172
#
# Stress axis : x y z
#
# Youngs Moduli (GPa) = 108.72251 24.80773 21.40776
#
# Poissons Ratio (x) = 0.13903 -0.08376
# Poissons Ratio (y) = 0.60931 0.51288
# Poissons Ratio (z) = -0.42541 0.59433
#
# Static dielectric constant tensor:
#      x y z
#    x 4.062300 0.000000 0.000000 
#    y 0.000000 3.902470 0.000000 
#    z 0.000000 0.000000 3.568890 
# 
# 
# High freq. dielectric constant tensor:
#      x y z
#    x 1.869590 0.000000 0.000000 
#    y 0.000000 1.860330 0.000000 
#    z 0.000000 0.000000 1.834570 
# 
# From -- ./inp_files/2397.got.cif
#   From: 2010.03.12/outbox.cif.g09.slc.cpg/sg19_2_cif.got.tgz:2397.got - 2010.04.10 18:59:41.
