data_PCOD8156215
_publ_section_title
;
Structure prediction by ZEFSAII (Michael W. Deem and Ramdas Pophale) SiO2 
 PCOD8156215
Probable space group: P 21 21 2
;
_chemical_formula_sum "Si O2"
_cell_formula_units_Z 24
_cell_length_a 8.177254
_cell_length_b 9.263370
_cell_length_c 14.147407
_cell_angle_alpha 90.000000
_cell_angle_beta 90.000000
_cell_angle_gamma 90.000000
_cell_volume 1071.650934
_symmetry_space_group_name_H-M "P 21 21 2"
_symmetry_group_IT_number 18
_symmetry_cell_setting 'orthorhombic'
loop_
_space_group_symop_operation_xyz
x,y,z
-x,-y,z
1/2+x,1/2-y,-z
1/2-x,1/2+y,-z
loop_
_atom_site_type_symbol
_atom_site_label
_atom_site_fract_x
_atom_site_fract_y
_atom_site_fract_z
Si Si1 0.284184 0.600309 0.095837
Si Si2 0.708453 0.384591 0.597143
Si Si3 0.885373 0.869244 0.698959
Si Si4 0.615387 0.869754 0.217776
Si Si5 0.357464 0.300473 0.042119
Si Si6 0.652444 0.704217 0.555778
O O1 0.280841 0.580090 0.209036
O O2 0.247420 0.445302 0.047696
O O3 0.456865 0.658933 0.059983
O O4 0.155725 0.720287 0.059229
O O5 0.745206 0.413451 0.707364
O O6 0.720258 0.541588 0.548436
O O7 0.533777 0.305237 0.590240
O O8 0.841024 0.278199 0.547966
O O9 0.760376 0.811288 0.620657
O O10 0.003819 0.744567 0.730269
O O11 0.000000 0.000000 0.659710
O O12 0.703162 0.808406 0.124454
O O13 0.500000 0.000000 0.186569
#
# Coordination Sequence:
#
# PCOD8156215 Si02
#       6
#     4   4   4   4   4   4
#     4  10  22  41  61  95 127 168 219 265 332 388
#     4  11  26  44  65 102 133 175 229 275 342 398
#     4  11  22  44  67  92 133 178 221 274 334 399
#     4  11  22  42  67  93 130 176 223 268 334 401
#     4  10  23  39  63  93 128 170 215 270 324 394
#     4  11  26  43  69  97 136 178 222 283 335 402
#
# _framework density 22.395351000000002
#
# number of rings (size 3 to 8) (size 9 to 14) (size 15 to 20)
#    0.000    1.333    5.000    1.000    9.333    1.333 
#    0.000    3.333    0.000    0.000    0.000    0.000 
#    0.000    0.000    0.000    0.000    0.000    0.000 
#
# Total GULP energy -297540.196518 kJ/mol
# GULP energy per Si atom -12397.508188 kJ/mol
# Density = 2.234438 g / cm^3
# Si number density = 22.395351 Si / 1000 Ang^3
#
#
#
# Elastic Constant Matrix: (Units=GPa)
#
#
# Indices 1 2 3 4 5 6 
#
# 1 51.7782 30.1889 22.4970 0.0000 0.0000 0.0000
# 2 30.1889 137.4353 34.2901 0.0000 0.0000 0.0000
# 3 22.4970 34.2901 82.5720 0.0000 0.0000 0.0000
# 4 0.0000 0.0000 0.0000 40.9712 0.0000 0.0000
# 5 0.0000 0.0000 0.0000 0.0000 32.4091 0.0000
# 6 0.0000 0.0000 0.0000 0.0000 0.0000 41.3597
#
#
#
# Elastic Compliance Matrix: (Units=1/GPa)
#
#
# Indices 1 2 3 4 5 6 
#
# 1 0.023741 -0.004017 -0.004800 0.000000 0.000000 0.000000
# 2 -0.004017 0.008797 -0.002559 0.000000 0.000000 0.000000
# 3 -0.004800 -0.002559 0.014481 0.000000 0.000000 0.000000
# 4 0.000000 0.000000 0.000000 0.024407 0.000000 0.000000
# 5 0.000000 0.000000 0.000000 0.000000 0.030856 0.000000
# 6 0.000000 0.000000 0.000000 0.000000 0.000000 0.024178
#
#
# Mechanical properties :
#
#
# Convention : Reuss Voigt Hill
#
# Bulk Modulus (GPa) = 41.20828 49.52639 45.36734
# Shear Modulus (GPa) = 31.78624 35.26865 33.52744
#
# Velocity S-wave (km/s) = 3.77148 3.97271 3.87340
# Velocity P-wave (km/s) = 6.11602 6.57311 6.34868
#
# Compressibility (1/GPa) = 0.02426697
#
# Stress axis : x y z
#
# Youngs Moduli (GPa) = 42.12131 113.67553 69.05626
#
# Poissons Ratio (x) = 0.45667 0.33147
# Poissons Ratio (y) = 0.16921 0.17669
# Poissons Ratio (z) = 0.20218 0.29085
#
# Static dielectric constant tensor:
#      x y z
#    x 3.692570 0.000000 0.000000 
#    y 0.000000 4.263390 0.000000 
#    z 0.000000 0.000000 4.400960 
# 
# 
# High freq. dielectric constant tensor:
#      x y z
#    x 1.854800 0.000000 0.000000 
#    y 0.000000 1.904820 0.000000 
#    z 0.000000 0.000000 1.884170 
# 
# From -- ./inp_files/6651.got.cif
#   From: 2010.03.12/outbox.cif.g09.slc.cpg/sg18_4_cif.got.tgz:6651.got - 2010.04.10 18:53:55.
