data_PCOD8156996
_publ_section_title
;
Structure prediction by ZEFSAII (Michael W. Deem and Ramdas Pophale) SiO2 
 PCOD8156996
Probable space group: P 21 21 21
;
_chemical_formula_sum "Si O2"
_cell_formula_units_Z 32
_cell_length_a 16.570776
_cell_length_b 11.459076
_cell_length_c 8.553235
_cell_angle_alpha 90.000000
_cell_angle_beta 90.000000
_cell_angle_gamma 90.000000
_cell_volume 1624.137713
_symmetry_space_group_name_H-M "P 21 21 21"
_symmetry_group_IT_number 19
_symmetry_cell_setting 'orthorhombic'
loop_
_space_group_symop_operation_xyz
x,y,z
1/2-x,-y,1/2+z
1/2+x,1/2-y,-z
-x,1/2+y,1/2-z
loop_
_atom_site_type_symbol
_atom_site_label
_atom_site_fract_x
_atom_site_fract_y
_atom_site_fract_z
Si Si1 0.739152 0.933313 0.850240
Si Si2 0.501513 0.287127 0.028246
Si Si3 0.881941 0.275285 0.723925
Si Si4 0.074731 0.599082 0.034768
Si Si5 0.461126 0.739382 0.810980
Si Si6 0.009427 0.945199 0.938673
Si Si7 0.608022 0.111507 0.174661
Si Si8 0.218528 0.334312 0.315834
O O1 0.649399 0.876023 0.844855
O O2 0.796111 0.882372 0.711645
O O3 0.729130 0.072695 0.824607
O O4 0.774704 0.905159 0.021716
O O5 0.414897 0.251879 0.101890
O O6 0.520367 0.422976 0.006830
O O7 0.573048 0.239480 0.141262
O O8 0.504544 0.224610 0.861869
O O9 0.921418 0.174450 0.620891
O O10 0.912719 0.400931 0.660775
O O11 0.785456 0.266396 0.710619
O O12 0.991399 0.635125 0.119819
O O13 0.083234 0.465900 0.976695
O O14 0.364686 0.735848 0.810342
O O15 0.498395 0.632369 0.907179
O O16 0.930043 0.940586 0.832181
#
# Coordination Sequence:
#
# PCOD8156996 Si02
#       8
#     4   4   4   4   4   4   4   4
#     4  11  20  34  63  94 129 157 215 271 320 373
#     4  11  23  38  64  90 128 168 212 260 328 391
#     4   9  20  40  64  87 121 168 214 256 319 393
#     4  10  21  39  59  95 128 164 207 262 322 382
#     4  11  25  37  63  94 131 165 215 273 323 383
#     4  10  21  40  63  87 129 171 211 261 323 387
#     4  11  20  38  64  98 122 169 213 258 327 385
#     4  11  22  38  64  97 124 168 213 277 326 380
#
# _framework density 19.702763999999998
#
# number of rings (size 3 to 8) (size 9 to 14) (size 15 to 20)
#    0.000    1.500    5.000    0.750    3.500    0.000 
#    0.000    0.000   13.750    0.000    0.000    0.000 
#    0.000    0.000    0.000    0.000    0.000    0.000 
#
# Total GULP energy -396617.625110 kJ/mol
# GULP energy per Si atom -12394.300785 kJ/mol
# Density = 1.965792 g / cm^3
# Si number density = 19.702764 Si / 1000 Ang^3
#
#
#
# Elastic Constant Matrix: (Units=GPa)
#
#
# Indices 1 2 3 4 5 6 
#
# 1 144.8005 48.6849 63.8045 0.0000 0.0000 0.0000
# 2 48.6849 83.3470 40.6178 0.0000 0.0000 0.0000
# 3 63.8045 40.6178 99.8301 0.0000 0.0000 0.0000
# 4 0.0000 0.0000 0.0000 30.5336 0.0000 0.0000
# 5 0.0000 0.0000 0.0000 0.0000 29.1678 0.0000
# 6 0.0000 0.0000 0.0000 0.0000 0.0000 25.5370
#
#
#
# Elastic Compliance Matrix: (Units=1/GPa)
#
#
# Indices 1 2 3 4 5 6 
#
# 1 0.010385 -0.003532 -0.005200 0.000000 0.000000 0.000000
# 2 -0.003532 0.016166 -0.004320 0.000000 0.000000 0.000000
# 3 -0.005200 -0.004320 0.015099 0.000000 0.000000 0.000000
# 4 0.000000 0.000000 0.000000 0.032751 0.000000 0.000000
# 5 0.000000 0.000000 0.000000 0.000000 0.034284 0.000000
# 6 0.000000 0.000000 0.000000 0.000000 0.000000 0.039159
#
#
# Mechanical properties :
#
#
# Convention : Reuss Voigt Hill
#
# Bulk Modulus (GPa) = 64.32955 70.46577 67.39766
# Shear Modulus (GPa) = 27.91256 28.70572 28.30914
#
# Velocity S-wave (km/s) = 3.76797 3.82113 3.79464
# Velocity P-wave (km/s) = 7.18686 7.43707 7.31304
#
# Compressibility (1/GPa) = 0.01554496
#
# Stress axis : x y z
#
# Youngs Moduli (GPa) = 96.29275 61.85639 66.23142
#
# Poissons Ratio (x) = 0.21846 0.34443
# Poissons Ratio (y) = 0.34009 0.28614
# Poissons Ratio (z) = 0.50076 0.26724
#
# Static dielectric constant tensor:
#      x y z
#    x 3.700360 0.000000 0.000000 
#    y 0.000000 3.508880 0.000000 
#    z 0.000000 0.000000 3.707390 
# 
# 
# High freq. dielectric constant tensor:
#      x y z
#    x 1.760290 0.000000 0.000000 
#    y 0.000000 1.742660 0.000000 
#    z 0.000000 0.000000 1.779100 
# 
# From -- ./inp_files/3749.got.cif
#   From: 2010.03.12/outbox.cif.g09.slc.cpg/sg19_2_cif.got.tgz:3749.got - 2010.04.10 18:59:41.
