data_PCOD8156561
_publ_section_title
;
Structure prediction by ZEFSAII (Michael W. Deem and Ramdas Pophale) SiO2 
 PCOD8156561
Probable space group: P 21 21 21
;
_chemical_formula_sum "Si O2"
_cell_formula_units_Z 32
_cell_length_a 8.314896
_cell_length_b 15.419882
_cell_length_c 11.962992
_cell_angle_alpha 90.000000
_cell_angle_beta 90.000000
_cell_angle_gamma 90.000000
_cell_volume 1533.831612
_symmetry_space_group_name_H-M "P 21 21 21"
_symmetry_group_IT_number 19
_symmetry_cell_setting 'orthorhombic'
loop_
_space_group_symop_operation_xyz
x,y,z
1/2-x,-y,1/2+z
1/2+x,1/2-y,-z
-x,1/2+y,1/2-z
loop_
_atom_site_type_symbol
_atom_site_label
_atom_site_fract_x
_atom_site_fract_y
_atom_site_fract_z
Si Si1 0.049327 0.393079 0.374946
Si Si2 0.510414 0.418957 0.147711
Si Si3 0.724803 0.481562 0.356572
Si Si4 0.178896 0.327684 0.166689
Si Si5 0.453198 0.533923 0.507370
Si Si6 0.895825 0.644564 0.418485
Si Si7 0.305814 0.581049 0.090598
Si Si8 0.210151 0.579072 0.332075
O O1 0.098421 0.317265 0.288965
O O2 0.110387 0.358202 0.496873
O O3 0.139766 0.481080 0.330908
O O4 0.857624 0.407610 0.378713
O O5 0.613230 0.449611 0.254678
O O6 0.364790 0.355517 0.182203
O O7 0.427346 0.500381 0.089751
O O8 0.622513 0.376850 0.051157
O O9 0.628830 0.500898 0.471784
O O10 0.811935 0.574233 0.335544
O O11 0.058623 0.396789 0.107452
O O12 0.182320 0.237400 0.101673
O O13 0.365630 0.446183 0.542299
O O14 0.372684 0.581334 0.402102
O O15 0.084788 0.645945 0.386755
O O16 0.270323 0.617812 0.213108
#
# Coordination Sequence:
#
# PCOD8156561 Si02
#       8
#     4   4   4   4   4   4   4   4
#     4  10  20  35  57  88 122 163 207 261 305 380
#     4  11  20  39  61  90 128 167 208 262 319 391
#     4  11  23  34  57  96 125 162 219 257 308 381
#     4  11  23  40  63  91 133 166 203 264 347 384
#     4  10  19  32  60  87 119 161 194 248 320 370
#     4  11  25  38  62  98 131 157 216 278 324 375
#     4  10  17  36  63  81 112 163 213 246 298 377
#     4  10  17  38  59  87 114 165 210 248 301 386
#
# _framework density 20.862784999999999
#
# number of rings (size 3 to 8) (size 9 to 14) (size 15 to 20)
#    0.000    1.500    8.750    0.750    3.500    0.000 
#    0.000    0.000    2.750    0.000    0.000    0.000 
#    0.000    0.000    0.000    0.000    0.000    0.000 
#
# Total GULP energy -396467.697007 kJ/mol
# GULP energy per Si atom -12389.615531 kJ/mol
# Density = 2.081530 g / cm^3
# Si number density = 20.862785 Si / 1000 Ang^3
#
#
#
# Elastic Constant Matrix: (Units=GPa)
#
#
# Indices 1 2 3 4 5 6 
#
# 1 75.0085 10.0545 24.2468 0.0000 0.0000 0.0000
# 2 10.0545 27.7450 -0.3979 0.0000 0.0000 0.0000
# 3 24.2468 -0.3979 109.6544 0.0000 0.0000 0.0000
# 4 0.0000 0.0000 0.0000 20.4186 0.0000 0.0000
# 5 0.0000 0.0000 0.0000 0.0000 40.9300 0.0000
# 6 0.0000 0.0000 0.0000 0.0000 0.0000 16.6773
#
#
#
# Elastic Compliance Matrix: (Units=1/GPa)
#
#
# Indices 1 2 3 4 5 6 
#
# 1 0.015165 -0.005544 -0.003374 0.000000 0.000000 0.000000
# 2 -0.005544 0.038071 0.001364 0.000000 0.000000 0.000000
# 3 -0.003374 0.001364 0.009870 0.000000 0.000000 0.000000
# 4 0.000000 0.000000 0.000000 0.048975 0.000000 0.000000
# 5 0.000000 0.000000 0.000000 0.000000 0.024432 0.000000
# 6 0.000000 0.000000 0.000000 0.000000 0.000000 0.059962
#
#
# Mechanical properties :
#
#
# Convention : Reuss Voigt Hill
#
# Bulk Modulus (GPa) = 20.83333 31.13496 25.98415
# Shear Modulus (GPa) = 21.97001 27.50549 24.73775
#
# Velocity S-wave (km/s) = 3.24863 3.63492 3.44719
# Velocity P-wave (km/s) = 4.90704 5.70727 5.32221
#
# Compressibility (1/GPa) = 0.04800000
#
# Stress axis : x y z
#
# Youngs Moduli (GPa) = 65.93919 26.26650 101.31244
#
# Poissons Ratio (x) = 0.14563 0.34178
# Poissons Ratio (y) = 0.36558 -0.13820
# Poissons Ratio (z) = 0.22245 -0.03583
#
# Static dielectric constant tensor:
#      x y z
#    x 3.935030 0.000000 0.000000 
#    y 0.000000 3.208790 0.000000 
#    z 0.000000 0.000000 3.995320 
# 
# 
# High freq. dielectric constant tensor:
#      x y z
#    x 1.824700 0.000000 0.000000 
#    y 0.000000 1.751530 0.000000 
#    z 0.000000 0.000000 1.830470 
# 
# From -- ./inp_files/4804.got.cif
#   From: 2010.03.12/outbox.cif.g09.slc.cpg/sg19_3_cif.got.tgz:4804.got - 2010.04.10 18:59:41.
