data_PCOD8156274
_publ_section_title
;
Structure prediction by ZEFSAII (Michael W. Deem and Ramdas Pophale) SiO2 
 PCOD8156274
Probable space group: P 21 21 2
;
_chemical_formula_sum "Si O2"
_cell_formula_units_Z 30
_cell_length_a 11.964004
_cell_length_b 13.368329
_cell_length_c 9.219941
_cell_angle_alpha 90.000000
_cell_angle_beta 90.000000
_cell_angle_gamma 90.000000
_cell_volume 1474.625761
_symmetry_space_group_name_H-M "P 21 21 2"
_symmetry_group_IT_number 18
_symmetry_cell_setting 'orthorhombic'
loop_
_space_group_symop_operation_xyz
x,y,z
-x,-y,z
1/2+x,1/2-y,-z
1/2-x,1/2+y,-z
loop_
_atom_site_type_symbol
_atom_site_label
_atom_site_fract_x
_atom_site_fract_y
_atom_site_fract_z
Si Si1 0.186682 0.151856 0.932445
Si Si2 0.504027 0.614713 0.844729
Si Si3 0.751487 0.143011 0.182189
Si Si4 0.643940 0.320565 0.609729
Si Si5 0.180177 0.576738 0.815263
Si Si6 0.707993 0.111480 0.501511
Si Si7 0.875086 0.960413 0.653178
Si Si8 0.500000 0.000000 0.364397
O O1 0.180200 0.265536 0.879409
O O2 0.187122 0.074804 0.799301
O O3 0.296705 0.137253 0.035924
O O4 0.074165 0.131217 0.018525
O O5 0.500000 0.500000 0.793738
O O6 0.627166 0.647287 0.891706
O O7 0.467651 0.680681 0.706616
O O8 0.764921 0.151447 0.355222
O O9 0.692552 0.039581 0.142076
O O10 0.732850 0.391376 0.691091
O O11 0.683739 0.206618 0.601920
O O12 0.616993 0.365162 0.452599
O O13 0.057305 0.584816 0.741118
O O14 0.593252 0.051751 0.465448
O O15 0.797281 0.045523 0.586439
O O16 0.000000 0.000000 0.685148
#
# Coordination Sequence:
#
# PCOD8156274 Si02
#       8
#     4   4   4   4   4   4   4   2
#     4  11  25  40  64 105 131 171 233 278 339 400
#     4  11  21  43  68  91 129 184 224 278 334 398
#     4  11  21  41  67  90 141 170 223 282 335 397
#     4  11  21  41  69  98 127 179 234 261 343 406
#     4  10  23  43  66  91 136 183 223 272 337 410
#     4  11  24  42  66 106 137 177 225 282 340 410
#     4  12  24  42  67 102 136 170 229 289 327 394
#     4  10  22  44  70  92 146 182 212 284 344 402
#
# _framework density 20.344142999999999
#
# number of rings (size 3 to 8) (size 9 to 14) (size 15 to 20)
#    0.000    1.067    6.667    1.600    0.000    7.467 
#    0.000    0.667    0.000    0.000    0.000    0.000 
#    0.000    0.000    0.000    0.000    0.000    0.000 
#
# Total GULP energy -371930.640959 kJ/mol
# GULP energy per Si atom -12397.688032 kJ/mol
# Density = 2.029784 g / cm^3
# Si number density = 20.344143 Si / 1000 Ang^3
#
#
#
# Elastic Constant Matrix: (Units=GPa)
#
#
# Indices 1 2 3 4 5 6 
#
# 1 87.9138 29.3574 15.5311 0.0000 0.0000 0.0000
# 2 29.3574 116.7431 34.0249 0.0000 0.0000 0.0000
# 3 15.5311 34.0249 98.5675 0.0000 0.0000 0.0000
# 4 0.0000 0.0000 0.0000 29.9618 0.0000 0.0000
# 5 0.0000 0.0000 0.0000 0.0000 22.3736 0.0000
# 6 0.0000 0.0000 0.0000 0.0000 0.0000 25.6395
#
#
#
# Elastic Compliance Matrix: (Units=1/GPa)
#
#
# Indices 1 2 3 4 5 6 
#
# 1 0.012503 -0.002857 -0.000984 0.000000 0.000000 0.000000
# 2 -0.002857 0.010177 -0.003063 0.000000 0.000000 0.000000
# 3 -0.000984 -0.003063 0.011358 0.000000 0.000000 0.000000
# 4 0.000000 0.000000 0.000000 0.033376 0.000000 0.000000
# 5 0.000000 0.000000 0.000000 0.000000 0.044696 0.000000
# 6 0.000000 0.000000 0.000000 0.000000 0.000000 0.039002
#
#
# Mechanical properties :
#
#
# Convention : Reuss Voigt Hill
#
# Bulk Modulus (GPa) = 49.43252 51.22794 50.33023
# Shear Modulus (GPa) = 29.12701 30.54905 29.83803
#
# Velocity S-wave (km/s) = 3.78791 3.87927 3.83386
# Velocity P-wave (km/s) = 6.59408 6.73055 6.66266
#
# Compressibility (1/GPa) = 0.02022960
#
# Stress axis : x y z
#
# Youngs Moduli (GPa) = 79.98249 98.26056 88.04684
#
# Poissons Ratio (x) = 0.28077 0.08661
# Poissons Ratio (y) = 0.22854 0.26967
# Poissons Ratio (z) = 0.07868 0.30095
#
# Static dielectric constant tensor:
#      x y z
#    x 3.804270 0.000000 0.000000 
#    y 0.000000 3.672270 0.000000 
#    z 0.000000 0.000000 3.761770 
# 
# 
# High freq. dielectric constant tensor:
#      x y z
#    x 1.794250 0.000000 0.000000 
#    y 0.000000 1.792530 0.000000 
#    z 0.000000 0.000000 1.796430 
# 
# From -- ./inp_files/3896.got.cif
#   From: 2010.03.12/outbox.cif.g09.slc.cpg/sg18_2_cif.got.tgz:3896.got - 2010.04.10 18:53:55.
