data_PCOD8156104
_publ_section_title
;
Structure prediction by ZEFSAII (Michael W. Deem and Ramdas Pophale) SiO2 
 PCOD8156104
Probable space group: P 21 21 2
;
_chemical_formula_sum "Si O2"
_cell_formula_units_Z 28
_cell_length_a 12.755412
_cell_length_b 5.307666
_cell_length_c 19.963802
_cell_angle_alpha 90.000000
_cell_angle_beta 90.000000
_cell_angle_gamma 90.000000
_cell_volume 1351.578674
_symmetry_space_group_name_H-M "P 21 21 2"
_symmetry_group_IT_number 18
_symmetry_cell_setting 'orthorhombic'
loop_
_space_group_symop_operation_xyz
x,y,z
-x,-y,z
1/2+x,1/2-y,-z
1/2-x,1/2+y,-z
loop_
_atom_site_type_symbol
_atom_site_label
_atom_site_fract_x
_atom_site_fract_y
_atom_site_fract_z
Si Si1 0.377160 0.493300 0.283567
Si Si2 0.619755 0.526046 0.649607
Si Si3 0.622734 0.485221 0.034074
Si Si4 0.223234 0.515511 0.914089
Si Si5 0.389310 0.132973 0.518390
Si Si6 0.726408 0.633695 0.409401
Si Si7 0.775761 0.532929 0.763378
O O1 0.500000 0.500000 0.292776
O O2 0.323089 0.559225 0.355664
O O3 0.350805 0.721464 0.233390
O O4 0.338492 0.215547 0.261090
O O5 0.500000 0.500000 0.672671
O O6 0.619664 0.692251 0.583195
O O7 0.682234 0.276019 0.630801
O O8 0.679686 0.622508 0.715944
O O9 0.500000 0.500000 0.022267
O O10 0.650668 0.227476 0.072377
O O11 0.657757 0.728163 0.076447
O O12 0.675612 0.489219 0.961227
O O13 0.265606 0.513629 0.838241
O O14 0.376445 0.238584 0.443075
O O15 0.500000 0.000000 0.521670
O O16 0.285904 0.963547 0.524736
#
# Coordination Sequence:
#
# PCOD8156104 Si02
#       7
#     4   4   4   4   4   4   4
#     4  11  25  42  63  89 128 165 212 262 318 376
#     4  11  23  40  61  86 117 160 204 258 314 380
#     4  10  21  39  65  94 131 167 206 261 306 363
#     4  10  22  39  62  96 129 165 213 254 308 368
#     4  12  23  39  65  87 116 157 209 259 327 381
#     4  11  24  39  61  88 119 155 207 265 321 375
#     4  11  24  42  64  93 128 168 209 259 308 377
#
# _framework density 20.716517
#
# number of rings (size 3 to 8) (size 9 to 14) (size 15 to 20)
#    0.000    1.143    4.286    1.714    0.000    8.000 
#    0.000    0.000    0.000    5.143    0.000    0.000 
#    0.000    0.000    0.000    0.000    0.000    0.000 
#
# Total GULP energy -346866.116390 kJ/mol
# GULP energy per Si atom -12388.075585 kJ/mol
# Density = 2.066937 g / cm^3
# Si number density = 20.716517 Si / 1000 Ang^3
#
#
#
# Elastic Constant Matrix: (Units=GPa)
#
#
# Indices 1 2 3 4 5 6 
#
# 1 128.5562 33.9740 46.7783 0.0000 0.0000 0.0000
# 2 33.9740 108.3796 22.6399 0.0000 0.0000 0.0000
# 3 46.7783 22.6399 116.5496 0.0000 0.0000 0.0000
# 4 0.0000 0.0000 0.0000 21.7037 0.0000 0.0000
# 5 0.0000 0.0000 0.0000 0.0000 13.4346 0.0000
# 6 0.0000 0.0000 0.0000 0.0000 0.0000 22.3717
#
#
#
# Elastic Compliance Matrix: (Units=1/GPa)
#
#
# Indices 1 2 3 4 5 6 
#
# 1 0.009632 -0.002305 -0.003418 0.000000 0.000000 0.000000
# 2 -0.002305 0.010169 -0.001050 0.000000 0.000000 0.000000
# 3 -0.003418 -0.001050 0.010156 0.000000 0.000000 0.000000
# 4 0.000000 0.000000 0.000000 0.046075 0.000000 0.000000
# 5 0.000000 0.000000 0.000000 0.000000 0.074435 0.000000
# 6 0.000000 0.000000 0.000000 0.000000 0.000000 0.044699
#
#
# Mechanical properties :
#
#
# Convention : Reuss Voigt Hill
#
# Bulk Modulus (GPa) = 60.93942 62.25220 61.59581
# Shear Modulus (GPa) = 23.34466 28.17488 25.75977
#
# Velocity S-wave (km/s) = 3.36052 3.69185 3.53007
# Velocity P-wave (km/s) = 6.67362 6.94894 6.81267
#
# Compressibility (1/GPa) = 0.01640974
#
# Stress axis : x y z
#
# Youngs Moduli (GPa) = 103.82465 98.33987 98.46553
#
# Poissons Ratio (x) = 0.22670 0.33655
# Poissons Ratio (y) = 0.23934 0.10339
# Poissons Ratio (z) = 0.35487 0.10326
#
# Static dielectric constant tensor:
#      x y z
#    x 4.097890 0.000000 0.000000 
#    y 0.000000 4.070200 0.000000 
#    z 0.000000 0.000000 3.837040 
# 
# 
# High freq. dielectric constant tensor:
#      x y z
#    x 1.814760 0.000000 0.000000 
#    y 0.000000 1.814040 0.000000 
#    z 0.000000 0.000000 1.816390 
# 
# From -- ./inp_files/7553.got.cif
#   From: 2010.03.12/outbox.cif.g09.slc.cpg/sg18_4_cif.got.tgz:7553.got - 2010.04.10 18:53:55.
