data_PCOD8156805
_publ_section_title
;
Structure prediction by ZEFSAII (Michael W. Deem and Ramdas Pophale) SiO2 
 PCOD8156805
Probable space group: P 21 21 21
;
_chemical_formula_sum "Si O2"
_cell_formula_units_Z 24
_cell_length_a 12.200849
_cell_length_b 5.172134
_cell_length_c 16.371784
_cell_angle_alpha 90.000000
_cell_angle_beta 90.000000
_cell_angle_gamma 90.000000
_cell_volume 1033.132031
_symmetry_space_group_name_H-M "P 21 21 21"
_symmetry_group_IT_number 19
_symmetry_cell_setting 'orthorhombic'
loop_
_space_group_symop_operation_xyz
x,y,z
1/2-x,-y,1/2+z
1/2+x,1/2-y,-z
-x,1/2+y,1/2-z
loop_
_atom_site_type_symbol
_atom_site_label
_atom_site_fract_x
_atom_site_fract_y
_atom_site_fract_z
Si Si1 0.345040 0.821003 0.991008
Si Si2 0.759880 0.267067 0.674354
Si Si3 0.615343 0.230938 0.127535
Si Si4 0.170309 0.141763 0.056202
Si Si5 0.439072 0.825693 0.718691
Si Si6 0.104242 0.682469 0.568085
O O1 0.420254 0.600874 0.031910
O O2 0.224424 0.860025 0.034559
O O3 0.409728 0.093559 0.998325
O O4 0.328288 0.741051 0.898064
O O5 0.825068 0.534082 0.671920
O O6 0.684977 0.261002 0.754355
O O7 0.844367 0.029299 0.670978
O O8 0.483524 0.261270 0.140182
O O9 0.634030 0.228473 0.029517
O O10 0.070415 0.123021 0.120601
O O11 0.269099 0.312436 0.097324
O O12 0.518235 0.584156 0.736648
#
# Coordination Sequence:
#
# PCOD8156805 Si02
#       6
#     4   4   4   4   4   4
#     4   9  19  37  62  85 128 162 207 275 294 380
#     4  11  22  43  58  99 130 167 219 270 318 386
#     4  11  22  39  70  92 125 174 220 274 318 377
#     4   9  24  40  62  96 130 167 218 272 313 403
#     4  12  29  42  67  97 138 180 206 271 350 395
#     4  10  20  37  65  93 119 162 222 266 323 359
#
# _framework density 23.230329999999999
#
# number of rings (size 3 to 8) (size 9 to 14) (size 15 to 20)
#    1.000    0.667    1.667    2.000    7.000    0.000 
#    0.000    1.667    0.000    0.000    0.000    0.000 
#    0.000    0.000    0.000    0.000    0.000    0.000 
#
# Total GULP energy -297331.751757 kJ/mol
# GULP energy per Si atom -12388.822990 kJ/mol
# Density = 2.317746 g / cm^3
# Si number density = 23.230330 Si / 1000 Ang^3
#
#
#
# Elastic Constant Matrix: (Units=GPa)
#
#
# Indices 1 2 3 4 5 6 
#
# 1 54.3329 9.4457 1.4312 0.0000 0.0000 0.0000
# 2 9.4457 135.1932 17.0115 0.0000 0.0000 0.0000
# 3 1.4312 17.0115 48.7244 0.0000 0.0000 0.0000
# 4 0.0000 0.0000 0.0000 17.2743 0.0000 0.0000
# 5 0.0000 0.0000 0.0000 0.0000 30.4549 0.0000
# 6 0.0000 0.0000 0.0000 0.0000 0.0000 36.8196
#
#
#
# Elastic Compliance Matrix: (Units=1/GPa)
#
#
# Indices 1 2 3 4 5 6 
#
# 1 0.018632 -0.001290 -0.000097 0.000000 0.000000 0.000000
# 2 -0.001290 0.007826 -0.002694 0.000000 0.000000 0.000000
# 3 -0.000097 -0.002694 0.021467 0.000000 0.000000 0.000000
# 4 0.000000 0.000000 0.000000 0.057889 0.000000 0.000000
# 5 0.000000 0.000000 0.000000 0.000000 0.032835 0.000000
# 6 0.000000 0.000000 0.000000 0.000000 0.000000 0.027159
#
#
# Mechanical properties :
#
#
# Convention : Reuss Voigt Hill
#
# Bulk Modulus (GPa) = 25.14912 32.66971 28.90942
# Shear Modulus (GPa) = 26.70575 30.93390 28.81983
#
# Velocity S-wave (km/s) = 3.39426 3.65309 3.52605
# Velocity P-wave (km/s) = 5.11965 5.64689 5.38972
#
# Compressibility (1/GPa) = 0.03976282
#
# Stress axis : x y z
#
# Youngs Moduli (GPa) = 53.67170 127.77969 46.58273
#
# Poissons Ratio (x) = 0.16478 0.00452
# Poissons Ratio (y) = 0.06921 0.12552
# Poissons Ratio (z) = 0.00521 0.34430
#
# Static dielectric constant tensor:
#      x y z
#    x 4.231900 0.000000 0.000000 
#    y 0.000000 4.042150 0.000000 
#    z 0.000000 0.000000 3.729930 
# 
# 
# High freq. dielectric constant tensor:
#      x y z
#    x 1.920370 0.000000 0.000000 
#    y 0.000000 1.919590 0.000000 
#    z 0.000000 0.000000 1.882990 
# 
# From -- ./inp_files/6698.got.cif
#   From: 2010.03.12/outbox.cif.g09.slc.cpg/sg19_4_cif.got.tgz:6698.got - 2010.04.10 18:59:41.
