data_PCOD8156979
_publ_section_title
;
Structure prediction by ZEFSAII (Michael W. Deem and Ramdas Pophale) SiO2 
 PCOD8156979
Probable space group: P 21 21 21
;
_chemical_formula_sum "Si O2"
_cell_formula_units_Z 32
_cell_length_a 8.278944
_cell_length_b 13.658482
_cell_length_c 13.360784
_cell_angle_alpha 90.000000
_cell_angle_beta 90.000000
_cell_angle_gamma 90.000000
_cell_volume 1510.808163
_symmetry_space_group_name_H-M "P 21 21 21"
_symmetry_group_IT_number 19
_symmetry_cell_setting 'orthorhombic'
loop_
_space_group_symop_operation_xyz
x,y,z
1/2-x,-y,1/2+z
1/2+x,1/2-y,-z
-x,1/2+y,1/2-z
loop_
_atom_site_type_symbol
_atom_site_label
_atom_site_fract_x
_atom_site_fract_y
_atom_site_fract_z
Si Si1 0.806385 0.646024 0.388147
Si Si2 0.972411 0.782590 0.519302
Si Si3 0.214311 0.719535 0.775211
Si Si4 0.280133 0.351151 0.603091
Si Si5 0.454236 0.708578 0.943553
Si Si6 0.355757 0.063346 0.695678
Si Si7 0.129915 0.435772 0.146173
Si Si8 0.852831 0.732675 0.731014
O O1 0.961883 0.681068 0.454007
O O2 0.651535 0.691516 0.445658
O O3 0.817377 0.696857 0.280657
O O4 0.794245 0.530900 0.366494
O O5 0.910297 0.870752 0.450444
O O6 0.856760 0.763209 0.614913
O O7 0.285050 0.721208 0.885765
O O8 0.239337 0.617128 0.716787
O O9 0.027194 0.743263 0.780882
O O10 0.108996 0.323188 0.551986
O O11 0.440118 0.307525 0.549106
O O12 0.291001 0.467139 0.602988
O O13 0.269863 0.308383 0.715772
O O14 0.562371 0.627140 0.890395
O O15 0.475354 0.036461 0.786183
O O16 0.209208 0.121862 0.748597
#
# Coordination Sequence:
#
# PCOD8156979 Si02
#       8
#     4   4   4   4   4   4   4   4
#     4  10  21  38  62  88 118 159 202 252 313 372
#     4  10  22  40  62  90 123 161 204 257 315 373
#     4   9  20  39  59  85 118 151 196 253 308 370
#     4  11  23  39  59  85 118 163 205 252 310 370
#     4  10  22  38  58  83 119 159 201 254 310 370
#     4  10  22  40  62  90 121 159 206 256 314 377
#     4  10  22  38  61  89 118 158 204 250 309 373
#     4  10  22  40  61  88 125 160 204 260 315 377
#
# _framework density 21.180716
#
# number of rings (size 3 to 8) (size 9 to 14) (size 15 to 20)
#    0.000    2.000    0.000    2.250    0.000   13.000 
#    0.000    6.250    0.000    0.000    0.000    0.000 
#    0.000    0.000    0.000    0.000    0.000    0.000 
#
# Total GULP energy -396660.585153 kJ/mol
# GULP energy per Si atom -12395.643286 kJ/mol
# Density = 2.113251 g / cm^3
# Si number density = 21.180716 Si / 1000 Ang^3
#
#
#
# Elastic Constant Matrix: (Units=GPa)
#
#
# Indices 1 2 3 4 5 6 
#
# 1 54.8526 22.0397 22.8788 0.0000 0.0000 0.0000
# 2 22.0397 120.9343 38.7621 0.0000 0.0000 0.0000
# 3 22.8788 38.7621 85.9075 0.0000 0.0000 0.0000
# 4 0.0000 0.0000 0.0000 26.3101 0.0000 0.0000
# 5 0.0000 0.0000 0.0000 0.0000 28.4015 0.0000
# 6 0.0000 0.0000 0.0000 0.0000 0.0000 23.4655
#
#
#
# Elastic Compliance Matrix: (Units=1/GPa)
#
#
# Indices 1 2 3 4 5 6 
#
# 1 0.021083 -0.002388 -0.004537 0.000000 0.000000 0.000000
# 2 -0.002388 0.009937 -0.003848 0.000000 0.000000 0.000000
# 3 -0.004537 -0.003848 0.014585 0.000000 0.000000 0.000000
# 4 0.000000 0.000000 0.000000 0.038008 0.000000 0.000000
# 5 0.000000 0.000000 0.000000 0.000000 0.035209 0.000000
# 6 0.000000 0.000000 0.000000 0.000000 0.000000 0.042616
#
#
# Mechanical properties :
#
#
# Convention : Reuss Voigt Hill
#
# Bulk Modulus (GPa) = 41.56464 47.67284 44.61874
# Shear Modulus (GPa) = 26.17741 27.50299 26.84020
#
# Velocity S-wave (km/s) = 3.51936 3.60737 3.56364
# Velocity P-wave (km/s) = 6.01506 6.31723 6.16799
#
# Compressibility (1/GPa) = 0.02405891
#
# Stress axis : x y z
#
# Youngs Moduli (GPa) = 47.43241 100.62912 68.56364
#
# Poissons Ratio (x) = 0.24029 0.31109
# Poissons Ratio (y) = 0.11326 0.26383
# Poissons Ratio (z) = 0.21521 0.38721
#
# Static dielectric constant tensor:
#      x y z
#    x 3.725780 0.000000 0.000000 
#    y 0.000000 3.723810 0.000000 
#    z 0.000000 0.000000 3.940250 
# 
# 
# High freq. dielectric constant tensor:
#      x y z
#    x 1.829740 0.000000 0.000000 
#    y 0.000000 1.818930 0.000000 
#    z 0.000000 0.000000 1.844610 
# 
# From -- ./inp_files/4692.got.cif
#   From: 2010.03.12/outbox.cif.g09.slc.cpg/sg19_3_cif.got.tgz:4692.got - 2010.04.10 18:59:41.
