data_PCOD8156920
_publ_section_title
;
Structure prediction by ZEFSAII (Michael W. Deem and Ramdas Pophale) SiO2 
 PCOD8156920
Probable space group: P 21 21 21
;
_chemical_formula_sum "Si O2"
_cell_formula_units_Z 32
_cell_length_a 13.423367
_cell_length_b 11.865276
_cell_length_c 8.736544
_cell_angle_alpha 90.000000
_cell_angle_beta 90.000000
_cell_angle_gamma 90.000000
_cell_volume 1391.486437
_symmetry_space_group_name_H-M "P 21 21 21"
_symmetry_group_IT_number 19
_symmetry_cell_setting 'orthorhombic'
loop_
_space_group_symop_operation_xyz
x,y,z
1/2-x,-y,1/2+z
1/2+x,1/2-y,-z
-x,1/2+y,1/2-z
loop_
_atom_site_type_symbol
_atom_site_label
_atom_site_fract_x
_atom_site_fract_y
_atom_site_fract_z
Si Si1 0.872405 0.303639 0.898855
Si Si2 0.401964 0.418668 0.995836
Si Si3 0.384090 0.181720 0.598497
Si Si4 0.929169 0.479300 0.671560
Si Si5 0.176861 0.407667 0.960385
Si Si6 0.805628 0.149210 0.624012
Si Si7 0.776458 0.673191 0.649218
Si Si8 0.088905 0.389563 0.280879
O O1 0.934668 0.409689 0.832828
O O2 0.852130 0.220262 0.759225
O O3 0.930925 0.216449 0.014969
O O4 0.771293 0.348191 0.979960
O O5 0.425607 0.479164 0.833704
O O6 0.459502 0.486386 0.128245
O O7 0.285096 0.424161 0.040262
O O8 0.347239 0.302521 0.536792
O O9 0.309823 0.144846 0.731437
O O10 0.495788 0.186292 0.666215
O O11 0.375675 0.092641 0.460286
O O12 0.866854 0.592704 0.690202
O O13 0.098111 0.386712 0.097217
O O14 0.154031 0.520782 0.865619
O O15 0.180542 0.301000 0.844978
O O16 0.685654 0.158664 0.631213
#
# Coordination Sequence:
#
# PCOD8156920 Si02
#       8
#     4   4   4   4   4   4   4   4
#     4  10  21  42  63  92 135 170 220 273 327 399
#     4   9  20  39  64  89 129 170 215 275 327 390
#     4  10  24  41  66  95 130 177 226 269 335 411
#     4  10  22  44  63  91 134 175 217 276 331 398
#     4  10  22  37  65  97 130 165 221 276 336 386
#     4  10  21  42  64  93 136 169 220 283 335 385
#     4  11  22  40  65  95 129 176 215 274 330 402
#     4  10  20  43  64  96 133 178 218 280 337 397
#
# _framework density 22.99699
#
# number of rings (size 3 to 8) (size 9 to 14) (size 15 to 20)
#    0.000    2.000    2.500    0.750    5.250    2.000 
#   15.750    0.000    0.000    0.000    0.000    0.000 
#    0.000    0.000    0.000    0.000    0.000    0.000 
#
# Total GULP energy -396585.460029 kJ/mol
# GULP energy per Si atom -12393.295626 kJ/mol
# Density = 2.294465 g / cm^3
# Si number density = 22.996990 Si / 1000 Ang^3
#
#
#
# Elastic Constant Matrix: (Units=GPa)
#
#
# Indices 1 2 3 4 5 6 
#
# 1 51.3708 35.2381 18.1573 0.0000 0.0000 0.0000
# 2 35.2381 124.0472 24.7949 0.0000 0.0000 0.0000
# 3 18.1573 24.7949 64.5375 0.0000 0.0000 0.0000
# 4 0.0000 0.0000 0.0000 37.1938 0.0000 0.0000
# 5 0.0000 0.0000 0.0000 0.0000 31.7392 0.0000
# 6 0.0000 0.0000 0.0000 0.0000 0.0000 34.2948
#
#
#
# Elastic Compliance Matrix: (Units=1/GPa)
#
#
# Indices 1 2 3 4 5 6 
#
# 1 0.025453 -0.006282 -0.004748 0.000000 0.000000 0.000000
# 2 -0.006282 0.010282 -0.002183 0.000000 0.000000 0.000000
# 3 -0.004748 -0.002183 0.017669 0.000000 0.000000 0.000000
# 4 0.000000 0.000000 0.000000 0.026886 0.000000 0.000000
# 5 0.000000 0.000000 0.000000 0.000000 0.031507 0.000000
# 6 0.000000 0.000000 0.000000 0.000000 0.000000 0.029159
#
#
# Mechanical properties :
#
#
# Convention : Reuss Voigt Hill
#
# Bulk Modulus (GPa) = 37.06451 44.03736 40.55093
# Shear Modulus (GPa) = 28.34867 31.42989 29.88928
#
# Velocity S-wave (km/s) = 3.51481 3.70090 3.60905
# Velocity P-wave (km/s) = 5.71174 6.11988 5.91933
#
# Compressibility (1/GPa) = 0.02697999
#
# Stress axis : x y z
#
# Youngs Moduli (GPa) = 39.28762 97.25548 56.59506
#
# Poissons Ratio (x) = 0.61091 0.26871
# Poissons Ratio (y) = 0.24679 0.12355
# Poissons Ratio (z) = 0.18653 0.21232
#
# Static dielectric constant tensor:
#      x y z
#    x 3.974100 0.000000 0.000000 
#    y 0.000000 4.563500 0.000000 
#    z 0.000000 0.000000 4.216690 
# 
# 
# High freq. dielectric constant tensor:
#      x y z
#    x 1.895190 0.000000 0.000000 
#    y 0.000000 1.908310 0.000000 
#    z 0.000000 0.000000 1.906930 
# 
# From -- ./inp_files/4006.got.cif
#   From: 2010.03.12/outbox.cif.g09.slc.cpg/sg19_3_cif.got.tgz:4006.got - 2010.04.10 18:59:41.
