data_PCOD8156835
_publ_section_title
;
Structure prediction by ZEFSAII (Michael W. Deem and Ramdas Pophale) SiO2 
 PCOD8156835
Probable space group: P 21 21 21
;
_chemical_formula_sum "Si O2"
_cell_formula_units_Z 32
_cell_length_a 13.352812
_cell_length_b 15.929154
_cell_length_c 6.745035
_cell_angle_alpha 90.000000
_cell_angle_beta 90.000000
_cell_angle_gamma 90.000000
_cell_volume 1434.662191
_symmetry_space_group_name_H-M "P 21 21 21"
_symmetry_group_IT_number 19
_symmetry_cell_setting 'orthorhombic'
loop_
_space_group_symop_operation_xyz
x,y,z
1/2-x,-y,1/2+z
1/2+x,1/2-y,-z
-x,1/2+y,1/2-z
loop_
_atom_site_type_symbol
_atom_site_label
_atom_site_fract_x
_atom_site_fract_y
_atom_site_fract_z
Si Si1 0.558765 0.082139 0.955726
Si Si2 0.414169 0.114893 0.617218
Si Si3 0.072047 0.060354 0.932514
Si Si4 0.911532 0.090552 0.262441
Si Si5 0.568320 0.852554 0.167409
Si Si6 0.765241 0.158500 0.954061
Si Si7 0.546096 0.194661 0.309953
Si Si8 0.726865 0.304629 0.202695
O O1 0.456478 0.092909 0.833491
O O2 0.600056 0.989431 0.909639
O O3 0.649858 0.144023 0.901011
O O4 0.536289 0.108698 0.182481
O O5 0.503515 0.170363 0.524414
O O6 0.308922 0.162929 0.639753
O O7 0.392764 0.034068 0.478038
O O8 0.169603 0.116945 0.895361
O O9 0.001789 0.068030 0.735301
O O10 0.007884 0.091861 0.121488
O O11 0.927707 0.162277 0.429669
O O12 0.810601 0.101066 0.133909
O O13 0.679228 0.863137 0.250931
O O14 0.522820 0.769959 0.275154
O O15 0.779774 0.255281 0.021505
O O16 0.657516 0.235328 0.317340
#
# Coordination Sequence:
#
# PCOD8156835 Si02
#       8
#     4   4   4   4   4   4   4   4
#     4  10  23  39  60  91 130 169 209 271 320 381
#     4  11  22  43  67  92 129 174 220 264 327 390
#     4   9  22  44  62  91 130 168 215 275 319 382
#     4  10  21  39  63  90 124 167 213 262 328 384
#     4  10  20  38  64  91 126 168 212 265 324 383
#     4  10  22  37  60  95 128 165 211 267 321 384
#     4  10  22  40  64  93 127 166 215 270 320 390
#     4  10  22  44  64  95 132 169 221 270 325 386
#
# _framework density 22.304901999999998
#
# number of rings (size 3 to 8) (size 9 to 14) (size 15 to 20)
#    0.000    2.000    0.000    2.250    1.750    7.000 
#   15.750    1.250    0.000    0.000    0.000    0.000 
#    0.000    0.000    0.000    0.000    0.000    0.000 
#
# Total GULP energy -396484.449964 kJ/mol
# GULP energy per Si atom -12390.139061 kJ/mol
# Density = 2.225414 g / cm^3
# Si number density = 22.304902 Si / 1000 Ang^3
#
#
#
# Elastic Constant Matrix: (Units=GPa)
#
#
# Indices 1 2 3 4 5 6 
#
# 1 91.0326 27.4977 36.3085 0.0000 0.0000 0.0000
# 2 27.4977 81.4331 7.5429 0.0000 0.0000 0.0000
# 3 36.3085 7.5429 84.8915 0.0000 0.0000 0.0000
# 4 0.0000 0.0000 0.0000 24.2769 0.0000 0.0000
# 5 0.0000 0.0000 0.0000 0.0000 28.5366 0.0000
# 6 0.0000 0.0000 0.0000 0.0000 0.0000 33.3285
#
#
#
# Elastic Compliance Matrix: (Units=1/GPa)
#
#
# Indices 1 2 3 4 5 6 
#
# 1 0.014661 -0.004406 -0.005879 0.000000 0.000000 0.000000
# 2 -0.004406 0.013706 0.000667 0.000000 0.000000 0.000000
# 3 -0.005879 0.000667 0.014235 0.000000 0.000000 0.000000
# 4 0.000000 0.000000 0.000000 0.041191 0.000000 0.000000
# 5 0.000000 0.000000 0.000000 0.000000 0.035043 0.000000
# 6 0.000000 0.000000 0.000000 0.000000 0.000000 0.030004
#
#
# Mechanical properties :
#
#
# Convention : Reuss Voigt Hill
#
# Bulk Modulus (GPa) = 42.79888 44.45063 43.62476
# Shear Modulus (GPa) = 28.43082 29.62894 29.02988
#
# Velocity S-wave (km/s) = 3.57409 3.64862 3.61155
# Velocity P-wave (km/s) = 6.02179 6.14181 6.08209
#
# Compressibility (1/GPa) = 0.02336510
#
# Stress axis : x y z
#
# Youngs Moduli (GPa) = 68.20896 72.96048 70.24943
#
# Poissons Ratio (x) = 0.32146 0.41300
# Poissons Ratio (y) = 0.30053 -0.04683
# Poissons Ratio (z) = 0.40100 -0.04864
#
# Static dielectric constant tensor:
#      x y z
#    x 3.872380 0.000000 0.000000 
#    y 0.000000 4.150610 0.000000 
#    z 0.000000 0.000000 3.793870 
# 
# 
# High freq. dielectric constant tensor:
#      x y z
#    x 1.873500 0.000000 0.000000 
#    y 0.000000 1.883290 0.000000 
#    z 0.000000 0.000000 1.867080 
# 
# From -- ./inp_files/1571.got.cif
#   From: 2010.03.12/outbox.cif.g09.slc.cpg/sg19_1_cif.got.tgz:1571.got - 2010.04.10 18:59:41.
