data_PCOD8156635
_publ_section_title
;
Structure prediction by ZEFSAII (Michael W. Deem and Ramdas Pophale) SiO2 
 PCOD8156635
Probable space group: P 21 21 21
;
_chemical_formula_sum "Si O2"
_cell_formula_units_Z 32
_cell_length_a 13.569818
_cell_length_b 9.788642
_cell_length_c 13.267898
_cell_angle_alpha 90.000000
_cell_angle_beta 90.000000
_cell_angle_gamma 90.000000
_cell_volume 1762.376091
_symmetry_space_group_name_H-M "P 21 21 21"
_symmetry_group_IT_number 19
_symmetry_cell_setting 'orthorhombic'
loop_
_space_group_symop_operation_xyz
x,y,z
1/2-x,-y,1/2+z
1/2+x,1/2-y,-z
-x,1/2+y,1/2-z
loop_
_atom_site_type_symbol
_atom_site_label
_atom_site_fract_x
_atom_site_fract_y
_atom_site_fract_z
Si Si1 0.995206 0.688978 0.394383
Si Si2 0.879438 0.067610 0.264830
Si Si3 0.156678 0.277422 0.274260
Si Si4 0.552665 0.520569 0.592155
Si Si5 0.739264 0.692941 0.869953
Si Si6 0.406926 0.047650 0.478618
Si Si7 0.920660 0.747842 0.001305
Si Si8 0.239000 0.984259 0.805054
O O1 0.921662 0.717805 0.303324
O O2 0.948958 0.592170 0.477489
O O3 0.093019 0.620624 0.346762
O O4 0.024253 0.830389 0.449838
O O5 0.824045 0.185175 0.324038
O O6 0.811048 0.931753 0.255231
O O7 0.980518 0.023994 0.318302
O O8 0.106564 0.285586 0.384133
O O9 0.249854 0.174964 0.271231
O O10 0.545488 0.411638 0.500908
O O11 0.662982 0.527354 0.635450
O O12 0.778533 0.587181 0.786914
O O13 0.673880 0.609348 0.947611
O O14 0.829007 0.765306 0.926858
O O15 0.493037 0.156679 0.459987
O O16 0.357669 0.007183 0.373431
#
# Coordination Sequence:
#
# PCOD8156635 Si02
#       8
#     4   4   4   4   4   4   4   4
#     4  11  19  33  60  90 120 146 194 266 295 336
#     4  11  19  33  60  90 120 146 194 266 295 336
#     4  10  19  34  57  93 116 142 203 250 298 351
#     4  10  19  34  57  93 116 142 203 250 298 351
#     4  12  22  39  63  89 123 162 203 250 306 359
#     4  12  22  39  63  89 123 162 203 250 306 359
#     4  11  22  38  60  90 118 161 201 243 305 370
#     4  11  22  38  60  90 118 161 201 243 305 370
#
# _framework density 18.157305000000001
#
# number of rings (size 3 to 8) (size 9 to 14) (size 15 to 20)
#    0.000    1.000   10.000    0.000    0.000    0.000 
#    0.000   10.000    0.000    0.000    0.000    0.000 
#    0.000    0.000    0.000    0.000    0.000    0.000 
#
# Total GULP energy -396734.816412 kJ/mol
# GULP energy per Si atom -12397.963013 kJ/mol
# Density = 1.811598 g / cm^3
# Si number density = 18.157305 Si / 1000 Ang^3
#
#
#
# Elastic Constant Matrix: (Units=GPa)
#
#
# Indices 1 2 3 4 5 6 
#
# 1 56.3520 17.3826 10.9294 0.0000 0.0000 0.0000
# 2 17.3826 93.3306 11.0664 0.0000 0.0000 0.0000
# 3 10.9294 11.0664 14.6880 0.0000 0.0000 0.0000
# 4 0.0000 0.0000 0.0000 23.6211 0.0000 0.0000
# 5 0.0000 0.0000 0.0000 0.0000 34.2945 0.0000
# 6 0.0000 0.0000 0.0000 0.0000 0.0000 23.9683
#
#
#
# Elastic Compliance Matrix: (Units=1/GPa)
#
#
# Indices 1 2 3 4 5 6 
#
# 1 0.021171 -0.002279 -0.014036 0.000000 0.000000 0.000000
# 2 -0.002279 0.012011 -0.007354 0.000000 0.000000 0.000000
# 3 -0.014036 -0.007354 0.084068 0.000000 0.000000 0.000000
# 4 0.000000 0.000000 0.000000 0.042335 0.000000 0.000000
# 5 0.000000 0.000000 0.000000 0.000000 0.029159 0.000000
# 6 0.000000 0.000000 0.000000 0.000000 0.000000 0.041722
#
#
# Mechanical properties :
#
#
# Convention : Reuss Voigt Hill
#
# Bulk Modulus (GPa) = 14.30372 27.01414 20.65893
# Shear Modulus (GPa) = 16.60535 24.70959 20.65747
#
# Velocity S-wave (km/s) = 3.02740 3.69299 3.37663
# Velocity P-wave (km/s) = 4.48497 5.75277 5.15797
#
# Compressibility (1/GPa) = 0.06991186
#
# Stress axis : x y z
#
# Youngs Moduli (GPa) = 47.23475 83.25726 11.89513
#
# Poissons Ratio (x) = 0.18972 0.16697
# Poissons Ratio (y) = 0.10763 0.08748
# Poissons Ratio (z) = 0.66301 0.61226
#
# Static dielectric constant tensor:
#      x y z
#    x 3.203110 0.000000 0.000000 
#    y 0.000000 3.828400 0.000000 
#    z 0.000000 0.000000 3.148890 
# 
# 
# High freq. dielectric constant tensor:
#      x y z
#    x 1.679590 0.000000 0.000000 
#    y 0.000000 1.726790 0.000000 
#    z 0.000000 0.000000 1.676800 
# 
# From -- ./inp_files/5240.got.cif
#   From: 2010.03.12/outbox.cif.g09.slc.cpg/sg19_3_cif.got.tgz:5240.got - 2010.04.10 18:59:41.
