data_PCOD8156451
_publ_section_title
;
Structure prediction by ZEFSAII (Michael W. Deem and Ramdas Pophale) SiO2 
 PCOD8156451
Probable space group: P 21 21 2
;
_chemical_formula_sum "Si O2"
_cell_formula_units_Z 32
_cell_length_a 13.119419
_cell_length_b 17.732854
_cell_length_c 6.427126
_cell_angle_alpha 90.000000
_cell_angle_beta 90.000000
_cell_angle_gamma 90.000000
_cell_volume 1495.237068
_symmetry_space_group_name_H-M "P 21 21 2"
_symmetry_group_IT_number 18
_symmetry_cell_setting 'orthorhombic'
loop_
_space_group_symop_operation_xyz
x,y,z
-x,-y,z
1/2+x,1/2-y,-z
1/2-x,1/2+y,-z
loop_
_atom_site_type_symbol
_atom_site_label
_atom_site_fract_x
_atom_site_fract_y
_atom_site_fract_z
Si Si1 0.745499 0.420255 0.349613
Si Si2 0.612582 0.525420 0.604311
Si Si3 0.193474 0.732069 0.242507
Si Si4 0.639639 0.679741 0.367097
Si Si5 0.969857 0.290448 0.910141
Si Si6 0.183283 0.328503 0.052557
Si Si7 0.732251 0.012567 0.050986
Si Si8 0.079631 0.566328 0.655093
O O1 0.665444 0.450510 0.515707
O O2 0.724521 0.332139 0.305931
O O3 0.862260 0.423410 0.435485
O O4 0.725112 0.469051 0.146070
O O5 0.500000 0.500000 0.664170
O O6 0.614991 0.594546 0.439382
O O7 0.672719 0.545779 0.815853
O O8 0.133608 0.763329 0.440870
O O9 0.116971 0.693118 0.079300
O O10 0.252535 0.801797 0.145106
O O11 0.554967 0.710156 0.202694
O O12 0.753466 0.685478 0.265854
O O13 0.973804 0.357028 0.736647
O O14 0.074915 0.285637 0.041942
O O15 0.164154 0.417445 0.027003
O O16 0.662332 0.955634 0.174947
O O17 0.000000 0.500000 0.619114
#
# Coordination Sequence:
#
# PCOD8156451 Si02
#       8
#     4   4   4   4   4   4   4   4
#     4  11  24  43  67  98 135 178 216 283 339 396
#     4  11  26  45  69  97 129 185 238 277 334 408
#     4  11  24  44  65  98 142 175 225 280 338 406
#     4  11  24  47  65  99 143 174 234 286 334 414
#     4  11  24  42  68 100 133 179 223 273 351 409
#     4  11  24  42  70  97 133 185 220 280 342 402
#     4  11  22  44  65  97 137 170 223 280 338 398
#     4  11  22  38  67 103 135 165 219 272 336 419
#
# _framework density 21.401288000000001
#
# number of rings (size 3 to 8) (size 9 to 14) (size 15 to 20)
#    0.000    1.000    6.250    0.000    1.750    3.000 
#    2.250    0.000    0.000    0.000    0.000    0.000 
#    0.000    0.000    0.000    0.000    0.000    0.000 
#
# Total GULP energy -396751.379629 kJ/mol
# GULP energy per Si atom -12398.480613 kJ/mol
# Density = 2.135258 g / cm^3
# Si number density = 21.401288 Si / 1000 Ang^3
#
#
#
# Elastic Constant Matrix: (Units=GPa)
#
#
# Indices 1 2 3 4 5 6 
#
# 1 83.4603 12.6176 8.8222 0.0000 0.0000 0.0000
# 2 12.6176 84.4455 22.3073 0.0000 0.0000 0.0000
# 3 8.8222 22.3073 70.9574 0.0000 0.0000 0.0000
# 4 0.0000 0.0000 0.0000 36.4314 0.0000 0.0000
# 5 0.0000 0.0000 0.0000 0.0000 19.8512 0.0000
# 6 0.0000 0.0000 0.0000 0.0000 0.0000 26.2802
#
#
#
# Elastic Compliance Matrix: (Units=1/GPa)
#
#
# Indices 1 2 3 4 5 6 
#
# 1 0.012329 -0.001567 -0.001040 0.000000 0.000000 0.000000
# 2 -0.001567 0.013114 -0.003928 0.000000 0.000000 0.000000
# 3 -0.001040 -0.003928 0.015457 0.000000 0.000000 0.000000
# 4 0.000000 0.000000 0.000000 0.027449 0.000000 0.000000
# 5 0.000000 0.000000 0.000000 0.000000 0.050375 0.000000
# 6 0.000000 0.000000 0.000000 0.000000 0.000000 0.038051
#
#
# Mechanical properties :
#
#
# Convention : Reuss Voigt Hill
#
# Bulk Modulus (GPa) = 35.93374 36.26193 36.09783
# Shear Modulus (GPa) = 27.91402 29.52029 28.71715
#
# Velocity S-wave (km/s) = 3.61545 3.71802 3.66709
# Velocity P-wave (km/s) = 5.85282 5.95081 5.90202
#
# Compressibility (1/GPa) = 0.02782900
#
# Stress axis : x y z
#
# Youngs Moduli (GPa) = 81.11191 76.25599 64.69526
#
# Poissons Ratio (x) = 0.11952 0.06729
# Poissons Ratio (y) = 0.12713 0.25411
# Poissons Ratio (z) = 0.08436 0.29952
#
# Static dielectric constant tensor:
#      x y z
#    x 3.668750 0.000000 0.000000 
#    y 0.000000 3.901650 0.000000 
#    z 0.000000 0.000000 3.898780 
# 
# 
# High freq. dielectric constant tensor:
#      x y z
#    x 1.818280 0.000000 0.000000 
#    y 0.000000 1.849410 0.000000 
#    z 0.000000 0.000000 1.845910 
# 
# From -- ./inp_files/1645.got.cif
#   From: 2010.03.12/outbox.cif.g09.slc.cpg/sg18_1_cif.got.tgz:1645.got - 2010.04.10 18:53:55.
