data_PCOD8156056
_publ_section_title
;
Structure prediction by ZEFSAII (Michael W. Deem and Ramdas Pophale) SiO2 
 PCOD8156056
Probable space group: P 21 21 2
;
_chemical_formula_sum "Si O2"
_cell_formula_units_Z 20
_cell_length_a 9.908209
_cell_length_b 14.134625
_cell_length_c 5.136244
_cell_angle_alpha 90.000000
_cell_angle_beta 90.000000
_cell_angle_gamma 90.000000
_cell_volume 719.324904
_symmetry_space_group_name_H-M "P 21 21 2"
_symmetry_group_IT_number 18
_symmetry_cell_setting 'orthorhombic'
loop_
_space_group_symop_operation_xyz
x,y,z
-x,-y,z
1/2+x,1/2-y,-z
1/2-x,1/2+y,-z
loop_
_atom_site_type_symbol
_atom_site_label
_atom_site_fract_x
_atom_site_fract_y
_atom_site_fract_z
Si Si1 0.000000 0.000000 0.294597
Si Si2 0.936050 0.304579 0.505290
Si Si3 0.684809 0.397464 0.333392
Si Si4 0.580395 0.248225 0.981490
Si Si5 0.500000 0.000000 0.375473
Si Si6 0.265918 0.945248 0.008557
O O1 0.940600 0.918344 0.481564
O O2 0.113578 0.948670 0.119968
O O3 0.774674 0.316229 0.476308
O O4 0.969510 0.273492 0.796037
O O5 0.000580 0.407655 0.444230
O O6 0.001902 0.237007 0.289188
O O7 0.642788 0.350276 0.055677
O O8 0.763627 0.495650 0.265172
O O9 0.690899 0.163738 0.966484
O O10 0.633939 0.997848 0.197166
#
# Coordination Sequence:
#
# PCOD8156056 Si02
#       6
#     2   4   4   4   2   4
#     4  12  28  46  74 110 162 202 254 326 410 456
#     4  11  24  47  73 114 145 205 262 319 382 467
#     4  12  27  48  77 112 162 207 258 334 397 469
#     4  11  29  45  83 111 157 205 269 319 386 472
#     4  10  20  48  78 102 146 204 268 320 376 468
#     4  11  25  49  75 115 152 207 264 321 394 465
#
# _framework density 27.803847000000001
#
# number of rings (size 3 to 8) (size 9 to 14) (size 15 to 20)
#    0.000    0.800    2.000    4.200    8.400    2.400 
#    0.000    0.000    0.000    0.000    0.000    0.000 
#    0.000    0.000    0.000    0.000    0.000    0.000 
#
# Total GULP energy -248053.686084 kJ/mol
# GULP energy per Si atom -12402.684304 kJ/mol
# Density = 2.774056 g / cm^3
# Si number density = 27.803847 Si / 1000 Ang^3
#
#
#
# Elastic Constant Matrix: (Units=GPa)
#
#
# Indices 1 2 3 4 5 6 
#
# 1 147.1936 8.7534 15.9554 0.0000 0.0000 0.0000
# 2 8.7534 80.9058 4.3819 0.0000 0.0000 0.0000
# 3 15.9554 4.3819 56.0918 0.0000 0.0000 0.0000
# 4 0.0000 0.0000 0.0000 40.9589 0.0000 0.0000
# 5 0.0000 0.0000 0.0000 0.0000 38.8615 0.0000
# 6 0.0000 0.0000 0.0000 0.0000 0.0000 29.3942
#
#
#
# Elastic Compliance Matrix: (Units=1/GPa)
#
#
# Indices 1 2 3 4 5 6 
#
# 1 0.007044 -0.000656 -0.001953 0.000000 0.000000 0.000000
# 2 -0.000656 0.012474 -0.000788 0.000000 0.000000 0.000000
# 3 -0.001953 -0.000788 0.018445 0.000000 0.000000 0.000000
# 4 0.000000 0.000000 0.000000 0.024415 0.000000 0.000000
# 5 0.000000 0.000000 0.000000 0.000000 0.025732 0.000000
# 6 0.000000 0.000000 0.000000 0.000000 0.000000 0.034020
#
#
# Mechanical properties :
#
#
# Convention : Reuss Voigt Hill
#
# Bulk Modulus (GPa) = 32.08245 38.04141 35.06193
# Shear Modulus (GPa) = 35.89021 38.84962 37.36991
#
# Velocity S-wave (km/s) = 3.59672 3.74207 3.67011
# Velocity P-wave (km/s) = 5.36772 5.69057 5.53150
#
# Compressibility (1/GPa) = 0.03116969
#
# Stress axis : x y z
#
# Youngs Moduli (GPa) = 141.95557 80.16848 54.21566
#
# Poissons Ratio (x) = 0.05262 0.10586
# Poissons Ratio (y) = 0.09318 0.04271
# Poissons Ratio (z) = 0.27717 0.06315
#
# Static dielectric constant tensor:
#      x y z
#    x 5.098530 0.000000 0.000000 
#    y 0.000000 5.025360 0.000000 
#    z 0.000000 0.000000 4.820570 
# 
# 
# High freq. dielectric constant tensor:
#      x y z
#    x 2.128560 0.000000 0.000000 
#    y 0.000000 2.130880 0.000000 
#    z 0.000000 0.000000 2.122850 
# 
# From -- ./inp_files/557.got.cif
#   From: 2010.03.12/outbox.cif.g09.slc.cpg/sg18_1_cif.got.tgz:557.got - 2010.04.10 18:53:55.
