data_PCOD8156899
_publ_section_title
;
Structure prediction by ZEFSAII (Michael W. Deem and Ramdas Pophale) SiO2 
 PCOD8156899
Probable space group: P 21 21 21
;
_chemical_formula_sum "Si O2"
_cell_formula_units_Z 32
_cell_length_a 14.134754
_cell_length_b 11.276237
_cell_length_c 9.216153
_cell_angle_alpha 90.000000
_cell_angle_beta 90.000000
_cell_angle_gamma 90.000000
_cell_volume 1468.933467
_symmetry_space_group_name_H-M "P 21 21 21"
_symmetry_group_IT_number 19
_symmetry_cell_setting 'orthorhombic'
loop_
_space_group_symop_operation_xyz
x,y,z
1/2-x,-y,1/2+z
1/2+x,1/2-y,-z
-x,1/2+y,1/2-z
loop_
_atom_site_type_symbol
_atom_site_label
_atom_site_fract_x
_atom_site_fract_y
_atom_site_fract_z
Si Si1 0.719582 0.925668 0.416611
Si Si2 0.168772 0.605144 0.262129
Si Si3 0.478584 0.401787 0.532784
Si Si4 0.834406 0.623675 0.181559
Si Si5 0.630717 0.266935 0.978241
Si Si6 0.358038 0.252894 0.319953
Si Si7 0.040216 0.861738 0.587879
Si Si8 0.703797 0.639757 0.642507
O O1 0.668125 0.947006 0.572745
O O2 0.815387 0.857201 0.457407
O O3 0.654872 0.850111 0.307256
O O4 0.747154 0.047793 0.335818
O O5 0.068265 0.570036 0.189596
O O6 0.182368 0.747830 0.254492
O O7 0.587259 0.360658 0.555210
O O8 0.411046 0.305288 0.458644
O O9 0.482543 0.517184 0.431448
O O10 0.883163 0.673275 0.323973
O O11 0.741996 0.696751 0.131838
O O12 0.809539 0.486619 0.219453
O O13 0.527839 0.246891 0.045180
O O14 0.689029 0.352753 0.085050
O O15 0.426922 0.151537 0.254578
O O16 0.135119 0.853647 0.494753
#
# Coordination Sequence:
#
# PCOD8156899 Si02
#       8
#     4   4   4   4   4   4   4   4
#     4  10  21  38  70  99 138 186 223 295 356 413
#     4  11  20  42  67 105 139 181 240 285 356 417
#     4  11  25  42  73 104 141 185 239 298 348 437
#     4  10  23  44  71  96 143 183 233 290 358 422
#     4  10  20  41  67  92 131 188 219 280 363 410
#     4  11  24  47  69 102 143 180 239 301 357 423
#     4  11  21  44  69  97 140 181 231 284 364 413
#     4  10  22  40  70  97 133 192 228 287 350 425
#
# _framework density 21.784513
#
# number of rings (size 3 to 8) (size 9 to 14) (size 15 to 20)
#    0.000    1.500    5.000    1.500    1.750    2.000 
#    4.500    2.500    2.750    0.000    0.000    0.000 
#    0.000    0.000    0.000    0.000    0.000    0.000 
#
# Total GULP energy -396713.890804 kJ/mol
# GULP energy per Si atom -12397.309088 kJ/mol
# Density = 2.173493 g / cm^3
# Si number density = 21.784513 Si / 1000 Ang^3
#
#
#
# Elastic Constant Matrix: (Units=GPa)
#
#
# Indices 1 2 3 4 5 6 
#
# 1 104.4107 52.4446 41.7789 0.0000 0.0000 0.0000
# 2 52.4446 85.4271 37.5028 0.0000 0.0000 0.0000
# 3 41.7789 37.5028 85.8346 0.0000 0.0000 0.0000
# 4 0.0000 0.0000 0.0000 22.6063 0.0000 0.0000
# 5 0.0000 0.0000 0.0000 0.0000 35.4564 0.0000
# 6 0.0000 0.0000 0.0000 0.0000 0.0000 31.8151
#
#
#
# Elastic Compliance Matrix: (Units=1/GPa)
#
#
# Indices 1 2 3 4 5 6 
#
# 1 0.014893 -0.007376 -0.004027 0.000000 0.000000 0.000000
# 2 -0.007376 0.018137 -0.004334 0.000000 0.000000 0.000000
# 3 -0.004027 -0.004334 0.015504 0.000000 0.000000 0.000000
# 4 0.000000 0.000000 0.000000 0.044236 0.000000 0.000000
# 5 0.000000 0.000000 0.000000 0.000000 0.028204 0.000000
# 6 0.000000 0.000000 0.000000 0.000000 0.000000 0.031432
#
#
# Mechanical properties :
#
#
# Convention : Reuss Voigt Hill
#
# Bulk Modulus (GPa) = 58.61312 59.90279 59.25796
# Shear Modulus (GPa) = 26.37620 27.57196 26.97408
#
# Velocity S-wave (km/s) = 3.48340 3.56148 3.52266
# Velocity P-wave (km/s) = 6.56834 6.66857 6.61864
#
# Compressibility (1/GPa) = 0.01706103
#
# Stress axis : x y z
#
# Youngs Moduli (GPa) = 67.14347 55.13726 64.49955
#
# Poissons Ratio (x) = 0.40667 0.25972
# Poissons Ratio (y) = 0.49522 0.27956
# Poissons Ratio (z) = 0.27037 0.23898
#
# Static dielectric constant tensor:
#      x y z
#    x 3.910400 0.000000 0.000000 
#    y 0.000000 4.047420 0.000000 
#    z 0.000000 0.000000 3.796230 
# 
# 
# High freq. dielectric constant tensor:
#      x y z
#    x 1.860990 0.000000 0.000000 
#    y 0.000000 1.848710 0.000000 
#    z 0.000000 0.000000 1.843290 
# 
# From -- ./inp_files/3936.got.cif
#   From: 2010.03.12/outbox.cif.g09.slc.cpg/sg19_2_cif.got.tgz:3936.got - 2010.04.10 18:59:41.
