data_PCOD8156942
_publ_section_title
;
Structure prediction by ZEFSAII (Michael W. Deem and Ramdas Pophale) SiO2 
 PCOD8156942
Probable space group: P 21 21 21
;
_chemical_formula_sum "Si O2"
_cell_formula_units_Z 28
_cell_length_a 19.732732
_cell_length_b 5.333918
_cell_length_c 10.418775
_cell_angle_alpha 90.000000
_cell_angle_beta 90.000000
_cell_angle_gamma 90.000000
_cell_volume 1096.604975
_symmetry_space_group_name_H-M "P 21 21 21"
_symmetry_group_IT_number 19
_symmetry_cell_setting 'orthorhombic'
loop_
_space_group_symop_operation_xyz
x,y,z
1/2-x,-y,1/2+z
1/2+x,1/2-y,-z
-x,1/2+y,1/2-z
loop_
_atom_site_type_symbol
_atom_site_label
_atom_site_fract_x
_atom_site_fract_y
_atom_site_fract_z
Si Si1 0.417608 0.356171 0.759815
Si Si2 0.785386 0.687571 0.826513
Si Si3 0.576992 0.253483 0.183921
Si Si4 0.271870 0.964325 0.439991
Si Si5 0.470060 0.254068 0.395182
Si Si6 0.442761 0.851171 0.861586
Si Si7 0.821847 0.049657 0.467007
O O1 0.398575 0.106375 0.842519
O O2 0.499063 0.356732 0.747137
O O3 0.386793 0.368337 0.617437
O O4 0.394793 0.607924 0.836171
O O5 0.862904 0.726730 0.787771
O O6 0.742437 0.586432 0.702392
O O7 0.783405 0.485718 0.945255
O O8 0.745421 0.937128 0.873530
O O9 0.505429 0.233841 0.256645
O O10 0.571102 0.492657 0.087303
O O11 0.583630 0.990248 0.103338
O O12 0.323809 0.728078 0.468476
O O13 0.313800 0.224693 0.429675
O O14 0.527749 0.314605 0.497496
#
# Coordination Sequence:
#
# PCOD8156942 Si02
#       7
#     4   4   4   4   4   4   4
#     4  10  21  38  57  93 122 163 203 256 313 377
#     4  10  26  43  68  97 129 176 218 271 329 388
#     4  10  23  39  63  88 125 160 217 259 321 375
#     4  10  25  41  66  94 129 165 222 260 330 380
#     4  10  22  40  60  93 121 166 211 263 314 381
#     4  10  21  36  62  87 127 160 207 253 319 366
#     4  10  24  41  64  94 129 168 220 264 324 391
#
# _framework density 25.533353000000002
#
# number of rings (size 3 to 8) (size 9 to 14) (size 15 to 20)
#    0.857    1.143    0.000    1.714    8.000    1.143 
#    2.571    0.000    0.000    0.000    0.000    0.000 
#    0.000    0.000    0.000    0.000    0.000    0.000 
#
# Total GULP energy -346937.599576 kJ/mol
# GULP energy per Si atom -12390.628556 kJ/mol
# Density = 2.547524 g / cm^3
# Si number density = 25.533353 Si / 1000 Ang^3
#
#
#
# Elastic Constant Matrix: (Units=GPa)
#
#
# Indices 1 2 3 4 5 6 
#
# 1 44.1997 14.4669 -9.9411 0.0000 0.0000 0.0000
# 2 14.4669 215.1784 37.0176 0.0000 0.0000 0.0000
# 3 -9.9411 37.0176 96.9337 0.0000 0.0000 0.0000
# 4 0.0000 0.0000 0.0000 36.5117 0.0000 0.0000
# 5 0.0000 0.0000 0.0000 0.0000 37.7630 0.0000
# 6 0.0000 0.0000 0.0000 0.0000 0.0000 25.2191
#
#
#
# Elastic Compliance Matrix: (Units=1/GPa)
#
#
# Indices 1 2 3 4 5 6 
#
# 1 0.024084 -0.002188 0.003305 0.000000 0.000000 0.000000
# 2 -0.002188 0.005173 -0.002200 0.000000 0.000000 0.000000
# 3 0.003305 -0.002200 0.011495 0.000000 0.000000 0.000000
# 4 0.000000 0.000000 0.000000 0.027388 0.000000 0.000000
# 5 0.000000 0.000000 0.000000 0.000000 0.026481 0.000000
# 6 0.000000 0.000000 0.000000 0.000000 0.000000 0.039653
#
#
# Mechanical properties :
#
#
# Convention : Reuss Voigt Hill
#
# Bulk Modulus (GPa) = 25.91480 48.82207 37.36844
# Shear Modulus (GPa) = 33.48930 40.88332 37.18631
#
# Velocity S-wave (km/s) = 3.62552 4.00581 3.82040
# Velocity P-wave (km/s) = 5.26282 6.36850 5.84187
#
# Compressibility (1/GPa) = 0.03858798
#
# Stress axis : x y z
#
# Youngs Moduli (GPa) = 41.52110 193.31735 86.99123
#
# Poissons Ratio (x) = 0.42295 -0.28755
# Poissons Ratio (y) = 0.09084 0.19136
# Poissons Ratio (z) = -0.13725 0.42526
#
# Static dielectric constant tensor:
#      x y z
#    x 4.173330 0.000000 0.000000 
#    y 0.000000 5.059120 0.000000 
#    z 0.000000 0.000000 4.427680 
# 
# 
# High freq. dielectric constant tensor:
#      x y z
#    x 2.008740 0.000000 0.000000 
#    y 0.000000 2.034970 0.000000 
#    z 0.000000 0.000000 2.018810 
# 
# From -- ./inp_files/5445.got.cif
#   From: 2010.03.12/outbox.cif.g09.slc.cpg/sg19_3_cif.got.tgz:5445.got - 2010.04.10 18:59:41.
