data_PCOD8156309
_publ_section_title
;
Structure prediction by ZEFSAII (Michael W. Deem and Ramdas Pophale) SiO2 
 PCOD8156309
Probable space group: P 21 21 2
;
_chemical_formula_sum "Si O2"
_cell_formula_units_Z 32
_cell_length_a 5.563284
_cell_length_b 19.122837
_cell_length_c 13.723732
_cell_angle_alpha 90.000000
_cell_angle_beta 90.000000
_cell_angle_gamma 90.000000
_cell_volume 1460.009839
_symmetry_space_group_name_H-M "P 21 21 2"
_symmetry_group_IT_number 18
_symmetry_cell_setting 'orthorhombic'
loop_
_space_group_symop_operation_xyz
x,y,z
-x,-y,z
1/2+x,1/2-y,-z
1/2-x,1/2+y,-z
loop_
_atom_site_type_symbol
_atom_site_label
_atom_site_fract_x
_atom_site_fract_y
_atom_site_fract_z
Si Si1 0.284517 0.161362 0.030015
Si Si2 0.438000 0.574536 0.813385
Si Si3 0.952679 0.194127 0.728656
Si Si4 0.775468 0.853080 0.558951
Si Si5 0.285877 0.324873 0.068689
Si Si6 0.578929 0.251089 0.594730
Si Si7 0.848132 0.431389 0.625166
Si Si8 0.213834 0.327160 0.719131
O O1 0.276495 0.113790 0.127567
O O2 0.284900 0.241980 0.057264
O O3 0.532405 0.143008 0.971165
O O4 0.030481 0.142374 0.976922
O O5 0.500000 0.500000 0.864708
O O6 0.353808 0.554008 0.704962
O O7 0.672491 0.624890 0.805645
O O8 0.807359 0.157429 0.816018
O O9 0.800999 0.248894 0.666705
O O10 0.065096 0.134059 0.656668
O O11 0.147904 0.251472 0.769154
O O12 0.509119 0.830146 0.593026
O O13 0.858608 0.778041 0.513255
O O14 0.775688 0.914888 0.480258
O O15 0.411216 0.311730 0.637694
O O16 0.000000 0.500000 0.607413
O O17 0.003706 0.366664 0.661983
#
# Coordination Sequence:
#
# PCOD8156309 Si02
#       8
#     4   4   4   4   4   4   4   4
#     4  10  24  40  66  98 137 169 227 282 350 419
#     4  12  25  41  65  96 135 182 222 274 342 423
#     4  11  23  36  64  90 135 174 218 284 350 407
#     4  11  21  34  55  93 129 177 223 268 335 395
#     4  10  23  42  64  98 134 176 216 289 355 408
#     4  11  19  33  56  89 126 169 211 276 331 387
#     4  12  24  39  58  90 138 183 226 272 327 417
#     4  11  21  35  60  89 134 173 221 265 334 413
#
# _framework density 21.917660000000001
#
# number of rings (size 3 to 8) (size 9 to 14) (size 15 to 20)
#    0.000    1.000    5.000    2.250   10.500    0.000 
#    0.000    0.000    0.000    0.000    3.250    0.000 
#    0.000    0.000    0.000    0.000    0.000    0.000 
#
# Total GULP energy -396463.628781 kJ/mol
# GULP energy per Si atom -12389.488399 kJ/mol
# Density = 2.186777 g / cm^3
# Si number density = 21.917660 Si / 1000 Ang^3
#
#
#
# Elastic Constant Matrix: (Units=GPa)
#
#
# Indices 1 2 3 4 5 6 
#
# 1 104.2137 19.7947 43.8952 0.0000 0.0000 0.0000
# 2 19.7947 61.6814 27.0072 0.0000 0.0000 0.0000
# 3 43.8952 27.0072 112.6044 0.0000 0.0000 0.0000
# 4 0.0000 0.0000 0.0000 20.1844 0.0000 0.0000
# 5 0.0000 0.0000 0.0000 0.0000 32.0166 0.0000
# 6 0.0000 0.0000 0.0000 0.0000 0.0000 22.4261
#
#
#
# Elastic Compliance Matrix: (Units=1/GPa)
#
#
# Indices 1 2 3 4 5 6 
#
# 1 0.011689 -0.001962 -0.004086 0.000000 0.000000 0.000000
# 2 -0.001962 0.018444 -0.003659 0.000000 0.000000 0.000000
# 3 -0.004086 -0.003659 0.011351 0.000000 0.000000 0.000000
# 4 0.000000 0.000000 0.000000 0.049543 0.000000 0.000000
# 5 0.000000 0.000000 0.000000 0.000000 0.031234 0.000000
# 6 0.000000 0.000000 0.000000 0.000000 0.000000 0.044591
#
#
# Mechanical properties :
#
#
# Convention : Reuss Voigt Hill
#
# Bulk Modulus (GPa) = 45.30977 51.09930 48.20454
# Shear Modulus (GPa) = 25.82333 27.44559 26.63446
#
# Velocity S-wave (km/s) = 3.43621 3.54250 3.48976
# Velocity P-wave (km/s) = 6.03829 6.33224 6.18701
#
# Compressibility (1/GPa) = 0.02207029
#
# Stress axis : x y z
#
# Youngs Moduli (GPa) = 85.54707 54.21807 88.09798
#
# Poissons Ratio (x) = 0.10639 0.35998
# Poissons Ratio (y) = 0.16787 0.32233
# Poissons Ratio (z) = 0.34956 0.19837
#
# Static dielectric constant tensor:
#      x y z
#    x 4.355390 0.000000 0.000000 
#    y 0.000000 3.543330 0.000000 
#    z 0.000000 0.000000 3.990240 
# 
# 
# High freq. dielectric constant tensor:
#      x y z
#    x 1.880730 0.000000 0.000000 
#    y 0.000000 1.806000 0.000000 
#    z 0.000000 0.000000 1.854600 
# 
# From -- ./inp_files/6551.got.cif
#   From: 2010.03.12/outbox.cif.g09.slc.cpg/sg18_4_cif.got.tgz:6551.got - 2010.04.10 18:53:55.
