data_PCOD8156429
_publ_section_title
;
Structure prediction by ZEFSAII (Michael W. Deem and Ramdas Pophale) SiO2 
 PCOD8156429
Probable space group: P 21 21 2
;
_chemical_formula_sum "Si O2"
_cell_formula_units_Z 32
_cell_length_a 9.057419
_cell_length_b 10.063284
_cell_length_c 17.374730
_cell_angle_alpha 90.000000
_cell_angle_beta 90.000000
_cell_angle_gamma 90.000000
_cell_volume 1583.661113
_symmetry_space_group_name_H-M "P 21 21 2"
_symmetry_group_IT_number 18
_symmetry_cell_setting 'orthorhombic'
loop_
_space_group_symop_operation_xyz
x,y,z
-x,-y,z
1/2+x,1/2-y,-z
1/2-x,1/2+y,-z
loop_
_atom_site_type_symbol
_atom_site_label
_atom_site_fract_x
_atom_site_fract_y
_atom_site_fract_z
Si Si1 0.429332 0.641730 0.442163
Si Si2 0.324695 0.009557 0.934162
Si Si3 0.702656 0.755882 0.827400
Si Si4 0.462649 0.651456 0.265880
Si Si5 0.972777 0.654340 0.280884
Si Si6 0.425730 0.143850 0.552700
Si Si7 0.730735 0.721330 0.180049
Si Si8 0.325725 0.511911 0.902293
O O1 0.500000 0.500000 0.464824
O O2 0.475576 0.682132 0.356070
O O3 0.504693 0.754934 0.492723
O O4 0.251938 0.635055 0.454275
O O5 0.255767 0.899148 0.878668
O O6 0.500000 0.000000 0.939765
O O7 0.280843 0.154950 0.903402
O O8 0.254684 0.996147 0.017184
O O9 0.540387 0.765009 0.791088
O O10 0.736204 0.604584 0.848045
O O11 0.797644 0.812835 0.757110
O O12 0.500000 0.500000 0.248679
O O13 0.561940 0.738912 0.207231
O O14 0.802055 0.687706 0.264431
O O15 0.000000 0.500000 0.268949
O O16 0.028165 0.701477 0.363922
O O17 0.500000 0.000000 0.539927
O O18 0.785162 0.853004 0.139146
O O19 0.500000 0.500000 0.916024
#
# Coordination Sequence:
#
# PCOD8156429 Si02
#       8
#     4   4   4   4   4   4   4   4
#     4  11  25  46  69 104 139 177 226 272 335 401
#     4  12  24  43  68  91 128 176 226 270 330 398
#     4  12  22  45  66  95 131 170 225 274 323 392
#     4  11  24  42  74 100 128 171 229 273 317 390
#     4  11  20  42  72  94 124 176 229 265 318 390
#     4  11  25  44  72 102 140 178 222 276 334 399
#     4  12  24  43  67  97 130 176 223 272 329 395
#     4  12  28  43  62  97 136 172 214 278 340 393
#
# _framework density 20.206344000000001
#
# number of rings (size 3 to 8) (size 9 to 14) (size 15 to 20)
#    0.000    0.500    6.250    1.500   10.500    0.000 
#    4.500    0.000    0.000    0.000    0.000    0.000 
#    0.000    0.000    0.000    0.000    0.000    0.000 
#
# Total GULP energy -396747.196535 kJ/mol
# GULP energy per Si atom -12398.349892 kJ/mol
# Density = 2.016035 g / cm^3
# Si number density = 20.206344 Si / 1000 Ang^3
#
#
#
# Elastic Constant Matrix: (Units=GPa)
#
#
# Indices 1 2 3 4 5 6 
#
# 1 85.4340 42.7350 45.4976 0.0000 0.0000 0.0000
# 2 42.7350 86.6499 52.6896 0.0000 0.0000 0.0000
# 3 45.4976 52.6896 121.8530 0.0000 0.0000 0.0000
# 4 0.0000 0.0000 0.0000 30.2421 0.0000 0.0000
# 5 0.0000 0.0000 0.0000 0.0000 17.6170 0.0000
# 6 0.0000 0.0000 0.0000 0.0000 0.0000 30.4681
#
#
#
# Elastic Compliance Matrix: (Units=1/GPa)
#
#
# Indices 1 2 3 4 5 6 
#
# 1 0.016634 -0.006006 -0.003614 0.000000 0.000000 0.000000
# 2 -0.006006 0.017826 -0.005466 0.000000 0.000000 0.000000
# 3 -0.003614 -0.005466 0.011919 0.000000 0.000000 0.000000
# 4 0.000000 0.000000 0.000000 0.033067 0.000000 0.000000
# 5 0.000000 0.000000 0.000000 0.000000 0.056763 0.000000
# 6 0.000000 0.000000 0.000000 0.000000 0.000000 0.032821
#
#
# Mechanical properties :
#
#
# Convention : Reuss Voigt Hill
#
# Bulk Modulus (GPa) = 61.69615 63.97569 62.83592
# Shear Modulus (GPa) = 24.43742 25.86640 25.15191
#
# Velocity S-wave (km/s) = 3.48141 3.58175 3.53193
# Velocity P-wave (km/s) = 6.83810 6.98822 6.91356
#
# Compressibility (1/GPa) = 0.01620847
#
# Stress axis : x y z
#
# Youngs Moduli (GPa) = 60.11870 56.09653 83.89846
#
# Poissons Ratio (x) = 0.33693 0.30317
# Poissons Ratio (y) = 0.36109 0.45855
# Poissons Ratio (z) = 0.21724 0.30660
#
# Static dielectric constant tensor:
#      x y z
#    x 3.932540 0.000000 0.000000 
#    y 0.000000 3.596960 0.000000 
#    z 0.000000 0.000000 3.802840 
# 
# 
# High freq. dielectric constant tensor:
#      x y z
#    x 1.809100 0.000000 0.000000 
#    y 0.000000 1.783700 0.000000 
#    z 0.000000 0.000000 1.796720 
# 
# From -- ./inp_files/6770.got.cif
#   From: 2010.03.12/outbox.cif.g09.slc.cpg/sg18_4_cif.got.tgz:6770.got - 2010.04.10 18:53:55.
