data_PCOD8156500
_publ_section_title
;
Structure prediction by ZEFSAII (Michael W. Deem and Ramdas Pophale) SiO2 
 PCOD8156500
Probable space group: P 21 21 2
;
_chemical_formula_sum "Si O2"
_cell_formula_units_Z 18
_cell_length_a 24.099884
_cell_length_b 5.118871
_cell_length_c 5.105043
_cell_angle_alpha 90.000000
_cell_angle_beta 90.000000
_cell_angle_gamma 90.000000
_cell_volume 629.779532
_symmetry_space_group_name_H-M "P 21 21 2"
_symmetry_group_IT_number 18
_symmetry_cell_setting 'orthorhombic'
loop_
_space_group_symop_operation_xyz
x,y,z
-x,-y,z
1/2+x,1/2-y,-z
1/2-x,1/2+y,-z
loop_
_atom_site_type_symbol
_atom_site_label
_atom_site_fract_x
_atom_site_fract_y
_atom_site_fract_z
Si Si1 0.929195 0.401363 0.408094
Si Si2 0.909382 0.715369 0.925218
Si Si3 0.317118 0.329317 0.592808
Si Si4 0.500000 0.500000 0.350258
Si Si5 0.298314 0.824940 0.261690
O O1 0.910190 0.517846 0.682184
O O2 0.879609 0.212555 0.295225
O O3 0.986944 0.246735 0.461818
O O4 0.939928 0.613333 0.183002
O O5 0.842339 0.752503 0.972888
O O6 0.945214 0.965285 0.830627
O O7 0.314556 0.624486 0.492748
O O8 0.267387 0.285209 0.811157
O O9 0.305824 0.120297 0.362314
#
# Coordination Sequence:
#
# PCOD8156500 Si02
#       5
#     4   4   4   2   4
#     4  11  26  47  73 113 150 202 263 319 390 467
#     4  11  26  47  73 113 150 202 263 319 390 467
#     4   9  18  40  72 109 153 200 254 320 391 467
#     4  12  26  50  80 108 160 210 262 324 394 470
#     4   9  18  40  72 109 153 200 254 320 391 467
#
# _framework density 28.581430000000001
#
# number of rings (size 3 to 8) (size 9 to 14) (size 15 to 20)
#    0.000    1.778    2.222    0.667    0.000    7.111 
#    0.000   17.778    0.000    0.000    0.000    0.000 
#    0.000    0.000    0.000    0.000    0.000    0.000 
#
# Total GULP energy -223012.965824 kJ/mol
# GULP energy per Si atom -12389.609212 kJ/mol
# Density = 2.851638 g / cm^3
# Si number density = 28.581430 Si / 1000 Ang^3
#
#
#
# Elastic Constant Matrix: (Units=GPa)
#
#
# Indices 1 2 3 4 5 6 
#
# 1 158.4173 -3.3363 29.4516 0.0000 0.0000 0.0000
# 2 -3.3363 71.0692 0.2527 0.0000 0.0000 0.0000
# 3 29.4516 0.2527 68.0269 0.0000 0.0000 0.0000
# 4 0.0000 0.0000 0.0000 0.5678 0.0000 0.0000
# 5 0.0000 0.0000 0.0000 0.0000 32.8173 0.0000
# 6 0.0000 0.0000 0.0000 0.0000 0.0000 37.2351
#
#
#
# Elastic Compliance Matrix: (Units=1/GPa)
#
#
# Indices 1 2 3 4 5 6 
#
# 1 0.006873 0.000333 -0.002977 0.000000 0.000000 0.000000
# 2 0.000333 0.014087 -0.000197 0.000000 0.000000 0.000000
# 3 -0.002977 -0.000197 0.015990 0.000000 0.000000 0.000000
# 4 0.000000 0.000000 0.000000 1.761200 0.000000 0.000000
# 5 0.000000 0.000000 0.000000 0.000000 0.030472 0.000000
# 6 0.000000 0.000000 0.000000 0.000000 0.000000 0.026856
#
#
# Mechanical properties :
#
#
# Convention : Reuss Voigt Hill
#
# Bulk Modulus (GPa) = 31.98028 38.91660 35.44844
# Shear Modulus (GPa) = 2.67154 32.20040 17.43597
#
# Velocity S-wave (km/s) = 0.96785 3.36016 2.47259
# Velocity P-wave (km/s) = 3.53022 5.35722 4.53664
#
# Compressibility (1/GPa) = 0.03126927
#
# Stress axis : x y z
#
# Youngs Moduli (GPa) = 145.49945 70.98673 62.54075
#
# Poissons Ratio (x) = -0.02365 0.18617
# Poissons Ratio (y) = -0.04848 0.01230
# Poissons Ratio (z) = 0.43312 0.01396
#
# Static dielectric constant tensor:
#      x y z
#    x 6.770240 0.000000 0.000000 
#    y 0.000000 5.086400 0.000000 
#    z 0.000000 0.000000 4.316300 
# 
# 
# High freq. dielectric constant tensor:
#      x y z
#    x 2.202280 0.000000 0.000000 
#    y 0.000000 2.160020 0.000000 
#    z 0.000000 0.000000 2.110880 
# 
# From -- ./inp_files/2156.got.cif
#   From: 2010.03.12/outbox.cif.g09.slc.cpg/sg18_2_cif.got.tgz:2156.got - 2010.04.10 18:53:55.
