data_PCOD8156923
_publ_section_title
;
Structure prediction by ZEFSAII (Michael W. Deem and Ramdas Pophale) SiO2 
 PCOD8156923
Probable space group: P 21 21 21
;
_chemical_formula_sum "Si O2"
_cell_formula_units_Z 28
_cell_length_a 13.058017
_cell_length_b 11.709211
_cell_length_c 8.063022
_cell_angle_alpha 90.000000
_cell_angle_beta 90.000000
_cell_angle_gamma 90.000000
_cell_volume 1232.828616
_symmetry_space_group_name_H-M "P 21 21 21"
_symmetry_group_IT_number 19
_symmetry_cell_setting 'orthorhombic'
loop_
_space_group_symop_operation_xyz
x,y,z
1/2-x,-y,1/2+z
1/2+x,1/2-y,-z
-x,1/2+y,1/2-z
loop_
_atom_site_type_symbol
_atom_site_label
_atom_site_fract_x
_atom_site_fract_y
_atom_site_fract_z
Si Si1 0.129878 0.706221 0.676267
Si Si2 0.555717 0.677364 0.822392
Si Si3 0.563840 0.358388 0.015242
Si Si4 0.863896 0.426921 0.648722
Si Si5 0.935248 0.097191 0.483901
Si Si6 0.133641 0.030149 0.331549
Si Si7 0.358812 0.641504 0.610068
O O1 0.124718 0.845838 0.689527
O O2 0.243998 0.660818 0.668731
O O3 0.059228 0.665130 0.522558
O O4 0.082255 0.652287 0.840025
O O5 0.587309 0.810430 0.836544
O O6 0.630660 0.607703 0.697740
O O7 0.437770 0.662564 0.762546
O O8 0.565398 0.624225 0.004776
O O9 0.597843 0.441862 0.167302
O O10 0.598525 0.410970 0.840218
O O11 0.617022 0.234122 0.034672
O O12 0.743391 0.429730 0.603149
O O13 0.054463 0.061813 0.475763
O O14 0.864332 0.986799 0.458277
#
# Coordination Sequence:
#
# PCOD8156923 Si02
#       7
#     4   4   4   4   4   4   4
#     4  11  25  43  67  97 136 172 221 272 333 394
#     4   9  20  40  67  96 126 176 218 269 323 390
#     4  11  24  41  66  99 127 169 224 274 318 390
#     4  10  22  42  69  94 132 172 225 271 318 392
#     4  10  22  41  66  96 133 175 215 273 333 394
#     4  10  20  43  68  95 133 174 222 270 320 393
#     4  11  23  44  69  95 139 174 217 275 335 389
#
# _framework density 22.711998000000001
#
# number of rings (size 3 to 8) (size 9 to 14) (size 15 to 20)
#    0.000    1.714    2.857    0.000    2.000    8.000 
#    2.571    2.857    0.000    0.000    0.000    0.000 
#    0.000    0.000    0.000    0.000    0.000    0.000 
#
# Total GULP energy -346917.056540 kJ/mol
# GULP energy per Si atom -12389.894876 kJ/mol
# Density = 2.266030 g / cm^3
# Si number density = 22.711998 Si / 1000 Ang^3
#
#
#
# Elastic Constant Matrix: (Units=GPa)
#
#
# Indices 1 2 3 4 5 6 
#
# 1 141.7768 48.1686 26.7756 0.0000 0.0000 0.0000
# 2 48.1686 171.2749 21.5961 0.0000 0.0000 0.0000
# 3 26.7756 21.5961 29.8078 0.0000 0.0000 0.0000
# 4 0.0000 0.0000 0.0000 14.1018 0.0000 0.0000
# 5 0.0000 0.0000 0.0000 0.0000 30.7785 0.0000
# 6 0.0000 0.0000 0.0000 0.0000 0.0000 34.2191
#
#
#
# Elastic Compliance Matrix: (Units=1/GPa)
#
#
# Indices 1 2 3 4 5 6 
#
# 1 0.008896 -0.001645 -0.006800 0.000000 0.000000 0.000000
# 2 -0.001645 0.006730 -0.003398 0.000000 0.000000 0.000000
# 3 -0.006800 -0.003398 0.042119 0.000000 0.000000 0.000000
# 4 0.000000 0.000000 0.000000 0.070913 0.000000 0.000000
# 5 0.000000 0.000000 0.000000 0.000000 0.032490 0.000000
# 6 0.000000 0.000000 0.000000 0.000000 0.000000 0.029223
#
#
# Mechanical properties :
#
#
# Convention : Reuss Voigt Hill
#
# Bulk Modulus (GPa) = 29.36091 59.54889 44.45490
# Shear Modulus (GPa) = 22.18186 32.24115 27.21150
#
# Velocity S-wave (km/s) = 3.12854 3.77180 3.46513
# Velocity P-wave (km/s) = 5.09960 6.72642 5.96869
#
# Compressibility (1/GPa) = 0.03405889
#
# Stress axis : x y z
#
# Youngs Moduli (GPa) = 112.40674 148.59763 23.74253
#
# Poissons Ratio (x) = 0.24438 0.16144
# Poissons Ratio (y) = 0.18486 0.08069
# Poissons Ratio (z) = 0.76434 0.50499
#
# Static dielectric constant tensor:
#      x y z
#    x 4.014950 0.000000 0.000000 
#    y 0.000000 5.109280 0.000000 
#    z 0.000000 0.000000 3.889780 
# 
# 
# High freq. dielectric constant tensor:
#      x y z
#    x 1.886040 0.000000 0.000000 
#    y 0.000000 1.925010 0.000000 
#    z 0.000000 0.000000 1.870820 
# 
# From -- ./inp_files/3448.got.cif
#   From: 2010.03.12/outbox.cif.g09.slc.cpg/sg19_2_cif.got.tgz:3448.got - 2010.04.10 18:59:41.
