data_PCOD8156798
_publ_section_title
;
Structure prediction by ZEFSAII (Michael W. Deem and Ramdas Pophale) SiO2 
 PCOD8156798
Probable space group: P 21 21 21
;
_chemical_formula_sum "Si O2"
_cell_formula_units_Z 28
_cell_length_a 7.842152
_cell_length_b 19.673686
_cell_length_c 7.565447
_cell_angle_alpha 90.000000
_cell_angle_beta 90.000000
_cell_angle_gamma 90.000000
_cell_volume 1167.227697
_symmetry_space_group_name_H-M "P 21 21 21"
_symmetry_group_IT_number 19
_symmetry_cell_setting 'orthorhombic'
loop_
_space_group_symop_operation_xyz
x,y,z
1/2-x,-y,1/2+z
1/2+x,1/2-y,-z
-x,1/2+y,1/2-z
loop_
_atom_site_type_symbol
_atom_site_label
_atom_site_fract_x
_atom_site_fract_y
_atom_site_fract_z
Si Si1 0.270320 0.671983 0.584637
Si Si2 0.211303 0.471120 0.887291
Si Si3 0.885531 0.702698 0.628618
Si Si4 0.284478 0.924262 0.577646
Si Si5 0.414677 0.139337 0.692298
Si Si6 0.946742 0.450388 0.632006
Si Si7 0.486002 0.000228 0.822092
O O1 0.249934 0.598832 0.492197
O O2 0.338285 0.722238 0.433636
O O3 0.410026 0.674432 0.742640
O O4 0.087676 0.695186 0.668957
O O5 0.391651 0.510084 0.854411
O O6 0.144131 0.467945 0.680760
O O7 0.084618 0.518603 0.000331
O O8 0.838828 0.650507 0.473651
O O9 0.756279 0.685275 0.791135
O O10 0.093944 0.930577 0.657913
O O11 0.371531 0.936179 0.773158
O O12 0.333210 0.986977 0.445615
O O13 0.431018 0.116251 0.490485
O O14 0.385898 0.073921 0.828129
#
# Coordination Sequence:
#
# PCOD8156798 Si02
#       7
#     4   4   4   4   4   4   4
#     4  11  24  44  73  95 135 187 234 276 337 412
#     4  11  22  41  65  95 134 175 218 281 348 415
#     4  12  23  44  73  95 132 185 235 271 335 413
#     4  11  21  39  63 100 129 171 222 279 340 409
#     4  10  23  42  64 101 132 170 222 280 334 403
#     4  11  23  41  67 100 141 168 221 287 353 407
#     4  10  20  37  61  96 131 164 214 276 345 403
#
# _framework density 23.988464
#
# number of rings (size 3 to 8) (size 9 to 14) (size 15 to 20)
#    0.000    1.143    2.857    6.000    2.000    0.000 
#    2.571    1.429    0.000    0.000    0.000    0.000 
#    0.000    0.000    0.000    0.000    0.000    0.000 
#
# Total GULP energy -346879.601951 kJ/mol
# GULP energy per Si atom -12388.557213 kJ/mol
# Density = 2.393387 g / cm^3
# Si number density = 23.988464 Si / 1000 Ang^3
#
#
#
# Elastic Constant Matrix: (Units=GPa)
#
#
# Indices 1 2 3 4 5 6 
#
# 1 106.4581 7.0894 14.5427 0.0000 0.0000 0.0000
# 2 7.0894 56.4696 -0.5247 0.0000 0.0000 0.0000
# 3 14.5427 -0.5247 56.7509 0.0000 0.0000 0.0000
# 4 0.0000 0.0000 0.0000 33.7510 0.0000 0.0000
# 5 0.0000 0.0000 0.0000 0.0000 34.8135 0.0000
# 6 0.0000 0.0000 0.0000 0.0000 0.0000 37.7849
#
#
#
# Elastic Compliance Matrix: (Units=1/GPa)
#
#
# Indices 1 2 3 4 5 6 
#
# 1 0.009822 -0.001257 -0.002529 0.000000 0.000000 0.000000
# 2 -0.001257 0.017871 0.000487 0.000000 0.000000 0.000000
# 3 -0.002529 0.000487 0.018273 0.000000 0.000000 0.000000
# 4 0.000000 0.000000 0.000000 0.029629 0.000000 0.000000
# 5 0.000000 0.000000 0.000000 0.000000 0.028724 0.000000
# 6 0.000000 0.000000 0.000000 0.000000 0.000000 0.026466
#
#
# Mechanical properties :
#
#
# Convention : Reuss Voigt Hill
#
# Bulk Modulus (GPa) = 25.39965 29.09926 27.24946
# Shear Modulus (GPa) = 33.22144 34.50798 33.86471
#
# Velocity S-wave (km/s) = 3.72545 3.79690 3.76135
# Velocity P-wave (km/s) = 5.39598 5.60168 5.49979
#
# Compressibility (1/GPa) = 0.03937062
#
# Stress axis : x y z
#
# Youngs Moduli (GPa) = 101.80726 55.95678 54.72447
#
# Poissons Ratio (x) = 0.07032 0.13838
# Poissons Ratio (y) = 0.12794 -0.02666
# Poissons Ratio (z) = 0.25744 -0.02726
#
# Static dielectric constant tensor:
#      x y z
#    x 5.220700 0.000000 0.000000 
#    y 0.000000 3.966080 0.000000 
#    z 0.000000 0.000000 4.551320 
# 
# 
# High freq. dielectric constant tensor:
#      x y z
#    x 2.005950 0.000000 0.000000 
#    y 0.000000 1.907230 0.000000 
#    z 0.000000 0.000000 1.960920 
# 
# From -- ./inp_files/3055.got.cif
#   From: 2010.03.12/outbox.cif.g09.slc.cpg/sg19_2_cif.got.tgz:3055.got - 2010.04.10 18:59:41.
