data_PCOD8156229
_publ_section_title
;
Structure prediction by ZEFSAII (Michael W. Deem and Ramdas Pophale) SiO2 
 PCOD8156229
Probable space group: P 21 21 2
;
_chemical_formula_sum "Si O2"
_cell_formula_units_Z 30
_cell_length_a 29.297468
_cell_length_b 5.495834
_cell_length_c 8.435131
_cell_angle_alpha 90.000000
_cell_angle_beta 90.000000
_cell_angle_gamma 90.000000
_cell_volume 1358.174358
_symmetry_space_group_name_H-M "P 21 21 2"
_symmetry_group_IT_number 18
_symmetry_cell_setting 'orthorhombic'
loop_
_space_group_symop_operation_xyz
x,y,z
-x,-y,z
1/2+x,1/2-y,-z
1/2-x,1/2+y,-z
loop_
_atom_site_type_symbol
_atom_site_label
_atom_site_fract_x
_atom_site_fract_y
_atom_site_fract_z
Si Si1 0.372759 0.385396 0.576855
Si Si2 0.456746 0.666907 0.501301
Si Si3 0.728692 0.537958 0.562570
Si Si4 0.419258 0.999630 0.750030
Si Si5 0.000000 0.500000 0.749861
Si Si6 0.127263 0.113823 0.076979
Si Si7 0.728696 0.463223 0.937422
Si Si8 0.543198 0.667062 0.998548
O O1 0.410576 0.513997 0.465451
O O2 0.322768 0.409417 0.501246
O O3 0.372380 0.499394 0.750003
O O4 0.387451 0.105553 0.607749
O O5 0.500000 0.500000 0.523624
O O6 0.451937 0.803095 0.668995
O O7 0.465292 0.842978 0.354230
O O8 0.743725 0.283928 0.481178
O O9 0.731879 0.500529 0.749990
O O10 0.387340 0.893783 0.892031
O O11 0.451970 0.195764 0.831234
O O12 0.965451 0.342034 0.853930
O O13 0.177237 0.089520 0.001273
O O14 0.089384 0.985702 0.965597
O O15 0.756296 0.217327 0.981231
O O16 0.500000 0.500000 0.975318
#
# Coordination Sequence:
#
# PCOD8156229 Si02
#       8
#     4   4   4   4   2   4   4   4
#     4   9  22  40  69  96 129 172 229 277 333 409
#     4  11  24  42  62  98 126 178 219 278 334 409
#     4  11  25  46  74 107 144 187 238 297 360 423
#     4  10  22  41  72  94 126 168 234 276 327 404
#     4  12  26  42  60  86 148 178 210 276 348 408
#     4   9  22  40  69  96 129 172 229 277 333 409
#     4  11  25  46  74 107 144 187 238 297 360 423
#     4  11  24  42  62  98 126 178 219 278 334 409
#
# _framework density 22.088474999999999
#
# number of rings (size 3 to 8) (size 9 to 14) (size 15 to 20)
#    0.000    1.600    0.000    2.800   11.200   12.800 
#    2.400    5.333    0.000    0.000    0.000    0.000 
#    0.000    0.000    0.000    0.000    0.000    0.000 
#
# Total GULP energy -371832.415398 kJ/mol
# GULP energy per Si atom -12394.413847 kJ/mol
# Density = 2.203820 g / cm^3
# Si number density = 22.088475 Si / 1000 Ang^3
#
#
#
# Elastic Constant Matrix: (Units=GPa)
#
#
# Indices 1 2 3 4 5 6 
#
# 1 196.7173 86.7089 61.8645 0.0000 0.0000 0.0000
# 2 86.7089 164.0540 50.8350 0.0000 0.0000 0.0000
# 3 61.8645 50.8350 70.2678 0.0000 0.0000 0.0000
# 4 0.0000 0.0000 0.0000 29.3866 0.0000 0.0000
# 5 0.0000 0.0000 0.0000 0.0000 25.1850 0.0000
# 6 0.0000 0.0000 0.0000 0.0000 0.0000 5.2877
#
#
#
# Elastic Compliance Matrix: (Units=1/GPa)
#
#
# Indices 1 2 3 4 5 6 
#
# 1 0.007787 -0.002567 -0.004999 0.000000 0.000000 0.000000
# 2 -0.002567 0.008703 -0.004036 0.000000 0.000000 0.000000
# 3 -0.004999 -0.004036 0.021552 0.000000 0.000000 0.000000
# 4 0.000000 0.000000 0.000000 0.034029 0.000000 0.000000
# 5 0.000000 0.000000 0.000000 0.000000 0.039706 0.000000
# 6 0.000000 0.000000 0.000000 0.000000 0.000000 0.189118
#
#
# Mechanical properties :
#
#
# Convention : Reuss Voigt Hill
#
# Bulk Modulus (GPa) = 67.39243 92.20622 79.79933
# Shear Modulus (GPa) = 15.19549 27.41390 21.30470
#
# Velocity S-wave (km/s) = 2.62570 3.52674 3.10904
# Velocity P-wave (km/s) = 6.30626 7.64320 7.00669
#
# Compressibility (1/GPa) = 0.01483846
#
# Stress axis : x y z
#
# Youngs Moduli (GPa) = 128.42257 114.90454 46.39890
#
# Poissons Ratio (x) = 0.29492 0.23193
# Poissons Ratio (y) = 0.32962 0.18728
# Poissons Ratio (z) = 0.64195 0.46379
#
# Static dielectric constant tensor:
#      x y z
#    x 4.507180 0.000000 0.000000 
#    y 0.000000 6.149460 0.000000 
#    z 0.000000 0.000000 3.759940 
# 
# 
# High freq. dielectric constant tensor:
#      x y z
#    x 1.877330 0.000000 0.000000 
#    y 0.000000 1.891080 0.000000 
#    z 0.000000 0.000000 1.843430 
# 
# From -- ./inp_files/4850.got.cif
#   From: 2010.03.12/outbox.cif.g09.slc.cpg/sg18_3_cif.got.tgz:4850.got - 2010.04.10 18:53:55.
