data_PCOD8156034
_publ_section_title
;
Structure prediction by ZEFSAII (Michael W. Deem and Ramdas Pophale) SiO2 
 PCOD8156034
Probable space group: P 21 21 2
;
_chemical_formula_sum "Si O2"
_cell_formula_units_Z 30
_cell_length_a 18.515638
_cell_length_b 13.659141
_cell_length_c 5.627530
_cell_angle_alpha 90.000000
_cell_angle_beta 90.000000
_cell_angle_gamma 90.000000
_cell_volume 1423.245726
_symmetry_space_group_name_H-M "P 21 21 2"
_symmetry_group_IT_number 18
_symmetry_cell_setting 'orthorhombic'
loop_
_space_group_symop_operation_xyz
x,y,z
-x,-y,z
1/2+x,1/2-y,-z
1/2-x,1/2+y,-z
loop_
_atom_site_type_symbol
_atom_site_label
_atom_site_fract_x
_atom_site_fract_y
_atom_site_fract_z
Si Si1 0.816592 0.843962 0.945129
Si Si2 0.000000 0.500000 0.398272
Si Si3 0.812235 0.243448 0.308000
Si Si4 0.735390 0.548100 0.933587
Si Si5 0.875118 0.570524 0.675625
Si Si6 0.286924 0.813860 0.687755
Si Si7 0.452187 0.750874 0.200189
Si Si8 0.477999 0.213285 0.713764
O O1 0.827780 0.765192 0.153042
O O2 0.740765 0.820854 0.819095
O O3 0.816266 0.954820 0.040442
O O4 0.887374 0.829458 0.780613
O O5 0.927055 0.490725 0.556494
O O6 0.002296 0.399974 0.249385
O O7 0.784996 0.235530 0.578562
O O8 0.891940 0.283469 0.294685
O O9 0.807522 0.134754 0.196220
O O10 0.761800 0.586573 0.186629
O O11 0.807935 0.514975 0.793735
O O12 0.845981 0.655834 0.502758
O O13 0.922254 0.638969 0.850362
O O14 0.494318 0.745264 0.455891
O O15 0.498116 0.729088 0.955945
#
# Coordination Sequence:
#
# PCOD8156034 Si02
#       8
#     4   2   4   4   4   4   4   4
#     4  11  22  38  71  95 123 179 228 272 341 396
#     4  10  24  36  62 100 136 174 212 264 356 424
#     4  10  24  42  63  98 129 175 222 283 332 398
#     4  10  23  38  68  92 129 167 239 276 324 400
#     4  10  21  41  57  98 133 171 207 278 335 412
#     4  10  20  41  64  89 136 163 221 281 327 394
#     4  11  23  45  65  93 136 180 212 274 348 400
#     4  11  27  42  68  96 142 176 220 277 346 406
#
# _framework density 21.078582000000001
#
# number of rings (size 3 to 8) (size 9 to 14) (size 15 to 20)
#    0.000    1.600    4.000    1.600    7.467    4.267 
#    0.000    0.667    0.000    0.000    0.000    0.000 
#    0.000    0.000    0.000    0.000    0.000    0.000 
#
# Total GULP energy -371741.062775 kJ/mol
# GULP energy per Si atom -12391.368759 kJ/mol
# Density = 2.103061 g / cm^3
# Si number density = 21.078582 Si / 1000 Ang^3
#
#
#
# Elastic Constant Matrix: (Units=GPa)
#
#
# Indices 1 2 3 4 5 6 
#
# 1 111.3879 10.1223 35.2208 0.0000 0.0000 0.0000
# 2 10.1223 47.1286 13.9248 0.0000 0.0000 0.0000
# 3 35.2208 13.9248 108.2052 0.0000 0.0000 0.0000
# 4 0.0000 0.0000 0.0000 2.3876 0.0000 0.0000
# 5 0.0000 0.0000 0.0000 0.0000 21.3387 0.0000
# 6 0.0000 0.0000 0.0000 0.0000 0.0000 26.8555
#
#
#
# Elastic Compliance Matrix: (Units=1/GPa)
#
#
# Indices 1 2 3 4 5 6 
#
# 1 0.010077 -0.001242 -0.003120 0.000000 0.000000 0.000000
# 2 -0.001242 0.022210 -0.002454 0.000000 0.000000 0.000000
# 3 -0.003120 -0.002454 0.010573 0.000000 0.000000 0.000000
# 4 0.000000 0.000000 0.000000 0.418838 0.000000 0.000000
# 5 0.000000 0.000000 0.000000 0.000000 0.046863 0.000000
# 6 0.000000 0.000000 0.000000 0.000000 0.000000 0.037236
#
#
# Mechanical properties :
#
#
# Convention : Reuss Voigt Hill
#
# Bulk Modulus (GPa) = 34.21413 42.80638 38.51026
# Shear Modulus (GPa) = 8.78466 23.94661 16.36563
#
# Velocity S-wave (km/s) = 2.04368 3.37421 2.78944
# Velocity P-wave (km/s) = 4.67288 5.96091 5.35576
#
# Compressibility (1/GPa) = 0.02922769
#
# Stress axis : x y z
#
# Youngs Moduli (GPa) = 99.23436 45.02394 94.57956
#
# Poissons Ratio (x) = 0.05594 0.29511
# Poissons Ratio (y) = 0.12329 0.23208
# Poissons Ratio (z) = 0.30963 0.11048
#
# Static dielectric constant tensor:
#      x y z
#    x 3.839010 0.000000 0.000000 
#    y 0.000000 3.429120 0.000000 
#    z 0.000000 0.000000 4.021150 
# 
# 
# High freq. dielectric constant tensor:
#      x y z
#    x 1.829310 0.000000 0.000000 
#    y 0.000000 1.794150 0.000000 
#    z 0.000000 0.000000 1.833000 
# 
# From -- ./inp_files/1618.got.cif
#   From: 2010.03.12/outbox.cif.g09.slc.cpg/sg18_1_cif.got.tgz:1618.got - 2010.04.10 18:53:55.
