data_PCOD8156265
_publ_section_title
;
Structure prediction by ZEFSAII (Michael W. Deem and Ramdas Pophale) SiO2 
 PCOD8156265
Probable space group: P 21 21 2
;
_chemical_formula_sum "Si O2"
_cell_formula_units_Z 26
_cell_length_a 12.300034
_cell_length_b 8.279112
_cell_length_c 12.112017
_cell_angle_alpha 90.000000
_cell_angle_beta 90.000000
_cell_angle_gamma 90.000000
_cell_volume 1233.407376
_symmetry_space_group_name_H-M "P 21 21 2"
_symmetry_group_IT_number 18
_symmetry_cell_setting 'orthorhombic'
loop_
_space_group_symop_operation_xyz
x,y,z
-x,-y,z
1/2+x,1/2-y,-z
1/2-x,1/2+y,-z
loop_
_atom_site_type_symbol
_atom_site_label
_atom_site_fract_x
_atom_site_fract_y
_atom_site_fract_z
Si Si1 0.607080 0.606900 0.134419
Si Si2 0.264122 0.025781 0.702814
Si Si3 0.901561 0.113292 0.539203
Si Si4 0.931330 0.163366 0.110314
Si Si5 0.404552 0.116310 0.311117
Si Si6 0.789535 0.123151 0.318530
Si Si7 0.000000 0.500000 0.206542
O O1 0.500000 0.500000 0.145947
O O2 0.710026 0.501418 0.176138
O O3 0.601383 0.761635 0.210677
O O4 0.623426 0.669730 0.010103
O O5 0.235119 0.204120 0.657242
O O6 0.393383 0.992463 0.714806
O O7 0.209651 0.913846 0.609442
O O8 0.932931 0.296437 0.572335
O O9 0.883588 0.092190 0.409085
O O10 0.000000 0.000000 0.578719
O O11 0.835887 0.141230 0.196674
O O12 0.995633 0.333307 0.133665
O O13 0.000000 0.000000 0.120471
O O14 0.500000 0.000000 0.277682
O O15 0.292200 0.023412 0.324827
#
# Coordination Sequence:
#
# PCOD8156265 Si02
#       7
#     4   4   4   4   4   4   2
#     4  10  22  43  68  95 132 174 217 281 337 392
#     4  10  22  45  65  95 134 173 218 283 338 403
#     4  11  23  43  66  94 134 175 220 282 337 397
#     4  10  24  43  66  98 133 177 219 279 334 405
#     4  11  23  39  65  97 125 170 226 274 329 407
#     4  11  23  41  62  99 129 174 223 271 341 407
#     4  10  24  44  66 100 138 176 228 270 346 408
#
# _framework density 21.079816000000001
#
# number of rings (size 3 to 8) (size 9 to 14) (size 15 to 20)
#    0.000    1.538    0.000    5.077    5.385    2.462 
#   23.538    0.000    0.000    0.000    0.000    0.000 
#    0.000    0.000    0.000    0.000    0.000    0.000 
#
# Total GULP energy -322288.288711 kJ/mol
# GULP energy per Si atom -12395.703412 kJ/mol
# Density = 2.103184 g / cm^3
# Si number density = 21.079816 Si / 1000 Ang^3
#
#
#
# Elastic Constant Matrix: (Units=GPa)
#
#
# Indices 1 2 3 4 5 6 
#
# 1 107.6425 40.6206 43.6742 0.0000 0.0000 0.0000
# 2 40.6206 137.6115 36.7422 0.0000 0.0000 0.0000
# 3 43.6742 36.7422 119.9620 0.0000 0.0000 0.0000
# 4 0.0000 0.0000 0.0000 15.6771 0.0000 0.0000
# 5 0.0000 0.0000 0.0000 0.0000 38.8996 0.0000
# 6 0.0000 0.0000 0.0000 0.0000 0.0000 28.6091
#
#
#
# Elastic Compliance Matrix: (Units=1/GPa)
#
#
# Indices 1 2 3 4 5 6 
#
# 1 0.011646 -0.002511 -0.003471 0.000000 0.000000 0.000000
# 2 -0.002511 0.008455 -0.001676 0.000000 0.000000 0.000000
# 3 -0.003471 -0.001676 0.010113 0.000000 0.000000 0.000000
# 4 0.000000 0.000000 0.000000 0.063787 0.000000 0.000000
# 5 0.000000 0.000000 0.000000 0.000000 0.025707 0.000000
# 6 0.000000 0.000000 0.000000 0.000000 0.000000 0.034954
#
#
# Mechanical properties :
#
#
# Convention : Reuss Voigt Hill
#
# Bulk Modulus (GPa) = 67.11711 67.47664 67.29687
# Shear Modulus (GPa) = 28.58064 32.91575 30.74819
#
# Velocity S-wave (km/s) = 3.68615 3.95585 3.82338
# Velocity P-wave (km/s) = 7.07288 7.27630 7.17531
#
# Compressibility (1/GPa) = 0.01489933
#
# Stress axis : x y z
#
# Youngs Moduli (GPa) = 85.86812 118.26762 98.88482
#
# Poissons Ratio (x) = 0.29696 0.34321
# Poissons Ratio (y) = 0.21561 0.16569
# Poissons Ratio (z) = 0.29803 0.19817
#
# Static dielectric constant tensor:
#      x y z
#    x 3.743010 0.000000 0.000000 
#    y 0.000000 4.073680 0.000000 
#    z 0.000000 0.000000 3.959150 
# 
# 
# High freq. dielectric constant tensor:
#      x y z
#    x 1.819110 0.000000 0.000000 
#    y 0.000000 1.847380 0.000000 
#    z 0.000000 0.000000 1.827750 
# 
# From -- ./inp_files/5562.got.cif
#   From: 2010.03.12/outbox.cif.g09.slc.cpg/sg18_3_cif.got.tgz:5562.got - 2010.04.10 18:53:55.
