data_PCOD8156991
_publ_section_title
;
Structure prediction by ZEFSAII (Michael W. Deem and Ramdas Pophale) SiO2 
 PCOD8156991
Probable space group: P 21 21 21
;
_chemical_formula_sum "Si O2"
_cell_formula_units_Z 32
_cell_length_a 13.839281
_cell_length_b 5.342452
_cell_length_c 18.074975
_cell_angle_alpha 90.000000
_cell_angle_beta 90.000000
_cell_angle_gamma 90.000000
_cell_volume 1336.385829
_symmetry_space_group_name_H-M "P 21 21 21"
_symmetry_group_IT_number 19
_symmetry_cell_setting 'orthorhombic'
loop_
_space_group_symop_operation_xyz
x,y,z
1/2-x,-y,1/2+z
1/2+x,1/2-y,-z
-x,1/2+y,1/2-z
loop_
_atom_site_type_symbol
_atom_site_label
_atom_site_fract_x
_atom_site_fract_y
_atom_site_fract_z
Si Si1 0.894857 0.878543 0.205709
Si Si2 0.886594 0.262637 0.087498
Si Si3 0.111732 0.576873 0.985552
Si Si4 0.095861 0.555153 0.697353
Si Si5 0.617515 0.449686 0.239216
Si Si6 0.506522 0.930542 0.458863
Si Si7 0.737746 0.622145 0.113220
Si Si8 0.440789 0.426263 0.641999
O O1 0.815921 0.679006 0.178277
O O2 0.890214 0.905730 0.294749
O O3 0.006059 0.808275 0.182260
O O4 0.867509 0.138881 0.167184
O O5 0.791829 0.418420 0.061401
O O6 0.977816 0.441732 0.093691
O O7 0.915954 0.061915 0.025626
O O8 0.208171 0.633146 0.935370
O O9 0.068486 0.304887 0.964217
O O10 0.134582 0.624027 0.073926
O O11 0.044447 0.803266 0.958681
O O12 0.157564 0.801359 0.719551
O O13 0.074401 0.581310 0.611818
O O14 0.998196 0.555312 0.746102
O O15 0.156340 0.305129 0.721184
O O16 0.648157 0.478363 0.152962
#
# Coordination Sequence:
#
# PCOD8156991 Si02
#       8
#     4   4   4   4   4   4   4   4
#     4  11  21  40  71  99 135 178 239 297 344 413
#     4  10  23  41  69  97 133 176 235 284 348 408
#     4  11  24  41  72 103 138 183 230 283 359 419
#     4  10  21  38  66  96 129 179 233 267 323 419
#     4  10  22  38  63  96 133 180 224 275 334 406
#     4  11  22  43  71  99 133 183 233 281 334 423
#     4  11  26  41  66 105 141 180 226 297 366 413
#     4  10  21  42  70 101 128 187 240 286 338 427
#
# _framework density 23.945181999999999
#
# number of rings (size 3 to 8) (size 9 to 14) (size 15 to 20)
#    0.000    1.500    3.750    0.750    7.000    0.000 
#    0.000    2.500    0.000    0.000    0.000    0.000 
#    0.000    0.000    0.000    0.000    0.000    0.000 
#
# Total GULP energy -396487.185427 kJ/mol
# GULP energy per Si atom -12390.224545 kJ/mol
# Density = 2.389068 g / cm^3
# Si number density = 23.945182 Si / 1000 Ang^3
#
#
#
# Elastic Constant Matrix: (Units=GPa)
#
#
# Indices 1 2 3 4 5 6 
#
# 1 40.1458 7.7120 13.8653 0.0000 0.0000 0.0000
# 2 7.7120 107.6307 15.7771 0.0000 0.0000 0.0000
# 3 13.8653 15.7771 139.6713 0.0000 0.0000 0.0000
# 4 0.0000 0.0000 0.0000 39.3872 0.0000 0.0000
# 5 0.0000 0.0000 0.0000 0.0000 27.9459 0.0000
# 6 0.0000 0.0000 0.0000 0.0000 0.0000 18.6357
#
#
#
# Elastic Compliance Matrix: (Units=1/GPa)
#
#
# Indices 1 2 3 4 5 6 
#
# 1 0.026033 -0.001512 -0.002414 0.000000 0.000000 0.000000
# 2 -0.001512 0.009535 -0.000927 0.000000 0.000000 0.000000
# 3 -0.002414 -0.000927 0.007504 0.000000 0.000000 0.000000
# 4 0.000000 0.000000 0.000000 0.025389 0.000000 0.000000
# 5 0.000000 0.000000 0.000000 0.000000 0.035783 0.000000
# 6 0.000000 0.000000 0.000000 0.000000 0.000000 0.053660
#
#
# Mechanical properties :
#
#
# Convention : Reuss Voigt Hill
#
# Bulk Modulus (GPa) = 29.96878 40.23961 35.10420
# Shear Modulus (GPa) = 27.97481 33.86665 30.92073
#
# Velocity S-wave (km/s) = 3.42173 3.76485 3.59738
# Velocity P-wave (km/s) = 5.30601 5.97831 5.65216
#
# Compressibility (1/GPa) = 0.03336805
#
# Stress axis : x y z
#
# Youngs Moduli (GPa) = 38.41250 104.87432 133.26251
#
# Poissons Ratio (x) = 0.15852 0.32164
# Poissons Ratio (y) = 0.05806 0.12354
# Poissons Ratio (z) = 0.09271 0.09722
#
# Static dielectric constant tensor:
#      x y z
#    x 4.155260 0.000000 0.000000 
#    y 0.000000 4.513740 0.000000 
#    z 0.000000 0.000000 4.382660 
# 
# 
# High freq. dielectric constant tensor:
#      x y z
#    x 1.917200 0.000000 0.000000 
#    y 0.000000 1.958510 0.000000 
#    z 0.000000 0.000000 1.949230 
# 
# From -- ./inp_files/6787.got.cif
#   From: 2010.03.12/outbox.cif.g09.slc.cpg/sg19_4_cif.got.tgz:6787.got - 2010.04.10 18:59:41.
