data_PCOD8156348
_publ_section_title
;
Structure prediction by ZEFSAII (Michael W. Deem and Ramdas Pophale) SiO2 
 PCOD8156348
Probable space group: P 21 21 2
;
_chemical_formula_sum "Si O2"
_cell_formula_units_Z 28
_cell_length_a 23.512887
_cell_length_b 9.291025
_cell_length_c 5.229336
_cell_angle_alpha 90.000000
_cell_angle_beta 90.000000
_cell_angle_gamma 90.000000
_cell_volume 1142.394577
_symmetry_space_group_name_H-M "P 21 21 2"
_symmetry_group_IT_number 18
_symmetry_cell_setting 'orthorhombic'
loop_
_space_group_symop_operation_xyz
x,y,z
-x,-y,z
1/2+x,1/2-y,-z
1/2-x,1/2+y,-z
loop_
_atom_site_type_symbol
_atom_site_label
_atom_site_fract_x
_atom_site_fract_y
_atom_site_fract_z
Si Si1 0.280477 0.229925 0.740524
Si Si2 0.500000 0.500000 0.275587
Si Si3 0.221116 0.917231 0.742702
Si Si4 0.000000 0.500000 0.577174
Si Si5 0.617941 0.405692 0.361571
Si Si6 0.394761 0.079282 0.765192
Si Si7 0.508392 0.783335 0.027181
Si Si8 0.391990 0.768944 0.839731
O O1 0.256694 0.322255 0.499217
O O2 0.346925 0.194908 0.689299
O O3 0.248950 0.076352 0.764374
O O4 0.271148 0.323713 0.998852
O O5 0.553946 0.452143 0.441290
O O6 0.522516 0.620395 0.084163
O O7 0.155049 0.951860 0.684600
O O8 0.056025 0.560021 0.441630
O O9 0.976405 0.633668 0.743868
O O10 0.638395 0.316714 0.609480
O O11 0.619908 0.309536 0.106232
O O12 0.363947 0.928360 0.839340
O O13 0.430760 0.140983 0.000288
O O14 0.461080 0.791329 0.797088
#
# Coordination Sequence:
#
# PCOD8156348 Si02
#       8
#     4   2   4   2   4   4   4   4
#     4  12  31  50  88 107 160 201 270 331 401 460
#     4  10  24  40  64 102 138 198 220 306 376 448
#     4  12  29  58  77 121 149 211 261 337 394 472
#     4  12  22  44  68 106 158 192 256 320 370 486
#     4  11  26  42  74 100 158 180 255 295 391 453
#     4  12  25  41  75 108 147 203 261 315 391 454
#     4  11  23  42  64 105 153 191 252 301 376 465
#     4  11  23  42  69 110 140 201 226 316 363 464
#
# _framework density 24.509922
#
# number of rings (size 3 to 8) (size 9 to 14) (size 15 to 20)
#    0.000    0.571    2.857    4.286    8.000    3.429 
#    0.000    0.000    0.000    0.000    0.000    0.000 
#    0.000    0.000    0.000    0.000    0.000    0.000 
#
# Total GULP energy -346935.055003 kJ/mol
# GULP energy per Si atom -12390.537679 kJ/mol
# Density = 2.445414 g / cm^3
# Si number density = 24.509922 Si / 1000 Ang^3
#
#
#
# Elastic Constant Matrix: (Units=GPa)
#
#
# Indices 1 2 3 4 5 6 
#
# 1 70.0116 35.9604 37.7990 0.0000 0.0000 0.0000
# 2 35.9604 179.9447 76.5473 0.0000 0.0000 0.0000
# 3 37.7990 76.5473 152.2168 0.0000 0.0000 0.0000
# 4 0.0000 0.0000 0.0000 60.1593 0.0000 0.0000
# 5 0.0000 0.0000 0.0000 0.0000 16.6710 0.0000
# 6 0.0000 0.0000 0.0000 0.0000 0.0000 44.4175
#
#
#
# Elastic Compliance Matrix: (Units=1/GPa)
#
#
# Indices 1 2 3 4 5 6 
#
# 1 0.017067 -0.002045 -0.003209 0.000000 0.000000 0.000000
# 2 -0.002045 0.007315 -0.003171 0.000000 0.000000 0.000000
# 3 -0.003209 -0.003171 0.008961 0.000000 0.000000 0.000000
# 4 0.000000 0.000000 0.000000 0.016623 0.000000 0.000000
# 5 0.000000 0.000000 0.000000 0.000000 0.059985 0.000000
# 6 0.000000 0.000000 0.000000 0.000000 0.000000 0.022514
#
#
# Mechanical properties :
#
#
# Convention : Reuss Voigt Hill
#
# Bulk Modulus (GPa) = 60.63672 78.08738 69.36205
# Shear Modulus (GPa) = 32.29743 41.04066 36.66904
#
# Velocity S-wave (km/s) = 3.63399 4.09644 3.87213
# Velocity P-wave (km/s) = 6.51162 7.36907 6.95357
#
# Compressibility (1/GPa) = 0.01649166
#
# Stress axis : x y z
#
# Youngs Moduli (GPa) = 58.59365 136.71022 111.59478
#
# Poissons Ratio (x) = 0.27962 0.35816
# Poissons Ratio (y) = 0.11984 0.35382
# Poissons Ratio (z) = 0.18806 0.43345
#
# Static dielectric constant tensor:
#      x y z
#    x 4.041990 0.000000 0.000000 
#    y 0.000000 4.988090 0.000000 
#    z 0.000000 0.000000 4.256750 
# 
# 
# High freq. dielectric constant tensor:
#      x y z
#    x 1.968370 0.000000 0.000000 
#    y 0.000000 2.000900 0.000000 
#    z 0.000000 0.000000 1.966380 
# 
# From -- ./inp_files/2225.got.cif
#   From: 2010.03.12/outbox.cif.g09.slc.cpg/sg18_2_cif.got.tgz:2225.got - 2010.04.10 18:53:55.
