data_PCOD8156681
_publ_section_title
;
Structure prediction by ZEFSAII (Michael W. Deem and Ramdas Pophale) SiO2 
 PCOD8156681
Probable space group: P 21 21 21
;
_chemical_formula_sum "Si O2"
_cell_formula_units_Z 24
_cell_length_a 9.947688
_cell_length_b 8.563654
_cell_length_c 15.175673
_cell_angle_alpha 90.000000
_cell_angle_beta 90.000000
_cell_angle_gamma 90.000000
_cell_volume 1292.793702
_symmetry_space_group_name_H-M "P 21 21 21"
_symmetry_group_IT_number 19
_symmetry_cell_setting 'orthorhombic'
loop_
_space_group_symop_operation_xyz
x,y,z
1/2-x,-y,1/2+z
1/2+x,1/2-y,-z
-x,1/2+y,1/2-z
loop_
_atom_site_type_symbol
_atom_site_label
_atom_site_fract_x
_atom_site_fract_y
_atom_site_fract_z
Si Si1 0.248283 0.416303 0.833203
Si Si2 0.420527 0.082371 0.500589
Si Si3 0.752826 0.919024 0.349478
Si Si4 0.717433 0.143678 0.511003
Si Si5 0.982267 0.704455 0.401307
Si Si6 0.018717 0.204966 0.901993
O O1 0.251419 0.465679 0.732336
O O2 0.375244 0.305428 0.852475
O O3 0.114241 0.315706 0.846121
O O4 0.247605 0.569537 0.894433
O O5 0.559098 0.181517 0.502294
O O6 0.293290 0.193945 0.501021
O O7 0.418440 0.969918 0.587162
O O8 0.418523 0.970247 0.413774
O O9 0.884598 0.811058 0.343455
O O10 0.622195 0.807692 0.350299
O O11 0.760908 0.018205 0.438568
O O12 0.006636 0.775619 0.499661
#
# Coordination Sequence:
#
# PCOD8156681 Si02
#       6
#     4   4   4   4   4   4
#     4  11  22  37  64  88 119 159 209 248 298 367
#     4   8  19  32  60  74 118 156 193 234 304 348
#     4  11  22  37  64  88 119 159 209 248 298 367
#     4  10  19  38  52  90 116 156 197 254 286 352
#     4   9  19  41  60  81 120 164 194 241 314 360
#     4   9  19  41  60  81 120 164 194 241 314 360
#
# _framework density 18.564447000000001
#
# number of rings (size 3 to 8) (size 9 to 14) (size 15 to 20)
#    1.000    1.333    3.333    0.000    0.000    8.000 
#    0.000    3.333    0.000    0.000    0.000    0.000 
#    0.000    0.000    0.000    0.000    0.000    0.000 
#
# Total GULP energy -297474.838146 kJ/mol
# GULP energy per Si atom -12394.784923 kJ/mol
# Density = 1.852219 g / cm^3
# Si number density = 18.564447 Si / 1000 Ang^3
#
#
#
# Elastic Constant Matrix: (Units=GPa)
#
#
# Indices 1 2 3 4 5 6 
#
# 1 92.4634 34.8738 41.0768 0.0000 0.0000 0.0000
# 2 34.8738 36.2442 12.9990 0.0000 0.0000 0.0000
# 3 41.0768 12.9990 53.2709 0.0000 0.0000 0.0000
# 4 0.0000 0.0000 0.0000 31.7792 0.0000 0.0000
# 5 0.0000 0.0000 0.0000 0.0000 22.7766 0.0000
# 6 0.0000 0.0000 0.0000 0.0000 0.0000 49.9255
#
#
#
# Elastic Compliance Matrix: (Units=1/GPa)
#
#
# Indices 1 2 3 4 5 6 
#
# 1 0.023743 -0.017841 -0.013955 0.000000 0.000000 0.000000
# 2 -0.017841 0.043642 0.003107 0.000000 0.000000 0.000000
# 3 -0.013955 0.003107 0.028774 0.000000 0.000000 0.000000
# 4 0.000000 0.000000 0.000000 0.031467 0.000000 0.000000
# 5 0.000000 0.000000 0.000000 0.000000 0.043905 0.000000
# 6 0.000000 0.000000 0.000000 0.000000 0.000000 0.020030
#
#
# Mechanical properties :
#
#
# Convention : Reuss Voigt Hill
#
# Bulk Modulus (GPa) = 25.78418 39.98642 32.88530
# Shear Modulus (GPa) = 19.09372 27.09818 23.09595
#
# Velocity S-wave (km/s) = 3.21052 3.82472 3.53100
# Velocity P-wave (km/s) = 5.25951 6.41020 5.86315
#
# Compressibility (1/GPa) = 0.03878347
#
# Stress axis : x y z
#
# Youngs Moduli (GPa) = 42.11684 22.91355 34.75326
#
# Poissons Ratio (x) = 0.40880 0.48498
# Poissons Ratio (y) = 0.75140 -0.10799
# Poissons Ratio (z) = 0.58774 -0.07120
#
# Static dielectric constant tensor:
#      x y z
#    x 3.378750 0.000000 0.000000 
#    y 0.000000 3.148680 0.000000 
#    z 0.000000 0.000000 3.167980 
# 
# 
# High freq. dielectric constant tensor:
#      x y z
#    x 1.726520 0.000000 0.000000 
#    y 0.000000 1.703800 0.000000 
#    z 0.000000 0.000000 1.699220 
# 
# From -- ./inp_files/2792.got.cif
#   From: 2010.03.12/outbox.cif.g09.slc.cpg/sg19_2_cif.got.tgz:2792.got - 2010.04.10 18:59:41.
