data_PCOD8156401
_publ_section_title
;
Structure prediction by ZEFSAII (Michael W. Deem and Ramdas Pophale) SiO2 
 PCOD8156401
Probable space group: P 21 21 2
;
_chemical_formula_sum "Si O2"
_cell_formula_units_Z 18
_cell_length_a 6.878496
_cell_length_b 10.503664
_cell_length_c 11.304198
_cell_angle_alpha 90.000000
_cell_angle_beta 90.000000
_cell_angle_gamma 90.000000
_cell_volume 816.721645
_symmetry_space_group_name_H-M "P 21 21 2"
_symmetry_group_IT_number 18
_symmetry_cell_setting 'orthorhombic'
loop_
_space_group_symop_operation_xyz
x,y,z
-x,-y,z
1/2+x,1/2-y,-z
1/2-x,1/2+y,-z
loop_
_atom_site_type_symbol
_atom_site_label
_atom_site_fract_x
_atom_site_fract_y
_atom_site_fract_z
Si Si1 0.500000 0.500000 0.539924
Si Si2 0.890952 0.370954 0.913433
Si Si3 0.782191 0.539620 0.335146
Si Si4 0.916995 0.804787 0.263334
Si Si5 0.721102 0.317113 0.163168
O O1 0.671781 0.552999 0.458566
O O2 0.410992 0.613327 0.617665
O O3 0.688444 0.378793 0.842967
O O4 0.000000 0.500000 0.884001
O O5 0.022312 0.250252 0.875541
O O6 0.844900 0.365580 0.051771
O O7 0.789579 0.677365 0.275683
O O8 0.676043 0.437945 0.247934
O O9 0.000000 0.500000 0.365298
O O10 0.142595 0.781842 0.233260
#
# Coordination Sequence:
#
# PCOD8156401 Si02
#       5
#     2   4   4   4   4
#     4  12  26  44  70 102 134 186 242 290 336 416
#     4  12  24  43  71 102 141 180 229 294 345 423
#     4  10  25  46  71  97 142 187 230 288 352 414
#     4  11  25  45  67 106 134 183 238 282 357 414
#     4  11  24  46  71 102 140 183 229 284 362 419
#
# _framework density 22.039332999999999
#
# number of rings (size 3 to 8) (size 9 to 14) (size 15 to 20)
#    0.000    0.889    2.222    4.667    6.222    2.667 
#    0.000    0.000    0.000    0.000    0.000    0.000 
#    0.000    0.000    0.000    0.000    0.000    0.000 
#
# Total GULP energy -223289.958823 kJ/mol
# GULP energy per Si atom -12404.997712 kJ/mol
# Density = 2.198917 g / cm^3
# Si number density = 22.039333 Si / 1000 Ang^3
#
#
#
# Elastic Constant Matrix: (Units=GPa)
#
#
# Indices 1 2 3 4 5 6 
#
# 1 50.7011 22.9968 26.7231 0.0000 0.0000 0.0000
# 2 22.9968 103.0517 31.0279 0.0000 0.0000 0.0000
# 3 26.7231 31.0279 112.8203 0.0000 0.0000 0.0000
# 4 0.0000 0.0000 0.0000 21.5615 0.0000 0.0000
# 5 0.0000 0.0000 0.0000 0.0000 50.8742 0.0000
# 6 0.0000 0.0000 0.0000 0.0000 0.0000 32.2003
#
#
#
# Elastic Compliance Matrix: (Units=1/GPa)
#
#
# Indices 1 2 3 4 5 6 
#
# 1 0.023934 -0.003962 -0.004579 0.000000 0.000000 0.000000
# 2 -0.003962 0.011236 -0.002152 0.000000 0.000000 0.000000
# 3 -0.004579 -0.002152 0.010540 0.000000 0.000000 0.000000
# 4 0.000000 0.000000 0.000000 0.046379 0.000000 0.000000
# 5 0.000000 0.000000 0.000000 0.000000 0.019656 0.000000
# 6 0.000000 0.000000 0.000000 0.000000 0.000000 0.031056
#
#
# Mechanical properties :
#
#
# Convention : Reuss Voigt Hill
#
# Bulk Modulus (GPa) = 41.11225 47.56319 44.33772
# Shear Modulus (GPa) = 29.01986 33.31556 31.16771
#
# Velocity S-wave (km/s) = 3.63261 3.89220 3.76465
# Velocity P-wave (km/s) = 6.02404 6.46737 6.24964
#
# Compressibility (1/GPa) = 0.02432365
#
# Stress axis : x y z
#
# Youngs Moduli (GPa) = 41.78091 89.00045 94.87582
#
# Poissons Ratio (x) = 0.35265 0.43448
# Poissons Ratio (y) = 0.16555 0.20413
# Poissons Ratio (z) = 0.19134 0.19149
#
# Static dielectric constant tensor:
#      x y z
#    x 3.922280 0.000000 0.000000 
#    y 0.000000 4.037980 0.000000 
#    z 0.000000 0.000000 3.925830 
# 
# 
# High freq. dielectric constant tensor:
#      x y z
#    x 1.878370 0.000000 0.000000 
#    y 0.000000 1.872340 0.000000 
#    z 0.000000 0.000000 1.871880 
# 
# From -- ./inp_files/2893.got.cif
#   From: 2010.03.12/outbox.cif.g09.slc.cpg/sg18_2_cif.got.tgz:2893.got - 2010.04.10 18:53:55.
