data_PCOD8156018
_publ_section_title
;
Structure prediction by ZEFSAII (Michael W. Deem and Ramdas Pophale) SiO2 
 PCOD8156018
Probable space group: P 21 21 2
;
_chemical_formula_sum "Si O2"
_cell_formula_units_Z 26
_cell_length_a 10.949960
_cell_length_b 8.908054
_cell_length_c 11.797280
_cell_angle_alpha 90.000000
_cell_angle_beta 90.000000
_cell_angle_gamma 90.000000
_cell_volume 1150.740136
_symmetry_space_group_name_H-M "P 21 21 2"
_symmetry_group_IT_number 18
_symmetry_cell_setting 'orthorhombic'
loop_
_space_group_symop_operation_xyz
x,y,z
-x,-y,z
1/2+x,1/2-y,-z
1/2-x,1/2+y,-z
loop_
_atom_site_type_symbol
_atom_site_label
_atom_site_fract_x
_atom_site_fract_y
_atom_site_fract_z
Si Si1 0.501936 0.747819 0.508532
Si Si2 0.685830 0.016240 0.506118
Si Si3 0.356534 0.384636 0.315073
Si Si4 0.876273 0.073240 0.938536
Si Si5 0.130606 0.571368 0.962030
Si Si6 0.000000 0.000000 0.306643
Si Si7 0.751078 0.422685 0.735760
O O1 0.366210 0.814020 0.515953
O O2 0.524537 0.675858 0.383580
O O3 0.527723 0.638846 0.611604
O O4 0.590988 0.886725 0.527791
O O5 0.792597 0.997929 0.598921
O O6 0.735628 0.013721 0.379456
O O7 0.392911 0.456265 0.196120
O O8 0.260857 0.253491 0.286157
O O9 0.872366 0.248238 0.975116
O O10 0.000000 0.000000 0.992708
O O11 0.747818 0.993419 0.970751
O O12 0.151051 0.526650 0.830230
O O13 0.000000 0.500000 0.001568
O O14 0.886561 0.962911 0.223307
#
# Coordination Sequence:
#
# PCOD8156018 Si02
#       7
#     4   4   4   4   4   2   4
#     4  10  22  35  61  91 138 177 218 271 328 416
#     4  10  20  40  58  96 134 179 221 267 345 407
#     4  10  21  41  63  98 137 175 226 280 336 422
#     4  11  26  49  76 106 137 184 243 305 364 430
#     4  11  26  52  73 100 138 185 241 303 366 426
#     4  12  20  38  56  98 132 176 220 278 338 410
#     4  10  23  37  66  94 132 177 228 283 344 419
#
# _framework density 22.594154
#
# number of rings (size 3 to 8) (size 9 to 14) (size 15 to 20)
#    0.000    1.538    3.077    0.923    8.615    0.000 
#    8.308    0.000    0.000    0.000    0.000    0.000 
#    0.000    0.000    0.000    0.000    0.000    0.000 
#
# Total GULP energy -322185.001638 kJ/mol
# GULP energy per Si atom -12391.730832 kJ/mol
# Density = 2.254273 g / cm^3
# Si number density = 22.594154 Si / 1000 Ang^3
#
#
#
# Elastic Constant Matrix: (Units=GPa)
#
#
# Indices 1 2 3 4 5 6 
#
# 1 154.9156 49.4550 31.7247 0.0000 0.0000 0.0000
# 2 49.4550 76.3829 34.7071 0.0000 0.0000 0.0000
# 3 31.7247 34.7071 64.1742 0.0000 0.0000 0.0000
# 4 0.0000 0.0000 0.0000 8.4776 0.0000 0.0000
# 5 0.0000 0.0000 0.0000 0.0000 20.2599 0.0000
# 6 0.0000 0.0000 0.0000 0.0000 0.0000 32.2098
#
#
#
# Elastic Compliance Matrix: (Units=1/GPa)
#
#
# Indices 1 2 3 4 5 6 
#
# 1 0.008256 -0.004628 -0.001578 0.000000 0.000000 0.000000
# 2 -0.004628 0.019952 -0.008503 0.000000 0.000000 0.000000
# 3 -0.001578 -0.008503 0.020961 0.000000 0.000000 0.000000
# 4 0.000000 0.000000 0.000000 0.117959 0.000000 0.000000
# 5 0.000000 0.000000 0.000000 0.000000 0.049359 0.000000
# 6 0.000000 0.000000 0.000000 0.000000 0.000000 0.031046
#
#
# Mechanical properties :
#
#
# Convention : Reuss Voigt Hill
#
# Bulk Modulus (GPa) = 50.63047 58.58294 54.60670
# Shear Modulus (GPa) = 17.63455 24.16184 20.89819
#
# Velocity S-wave (km/s) = 2.79676 3.27369 3.04458
# Velocity P-wave (km/s) = 5.73467 6.34618 6.04816
#
# Compressibility (1/GPa) = 0.01975095
#
# Stress axis : x y z
#
# Youngs Moduli (GPa) = 121.12645 50.12043 47.70722
#
# Poissons Ratio (x) = 0.23197 0.07529
# Poissons Ratio (y) = 0.56060 0.40563
# Poissons Ratio (z) = 0.19117 0.42615
#
# Static dielectric constant tensor:
#      x y z
#    x 4.985760 0.000000 0.000000 
#    y 0.000000 4.188600 0.000000 
#    z 0.000000 0.000000 4.043760 
# 
# 
# High freq. dielectric constant tensor:
#      x y z
#    x 1.908970 0.000000 0.000000 
#    y 0.000000 1.893470 0.000000 
#    z 0.000000 0.000000 1.876960 
# 
# From -- ./inp_files/5855.got.cif
#   From: 2010.03.12/outbox.cif.g09.slc.cpg/sg18_3_cif.got.tgz:5855.got - 2010.04.10 18:53:55.
