data_PCOD8156767
_publ_section_title
;
Structure prediction by ZEFSAII (Michael W. Deem and Ramdas Pophale) SiO2 
 PCOD8156767
Probable space group: P 21 21 21
;
_chemical_formula_sum "Si O2"
_cell_formula_units_Z 28
_cell_length_a 13.719553
_cell_length_b 7.501631
_cell_length_c 13.103301
_cell_angle_alpha 90.000000
_cell_angle_beta 90.000000
_cell_angle_gamma 90.000000
_cell_volume 1348.578951
_symmetry_space_group_name_H-M "P 21 21 21"
_symmetry_group_IT_number 19
_symmetry_cell_setting 'orthorhombic'
loop_
_space_group_symop_operation_xyz
x,y,z
1/2-x,-y,1/2+z
1/2+x,1/2-y,-z
-x,1/2+y,1/2-z
loop_
_atom_site_type_symbol
_atom_site_label
_atom_site_fract_x
_atom_site_fract_y
_atom_site_fract_z
Si Si1 0.458593 0.015880 0.872281
Si Si2 0.615254 0.267141 0.791347
Si Si3 0.317768 0.632548 0.374484
Si Si4 0.592469 0.436198 0.998430
Si Si5 0.225158 0.505666 0.667547
Si Si6 0.629603 0.834698 0.980523
Si Si7 0.378350 0.320225 0.990254
O O1 0.510864 0.169487 0.804679
O O2 0.384133 0.910547 0.799527
O O3 0.534215 0.871246 0.913432
O O4 0.402622 0.111662 0.966683
O O5 0.696898 0.120637 0.768244
O O6 0.645413 0.361340 0.897497
O O7 0.373405 0.812994 0.407468
O O8 0.329553 0.613869 0.252180
O O9 0.373859 0.466061 0.423602
O O10 0.204619 0.626567 0.408783
O O11 0.476450 0.436955 0.977686
O O12 0.629583 0.634136 0.021228
O O13 0.274698 0.371370 0.587274
O O14 0.155750 0.643337 0.606359
#
# Coordination Sequence:
#
# PCOD8156767 Si02
#       7
#     4   4   4   4   4   4   4
#     4  10  20  35  68  98 131 165 220 278 332 389
#     4  10  20  36  62 102 127 164 222 280 334 385
#     4  11  23  45  64  97 137 172 218 283 322 397
#     4  11  22  43  68  94 134 174 221 274 326 400
#     4  10  23  44  65  92 139 177 214 275 343 394
#     4  10  22  43  64  99 130 164 227 281 320 393
#     4  10  22  44  67  94 136 174 218 277 331 394
#
# _framework density 20.762595999999998
#
# number of rings (size 3 to 8) (size 9 to 14) (size 15 to 20)
#    0.000    1.714    5.714    0.857   12.000    1.143 
#    5.143    0.000    0.000    0.000    0.000    0.000 
#    0.000    0.000    0.000    0.000    0.000    0.000 
#
# Total GULP energy -347140.870241 kJ/mol
# GULP energy per Si atom -12397.888223 kJ/mol
# Density = 2.071534 g / cm^3
# Si number density = 20.762596 Si / 1000 Ang^3
#
#
#
# Elastic Constant Matrix: (Units=GPa)
#
#
# Indices 1 2 3 4 5 6 
#
# 1 63.5347 29.7867 20.5950 0.0000 0.0000 0.0000
# 2 29.7867 151.1985 45.2903 0.0000 0.0000 0.0000
# 3 20.5950 45.2903 105.6582 0.0000 0.0000 0.0000
# 4 0.0000 0.0000 0.0000 42.0548 0.0000 0.0000
# 5 0.0000 0.0000 0.0000 0.0000 23.3085 0.0000
# 6 0.0000 0.0000 0.0000 0.0000 0.0000 20.2617
#
#
#
# Elastic Compliance Matrix: (Units=1/GPa)
#
#
# Indices 1 2 3 4 5 6 
#
# 1 0.017798 -0.002830 -0.002256 0.000000 0.000000 0.000000
# 2 -0.002830 0.008038 -0.002894 0.000000 0.000000 0.000000
# 3 -0.002256 -0.002894 0.011145 0.000000 0.000000 0.000000
# 4 0.000000 0.000000 0.000000 0.023779 0.000000 0.000000
# 5 0.000000 0.000000 0.000000 0.000000 0.042903 0.000000
# 6 0.000000 0.000000 0.000000 0.000000 0.000000 0.049354
#
#
# Mechanical properties :
#
#
# Convention : Reuss Voigt Hill
#
# Bulk Modulus (GPa) = 47.57337 56.85951 52.21644
# Shear Modulus (GPa) = 28.41180 32.10629 30.25905
#
# Velocity S-wave (km/s) = 3.70322 3.93664 3.82171
# Velocity P-wave (km/s) = 6.42245 6.93598 6.68415
#
# Compressibility (1/GPa) = 0.02102016
#
# Stress axis : x y z
#
# Youngs Moduli (GPa) = 56.18706 124.40468 89.72915
#
# Poissons Ratio (x) = 0.35213 0.20242
# Poissons Ratio (y) = 0.15904 0.25967
# Poissons Ratio (z) = 0.12675 0.36001
#
# Static dielectric constant tensor:
#      x y z
#    x 3.760860 0.000000 0.000000 
#    y 0.000000 3.696230 0.000000 
#    z 0.000000 0.000000 3.580750 
# 
# 
# High freq. dielectric constant tensor:
#      x y z
#    x 1.798360 0.000000 0.000000 
#    y 0.000000 1.809590 0.000000 
#    z 0.000000 0.000000 1.797280 
# 
# From -- ./inp_files/5186.got.cif
#   From: 2010.03.12/outbox.cif.g09.slc.cpg/sg19_3_cif.got.tgz:5186.got - 2010.04.10 18:59:41.
