data_PCOD8156173
_publ_section_title
;
Structure prediction by ZEFSAII (Michael W. Deem and Ramdas Pophale) SiO2 
 PCOD8156173
Probable space group: P 21 21 2
;
_chemical_formula_sum "Si O2"
_cell_formula_units_Z 26
_cell_length_a 26.426180
_cell_length_b 9.012085
_cell_length_c 5.362457
_cell_angle_alpha 90.000000
_cell_angle_beta 90.000000
_cell_angle_gamma 90.000000
_cell_volume 1277.095842
_symmetry_space_group_name_H-M "P 21 21 2"
_symmetry_group_IT_number 18
_symmetry_cell_setting 'orthorhombic'
loop_
_space_group_symop_operation_xyz
x,y,z
-x,-y,z
1/2+x,1/2-y,-z
1/2-x,1/2+y,-z
loop_
_atom_site_type_symbol
_atom_site_label
_atom_site_fract_x
_atom_site_fract_y
_atom_site_fract_z
Si Si1 0.098286 0.560570 0.365810
Si Si2 0.835753 0.187297 0.168500
Si Si3 0.226212 0.990527 0.530307
Si Si4 0.655230 0.395304 0.096782
Si Si5 0.245889 0.723869 0.821644
Si Si6 0.000000 0.500000 0.606773
Si Si7 0.906834 0.609243 0.847682
O O1 0.124767 0.719979 0.333494
O O2 0.038863 0.591313 0.428796
O O3 0.120947 0.469660 0.606894
O O4 0.104749 0.472747 0.107028
O O5 0.788353 0.130693 0.326588
O O6 0.807259 0.291931 0.967464
O O7 0.863837 0.044547 0.043999
O O8 0.173668 0.062541 0.626558
O O9 0.262226 0.117634 0.419346
O O10 0.254471 0.897919 0.748532
O O11 0.609969 0.279108 0.120465
O O12 0.704185 0.324924 0.964561
O O13 0.032835 0.390501 0.785739
#
# Coordination Sequence:
#
# PCOD8156173 Si02
#       7
#     4   4   4   4   4   2   4
#     4  10  23  41  68  99 124 168 220 273 329 393
#     4  10  23  40  60  90 132 173 219 270 325 386
#     4  10  22  40  57  83 126 175 213 272 308 384
#     4  10  23  40  60  90 132 173 219 270 325 386
#     4  10  22  38  56  86 126 172 222 258 316 372
#     4   8  22  40  72  94 130 152 220 278 334 390
#     4  10  23  41  68  99 124 168 220 273 329 393
#
# _framework density 20.358692999999999
#
# number of rings (size 3 to 8) (size 9 to 14) (size 15 to 20)
#    0.923    1.231    0.000    1.385    8.615    6.154 
#    2.769    0.000    0.000   13.846    0.000    0.000 
#    0.000    0.000    0.000    0.000    0.000    0.000 
#
# Total GULP energy -322089.795814 kJ/mol
# GULP energy per Si atom -12388.069070 kJ/mol
# Density = 2.031236 g / cm^3
# Si number density = 20.358693 Si / 1000 Ang^3
#
#
#
# Elastic Constant Matrix: (Units=GPa)
#
#
# Indices 1 2 3 4 5 6 
#
# 1 57.6854 35.9543 6.7997 0.0000 0.0000 0.0000
# 2 35.9543 89.8941 28.1746 0.0000 0.0000 0.0000
# 3 6.7997 28.1746 99.6122 0.0000 0.0000 0.0000
# 4 0.0000 0.0000 0.0000 36.6317 0.0000 0.0000
# 5 0.0000 0.0000 0.0000 0.0000 21.8196 0.0000
# 6 0.0000 0.0000 0.0000 0.0000 0.0000 32.2711
#
#
#
# Elastic Compliance Matrix: (Units=1/GPa)
#
#
# Indices 1 2 3 4 5 6 
#
# 1 0.023210 -0.009641 0.001143 0.000000 0.000000 0.000000
# 2 -0.009641 0.016211 -0.003927 0.000000 0.000000 0.000000
# 3 0.001143 -0.003927 0.011072 0.000000 0.000000 0.000000
# 4 0.000000 0.000000 0.000000 0.027299 0.000000 0.000000
# 5 0.000000 0.000000 0.000000 0.000000 0.045830 0.000000
# 6 0.000000 0.000000 0.000000 0.000000 0.000000 0.030987
#
#
# Mechanical properties :
#
#
# Convention : Reuss Voigt Hill
#
# Bulk Modulus (GPa) = 38.99952 43.22767 41.11360
# Shear Modulus (GPa) = 26.59463 29.89535 28.24499
#
# Velocity S-wave (km/s) = 3.61820 3.83617 3.72878
# Velocity P-wave (km/s) = 6.05417 6.39537 6.22711
#
# Compressibility (1/GPa) = 0.02564134
#
# Stress axis : x y z
#
# Youngs Moduli (GPa) = 43.08500 61.68590 90.32053
#
# Poissons Ratio (x) = 0.59473 -0.10320
# Poissons Ratio (y) = 0.41539 0.35470
# Poissons Ratio (z) = -0.04923 0.24225
#
# Static dielectric constant tensor:
#      x y z
#    x 3.266480 0.000000 0.000000 
#    y 0.000000 3.763420 0.000000 
#    z 0.000000 0.000000 4.006690 
# 
# 
# High freq. dielectric constant tensor:
#      x y z
#    x 1.753580 0.000000 0.000000 
#    y 0.000000 1.791480 0.000000 
#    z 0.000000 0.000000 1.819190 
# 
# From -- ./inp_files/695.got.cif
#   From: 2010.03.12/outbox.cif.g09.slc.cpg/sg18_1_cif.got.tgz:695.got - 2010.04.10 18:53:55.
