data_PCOD8156546
_publ_section_title
;
Structure prediction by ZEFSAII (Michael W. Deem and Ramdas Pophale) SiO2 
 PCOD8156546
Probable space group: P 21 21 21
;
_chemical_formula_sum "Si O2"
_cell_formula_units_Z 16
_cell_length_a 15.301562
_cell_length_b 5.154200
_cell_length_c 8.088477
_cell_angle_alpha 90.000000
_cell_angle_beta 90.000000
_cell_angle_gamma 90.000000
_cell_volume 637.916430
_symmetry_space_group_name_H-M "P 21 21 21"
_symmetry_group_IT_number 19
_symmetry_cell_setting 'orthorhombic'
loop_
_space_group_symop_operation_xyz
x,y,z
1/2-x,-y,1/2+z
1/2+x,1/2-y,-z
-x,1/2+y,1/2-z
loop_
_atom_site_type_symbol
_atom_site_label
_atom_site_fract_x
_atom_site_fract_y
_atom_site_fract_z
Si Si1 0.187652 0.056661 0.103269
Si Si2 0.559364 0.181841 0.119875
Si Si3 0.357110 0.176242 0.281223
Si Si4 0.455786 0.131821 0.821970
O O1 0.128685 0.293864 0.033655
O O2 0.191671 0.838537 0.959052
O O3 0.143811 0.933920 0.268825
O O4 0.284979 0.156528 0.138944
O O5 0.586836 0.938706 0.233537
O O6 0.465285 0.154104 0.023846
O O7 0.568525 0.446678 0.229057
O O8 0.519326 0.903622 0.760557
#
# Coordination Sequence:
#
# PCOD8156546 Si02
#       4
#     4   4   4   4
#     4   9  21  31  55  74 104 126 168 205 250 293
#     4   9  19  31  50  75 100 129 164 207 241 293
#     4  10  20  31  50  76 104 129 161 207 252 290
#     4  10  16  31  51  75  94 128 173 209 233 280
#
# _framework density 25.081654
#
# number of rings (size 3 to 8) (size 9 to 14) (size 15 to 20)
#    1.500    1.000    2.500    0.000    3.500    0.000 
#    0.000    0.000    0.000    3.000    0.000    0.000 
#    0.000    0.000    0.000    0.000    0.000    0.000 
#
# Total GULP energy -198250.390034 kJ/mol
# GULP energy per Si atom -12390.649377 kJ/mol
# Density = 2.502457 g / cm^3
# Si number density = 25.081654 Si / 1000 Ang^3
#
#
#
# Elastic Constant Matrix: (Units=GPa)
#
#
# Indices 1 2 3 4 5 6 
#
# 1 103.0578 -27.5268 18.3691 0.0000 0.0000 0.0000
# 2 -27.5268 124.3464 12.3401 0.0000 0.0000 0.0000
# 3 18.3691 12.3401 64.9247 0.0000 0.0000 0.0000
# 4 0.0000 0.0000 0.0000 124.7246 0.0000 0.0000
# 5 0.0000 0.0000 0.0000 0.0000 48.3144 0.0000
# 6 0.0000 0.0000 0.0000 0.0000 0.0000 171.7962
#
#
#
# Elastic Compliance Matrix: (Units=1/GPa)
#
#
# Indices 1 2 3 4 5 6 
#
# 1 0.011114 0.002826 -0.003682 0.000000 0.000000 0.000000
# 2 0.002826 0.008915 -0.002494 0.000000 0.000000 0.000000
# 3 -0.003682 -0.002494 0.016918 0.000000 0.000000 0.000000
# 4 0.000000 0.000000 0.000000 0.008018 0.000000 0.000000
# 5 0.000000 0.000000 0.000000 0.000000 0.020698 0.000000
# 6 0.000000 0.000000 0.000000 0.000000 0.000000 0.005821
#
#
# Mechanical properties :
#
#
# Convention : Reuss Voigt Hill
#
# Bulk Modulus (GPa) = 33.06028 33.18820 33.12424
# Shear Modulus (GPa) = 56.64691 88.24347 72.44519
#
# Velocity S-wave (km/s) = 4.75752 5.93792 5.38019
# Velocity P-wave (km/s) = 6.58699 7.76354 7.19934
#
# Compressibility (1/GPa) = 0.03024778
#
# Stress axis : x y z
#
# Youngs Moduli (GPa) = 89.97441 112.16933 59.10822
#
# Poissons Ratio (x) = -0.31696 0.21762
# Poissons Ratio (y) = -0.25425 0.14741
# Poissons Ratio (z) = 0.33125 0.27975
#
# Static dielectric constant tensor:
#      x y z
#    x 4.085960 0.000000 0.000000 
#    y 0.000000 4.231260 0.000000 
#    z 0.000000 0.000000 4.496130 
# 
# 
# High freq. dielectric constant tensor:
#      x y z
#    x 1.999300 0.000000 0.000000 
#    y 0.000000 1.987760 0.000000 
#    z 0.000000 0.000000 2.012620 
# 
# From -- ./inp_files/139.got.cif
#   From: 2010.03.12/outbox.cif.g09.slc.cpg/sg19_1_cif.got.tgz:139.got - 2010.04.10 18:59:41.
