data_PCOD8156731
_publ_section_title
;
Structure prediction by ZEFSAII (Michael W. Deem and Ramdas Pophale) SiO2 
 PCOD8156731
Probable space group: P 21 21 21
;
_chemical_formula_sum "Si O2"
_cell_formula_units_Z 32
_cell_length_a 15.362012
_cell_length_b 8.444656
_cell_length_c 12.027067
_cell_angle_alpha 90.000000
_cell_angle_beta 90.000000
_cell_angle_gamma 90.000000
_cell_volume 1560.234200
_symmetry_space_group_name_H-M "P 21 21 21"
_symmetry_group_IT_number 19
_symmetry_cell_setting 'orthorhombic'
loop_
_space_group_symop_operation_xyz
x,y,z
1/2-x,-y,1/2+z
1/2+x,1/2-y,-z
-x,1/2+y,1/2-z
loop_
_atom_site_type_symbol
_atom_site_label
_atom_site_fract_x
_atom_site_fract_y
_atom_site_fract_z
Si Si1 0.115994 0.567635 0.951605
Si Si2 0.804363 0.225009 0.232563
Si Si3 0.170228 0.068269 0.879143
Si Si4 0.596964 0.618782 0.921548
Si Si5 0.006312 0.277780 0.890737
Si Si6 0.729367 0.984625 0.402943
Si Si7 0.658735 0.736793 0.252022
Si Si8 0.421776 0.437621 0.938228
O O1 0.038188 0.454005 0.916042
O O2 0.165446 0.633973 0.844834
O O3 0.078364 0.711884 0.022791
O O4 0.185498 0.466628 0.021609
O O5 0.749851 0.308487 0.133052
O O6 0.854752 0.358018 0.304285
O O7 0.740363 0.124747 0.312771
O O8 0.873419 0.108925 0.175187
O O9 0.191466 0.933792 0.787716
O O10 0.081549 0.159120 0.851046
O O11 0.160022 0.989926 0.001185
O O12 0.501607 0.548110 0.902572
O O13 0.941146 0.283965 0.787610
O O14 0.959145 0.218340 0.002279
O O15 0.718357 0.809768 0.349414
O O16 0.644183 0.027353 0.476970
#
# Coordination Sequence:
#
# PCOD8156731 Si02
#       8
#     4   4   4   4   4   4   4   4
#     4  10  20  38  58  83 116 153 197 248 296 355
#     4  11  23  40  63  87 116 160 198 241 304 359
#     4  10  21  37  58  87 122 153 196 250 292 355
#     4   9  23  42  59  87 122 155 198 248 298 356
#     4  10  20  34  58  85 115 154 196 243 298 354
#     4  10  21  37  59  84 114 155 200 241 297 356
#     4  10  20  34  55  85 116 155 198 246 298 350
#     4  10  22  40  58  84 119 153 195 247 295 355
#
# _framework density 20.509741999999999
#
# number of rings (size 3 to 8) (size 9 to 14) (size 15 to 20)
#    0.000    2.000    0.000    3.000    0.000   11.000 
#    0.000    7.500    0.000    0.000    0.000    0.000 
#    0.000    0.000    0.000    0.000    0.000    0.000 
#
# Total GULP energy -396813.508385 kJ/mol
# GULP energy per Si atom -12400.422137 kJ/mol
# Density = 2.046306 g / cm^3
# Si number density = 20.509742 Si / 1000 Ang^3
#
#
#
# Elastic Constant Matrix: (Units=GPa)
#
#
# Indices 1 2 3 4 5 6 
#
# 1 97.7709 44.5590 51.7202 0.0000 0.0000 0.0000
# 2 44.5590 86.5615 37.9292 0.0000 0.0000 0.0000
# 3 51.7202 37.9292 97.7079 0.0000 0.0000 0.0000
# 4 0.0000 0.0000 0.0000 26.6550 0.0000 0.0000
# 5 0.0000 0.0000 0.0000 0.0000 29.6179 0.0000
# 6 0.0000 0.0000 0.0000 0.0000 0.0000 41.2135
#
#
#
# Elastic Compliance Matrix: (Units=1/GPa)
#
#
# Indices 1 2 3 4 5 6 
#
# 1 0.016116 -0.005492 -0.006399 0.000000 0.000000 0.000000
# 2 -0.005492 0.015792 -0.003223 0.000000 0.000000 0.000000
# 3 -0.006399 -0.003223 0.014873 0.000000 0.000000 0.000000
# 4 0.000000 0.000000 0.000000 0.037516 0.000000 0.000000
# 5 0.000000 0.000000 0.000000 0.000000 0.033763 0.000000
# 6 0.000000 0.000000 0.000000 0.000000 0.000000 0.024264
#
#
# Mechanical properties :
#
#
# Convention : Reuss Voigt Hill
#
# Bulk Modulus (GPa) = 60.41290 61.16190 60.78740
# Shear Modulus (GPa) = 28.07887 29.35275 28.71581
#
# Velocity S-wave (km/s) = 3.70408 3.78717 3.74586
# Velocity P-wave (km/s) = 6.91472 7.00066 6.95782
#
# Compressibility (1/GPa) = 0.01655276
#
# Stress axis : x y z
#
# Youngs Moduli (GPa) = 62.05037 63.32344 67.23674
#
# Poissons Ratio (x) = 0.34778 0.43023
# Poissons Ratio (y) = 0.34079 0.21671
# Poissons Ratio (z) = 0.39704 0.20410
#
# Static dielectric constant tensor:
#      x y z
#    x 3.670580 0.000000 0.000000 
#    y 0.000000 3.702560 0.000000 
#    z 0.000000 0.000000 3.743320 
# 
# 
# High freq. dielectric constant tensor:
#      x y z
#    x 1.796150 0.000000 0.000000 
#    y 0.000000 1.802360 0.000000 
#    z 0.000000 0.000000 1.804580 
# 
# From -- ./inp_files/3942.got.cif
#   From: 2010.03.12/outbox.cif.g09.slc.cpg/sg19_2_cif.got.tgz:3942.got - 2010.04.10 18:59:41.
