data_PCOD8156404
_publ_section_title
;
Structure prediction by ZEFSAII (Michael W. Deem and Ramdas Pophale) SiO2 
 PCOD8156404
Probable space group: P 21 21 2
;
_chemical_formula_sum "Si O2"
_cell_formula_units_Z 32
_cell_length_a 8.462444
_cell_length_b 13.249966
_cell_length_c 12.280417
_cell_angle_alpha 90.000000
_cell_angle_beta 90.000000
_cell_angle_gamma 90.000000
_cell_volume 1376.967487
_symmetry_space_group_name_H-M "P 21 21 2"
_symmetry_group_IT_number 18
_symmetry_cell_setting 'orthorhombic'
loop_
_space_group_symop_operation_xyz
x,y,z
-x,-y,z
1/2+x,1/2-y,-z
1/2-x,1/2+y,-z
loop_
_atom_site_type_symbol
_atom_site_label
_atom_site_fract_x
_atom_site_fract_y
_atom_site_fract_z
Si Si1 0.901178 0.726363 0.371671
Si Si2 0.593489 0.227389 0.180373
Si Si3 0.816843 0.004687 0.427775
Si Si4 0.682944 0.029053 0.065849
Si Si5 0.251152 0.762029 0.407798
Si Si6 0.767887 0.374966 0.761788
Si Si7 0.841710 0.947345 0.855584
Si Si8 0.320350 0.990290 0.647211
O O1 0.836155 0.779582 0.482609
O O2 0.878599 0.802524 0.269644
O O3 0.795669 0.629949 0.339619
O O4 0.086105 0.703221 0.389038
O O5 0.694781 0.142109 0.115980
O O6 0.646364 0.255881 0.301322
O O7 0.414435 0.190840 0.195384
O O8 0.617982 0.331189 0.111245
O O9 0.765170 0.119560 0.423471
O O10 0.790130 0.964800 0.551295
O O11 0.701307 0.942865 0.346211
O O12 0.000000 0.000000 0.393261
O O13 0.500000 0.000000 0.054360
O O14 0.778416 0.952991 0.144053
O O15 0.770215 0.016340 0.951491
O O16 0.715854 0.949976 0.757657
O O17 0.000000 0.000000 0.812948
O O18 0.500000 0.000000 0.610904
#
# Coordination Sequence:
#
# PCOD8156404 Si02
#       8
#     4   4   4   4   4   4   4   4
#     4  11  24  37  64  97 139 185 231 289 350 431
#     4  11  25  44  71 101 138 181 233 292 357 434
#     4  11  23  39  66 101 143 180 230 296 347 428
#     4  10  25  47  73 102 133 179 237 300 362 428
#     4  11  23  39  62  99 138 182 234 281 355 424
#     4  11  23  43  70 103 139 179 228 299 355 429
#     4  12  27  47  71  99 142 185 239 301 359 432
#     4  11  26  42  64  98 139 193 236 289 358 427
#
# _framework density 23.239474999999999
#
# number of rings (size 3 to 8) (size 9 to 14) (size 15 to 20)
#    0.000    1.000    2.500    3.000    7.000    6.500 
#    0.000    0.000    0.000    0.000    0.000    0.000 
#    0.000    0.000    0.000    0.000    0.000    0.000 
#
# Total GULP energy -396711.211404 kJ/mol
# GULP energy per Si atom -12397.225356 kJ/mol
# Density = 2.318658 g / cm^3
# Si number density = 23.239475 Si / 1000 Ang^3
#
#
#
# Elastic Constant Matrix: (Units=GPa)
#
#
# Indices 1 2 3 4 5 6 
#
# 1 58.2943 6.2880 7.9246 0.0000 0.0000 0.0000
# 2 6.2880 92.3687 21.8169 0.0000 0.0000 0.0000
# 3 7.9246 21.8169 96.2391 0.0000 0.0000 0.0000
# 4 0.0000 0.0000 0.0000 25.4990 0.0000 0.0000
# 5 0.0000 0.0000 0.0000 0.0000 36.6552 0.0000
# 6 0.0000 0.0000 0.0000 0.0000 0.0000 25.3930
#
#
#
# Elastic Compliance Matrix: (Units=1/GPa)
#
#
# Indices 1 2 3 4 5 6 
#
# 1 0.017418 -0.000895 -0.001231 0.000000 0.000000 0.000000
# 2 -0.000895 0.011485 -0.002530 0.000000 0.000000 0.000000
# 3 -0.001231 -0.002530 0.011066 0.000000 0.000000 0.000000
# 4 0.000000 0.000000 0.000000 0.039217 0.000000 0.000000
# 5 0.000000 0.000000 0.000000 0.000000 0.027281 0.000000
# 6 0.000000 0.000000 0.000000 0.000000 0.000000 0.039381
#
#
# Mechanical properties :
#
#
# Convention : Reuss Voigt Hill
#
# Bulk Modulus (GPa) = 32.61969 35.44013 34.02991
# Shear Modulus (GPa) = 30.23359 31.56762 30.90061
#
# Velocity S-wave (km/s) = 3.61079 3.68959 3.65041
# Velocity P-wave (km/s) = 5.60808 5.78220 5.69581
#
# Compressibility (1/GPa) = 0.03065633
#
# Stress axis : x y z
#
# Youngs Moduli (GPa) = 57.41102 87.07294 90.36952
#
# Poissons Ratio (x) = 0.07792 0.11128
# Poissons Ratio (y) = 0.05138 0.22862
# Poissons Ratio (z) = 0.07070 0.22028
#
# Static dielectric constant tensor:
#      x y z
#    x 3.941410 0.000000 0.000000 
#    y 0.000000 4.713650 0.000000 
#    z 0.000000 0.000000 4.150740 
# 
# 
# High freq. dielectric constant tensor:
#      x y z
#    x 1.901520 0.000000 0.000000 
#    y 0.000000 1.948700 0.000000 
#    z 0.000000 0.000000 1.908430 
# 
# From -- ./inp_files/5681.got.cif
#   From: 2010.03.12/outbox.cif.g09.slc.cpg/sg18_3_cif.got.tgz:5681.got - 2010.04.10 18:53:55.
