data_PCOD8156385
_publ_section_title
;
Structure prediction by ZEFSAII (Michael W. Deem and Ramdas Pophale) SiO2 
 PCOD8156385
Probable space group: P 21 21 2
;
_chemical_formula_sum "Si O2"
_cell_formula_units_Z 20
_cell_length_a 8.120091
_cell_length_b 9.175821
_cell_length_c 11.205536
_cell_angle_alpha 90.000000
_cell_angle_beta 90.000000
_cell_angle_gamma 90.000000
_cell_volume 834.907696
_symmetry_space_group_name_H-M "P 21 21 2"
_symmetry_group_IT_number 18
_symmetry_cell_setting 'orthorhombic'
loop_
_space_group_symop_operation_xyz
x,y,z
-x,-y,z
1/2+x,1/2-y,-z
1/2-x,1/2+y,-z
loop_
_atom_site_type_symbol
_atom_site_label
_atom_site_fract_x
_atom_site_fract_y
_atom_site_fract_z
Si Si1 0.006843 0.834668 0.379730
Si Si2 0.571931 0.844192 0.146194
Si Si3 0.629318 0.373290 0.010719
Si Si4 0.666288 0.670611 0.364887
Si Si5 0.669011 0.915218 0.753833
O O1 0.064547 0.825320 0.515223
O O2 0.135239 0.746777 0.296139
O O3 0.826173 0.769657 0.375369
O O4 0.000000 0.000000 0.333028
O O5 0.465933 0.777178 0.037339
O O6 0.553016 0.736691 0.259129
O O7 0.500000 0.000000 0.181899
O O8 0.763830 0.852168 0.108991
O O9 0.500000 0.500000 0.986022
O O10 0.750881 0.413834 0.117043
O O11 0.711522 0.502687 0.336850
O O12 0.500000 0.000000 0.766410
#
# Coordination Sequence:
#
# PCOD8156385 Si02
#       5
#     4   4   4   4   4
#     4  11  26  43  76 104 146 186 256 304 371 439
#     4  12  29  45  74 113 148 192 259 305 378 449
#     4  12  26  49  77 102 152 196 249 311 378 448
#     4  11  26  46  70 107 146 202 234 310 374 451
#     4  10  24  47  73 102 147 198 243 302 382 448
#
# _framework density 23.954740999999999
#
# number of rings (size 3 to 8) (size 9 to 14) (size 15 to 20)
#    0.000    0.800    2.000    3.000   14.000    3.200 
#    0.000    0.000    0.000    0.000    0.000    0.000 
#    0.000    0.000    0.000    0.000    0.000    0.000 
#
# Total GULP energy -248182.467533 kJ/mol
# GULP energy per Si atom -12409.123377 kJ/mol
# Density = 2.390022 g / cm^3
# Si number density = 23.954741 Si / 1000 Ang^3
#
#
#
# Elastic Constant Matrix: (Units=GPa)
#
#
# Indices 1 2 3 4 5 6 
#
# 1 47.2415 25.3110 21.6134 0.0000 0.0000 0.0000
# 2 25.3110 168.7435 19.3077 0.0000 0.0000 0.0000
# 3 21.6134 19.3077 64.0884 0.0000 0.0000 0.0000
# 4 0.0000 0.0000 0.0000 20.6918 0.0000 0.0000
# 5 0.0000 0.0000 0.0000 0.0000 45.3574 0.0000
# 6 0.0000 0.0000 0.0000 0.0000 0.0000 35.5383
#
#
#
# Elastic Compliance Matrix: (Units=1/GPa)
#
#
# Indices 1 2 3 4 5 6 
#
# 1 0.026467 -0.003054 -0.008006 0.000000 0.000000 0.000000
# 2 -0.003054 0.006490 -0.000925 0.000000 0.000000 0.000000
# 3 -0.008006 -0.000925 0.018582 0.000000 0.000000 0.000000
# 4 0.000000 0.000000 0.000000 0.048328 0.000000 0.000000
# 5 0.000000 0.000000 0.000000 0.000000 0.022047 0.000000
# 6 0.000000 0.000000 0.000000 0.000000 0.000000 0.028139
#
#
# Mechanical properties :
#
#
# Convention : Reuss Voigt Hill
#
# Bulk Modulus (GPa) = 36.27258 45.83750 41.05504
# Shear Modulus (GPa) = 27.29075 34.57362 30.93219
#
# Velocity S-wave (km/s) = 3.37896 3.80319 3.59733
# Velocity P-wave (km/s) = 5.51345 6.20179 5.86772
#
# Compressibility (1/GPa) = 0.02756904
#
# Stress axis : x y z
#
# Youngs Moduli (GPa) = 37.78337 154.08064 53.81534
#
# Poissons Ratio (x) = 0.47055 0.43083
# Poissons Ratio (y) = 0.11539 0.04980
# Poissons Ratio (z) = 0.30248 0.14258
#
# Static dielectric constant tensor:
#      x y z
#    x 4.615480 0.000000 0.000000 
#    y 0.000000 4.679520 0.000000 
#    z 0.000000 0.000000 4.246710 
# 
# 
# High freq. dielectric constant tensor:
#      x y z
#    x 1.969000 0.000000 0.000000 
#    y 0.000000 1.960990 0.000000 
#    z 0.000000 0.000000 1.950640 
# 
# From -- ./inp_files/5397.got.cif
#   From: 2010.03.12/outbox.cif.g09.slc.cpg/sg18_3_cif.got.tgz:5397.got - 2010.04.10 18:53:55.
