data_PCOD8156088
_publ_section_title
;
Structure prediction by ZEFSAII (Michael W. Deem and Ramdas Pophale) SiO2 
 PCOD8156088
Probable space group: P 21 21 2
;
_chemical_formula_sum "Si O2"
_cell_formula_units_Z 32
_cell_length_a 8.298788
_cell_length_b 13.209101
_cell_length_c 14.235346
_cell_angle_alpha 90.000000
_cell_angle_beta 90.000000
_cell_angle_gamma 90.000000
_cell_volume 1560.471922
_symmetry_space_group_name_H-M "P 21 21 2"
_symmetry_group_IT_number 18
_symmetry_cell_setting 'orthorhombic'
loop_
_space_group_symop_operation_xyz
x,y,z
-x,-y,z
1/2+x,1/2-y,-z
1/2-x,1/2+y,-z
loop_
_atom_site_type_symbol
_atom_site_label
_atom_site_fract_x
_atom_site_fract_y
_atom_site_fract_z
Si Si1 0.312058 0.498113 0.955618
Si Si2 0.694310 0.134413 0.694162
Si Si3 0.498205 0.241970 0.341578
Si Si4 0.124011 0.692510 0.958675
Si Si5 0.101004 0.398574 0.815483
Si Si6 0.351987 0.557805 0.390577
Si Si7 0.460940 0.112810 0.521545
Si Si8 0.640109 0.137676 0.909572
O O1 0.500000 0.500000 0.981419
O O2 0.266104 0.613743 0.937233
O O3 0.273960 0.429935 0.861576
O O4 0.188633 0.468439 0.040848
O O5 0.813141 0.232523 0.687862
O O6 0.551846 0.143805 0.617615
O O7 0.622301 0.130741 0.798123
O O8 0.775805 0.025349 0.678439
O O9 0.600731 0.158699 0.283784
O O10 0.586443 0.348709 0.328979
O O11 0.500298 0.199802 0.447261
O O12 0.204703 0.800509 0.946651
O O13 0.981465 0.682114 0.883717
O O14 0.033867 0.680900 0.058807
O O15 0.000000 0.500000 0.804618
O O16 0.500000 0.500000 0.443970
O O17 0.230646 0.607408 0.464330
O O18 0.500000 0.000000 0.484791
#
# Coordination Sequence:
#
# PCOD8156088 Si02
#       8
#     4   4   4   4   4   4   4   4
#     4  10  22  39  59  86 124 159 204 262 307 370
#     4  10  22  39  61  89 125 160 205 262 306 373
#     4  11  19  38  63  89 119 167 200 253 315 373
#     4  10  21  39  60  87 119 161 203 259 305 376
#     4   9  19  37  59  82 117 158 204 249 312 365
#     4   9  21  38  57  88 127 158 203 256 303 365
#     4  10  21  38  61  91 124 162 205 257 305 367
#     4  11  21  40  61  90 119 167 207 255 323 372
#
# _framework density 20.506616999999999
#
# number of rings (size 3 to 8) (size 9 to 14) (size 15 to 20)
#    0.000    2.000    1.250    3.000    0.000    4.500 
#   11.250    0.000    0.000    6.000    0.000    0.000 
#    0.000    0.000    0.000    0.000    0.000    0.000 
#
# Total GULP energy -396481.146937 kJ/mol
# GULP energy per Si atom -12390.035842 kJ/mol
# Density = 2.045994 g / cm^3
# Si number density = 20.506617 Si / 1000 Ang^3
#
#
#
# Elastic Constant Matrix: (Units=GPa)
#
#
# Indices 1 2 3 4 5 6 
#
# 1 79.2767 10.1254 33.1166 0.0000 0.0000 0.0000
# 2 10.1254 58.0266 31.0186 0.0000 0.0000 0.0000
# 3 33.1166 31.0186 129.5511 0.0000 0.0000 0.0000
# 4 0.0000 0.0000 0.0000 20.5381 0.0000 0.0000
# 5 0.0000 0.0000 0.0000 0.0000 21.4860 0.0000
# 6 0.0000 0.0000 0.0000 0.0000 0.0000 23.5376
#
#
#
# Elastic Compliance Matrix: (Units=1/GPa)
#
#
# Indices 1 2 3 4 5 6 
#
# 1 0.014141 -0.000614 -0.003468 0.000000 0.000000 0.000000
# 2 -0.000614 0.019790 -0.004581 0.000000 0.000000 0.000000
# 3 -0.003468 -0.004581 0.009702 0.000000 0.000000 0.000000
# 4 0.000000 0.000000 0.000000 0.048690 0.000000 0.000000
# 5 0.000000 0.000000 0.000000 0.000000 0.046542 0.000000
# 6 0.000000 0.000000 0.000000 0.000000 0.000000 0.042485
#
#
# Mechanical properties :
#
#
# Convention : Reuss Voigt Hill
#
# Bulk Modulus (GPa) = 38.01263 46.15283 42.08273
# Shear Modulus (GPa) = 24.10276 25.95193 25.02735
#
# Velocity S-wave (km/s) = 3.43208 3.56130 3.49729
# Velocity P-wave (km/s) = 5.85513 6.28217 6.07241
#
# Compressibility (1/GPa) = 0.02630704
#
# Stress axis : x y z
#
# Youngs Moduli (GPa) = 70.71596 50.53161 103.06774
#
# Poissons Ratio (x) = 0.03101 0.35742
# Poissons Ratio (y) = 0.04340 0.47219
# Poissons Ratio (z) = 0.24523 0.23150
#
# Static dielectric constant tensor:
#      x y z
#    x 3.842950 0.000000 0.000000 
#    y 0.000000 3.803630 0.000000 
#    z 0.000000 0.000000 3.499150 
# 
# 
# High freq. dielectric constant tensor:
#      x y z
#    x 1.800190 0.000000 0.000000 
#    y 0.000000 1.813830 0.000000 
#    z 0.000000 0.000000 1.777860 
# 
# From -- ./inp_files/5656.got.cif
#   From: 2010.03.12/outbox.cif.g09.slc.cpg/sg18_3_cif.got.tgz:5656.got - 2010.04.10 18:53:55.
