data_PCOD8156364
_publ_section_title
;
Structure prediction by ZEFSAII (Michael W. Deem and Ramdas Pophale) SiO2 
 PCOD8156364
Probable space group: P 21 21 2
;
_chemical_formula_sum "Si O2"
_cell_formula_units_Z 24
_cell_length_a 8.613180
_cell_length_b 20.077501
_cell_length_c 6.036893
_cell_angle_alpha 90.000000
_cell_angle_beta 90.000000
_cell_angle_gamma 90.000000
_cell_volume 1043.966729
_symmetry_space_group_name_H-M "P 21 21 2"
_symmetry_group_IT_number 18
_symmetry_cell_setting 'orthorhombic'
loop_
_space_group_symop_operation_xyz
x,y,z
-x,-y,z
1/2+x,1/2-y,-z
1/2-x,1/2+y,-z
loop_
_atom_site_type_symbol
_atom_site_label
_atom_site_fract_x
_atom_site_fract_y
_atom_site_fract_z
Si Si1 0.905460 0.259400 0.767687
Si Si2 0.751400 0.543421 0.685357
Si Si3 0.749067 0.937299 0.696920
Si Si4 0.282847 0.702653 0.157480
Si Si5 0.000000 0.500000 0.014700
Si Si6 0.186873 0.313764 0.538459
Si Si7 0.500000 0.500000 0.990921
O O1 0.031527 0.211186 0.889497
O O2 0.999996 0.300740 0.573885
O O3 0.759020 0.215178 0.686928
O O4 0.823737 0.310254 0.941257
O O5 0.747458 0.476796 0.534641
O O6 0.891120 0.543701 0.858678
O O7 0.771486 0.608365 0.534896
O O8 0.595235 0.548842 0.828608
O O9 0.761796 0.857761 0.665154
O O10 0.589507 0.949968 0.824737
O O11 0.891082 0.956340 0.854907
O O12 0.225048 0.772306 0.267592
#
# Coordination Sequence:
#
# PCOD8156364 Si02
#       7
#     4   4   4   4   2   4   2
#     4  10  25  42  68 100 136 174 226 280 341 407
#     4  11  24  44  67  98 137 178 222 282 336 406
#     4  11  24  42  69  96 138 177 234 273 346 399
#     4  10  26  44  69  99 135 183 227 284 338 410
#     4  10  24  44  62 100 130 182 224 286 324 412
#     4  10  26  41  71  99 138 174 229 275 350 400
#     4  10  26  38  68  98 134 178 228 278 338 400
#
# _framework density 22.989238
#
# number of rings (size 3 to 8) (size 9 to 14) (size 15 to 20)
#    1.000    0.667    0.000    2.000    9.333    6.667 
#    0.000    0.000    0.000    0.000    0.000    0.000 
#    0.000    0.000    0.000    0.000    0.000    0.000 
#
# Total GULP energy -297343.273679 kJ/mol
# GULP energy per Si atom -12389.303070 kJ/mol
# Density = 2.293691 g / cm^3
# Si number density = 22.989238 Si / 1000 Ang^3
#
#
#
# Elastic Constant Matrix: (Units=GPa)
#
#
# Indices 1 2 3 4 5 6 
#
# 1 113.8506 14.8886 38.7033 0.0000 0.0000 0.0000
# 2 14.8886 77.4871 3.5809 0.0000 0.0000 0.0000
# 3 38.7033 3.5809 67.9544 0.0000 0.0000 0.0000
# 4 0.0000 0.0000 0.0000 38.2577 0.0000 0.0000
# 5 0.0000 0.0000 0.0000 0.0000 105.5099 0.0000
# 6 0.0000 0.0000 0.0000 0.0000 0.0000 14.1950
#
#
#
# Elastic Compliance Matrix: (Units=1/GPa)
#
#
# Indices 1 2 3 4 5 6 
#
# 1 0.011152 -0.001854 -0.006254 0.000000 0.000000 0.000000
# 2 -0.001854 0.013245 0.000358 0.000000 0.000000 0.000000
# 3 -0.006254 0.000358 0.018259 0.000000 0.000000 0.000000
# 4 0.000000 0.000000 0.000000 0.026139 0.000000 0.000000
# 5 0.000000 0.000000 0.000000 0.000000 0.009478 0.000000
# 6 0.000000 0.000000 0.000000 0.000000 0.000000 0.070447
#
#
# Mechanical properties :
#
#
# Convention : Reuss Voigt Hill
#
# Bulk Modulus (GPa) = 36.82406 41.51531 39.16969
# Shear Modulus (GPa) = 28.85655 45.06713 36.96184
#
# Velocity S-wave (km/s) = 3.54675 4.43240 4.01407
# Velocity P-wave (km/s) = 5.72934 6.65527 6.20959
#
# Compressibility (1/GPa) = 0.02715616
#
# Stress axis : x y z
#
# Youngs Moduli (GPa) = 89.67125 75.50004 54.76820
#
# Poissons Ratio (x) = 0.13996 0.34251
# Poissons Ratio (y) = 0.16623 -0.01960
# Poissons Ratio (z) = 0.56079 -0.02702
#
# Static dielectric constant tensor:
#      x y z
#    x 4.342340 0.000000 0.000000 
#    y 0.000000 3.759460 0.000000 
#    z 0.000000 0.000000 3.906620 
# 
# 
# High freq. dielectric constant tensor:
#      x y z
#    x 1.922100 0.000000 0.000000 
#    y 0.000000 1.892090 0.000000 
#    z 0.000000 0.000000 1.895690 
# 
# From -- ./inp_files/652.got.cif
#   From: 2010.03.12/outbox.cif.g09.slc.cpg/sg18_1_cif.got.tgz:652.got - 2010.04.10 18:53:55.
