data_PCOD8156530
_publ_section_title
;
Structure prediction by ZEFSAII (Michael W. Deem and Ramdas Pophale) SiO2 
 PCOD8156530
Probable space group: P 21 21 2
;
_chemical_formula_sum "Si O2"
_cell_formula_units_Z 16
_cell_length_a 8.524911
_cell_length_b 9.231425
_cell_length_c 8.057192
_cell_angle_alpha 90.000000
_cell_angle_beta 90.000000
_cell_angle_gamma 90.000000
_cell_volume 634.077455
_symmetry_space_group_name_H-M "P 21 21 2"
_symmetry_group_IT_number 18
_symmetry_cell_setting 'orthorhombic'
loop_
_space_group_symop_operation_xyz
x,y,z
-x,-y,z
1/2+x,1/2-y,-z
1/2-x,1/2+y,-z
loop_
_atom_site_type_symbol
_atom_site_label
_atom_site_fract_x
_atom_site_fract_y
_atom_site_fract_z
Si Si1 0.500000 0.500000 0.160493
Si Si2 0.000000 0.500000 0.071137
Si Si3 0.298825 0.746849 0.337692
Si Si4 0.065369 0.267222 0.308004
Si Si5 0.221404 0.008824 0.119334
O O1 0.418503 0.622219 0.275278
O O2 0.626160 0.566846 0.031383
O O3 0.109617 0.390814 0.176908
O O4 0.128605 0.591533 0.963028
O O5 0.340821 0.791544 0.524109
O O6 0.311332 0.887774 0.225004
O O7 0.117712 0.702776 0.340687
O O8 0.109252 0.110724 0.231011
#
# Coordination Sequence:
#
# PCOD8156530 Si02
#       5
#     2   2   4   4   4
#     4  12  26  54  84 118 164 218 280 340 410 494
#     4  12  30  50  84 120 164 220 278 342 410 490
#     4  12  30  50  84 118 168 219 271 345 415 498
#     4  12  30  52  80 121 169 217 275 336 423 493
#     4  12  28  54  83 119 162 219 277 341 410 494
#
# _framework density 25.233509999999999
#
# number of rings (size 3 to 8) (size 9 to 14) (size 15 to 20)
#    0.000    0.000    5.000    1.500   14.000    0.000 
#    0.000    0.000    0.000    0.000    0.000    0.000 
#    0.000    0.000    0.000    0.000    0.000    0.000 
#
# Total GULP energy -198226.403445 kJ/mol
# GULP energy per Si atom -12389.150215 kJ/mol
# Density = 2.517608 g / cm^3
# Si number density = 25.233510 Si / 1000 Ang^3
#
#
#
# Elastic Constant Matrix: (Units=GPa)
#
#
# Indices 1 2 3 4 5 6 
#
# 1 149.3528 44.0355 60.1003 0.0000 0.0000 0.0000
# 2 44.0355 108.1299 14.7030 0.0000 0.0000 0.0000
# 3 60.1003 14.7030 77.2076 0.0000 0.0000 0.0000
# 4 0.0000 0.0000 0.0000 25.2000 0.0000 0.0000
# 5 0.0000 0.0000 0.0000 0.0000 56.9106 0.0000
# 6 0.0000 0.0000 0.0000 0.0000 0.0000 52.3757
#
#
#
# Elastic Compliance Matrix: (Units=1/GPa)
#
#
# Indices 1 2 3 4 5 6 
#
# 1 0.010813 -0.003346 -0.007780 0.000000 0.000000 0.000000
# 2 -0.003346 0.010529 0.000599 0.000000 0.000000 0.000000
# 3 -0.007780 0.000599 0.018894 0.000000 0.000000 0.000000
# 4 0.000000 0.000000 0.000000 0.039683 0.000000 0.000000
# 5 0.000000 0.000000 0.000000 0.000000 0.017571 0.000000
# 6 0.000000 0.000000 0.000000 0.000000 0.000000 0.019093
#
#
# Mechanical properties :
#
#
# Convention : Reuss Voigt Hill
#
# Bulk Modulus (GPa) = 52.12824 63.59641 57.86233
# Shear Modulus (GPa) = 34.71527 41.28736 38.00132
#
# Velocity S-wave (km/s) = 3.71315 4.04940 3.88491
# Velocity P-wave (km/s) = 6.25192 6.86450 6.56536
#
# Compressibility (1/GPa) = 0.01918346
#
# Stress axis : x y z
#
# Youngs Moduli (GPa) = 92.48545 94.97467 52.92725
#
# Poissons Ratio (x) = 0.31774 0.41175
# Poissons Ratio (y) = 0.30941 -0.03171
# Poissons Ratio (z) = 0.71950 -0.05690
#
# Static dielectric constant tensor:
#      x y z
#    x 5.206750 0.000000 0.000000 
#    y 0.000000 4.150180 0.000000 
#    z 0.000000 0.000000 4.848690 
# 
# 
# High freq. dielectric constant tensor:
#      x y z
#    x 2.041360 0.000000 0.000000 
#    y 0.000000 1.981520 0.000000 
#    z 0.000000 0.000000 2.024460 
# 
# From -- ./inp_files/2793.got.cif
#   From: 2010.03.12/outbox.cif.g09.slc.cpg/sg18_2_cif.got.tgz:2793.got - 2010.04.10 18:53:55.
