data_PCOD8156073
_publ_section_title
;
Structure prediction by ZEFSAII (Michael W. Deem and Ramdas Pophale) SiO2 
 PCOD8156073
Probable space group: P 21 21 2
;
_chemical_formula_sum "Si O2"
_cell_formula_units_Z 24
_cell_length_a 15.709572
_cell_length_b 8.533214
_cell_length_c 8.683565
_cell_angle_alpha 90.000000
_cell_angle_beta 90.000000
_cell_angle_gamma 90.000000
_cell_volume 1164.059152
_symmetry_space_group_name_H-M "P 21 21 2"
_symmetry_group_IT_number 18
_symmetry_cell_setting 'orthorhombic'
loop_
_space_group_symop_operation_xyz
x,y,z
-x,-y,z
1/2+x,1/2-y,-z
1/2-x,1/2+y,-z
loop_
_atom_site_type_symbol
_atom_site_label
_atom_site_fract_x
_atom_site_fract_y
_atom_site_fract_z
Si Si1 0.328914 0.859609 0.114792
Si Si2 0.165500 0.999432 0.961669
Si Si3 0.723260 0.770037 0.629488
Si Si4 0.839164 0.047958 0.615270
Si Si5 0.933986 0.217787 0.177876
Si Si6 0.500000 0.500000 0.574864
Si Si7 0.500000 0.000000 0.017027
O O1 0.343542 0.687066 0.042003
O O2 0.295425 0.840573 0.290555
O O3 0.260843 0.954744 0.012930
O O4 0.416867 0.959430 0.119817
O O5 0.145578 0.922485 0.795317
O O6 0.093298 0.931237 0.073772
O O7 0.684931 0.707129 0.470745
O O8 0.651173 0.797991 0.757654
O O9 0.759391 0.937106 0.587143
O O10 0.920379 0.968676 0.535519
O O11 0.986200 0.347481 0.087175
O O12 0.990072 0.153967 0.319451
#
# Coordination Sequence:
#
# PCOD8156073 Si02
#       7
#     4   4   4   4   4   2   2
#     4  10  21  37  59  86 115 147 192 239 283 337
#     4  10  21  40  62  85 115 155 194 232 283 348
#     4   9  21  39  56  80 114 152 186 225 284 349
#     4  10  21  37  59  83 112 149 189 230 283 341
#     4  10  22  39  58  83 115 150 190 235 287 336
#     4  10  22  38  56  82 114 148 186 238 290 332
#     4  12  22  34  60  90 112 144 196 246 282 328
#
# _framework density 20.617507
#
# number of rings (size 3 to 8) (size 9 to 14) (size 15 to 20)
#    0.000    2.000    0.000    4.000    0.000   11.333 
#    0.000    3.333    0.000    5.000    0.000    0.000 
#    0.000    0.000    0.000    0.000    0.000    0.000 
#
# Total GULP energy -297579.208690 kJ/mol
# GULP energy per Si atom -12399.133695 kJ/mol
# Density = 2.057058 g / cm^3
# Si number density = 20.617507 Si / 1000 Ang^3
#
#
#
# Elastic Constant Matrix: (Units=GPa)
#
#
# Indices 1 2 3 4 5 6 
#
# 1 68.5476 -0.3747 12.7603 0.0000 0.0000 0.0000
# 2 -0.3747 44.9942 -6.8108 0.0000 0.0000 0.0000
# 3 12.7603 -6.8108 66.6592 0.0000 0.0000 0.0000
# 4 0.0000 0.0000 0.0000 20.8848 0.0000 0.0000
# 5 0.0000 0.0000 0.0000 0.0000 17.4565 0.0000
# 6 0.0000 0.0000 0.0000 0.0000 0.0000 36.7323
#
#
#
# Elastic Compliance Matrix: (Units=1/GPa)
#
#
# Indices 1 2 3 4 5 6 
#
# 1 0.015132 -0.000317 -0.002929 0.000000 0.000000 0.000000
# 2 -0.000317 0.022581 0.002368 0.000000 0.000000 0.000000
# 3 -0.002929 0.002368 0.015804 0.000000 0.000000 0.000000
# 4 0.000000 0.000000 0.000000 0.047882 0.000000 0.000000
# 5 0.000000 0.000000 0.000000 0.000000 0.057285 0.000000
# 6 0.000000 0.000000 0.000000 0.000000 0.000000 0.027224
#
#
# Mechanical properties :
#
#
# Convention : Reuss Voigt Hill
#
# Bulk Modulus (GPa) = 19.31991 21.26118 20.29054
# Shear Modulus (GPa) = 24.39994 26.65646 25.52820
#
# Velocity S-wave (km/s) = 3.44387 3.59960 3.52260
# Velocity P-wave (km/s) = 5.02042 5.25459 5.13884
#
# Compressibility (1/GPa) = 0.05176008
#
# Stress axis : x y z
#
# Youngs Moduli (GPa) = 66.08545 44.28523 63.27389
#
# Poissons Ratio (x) = 0.01405 0.18533
# Poissons Ratio (y) = 0.02097 -0.14983
# Poissons Ratio (z) = 0.19357 -0.10486
#
# Static dielectric constant tensor:
#      x y z
#    x 3.859130 0.000000 0.000000 
#    y 0.000000 3.517600 0.000000 
#    z 0.000000 0.000000 3.751720 
# 
# 
# High freq. dielectric constant tensor:
#      x y z
#    x 1.816200 0.000000 0.000000 
#    y 0.000000 1.795720 0.000000 
#    z 0.000000 0.000000 1.806230 
# 
# From -- ./inp_files/3184.got.cif
#   From: 2010.03.12/outbox.cif.g09.slc.cpg/sg18_2_cif.got.tgz:3184.got - 2010.04.10 18:53:55.
