data_PCOD8156836
_publ_section_title
;
Structure prediction by ZEFSAII (Michael W. Deem and Ramdas Pophale) SiO2 
 PCOD8156836
Probable space group: P 21 21 21
;
_chemical_formula_sum "Si O2"
_cell_formula_units_Z 28
_cell_length_a 7.690589
_cell_length_b 20.039424
_cell_length_c 8.387433
_cell_angle_alpha 90.000000
_cell_angle_beta 90.000000
_cell_angle_gamma 90.000000
_cell_volume 1292.629017
_symmetry_space_group_name_H-M "P 21 21 21"
_symmetry_group_IT_number 19
_symmetry_cell_setting 'orthorhombic'
loop_
_space_group_symop_operation_xyz
x,y,z
1/2-x,-y,1/2+z
1/2+x,1/2-y,-z
-x,1/2+y,1/2-z
loop_
_atom_site_type_symbol
_atom_site_label
_atom_site_fract_x
_atom_site_fract_y
_atom_site_fract_z
Si Si1 0.388723 0.331393 0.461501
Si Si2 0.373980 0.764416 0.795925
Si Si3 0.807805 0.598568 0.349038
Si Si4 0.942052 0.671519 0.636131
Si Si5 0.185494 0.298905 0.987339
Si Si6 0.866800 0.041418 0.339866
Si Si7 0.064832 0.440855 0.892764
O O1 0.235032 0.286424 0.399705
O O2 0.462845 0.287211 0.603845
O O3 0.524795 0.349464 0.319548
O O4 0.321521 0.400774 0.533249
O O5 0.269919 0.831119 0.740624
O O6 0.432278 0.724123 0.638420
O O7 0.848606 0.612465 0.536592
O O8 0.635822 0.552446 0.336144
O O9 0.969220 0.559984 0.270287
O O10 0.824167 0.738450 0.640263
O O11 0.119951 0.687393 0.543089
O O12 0.104838 0.362948 0.905088
O O13 0.695530 0.026393 0.235174
O O14 0.910337 0.974296 0.435005
#
# Coordination Sequence:
#
# PCOD8156836 Si02
#       7
#     4   4   4   4   4   4   4
#     4  10  22  38  62  97 139 163 214 279 329 394
#     4   9  21  36  63  98 129 167 212 271 341 384
#     4  10  23  47  65  97 131 170 227 277 331 399
#     4  10  20  38  68 100 135 167 219 278 340 393
#     4  10  20  38  64  96 132 171 217 267 329 401
#     4  11  28  44  65  96 133 177 227 279 319 409
#     4  12  26  45  71  90 135 183 224 273 335 388
#
# _framework density 21.661280000000001
#
# number of rings (size 3 to 8) (size 9 to 14) (size 15 to 20)
#    0.000    1.714    1.429    2.571    8.000    3.429 
#    0.000    2.857    0.000    0.000    0.000    0.000 
#    0.000    0.000    0.000    0.000    0.000    0.000 
#
# Total GULP energy -347130.847424 kJ/mol
# GULP energy per Si atom -12397.530265 kJ/mol
# Density = 2.161198 g / cm^3
# Si number density = 21.661280 Si / 1000 Ang^3
#
#
#
# Elastic Constant Matrix: (Units=GPa)
#
#
# Indices 1 2 3 4 5 6 
#
# 1 75.7360 11.2530 8.9947 0.0000 0.0000 0.0000
# 2 11.2530 49.2354 12.5480 0.0000 0.0000 0.0000
# 3 8.9947 12.5480 57.4773 0.0000 0.0000 0.0000
# 4 0.0000 0.0000 0.0000 43.6563 0.0000 0.0000
# 5 0.0000 0.0000 0.0000 0.0000 32.3978 0.0000
# 6 0.0000 0.0000 0.0000 0.0000 0.0000 22.4909
#
#
#
# Elastic Compliance Matrix: (Units=1/GPa)
#
#
# Indices 1 2 3 4 5 6 
#
# 1 0.013798 -0.002757 -0.001557 0.000000 0.000000 0.000000
# 2 -0.002757 0.022058 -0.004384 0.000000 0.000000 0.000000
# 3 -0.001557 -0.004384 0.018599 0.000000 0.000000 0.000000
# 4 0.000000 0.000000 0.000000 0.022906 0.000000 0.000000
# 5 0.000000 0.000000 0.000000 0.000000 0.030866 0.000000
# 6 0.000000 0.000000 0.000000 0.000000 0.000000 0.044463
#
#
# Mechanical properties :
#
#
# Convention : Reuss Voigt Hill
#
# Bulk Modulus (GPa) = 26.98425 27.55999 27.27212
# Shear Modulus (GPa) = 27.40629 29.68587 28.54608
#
# Velocity S-wave (km/s) = 3.56085 3.70599 3.63414
# Velocity P-wave (km/s) = 5.42131 5.57344 5.49790
#
# Compressibility (1/GPa) = 0.03705865
#
# Stress axis : x y z
#
# Youngs Moduli (GPa) = 72.47255 45.33508 53.76629
#
# Poissons Ratio (x) = 0.12498 0.08374
# Poissons Ratio (y) = 0.19979 0.23572
# Poissons Ratio (z) = 0.11287 0.19875
#
# Static dielectric constant tensor:
#      x y z
#    x 4.044000 0.000000 0.000000 
#    y 0.000000 3.825170 0.000000 
#    z 0.000000 0.000000 4.281770 
# 
# 
# High freq. dielectric constant tensor:
#      x y z
#    x 1.843320 0.000000 0.000000 
#    y 0.000000 1.840540 0.000000 
#    z 0.000000 0.000000 1.859810 
# 
# From -- ./inp_files/2986.got.cif
#   From: 2010.03.12/outbox.cif.g09.slc.cpg/sg19_2_cif.got.tgz:2986.got - 2010.04.10 18:59:41.
