data_PCOD8156237
_publ_section_title
;
Structure prediction by ZEFSAII (Michael W. Deem and Ramdas Pophale) SiO2 
 PCOD8156237
Probable space group: P 21 21 2
;
_chemical_formula_sum "Si O2"
_cell_formula_units_Z 20
_cell_length_a 8.268569
_cell_length_b 16.013717
_cell_length_c 6.635750
_cell_angle_alpha 90.000000
_cell_angle_beta 90.000000
_cell_angle_gamma 90.000000
_cell_volume 878.643134
_symmetry_space_group_name_H-M "P 21 21 2"
_symmetry_group_IT_number 18
_symmetry_cell_setting 'orthorhombic'
loop_
_space_group_symop_operation_xyz
x,y,z
-x,-y,z
1/2+x,1/2-y,-z
1/2-x,1/2+y,-z
loop_
_atom_site_type_symbol
_atom_site_label
_atom_site_fract_x
_atom_site_fract_y
_atom_site_fract_z
Si Si1 0.172136 0.674533 0.041482
Si Si2 0.672812 0.322138 0.456494
Si Si3 0.617474 0.567920 0.447839
Si Si4 0.671831 0.956380 0.292694
Si Si5 0.819998 0.688096 0.228588
O O1 0.303331 0.681909 0.218071
O O2 0.989897 0.676196 0.120594
O O3 0.203567 0.587259 0.923583
O O4 0.199153 0.755578 0.903337
O O5 0.494851 0.355436 0.517461
O O6 0.814881 0.382251 0.542210
O O7 0.669908 0.230311 0.550995
O O8 0.500000 0.500000 0.342495
O O9 0.698494 0.528114 0.649069
O O10 0.744999 0.596930 0.276433
O O11 0.500000 0.000000 0.301139
#
# Coordination Sequence:
#
# PCOD8156237 Si02
#       5
#     4   4   4   4   4
#     4  11  24  41  67 100 129 172 231 279 329 401
#     4  10  22  43  66  93 130 172 221 274 334 392
#     4  10  22  42  65  92 133 176 213 269 337 397
#     4  10  23  41  62  93 132 171 214 269 332 398
#     4  11  23  41  68  98 131 173 225 281 331 394
#
# _framework density 22.762370000000001
#
# number of rings (size 3 to 8) (size 9 to 14) (size 15 to 20)
#    0.000    1.600    0.000    3.600    0.000   10.400 
#    0.000   19.000    0.000    0.000    0.000    0.000 
#    0.000    0.000    0.000    0.000    0.000    0.000 
#
# Total GULP energy -247935.587025 kJ/mol
# GULP energy per Si atom -12396.779351 kJ/mol
# Density = 2.271056 g / cm^3
# Si number density = 22.762370 Si / 1000 Ang^3
#
#
#
# Elastic Constant Matrix: (Units=GPa)
#
#
# Indices 1 2 3 4 5 6 
#
# 1 137.0925 61.4783 65.4556 0.0000 0.0000 0.0000
# 2 61.4783 106.1485 66.6156 0.0000 0.0000 0.0000
# 3 65.4556 66.6156 138.2571 0.0000 0.0000 0.0000
# 4 0.0000 0.0000 0.0000 41.4762 0.0000 0.0000
# 5 0.0000 0.0000 0.0000 0.0000 31.6677 0.0000
# 6 0.0000 0.0000 0.0000 0.0000 0.0000 45.0542
#
#
#
# Elastic Compliance Matrix: (Units=1/GPa)
#
#
# Indices 1 2 3 4 5 6 
#
# 1 0.010638 -0.004301 -0.002964 0.000000 0.000000 0.000000
# 2 -0.004301 0.015243 -0.005308 0.000000 0.000000 0.000000
# 3 -0.002964 -0.005308 0.011194 0.000000 0.000000 0.000000
# 4 0.000000 0.000000 0.000000 0.024110 0.000000 0.000000
# 5 0.000000 0.000000 0.000000 0.000000 0.031578 0.000000
# 6 0.000000 0.000000 0.000000 0.000000 0.000000 0.022195
#
#
# Mechanical properties :
#
#
# Convention : Reuss Voigt Hill
#
# Bulk Modulus (GPa) = 83.83428 85.39966 84.61697
# Shear Modulus (GPa) = 34.70236 36.16954 35.43595
#
# Velocity S-wave (km/s) = 3.90878 3.99056 3.94988
# Velocity P-wave (km/s) = 7.56846 7.67021 7.61951
#
# Compressibility (1/GPa) = 0.01192829
#
# Stress axis : x y z
#
# Youngs Moduli (GPa) = 93.99825 65.60294 89.33498
#
# Poissons Ratio (x) = 0.28218 0.26480
# Poissons Ratio (y) = 0.40432 0.47420
# Poissons Ratio (z) = 0.27862 0.34823
#
# Static dielectric constant tensor:
#      x y z
#    x 4.211920 0.000000 0.000000 
#    y 0.000000 4.301440 0.000000 
#    z 0.000000 0.000000 4.033880 
# 
# 
# High freq. dielectric constant tensor:
#      x y z
#    x 1.908330 0.000000 0.000000 
#    y 0.000000 1.905960 0.000000 
#    z 0.000000 0.000000 1.882700 
# 
# From -- ./inp_files/510.got.cif
#   From: 2010.03.12/outbox.cif.g09.slc.cpg/sg18_1_cif.got.tgz:510.got - 2010.04.10 18:53:55.
