data_PCOD8156379
_publ_section_title
;
Structure prediction by ZEFSAII (Michael W. Deem and Ramdas Pophale) SiO2 
 PCOD8156379
Probable space group: P 21 21 2
;
_chemical_formula_sum "Si O2"
_cell_formula_units_Z 20
_cell_length_a 7.803182
_cell_length_b 11.501737
_cell_length_c 10.265943
_cell_angle_alpha 90.000000
_cell_angle_beta 90.000000
_cell_angle_gamma 90.000000
_cell_volume 921.369895
_symmetry_space_group_name_H-M "P 21 21 2"
_symmetry_group_IT_number 18
_symmetry_cell_setting 'orthorhombic'
loop_
_space_group_symop_operation_xyz
x,y,z
-x,-y,z
1/2+x,1/2-y,-z
1/2-x,1/2+y,-z
loop_
_atom_site_type_symbol
_atom_site_label
_atom_site_fract_x
_atom_site_fract_y
_atom_site_fract_z
Si Si1 0.500000 0.500000 0.744597
Si Si2 0.152427 0.412650 0.146580
Si Si3 0.656681 0.085711 0.148205
Si Si4 0.041979 0.250776 0.637659
Si Si5 0.158725 0.221157 0.360162
Si Si6 0.000000 0.000000 0.742907
O O1 0.335866 0.481107 0.836321
O O2 0.538437 0.391176 0.651159
O O3 0.117824 0.305570 0.240950
O O4 0.334787 0.474970 0.168216
O O5 0.000000 0.500000 0.175507
O O6 0.144179 0.365882 0.998687
O O7 0.655173 0.194873 0.246507
O O8 0.500000 0.000000 0.178830
O O9 0.123380 0.283073 0.498454
O O10 0.034451 0.111445 0.651998
O O11 0.857687 0.312363 0.644965
#
# Coordination Sequence:
#
# PCOD8156379 Si02
#       6
#     2   4   4   4   4   2
#     4  12  24  44  70 102 134 184 218 282 342 396
#     4  10  25  44  68  98 132 177 225 278 339 397
#     4  11  24  45  68  98 136 174 226 279 333 404
#     4  11  24  45  69 101 138 176 229 281 332 406
#     4  11  25  43  68 101 136 179 226 278 340 398
#     4  10  24  46  66 102 132 178 224 282 334 402
#
# _framework density 21.706809
#
# number of rings (size 3 to 8) (size 9 to 14) (size 15 to 20)
#    0.000    1.200    2.000    2.400    5.600    7.200 
#    0.000    0.000    0.000    0.000    0.000    0.000 
#    0.000    0.000    0.000    0.000    0.000    0.000 
#
# Total GULP energy -248091.152921 kJ/mol
# GULP energy per Si atom -12404.557646 kJ/mol
# Density = 2.165740 g / cm^3
# Si number density = 21.706809 Si / 1000 Ang^3
#
#
#
# Elastic Constant Matrix: (Units=GPa)
#
#
# Indices 1 2 3 4 5 6 
#
# 1 135.6253 56.3974 49.0037 0.0000 0.0000 0.0000
# 2 56.3974 100.5421 67.5083 0.0000 0.0000 0.0000
# 3 49.0037 67.5083 170.8429 0.0000 0.0000 0.0000
# 4 0.0000 0.0000 0.0000 -2.7284 0.0000 0.0000
# 5 0.0000 0.0000 0.0000 0.0000 32.6165 0.0000
# 6 0.0000 0.0000 0.0000 0.0000 0.0000 34.0485
#
#
#
# Elastic Compliance Matrix: (Units=1/GPa)
#
#
# Indices 1 2 3 4 5 6 
#
# 1 0.009709 -0.004867 -0.000861 0.000000 0.000000 0.000000
# 2 -0.004867 0.015978 -0.004918 0.000000 0.000000 0.000000
# 3 -0.000861 -0.004918 0.008044 0.000000 0.000000 0.000000
# 4 0.000000 0.000000 0.000000 -0.366515 0.000000 0.000000
# 5 0.000000 0.000000 0.000000 0.000000 0.030659 0.000000
# 6 0.000000 0.000000 0.000000 0.000000 0.000000 0.029370
#
#
# Mechanical properties :
#
#
# Convention : Reuss Voigt Hill
#
# Bulk Modulus (GPa) = 80.40214 83.64765 82.02490
# Shear Modulus (GPa) = -20.21699 28.39405 4.08853
#
# Velocity S-wave (km/s) = -3.05514 3.62065 1.37390
# Velocity P-wave (km/s) = 4.96742 7.48984 6.35504
#
# Compressibility (1/GPa) = 0.01243748
#
# Stress axis : x y z
#
# Youngs Moduli (GPa) = 103.00220 62.58478 124.32241
#
# Poissons Ratio (x) = 0.30463 0.10709
# Poissons Ratio (y) = 0.50136 0.61137
# Poissons Ratio (z) = 0.08872 0.30777
#
# Static dielectric constant tensor:
#      x y z
#    x 4.075470 0.000000 0.000000 
#    y 0.000000 3.566930 0.000000 
#    z 0.000000 0.000000 3.851730 
# 
# 
# High freq. dielectric constant tensor:
#      x y z
#    x 1.872010 0.000000 0.000000 
#    y 0.000000 1.841560 0.000000 
#    z 0.000000 0.000000 1.860610 
# 
# From -- ./inp_files/2989.got.cif
#   From: 2010.03.12/outbox.cif.g09.slc.cpg/sg18_2_cif.got.tgz:2989.got - 2010.04.10 18:53:55.
