data_PCOD8156748
_publ_section_title
;
Structure prediction by ZEFSAII (Michael W. Deem and Ramdas Pophale) SiO2 
 PCOD8156748
Probable space group: P 21 21 21
;
_chemical_formula_sum "Si O2"
_cell_formula_units_Z 24
_cell_length_a 14.406983
_cell_length_b 8.295516
_cell_length_c 9.538255
_cell_angle_alpha 90.000000
_cell_angle_beta 90.000000
_cell_angle_gamma 90.000000
_cell_volume 1139.948884
_symmetry_space_group_name_H-M "P 21 21 21"
_symmetry_group_IT_number 19
_symmetry_cell_setting 'orthorhombic'
loop_
_space_group_symop_operation_xyz
x,y,z
1/2-x,-y,1/2+z
1/2+x,1/2-y,-z
-x,1/2+y,1/2-z
loop_
_atom_site_type_symbol
_atom_site_label
_atom_site_fract_x
_atom_site_fract_y
_atom_site_fract_z
Si Si1 0.147151 0.914764 0.544388
Si Si2 0.554160 0.657680 0.859230
Si Si3 0.245814 0.935406 0.272658
Si Si4 0.404399 0.701783 0.328799
Si Si5 0.025756 0.625143 0.888805
Si Si6 0.013513 0.678397 0.423731
O O1 0.221699 0.982816 0.431827
O O2 0.110262 0.737392 0.498168
O O3 0.195344 0.920453 0.698072
O O4 0.059568 0.032232 0.539622
O O5 0.653004 0.590172 0.813993
O O6 0.486137 0.514689 0.911086
O O7 0.503555 0.747310 0.731309
O O8 0.574481 0.774801 0.988921
O O9 0.307771 0.771965 0.271663
O O10 0.401786 0.506870 0.327040
O O11 0.492183 0.757383 0.234641
O O12 0.424155 0.766182 0.486030
#
# Coordination Sequence:
#
# PCOD8156748 Si02
#       6
#     4   4   4   4   4   4
#     4   9  20  37  58  86 118 157 195 237 293 354
#     4  11  21  38  61  88 117 155 199 245 293 352
#     4  10  20  35  58  88 122 152 190 245 300 339
#     4  10  20  37  58  84 115 152 194 242 291 352
#     4  10  21  38  59  83 114 154 200 237 290 360
#     4  10  20  35  60  85 114 154 198 236 287 355
#
# _framework density 21.053577000000001
#
# number of rings (size 3 to 8) (size 9 to 14) (size 15 to 20)
#    0.000    2.000    0.000    5.000    0.000    2.667 
#    0.000   11.667    0.000   18.000    0.000    0.000 
#    0.000    0.000    0.000    0.000    0.000    0.000 
#
# Total GULP energy -297539.519544 kJ/mol
# GULP energy per Si atom -12397.479981 kJ/mol
# Density = 2.100566 g / cm^3
# Si number density = 21.053577 Si / 1000 Ang^3
#
#
#
# Elastic Constant Matrix: (Units=GPa)
#
#
# Indices 1 2 3 4 5 6 
#
# 1 59.1962 14.7367 19.0233 0.0000 0.0000 0.0000
# 2 14.7367 108.0888 38.9081 0.0000 0.0000 0.0000
# 3 19.0233 38.9081 87.8215 0.0000 0.0000 0.0000
# 4 0.0000 0.0000 0.0000 43.7804 0.0000 0.0000
# 5 0.0000 0.0000 0.0000 0.0000 31.5833 0.0000
# 6 0.0000 0.0000 0.0000 0.0000 0.0000 19.7316
#
#
#
# Elastic Compliance Matrix: (Units=1/GPa)
#
#
# Indices 1 2 3 4 5 6 
#
# 1 0.018302 -0.001271 -0.003401 0.000000 0.000000 0.000000
# 2 -0.001271 0.011095 -0.004640 0.000000 0.000000 0.000000
# 3 -0.003401 -0.004640 0.014179 0.000000 0.000000 0.000000
# 4 0.000000 0.000000 0.000000 0.022841 0.000000 0.000000
# 5 0.000000 0.000000 0.000000 0.000000 0.031662 0.000000
# 6 0.000000 0.000000 0.000000 0.000000 0.000000 0.050680
#
#
# Mechanical properties :
#
#
# Convention : Reuss Voigt Hill
#
# Bulk Modulus (GPa) = 40.07750 44.49363 42.28556
# Shear Modulus (GPa) = 28.45704 31.18163 29.81934
#
# Velocity S-wave (km/s) = 3.68047 3.85263 3.76753
# Velocity P-wave (km/s) = 6.09413 6.40076 6.24933
#
# Compressibility (1/GPa) = 0.02495166
#
# Stress axis : x y z
#
# Youngs Moduli (GPa) = 54.63748 90.12851 70.52500
#
# Poissons Ratio (x) = 0.11455 0.23989
# Poissons Ratio (y) = 0.06944 0.32726
# Poissons Ratio (z) = 0.18585 0.41822
#
# Static dielectric constant tensor:
#      x y z
#    x 3.652770 0.000000 0.000000 
#    y 0.000000 3.785400 0.000000 
#    z 0.000000 0.000000 4.113490 
# 
# 
# High freq. dielectric constant tensor:
#      x y z
#    x 1.804090 0.000000 0.000000 
#    y 0.000000 1.807820 0.000000 
#    z 0.000000 0.000000 1.846250 
# 
# From -- ./inp_files/2791.got.cif
#   From: 2010.03.12/outbox.cif.g09.slc.cpg/sg19_2_cif.got.tgz:2791.got - 2010.04.10 18:59:41.
