data_PCOD8156258
_publ_section_title
;
Structure prediction by ZEFSAII (Michael W. Deem and Ramdas Pophale) SiO2 
 PCOD8156258
Probable space group: P 21 21 2
;
_chemical_formula_sum "Si O2"
_cell_formula_units_Z 20
_cell_length_a 10.961587
_cell_length_b 13.890585
_cell_length_c 5.995720
_cell_angle_alpha 90.000000
_cell_angle_beta 90.000000
_cell_angle_gamma 90.000000
_cell_volume 912.925451
_symmetry_space_group_name_H-M "P 21 21 2"
_symmetry_group_IT_number 18
_symmetry_cell_setting 'orthorhombic'
loop_
_space_group_symop_operation_xyz
x,y,z
-x,-y,z
1/2+x,1/2-y,-z
1/2-x,1/2+y,-z
loop_
_atom_site_type_symbol
_atom_site_label
_atom_site_fract_x
_atom_site_fract_y
_atom_site_fract_z
Si Si1 0.255501 0.181697 0.093121
Si Si2 0.014447 0.605289 0.666871
Si Si3 0.138220 0.017689 0.338898
Si Si4 0.329307 0.050797 0.720746
Si Si5 0.703205 0.112857 0.058017
O O1 0.269733 0.142360 0.842496
O O2 0.381909 0.168301 0.221575
O O3 0.231025 0.294691 0.092386
O O4 0.149444 0.122804 0.222467
O O5 0.047173 0.589185 0.404677
O O6 0.000000 0.500000 0.778420
O O7 0.883641 0.649925 0.736013
O O8 0.231530 0.010448 0.543679
O O9 0.174985 0.934770 0.161313
O O10 0.000000 0.000000 0.418723
O O11 0.359662 0.965690 0.894562
#
# Coordination Sequence:
#
# PCOD8156258 Si02
#       5
#     4   4   4   4   4
#     4  10  24  42  63  97 127 166 220 270 323 383
#     4  11  21  42  66  95 123 174 224 260 328 387
#     4  10  23  42  60  93 133 170 213 256 330 387
#     4  10  22  43  66  88 134 166 214 268 327 380
#     4  11  24  42  69  95 130 174 215 276 324 385
#
# _framework density 21.907594
#
# number of rings (size 3 to 8) (size 9 to 14) (size 15 to 20)
#    0.000    1.600    6.000    0.000    5.600    6.400 
#    3.600    0.000    0.000    0.000    0.000    0.000 
#    0.000    0.000    0.000    0.000    0.000    0.000 
#
# Total GULP energy -247776.683782 kJ/mol
# GULP energy per Si atom -12388.834189 kJ/mol
# Density = 2.185773 g / cm^3
# Si number density = 21.907594 Si / 1000 Ang^3
#
#
#
# Elastic Constant Matrix: (Units=GPa)
#
#
# Indices 1 2 3 4 5 6 
#
# 1 69.5326 0.5753 19.6742 0.0000 0.0000 0.0000
# 2 0.5753 84.3836 15.9253 0.0000 0.0000 0.0000
# 3 19.6742 15.9253 101.2903 0.0000 0.0000 0.0000
# 4 0.0000 0.0000 0.0000 16.2592 0.0000 0.0000
# 5 0.0000 0.0000 0.0000 0.0000 29.2476 0.0000
# 6 0.0000 0.0000 0.0000 0.0000 0.0000 25.8623
#
#
#
# Elastic Compliance Matrix: (Units=1/GPa)
#
#
# Indices 1 2 3 4 5 6 
#
# 1 0.015236 0.000469 -0.003033 0.000000 0.000000 0.000000
# 2 0.000469 0.012227 -0.002013 0.000000 0.000000 0.000000
# 3 -0.003033 -0.002013 0.010778 0.000000 0.000000 0.000000
# 4 0.000000 0.000000 0.000000 0.061504 0.000000 0.000000
# 5 0.000000 0.000000 0.000000 0.000000 0.034191 0.000000
# 6 0.000000 0.000000 0.000000 0.000000 0.000000 0.038666
#
#
# Mechanical properties :
#
#
# Convention : Reuss Voigt Hill
#
# Bulk Modulus (GPa) = 34.38095 36.39511 35.38803
# Shear Modulus (GPa) = 26.11596 28.87593 27.49594
#
# Velocity S-wave (km/s) = 3.45642 3.63447 3.54656
# Velocity P-wave (km/s) = 5.62644 5.85334 5.74101
#
# Compressibility (1/GPa) = 0.02908587
#
# Stress axis : x y z
#
# Youngs Moduli (GPa) = 65.63377 81.78326 92.77901
#
# Poissons Ratio (x) = -0.03832 0.28140
# Poissons Ratio (y) = -0.03075 0.18681
# Poissons Ratio (z) = 0.19907 0.16467
#
# Static dielectric constant tensor:
#      x y z
#    x 4.101500 0.000000 0.000000 
#    y 0.000000 3.711630 0.000000 
#    z 0.000000 0.000000 4.103770 
# 
# 
# High freq. dielectric constant tensor:
#      x y z
#    x 1.850560 0.000000 0.000000 
#    y 0.000000 1.842330 0.000000 
#    z 0.000000 0.000000 1.869770 
# 
# From -- ./inp_files/976.got.cif
#   From: 2010.03.12/outbox.cif.g09.slc.cpg/sg18_1_cif.got.tgz:976.got - 2010.04.10 18:53:55.
