data_PCOD8156188
_publ_section_title
;
Structure prediction by ZEFSAII (Michael W. Deem and Ramdas Pophale) SiO2 
 PCOD8156188
Probable space group: P 21 21 2
;
_chemical_formula_sum "Si O2"
_cell_formula_units_Z 30
_cell_length_a 17.209147
_cell_length_b 14.414392
_cell_length_c 5.247378
_cell_angle_alpha 90.000000
_cell_angle_beta 90.000000
_cell_angle_gamma 90.000000
_cell_volume 1301.661390
_symmetry_space_group_name_H-M "P 21 21 2"
_symmetry_group_IT_number 18
_symmetry_cell_setting 'orthorhombic'
loop_
_space_group_symop_operation_xyz
x,y,z
-x,-y,z
1/2+x,1/2-y,-z
1/2-x,1/2+y,-z
loop_
_atom_site_type_symbol
_atom_site_label
_atom_site_fract_x
_atom_site_fract_y
_atom_site_fract_z
Si Si1 0.503902 0.674454 0.309767
Si Si2 0.781314 0.719933 0.458420
Si Si3 0.208926 0.387082 0.956835
Si Si4 0.000000 0.000000 0.332849
Si Si5 0.622431 0.558433 0.039642
Si Si6 0.320969 0.096536 0.977248
Si Si7 0.841002 0.874555 0.756156
Si Si8 0.875146 0.306508 0.522180
O O1 0.493655 0.592584 0.508289
O O2 0.568546 0.645481 0.105761
O O3 0.419464 0.684662 0.172391
O O4 0.536900 0.766134 0.451004
O O5 0.811753 0.680819 0.191322
O O6 0.809725 0.827321 0.494181
O O7 0.686971 0.721093 0.472382
O O8 0.817625 0.658586 0.690226
O O9 0.300877 0.397893 0.925950
O O10 0.170348 0.485541 0.017923
O O11 0.078128 0.003889 0.166058
O O12 0.640362 0.485400 0.273393
O O13 0.230855 0.132346 0.959068
O O14 0.370147 0.135129 0.738343
O O15 0.358318 0.128352 0.238865
#
# Coordination Sequence:
#
# PCOD8156188 Si02
#       8
#     4   4   4   2   4   4   4   4
#     4  12  23  39  59  93 136 170 206 257 330 405
#     4  11  22  39  64  92 126 162 216 266 317 380
#     4  11  23  41  67  89 122 171 219 266 319 366
#     4  12  22  34  62  92 136 174 202 248 320 426
#     4  11  22  38  56  91 132 171 202 250 322 407
#     4  10  24  42  64  91 124 170 221 269 312 379
#     4  10  22  39  57  94 130 158 206 265 325 383
#     4  11  23  41  64  91 130 171 220 258 316 396
#
# _framework density 23.047471000000002
#
# number of rings (size 3 to 8) (size 9 to 14) (size 15 to 20)
#    0.000    1.067    4.000    3.200    1.867    5.333 
#    0.000    0.000    0.000    4.800    0.000    0.000 
#    0.000    0.000    0.000    0.000    0.000    0.000 
#
# Total GULP energy -371771.982785 kJ/mol
# GULP energy per Si atom -12392.399426 kJ/mol
# Density = 2.299501 g / cm^3
# Si number density = 23.047471 Si / 1000 Ang^3
#
#
#
# Elastic Constant Matrix: (Units=GPa)
#
#
# Indices 1 2 3 4 5 6 
#
# 1 53.6847 -4.5057 -9.7202 0.0000 0.0000 0.0000
# 2 -4.5057 63.3893 21.2685 0.0000 0.0000 0.0000
# 3 -9.7202 21.2685 100.0875 0.0000 0.0000 0.0000
# 4 0.0000 0.0000 0.0000 -0.6136 0.0000 0.0000
# 5 0.0000 0.0000 0.0000 0.0000 31.5347 0.0000
# 6 0.0000 0.0000 0.0000 0.0000 0.0000 34.4059
#
#
#
# Elastic Compliance Matrix: (Units=1/GPa)
#
#
# Indices 1 2 3 4 5 6 
#
# 1 0.018997 0.000787 0.001678 0.000000 0.000000 0.000000
# 2 0.000787 0.017019 -0.003540 0.000000 0.000000 0.000000
# 3 0.001678 -0.003540 0.010906 0.000000 0.000000 0.000000
# 4 0.000000 0.000000 0.000000 -1.629717 0.000000 0.000000
# 5 0.000000 0.000000 0.000000 0.000000 0.031711 0.000000
# 6 0.000000 0.000000 0.000000 0.000000 0.000000 0.029065
#
#
# Mechanical properties :
#
#
# Convention : Reuss Voigt Hill
#
# Bulk Modulus (GPa) = 22.33501 25.69407 24.01454
# Shear Modulus (GPa) = -3.32238 27.07335 11.87548
#
# Velocity S-wave (km/s) = -1.20194 3.43108 2.27240
# Velocity P-wave (km/s) = 2.79028 5.18352 4.16261
#
# Compressibility (1/GPa) = 0.04477276
#
# Stress axis : x y z
#
# Youngs Moduli (GPa) = 52.63955 58.75687 91.68888
#
# Poissons Ratio (x) = -0.04627 -0.15382
# Poissons Ratio (y) = -0.04145 0.32459
# Poissons Ratio (z) = -0.08831 0.20801
#
# Static dielectric constant tensor:
#      x y z
#    x 4.748430 0.000000 0.000000 
#    y 0.000000 4.178740 0.000000 
#    z 0.000000 0.000000 4.030840 
# 
# 
# High freq. dielectric constant tensor:
#      x y z
#    x 1.889210 0.000000 0.000000 
#    y 0.000000 1.905090 0.000000 
#    z 0.000000 0.000000 1.905250 
# 
# From -- ./inp_files/1855.got.cif
#   From: 2010.03.12/outbox.cif.g09.slc.cpg/sg18_1_cif.got.tgz:1855.got - 2010.04.10 18:53:55.
