data_PCOD8156815
_publ_section_title
;
Structure prediction by ZEFSAII (Michael W. Deem and Ramdas Pophale) SiO2 
 PCOD8156815
Probable space group: P 21 21 21
;
_chemical_formula_sum "Si O2"
_cell_formula_units_Z 32
_cell_length_a 11.456941
_cell_length_b 8.278379
_cell_length_c 17.642206
_cell_angle_alpha 90.000000
_cell_angle_beta 90.000000
_cell_angle_gamma 90.000000
_cell_volume 1673.273260
_symmetry_space_group_name_H-M "P 21 21 21"
_symmetry_group_IT_number 19
_symmetry_cell_setting 'orthorhombic'
loop_
_space_group_symop_operation_xyz
x,y,z
1/2-x,-y,1/2+z
1/2+x,1/2-y,-z
-x,1/2+y,1/2-z
loop_
_atom_site_type_symbol
_atom_site_label
_atom_site_fract_x
_atom_site_fract_y
_atom_site_fract_z
Si Si1 0.815535 0.177888 0.397796
Si Si2 0.132216 0.020754 0.029236
Si Si3 0.759505 0.993947 0.097152
Si Si4 0.622361 0.967464 0.749461
Si Si5 0.846623 0.321616 0.045094
Si Si6 0.532388 0.255631 0.844197
Si Si7 0.972430 0.030905 0.520122
Si Si8 0.594467 0.143310 0.480478
O O1 0.827674 0.362132 0.425202
O O2 0.836459 0.170318 0.308048
O O3 0.910442 0.062807 0.439079
O O4 0.688373 0.101596 0.415259
O O5 0.109052 0.170551 0.086522
O O6 0.231435 0.068289 0.967479
O O7 0.013254 0.982117 0.983435
O O8 0.777793 0.010098 0.186284
O O9 0.807896 0.136368 0.041839
O O10 0.621150 0.983671 0.087175
O O11 0.834194 0.845736 0.061409
O O12 0.505024 0.908201 0.707779
O O13 0.608003 0.136052 0.793111
O O14 0.914584 0.337799 0.126312
O O15 0.945498 0.371531 0.983138
O O16 0.053093 0.179680 0.540696
#
# Coordination Sequence:
#
# PCOD8156815 Si02
#       8
#     4   4   4   4   4   4   4   4
#     4  10  21  36  64  85 116 155 198 246 295 353
#     4  11  21  37  61  91 119 150 197 251 297 355
#     4  10  23  37  60  89 122 154 196 251 300 362
#     4  11  22  38  59  84 125 158 198 240 309 359
#     4  11  20  36  61  91 115 151 194 249 301 342
#     4  11  23  37  58  89 122 157 193 249 299 363
#     4  10  20  38  60  87 116 154 196 248 296 343
#     4  10  20  39  59  88 115 151 202 248 291 347
#
# _framework density 19.124192000000001
#
# number of rings (size 3 to 8) (size 9 to 14) (size 15 to 20)
#    0.000    1.500    5.000    1.500    3.500    0.000 
#    0.000    0.000    8.250    0.000    0.000    0.000 
#    0.000    0.000    0.000    0.000    0.000    0.000 
#
# Total GULP energy -396501.859928 kJ/mol
# GULP energy per Si atom -12390.683123 kJ/mol
# Density = 1.908066 g / cm^3
# Si number density = 19.124192 Si / 1000 Ang^3
#
#
#
# Elastic Constant Matrix: (Units=GPa)
#
#
# Indices 1 2 3 4 5 6 
#
# 1 113.7252 31.1342 29.6117 0.0000 0.0000 0.0000
# 2 31.1342 78.3351 22.4987 0.0000 0.0000 0.0000
# 3 29.6117 22.4987 71.3596 0.0000 0.0000 0.0000
# 4 0.0000 0.0000 0.0000 28.4286 0.0000 0.0000
# 5 0.0000 0.0000 0.0000 0.0000 25.6539 0.0000
# 6 0.0000 0.0000 0.0000 0.0000 0.0000 33.9753
#
#
#
# Elastic Compliance Matrix: (Units=1/GPa)
#
#
# Indices 1 2 3 4 5 6 
#
# 1 0.010552 -0.003229 -0.003361 0.000000 0.000000 0.000000
# 2 -0.003229 0.015025 -0.003397 0.000000 0.000000 0.000000
# 3 -0.003361 -0.003397 0.016479 0.000000 0.000000 0.000000
# 4 0.000000 0.000000 0.000000 0.035176 0.000000 0.000000
# 5 0.000000 0.000000 0.000000 0.000000 0.038980 0.000000
# 6 0.000000 0.000000 0.000000 0.000000 0.000000 0.029433
#
#
# Mechanical properties :
#
#
# Convention : Reuss Voigt Hill
#
# Bulk Modulus (GPa) = 45.28469 47.76768 46.52618
# Shear Modulus (GPa) = 28.90513 29.62326 29.26420
#
# Velocity S-wave (km/s) = 3.89195 3.94000 3.91604
# Velocity P-wave (km/s) = 6.62774 6.76239 6.69541
#
# Compressibility (1/GPa) = 0.02208252
#
# Stress axis : x y z
#
# Youngs Moduli (GPa) = 94.76772 66.55737 60.68234
#
# Poissons Ratio (x) = 0.21489 0.20394
# Poissons Ratio (y) = 0.30597 0.20615
# Poissons Ratio (z) = 0.31850 0.22611
#
# Static dielectric constant tensor:
#      x y z
#    x 3.666700 0.000000 0.000000 
#    y 0.000000 3.586710 0.000000 
#    z 0.000000 0.000000 3.286370 
# 
# 
# High freq. dielectric constant tensor:
#      x y z
#    x 1.749060 0.000000 0.000000 
#    y 0.000000 1.750060 0.000000 
#    z 0.000000 0.000000 1.708390 
# 
# From -- ./inp_files/3711.got.cif
#   From: 2010.03.12/outbox.cif.g09.slc.cpg/sg19_2_cif.got.tgz:3711.got - 2010.04.10 18:59:41.
