data_PCOD8156487
_publ_section_title
;
Structure prediction by ZEFSAII (Michael W. Deem and Ramdas Pophale) SiO2 
 PCOD8156487
Probable space group: P 21 21 2
;
_chemical_formula_sum "Si O2"
_cell_formula_units_Z 26
_cell_length_a 15.319092
_cell_length_b 10.308541
_cell_length_c 7.036195
_cell_angle_alpha 90.000000
_cell_angle_beta 90.000000
_cell_angle_gamma 90.000000
_cell_volume 1111.138239
_symmetry_space_group_name_H-M "P 21 21 2"
_symmetry_group_IT_number 18
_symmetry_cell_setting 'orthorhombic'
loop_
_space_group_symop_operation_xyz
x,y,z
-x,-y,z
1/2+x,1/2-y,-z
1/2-x,1/2+y,-z
loop_
_atom_site_type_symbol
_atom_site_label
_atom_site_fract_x
_atom_site_fract_y
_atom_site_fract_z
Si Si1 0.649445 0.169189 0.547694
Si Si2 0.000000 0.500000 0.271590
Si Si3 0.817352 0.868082 0.140365
Si Si4 0.094345 0.849202 0.710018
Si Si5 0.896973 0.872248 0.761703
Si Si6 0.356107 0.167271 0.956310
Si Si7 0.686581 0.623193 0.654164
O O1 0.558497 0.094615 0.593388
O O2 0.690371 0.237936 0.733605
O O3 0.646207 0.278429 0.387981
O O4 0.722898 0.078508 0.450391
O O5 0.930614 0.421360 0.141550
O O6 0.853898 0.990146 0.261149
O O7 0.886812 0.825786 0.979439
O O8 0.725204 0.912859 0.044729
O O9 0.124487 0.806249 0.500285
O O10 0.994666 0.883215 0.696509
O O11 0.146161 0.983173 0.756844
O O12 0.101295 0.738819 0.866513
O O13 0.308441 0.268905 0.817557
#
# Coordination Sequence:
#
# PCOD8156487 Si02
#       7
#     4   2   4   4   4   4   4
#     4  12  27  49  75 113 158 205 256 318 399 467
#     4  12  32  48  80 120 170 206 252 326 406 480
#     4  12  26  45  79 109 149 205 266 319 385 469
#     4  11  24  45  72 107 147 197 258 324 380 449
#     4  11  24  45  72 107 147 197 258 324 380 449
#     4  12  27  49  75 113 158 205 256 318 399 467
#     4  12  26  45  79 109 149 205 266 319 385 469
#
# _framework density 23.399428
#
# number of rings (size 3 to 8) (size 9 to 14) (size 15 to 20)
#    0.000    0.308    6.154    1.846    6.462    2.462 
#    0.000    1.538    0.000    0.000    0.000    0.000 
#    0.000    0.000    0.000    0.000    0.000    0.000 
#
# Total GULP energy -322156.450488 kJ/mol
# GULP energy per Si atom -12390.632711 kJ/mol
# Density = 2.334617 g / cm^3
# Si number density = 23.399428 Si / 1000 Ang^3
#
#
#
# Elastic Constant Matrix: (Units=GPa)
#
#
# Indices 1 2 3 4 5 6 
#
# 1 99.1896 6.5825 25.8664 0.0000 0.0000 0.0000
# 2 6.5825 61.2468 17.4786 0.0000 0.0000 0.0000
# 3 25.8664 17.4786 115.5956 0.0000 0.0000 0.0000
# 4 0.0000 0.0000 0.0000 36.6831 0.0000 0.0000
# 5 0.0000 0.0000 0.0000 0.0000 28.2609 0.0000
# 6 0.0000 0.0000 0.0000 0.0000 0.0000 33.2424
#
#
#
# Elastic Compliance Matrix: (Units=1/GPa)
#
#
# Indices 1 2 3 4 5 6 
#
# 1 0.010720 -0.000489 -0.002325 0.000000 0.000000 0.000000
# 2 -0.000489 0.017086 -0.002474 0.000000 0.000000 0.000000
# 3 -0.002325 -0.002474 0.009545 0.000000 0.000000 0.000000
# 4 0.000000 0.000000 0.000000 0.027260 0.000000 0.000000
# 5 0.000000 0.000000 0.000000 0.000000 0.035385 0.000000
# 6 0.000000 0.000000 0.000000 0.000000 0.000000 0.030082
#
#
# Mechanical properties :
#
#
# Convention : Reuss Voigt Hill
#
# Bulk Modulus (GPa) = 37.34682 41.76521 39.55601
# Shear Modulus (GPa) = 33.42702 34.71094 34.06898
#
# Velocity S-wave (km/s) = 3.78370 3.85568 3.81986
# Velocity P-wave (km/s) = 5.92316 6.14079 6.03295
#
# Compressibility (1/GPa) = 0.02677604
#
# Stress axis : x y z
#
# Youngs Moduli (GPa) = 93.27982 58.52756 104.76464
#
# Poissons Ratio (x) = 0.02860 0.24358
# Poissons Ratio (y) = 0.04558 0.25920
# Poissons Ratio (z) = 0.21687 0.14480
#
# Static dielectric constant tensor:
#      x y z
#    x 4.677710 0.000000 0.000000 
#    y 0.000000 3.047630 0.000000 
#    z 0.000000 0.000000 4.493940 
# 
# 
# High freq. dielectric constant tensor:
#      x y z
#    x 1.924460 0.000000 0.000000 
#    y 0.000000 1.917560 0.000000 
#    z 0.000000 0.000000 1.948840 
# 
# From -- ./inp_files/1808.got.cif
#   From: 2010.03.12/outbox.cif.g09.slc.cpg/sg18_1_cif.got.tgz:1808.got - 2010.04.10 18:53:55.
