data_PCOD8156631
_publ_section_title
;
Structure prediction by ZEFSAII (Michael W. Deem and Ramdas Pophale) SiO2 
 PCOD8156631
Probable space group: P 21 21 21
;
_chemical_formula_sum "Si O2"
_cell_formula_units_Z 32
_cell_length_a 12.786838
_cell_length_b 22.646985
_cell_length_c 5.015736
_cell_angle_alpha 90.000000
_cell_angle_beta 90.000000
_cell_angle_gamma 90.000000
_cell_volume 1452.473525
_symmetry_space_group_name_H-M "P 21 21 21"
_symmetry_group_IT_number 19
_symmetry_cell_setting 'orthorhombic'
loop_
_space_group_symop_operation_xyz
x,y,z
1/2-x,-y,1/2+z
1/2+x,1/2-y,-z
-x,1/2+y,1/2-z
loop_
_atom_site_type_symbol
_atom_site_label
_atom_site_fract_x
_atom_site_fract_y
_atom_site_fract_z
Si Si1 0.779703 0.329108 0.285264
Si Si2 0.280121 0.754553 0.718620
Si Si3 0.770217 0.965076 0.227327
Si Si4 0.935760 0.203259 0.820774
Si Si5 0.942216 0.073859 0.834430
Si Si6 0.492414 0.229714 0.679089
Si Si7 0.212527 0.965297 0.230773
Si Si8 0.514329 0.001601 0.832764
O O1 0.730614 0.303951 0.554435
O O2 0.907808 0.323263 0.283622
O O3 0.747167 0.397928 0.264248
O O4 0.725200 0.291878 0.052493
O O5 0.188087 0.706529 0.740726
O O6 0.387279 0.716006 0.741295
O O7 0.684513 0.917272 0.317598
O O8 0.743963 0.022610 0.412836
O O9 0.891759 0.950503 0.289665
O O10 0.985699 0.138770 0.773616
O O11 0.994104 0.249111 0.627252
O O12 0.953906 0.217641 0.129891
O O13 0.984947 0.025931 0.627155
O O14 0.975332 0.052519 0.126470
O O15 0.274541 0.005413 0.441384
O O16 0.090856 0.962316 0.300523
#
# Coordination Sequence:
#
# PCOD8156631 Si02
#       8
#     4   4   4   4   4   4   4   4
#     4  10  23  41  59  85 118 148 190 241 277 331
#     4  10  21  39  61  84 114 150 186 233 291 337
#     4   8  16  31  50  73 103 138 175 222 279 331
#     4  10  21  34  55  87 111 137 185 228 273 343
#     4  10  19  34  56  83 112 138 176 233 283 329
#     4  10  21  38  59  83 111 145 182 225 282 337
#     4  12  26  41  58  83 115 156 201 233 271 331
#     4  10  21  36  54  78 110 148 187 225 272 327
#
# _framework density 22.031385
#
# number of rings (size 3 to 8) (size 9 to 14) (size 15 to 20)
#    0.000    2.000    0.000    3.000    0.000    7.000 
#    0.000    0.000    0.000   15.000    0.000    0.000 
#    0.000    0.000    0.000    0.000    0.000    0.000 
#
# Total GULP energy -396594.560303 kJ/mol
# GULP energy per Si atom -12393.580009 kJ/mol
# Density = 2.198124 g / cm^3
# Si number density = 22.031385 Si / 1000 Ang^3
#
#
#
# Elastic Constant Matrix: (Units=GPa)
#
#
# Indices 1 2 3 4 5 6 
#
# 1 89.2731 -16.3038 -4.0756 0.0000 0.0000 0.0000
# 2 -16.3038 54.9169 5.9184 0.0000 0.0000 0.0000
# 3 -4.0756 5.9184 92.7095 0.0000 0.0000 0.0000
# 4 0.0000 0.0000 0.0000 20.1539 0.0000 0.0000
# 5 0.0000 0.0000 0.0000 0.0000 29.1548 0.0000
# 6 0.0000 0.0000 0.0000 0.0000 0.0000 15.7997
#
#
#
# Elastic Compliance Matrix: (Units=1/GPa)
#
#
# Indices 1 2 3 4 5 6 
#
# 1 0.011852 0.003486 0.000298 0.000000 0.000000 0.000000
# 2 0.003486 0.019361 -0.001083 0.000000 0.000000 0.000000
# 3 0.000298 -0.001083 0.010869 0.000000 0.000000 0.000000
# 4 0.000000 0.000000 0.000000 0.049618 0.000000 0.000000
# 5 0.000000 0.000000 0.000000 0.000000 0.034300 0.000000
# 6 0.000000 0.000000 0.000000 0.000000 0.000000 0.063292
#
#
# Mechanical properties :
#
#
# Convention : Reuss Voigt Hill
#
# Bulk Modulus (GPa) = 21.05884 23.10862 22.08373
# Shear Modulus (GPa) = 25.03555 29.77905 27.40730
#
# Velocity S-wave (km/s) = 3.37465 3.68049 3.53088
# Velocity P-wave (km/s) = 4.97631 5.34538 5.16414
#
# Compressibility (1/GPa) = 0.04748600
#
# Stress axis : x y z
#
# Youngs Moduli (GPa) = 84.37448 51.65006 92.00805
#
# Poissons Ratio (x) = -0.18007 -0.02746
# Poissons Ratio (y) = -0.29417 0.09962
# Poissons Ratio (z) = -0.02518 0.05592
#
# Static dielectric constant tensor:
#      x y z
#    x 4.274840 0.000000 0.000000 
#    y 0.000000 3.381390 0.000000 
#    z 0.000000 0.000000 4.072200 
# 
# 
# High freq. dielectric constant tensor:
#      x y z
#    x 1.880600 0.000000 0.000000 
#    y 0.000000 1.819210 0.000000 
#    z 0.000000 0.000000 1.883330 
# 
# From -- ./inp_files/1304.got.cif
#   From: 2010.03.12/outbox.cif.g09.slc.cpg/sg19_1_cif.got.tgz:1304.got - 2010.04.10 18:59:41.
