data_PCOD8156279
_publ_section_title
;
Structure prediction by ZEFSAII (Michael W. Deem and Ramdas Pophale) SiO2 
 PCOD8156279
Probable space group: P 21 21 2
;
_chemical_formula_sum "Si O2"
_cell_formula_units_Z 24
_cell_length_a 11.489308
_cell_length_b 6.968924
_cell_length_c 11.709828
_cell_angle_alpha 90.000000
_cell_angle_beta 90.000000
_cell_angle_gamma 90.000000
_cell_volume 937.583846
_symmetry_space_group_name_H-M "P 21 21 2"
_symmetry_group_IT_number 18
_symmetry_cell_setting 'orthorhombic'
loop_
_space_group_symop_operation_xyz
x,y,z
-x,-y,z
1/2+x,1/2-y,-z
1/2-x,1/2+y,-z
loop_
_atom_site_type_symbol
_atom_site_label
_atom_site_fract_x
_atom_site_fract_y
_atom_site_fract_z
Si Si1 0.612662 0.902942 0.532092
Si Si2 0.150962 0.809479 0.822090
Si Si3 0.000000 0.000000 0.630654
Si Si4 0.329658 0.510968 0.810064
Si Si5 0.129609 0.559322 0.211025
Si Si6 0.647941 0.465820 0.561515
Si Si7 0.000000 0.000000 0.003258
O O1 0.637965 0.995078 0.655558
O O2 0.597457 0.678195 0.545467
O O3 0.500000 0.000000 0.477762
O O4 0.714603 0.957023 0.445647
O O5 0.196198 0.588402 0.820428
O O6 0.082776 0.862263 0.705414
O O7 0.266123 0.938039 0.846044
O O8 0.060694 0.836974 0.926034
O O9 0.916300 0.864730 0.547158
O O10 0.337475 0.281045 0.813283
O O11 0.384159 0.597839 0.690968
O O12 0.404981 0.599729 0.913626
O O13 0.000000 0.500000 0.165281
#
# Coordination Sequence:
#
# PCOD8156279 Si02
#       7
#     4   4   2   4   4   4   2
#     4  10  23  39  65 106 148 195 240 293 373 457
#     4  11  25  48  73 102 151 192 253 316 372 453
#     4  11  23  42  70 106 149 199 234 308 386 439
#     4  11  25  47  72 113 140 198 255 304 385 456
#     4  10  22  44  75 109 149 191 242 306 378 458
#     4  11  23  40  72 102 151 192 240 309 371 461
#     4  11  27  48  76 104 143 197 254 320 380 439
#
# _framework density 25.597708999999998
#
# number of rings (size 3 to 8) (size 9 to 14) (size 15 to 20)
#    0.000    1.333    1.667    2.500    4.667    1.333 
#    0.000    3.333    0.000    0.000    0.000    0.000 
#    0.000    0.000    0.000    0.000    0.000    0.000 
#
# Total GULP energy -297319.593049 kJ/mol
# GULP energy per Si atom -12388.316377 kJ/mol
# Density = 2.553945 g / cm^3
# Si number density = 25.597709 Si / 1000 Ang^3
#
#
#
# Elastic Constant Matrix: (Units=GPa)
#
#
# Indices 1 2 3 4 5 6 
#
# 1 149.8103 32.0288 67.2612 0.0000 0.0000 0.0000
# 2 32.0288 100.7011 14.7584 0.0000 0.0000 0.0000
# 3 67.2612 14.7584 165.8427 0.0000 0.0000 0.0000
# 4 0.0000 0.0000 0.0000 13.0577 0.0000 0.0000
# 5 0.0000 0.0000 0.0000 0.0000 47.4499 0.0000
# 6 0.0000 0.0000 0.0000 0.0000 0.0000 59.0026
#
#
#
# Elastic Compliance Matrix: (Units=1/GPa)
#
#
# Indices 1 2 3 4 5 6 
#
# 1 0.008643 -0.002265 -0.003304 0.000000 0.000000 0.000000
# 2 -0.002265 0.010655 -0.000030 0.000000 0.000000 0.000000
# 3 -0.003304 -0.000030 0.007372 0.000000 0.000000 0.000000
# 4 0.000000 0.000000 0.000000 0.076583 0.000000 0.000000
# 5 0.000000 0.000000 0.000000 0.000000 0.021075 0.000000
# 6 0.000000 0.000000 0.000000 0.000000 0.000000 0.016948
#
#
# Mechanical properties :
#
#
# Convention : Reuss Voigt Hill
#
# Bulk Modulus (GPa) = 64.62511 71.60564 68.11538
# Shear Modulus (GPa) = 31.71980 44.05577 37.88778
#
# Velocity S-wave (km/s) = 3.52400 4.15309 3.85141
# Velocity P-wave (km/s) = 6.46988 7.14365 6.81510
#
# Compressibility (1/GPa) = 0.01547386
#
# Stress axis : x y z
#
# Youngs Moduli (GPa) = 115.70682 93.85247 135.64258
#
# Poissons Ratio (x) = 0.21254 0.44811
# Poissons Ratio (y) = 0.26204 0.00403
# Poissons Ratio (z) = 0.38225 0.00279
#
# Static dielectric constant tensor:
#      x y z
#    x 4.913780 0.000000 0.000000 
#    y 0.000000 4.419780 0.000000 
#    z 0.000000 0.000000 4.905040 
# 
# 
# High freq. dielectric constant tensor:
#      x y z
#    x 2.042380 0.000000 0.000000 
#    y 0.000000 2.001490 0.000000 
#    z 0.000000 0.000000 2.019410 
# 
# From -- ./inp_files/5859.got.cif
#   From: 2010.03.12/outbox.cif.g09.slc.cpg/sg18_3_cif.got.tgz:5859.got - 2010.04.10 18:53:55.
