data_PCOD8156644
_publ_section_title
;
Structure prediction by ZEFSAII (Michael W. Deem and Ramdas Pophale) SiO2 
 PCOD8156644
Probable space group: P 21 21 21
;
_chemical_formula_sum "Si O2"
_cell_formula_units_Z 28
_cell_length_a 10.374259
_cell_length_b 5.063842
_cell_length_c 27.255670
_cell_angle_alpha 90.000000
_cell_angle_beta 90.000000
_cell_angle_gamma 90.000000
_cell_volume 1431.838696
_symmetry_space_group_name_H-M "P 21 21 21"
_symmetry_group_IT_number 19
_symmetry_cell_setting 'orthorhombic'
loop_
_space_group_symop_operation_xyz
x,y,z
1/2-x,-y,1/2+z
1/2+x,1/2-y,-z
-x,1/2+y,1/2-z
loop_
_atom_site_type_symbol
_atom_site_label
_atom_site_fract_x
_atom_site_fract_y
_atom_site_fract_z
Si Si1 0.501945 0.232296 0.948482
Si Si2 0.667023 0.844096 0.255637
Si Si3 0.294838 0.226090 0.030936
Si Si4 0.921243 0.656707 0.807864
Si Si5 0.822064 0.773180 0.907024
Si Si6 0.965652 0.267825 0.385374
Si Si7 0.052639 0.221704 0.275508
O O1 0.639469 0.252076 0.977871
O O2 0.495669 0.443848 0.904743
O O3 0.486437 0.944377 0.925103
O O4 0.378081 0.283547 0.982595
O O5 0.639123 0.630007 0.297959
O O6 0.565324 0.819971 0.211850
O O7 0.801410 0.806047 0.229913
O O8 0.667988 0.128651 0.280946
O O9 0.339459 0.433594 0.072196
O O10 0.331442 0.933130 0.048464
O O11 0.929786 0.711822 0.866104
O O12 0.687304 0.746790 0.878672
O O13 0.026581 0.210785 0.333080
O O14 0.963629 0.433151 0.247839
#
# Coordination Sequence:
#
# PCOD8156644 Si02
#       7
#     4   4   4   4   4   4   4
#     4  10  21  40  56  82 111 147 184 232 283 331
#     4  10  21  36  55  81 117 150 184 230 279 325
#     4  10  21  37  58  81 108 141 187 228 280 334
#     4  10  20  37  57  80 114 150 186 233 275 324
#     4  10  19  35  58  82 104 143 190 218 271 337
#     4  10  21  36  58  81 114 145 180 228 277 329
#     4  12  23  37  58  87 116 150 193 227 279 338
#
# _framework density 19.555275000000002
#
# number of rings (size 3 to 8) (size 9 to 14) (size 15 to 20)
#    0.000    1.714    0.000    5.143    0.000    2.286 
#    5.143    0.000    0.000    0.000    0.000    0.000 
#    0.000    0.000    0.000    0.000    0.000    0.000 
#
# Total GULP energy -347299.735035 kJ/mol
# GULP energy per Si atom -12403.561966 kJ/mol
# Density = 1.951077 g / cm^3
# Si number density = 19.555275 Si / 1000 Ang^3
#
#
#
# Elastic Constant Matrix: (Units=GPa)
#
#
# Indices 1 2 3 4 5 6 
#
# 1 71.0970 15.3718 41.8371 0.0000 0.0000 0.0000
# 2 15.3718 64.8936 -6.6089 0.0000 0.0000 0.0000
# 3 41.8371 -6.6089 74.4391 0.0000 0.0000 0.0000
# 4 0.0000 0.0000 0.0000 13.1953 0.0000 0.0000
# 5 0.0000 0.0000 0.0000 0.0000 26.2262 0.0000
# 6 0.0000 0.0000 0.0000 0.0000 0.0000 19.4135
#
#
#
# Elastic Compliance Matrix: (Units=1/GPa)
#
#
# Indices 1 2 3 4 5 6 
#
# 1 0.023856 -0.007080 -0.014036 0.000000 0.000000 0.000000
# 2 -0.007080 0.017652 0.005547 0.000000 0.000000 0.000000
# 3 -0.014036 0.005547 0.021815 0.000000 0.000000 0.000000
# 4 0.000000 0.000000 0.000000 0.075785 0.000000 0.000000
# 5 0.000000 0.000000 0.000000 0.000000 0.038130 0.000000
# 6 0.000000 0.000000 0.000000 0.000000 0.000000 0.051511
#
#
# Mechanical properties :
#
#
# Convention : Reuss Voigt Hill
#
# Bulk Modulus (GPa) = 31.07273 34.62551 32.84912
# Shear Modulus (GPa) = 18.47639 22.42232 20.44936
#
# Velocity S-wave (km/s) = 3.07714 3.38984 3.23727
# Velocity P-wave (km/s) = 5.34315 5.75033 5.55047
#
# Compressibility (1/GPa) = 0.03218256
#
# Stress axis : x y z
#
# Youngs Moduli (GPa) = 41.91841 56.65112 45.83977
#
# Poissons Ratio (x) = 0.40111 0.64342
# Poissons Ratio (y) = 0.29680 -0.25425
# Poissons Ratio (z) = 0.58838 -0.31422
#
# Static dielectric constant tensor:
#      x y z
#    x 3.546270 0.000000 0.000000 
#    y 0.000000 3.868330 0.000000 
#    z 0.000000 0.000000 3.334240 
# 
# 
# High freq. dielectric constant tensor:
#      x y z
#    x 1.751760 0.000000 0.000000 
#    y 0.000000 1.784480 0.000000 
#    z 0.000000 0.000000 1.752640 
# 
# From -- ./inp_files/634.got.cif
#   From: 2010.03.12/outbox.cif.g09.slc.cpg/sg19_1_cif.got.tgz:634.got - 2010.04.10 18:59:41.
