data_PCOD8156063
_publ_section_title
;
Structure prediction by ZEFSAII (Michael W. Deem and Ramdas Pophale) SiO2 
 PCOD8156063
Probable space group: P 21 21 2
;
_chemical_formula_sum "Si O2"
_cell_formula_units_Z 32
_cell_length_a 16.331883
_cell_length_b 5.259839
_cell_length_c 18.420275
_cell_angle_alpha 90.000000
_cell_angle_beta 90.000000
_cell_angle_gamma 90.000000
_cell_volume 1582.358268
_symmetry_space_group_name_H-M "P 21 21 2"
_symmetry_group_IT_number 18
_symmetry_cell_setting 'orthorhombic'
loop_
_space_group_symop_operation_xyz
x,y,z
-x,-y,z
1/2+x,1/2-y,-z
1/2-x,1/2+y,-z
loop_
_atom_site_type_symbol
_atom_site_label
_atom_site_fract_x
_atom_site_fract_y
_atom_site_fract_z
Si Si1 0.181868 0.221143 0.355036
Si Si2 0.290162 0.257769 0.840767
Si Si3 0.949668 0.749030 0.472566
Si Si4 0.581292 0.363116 0.778036
Si Si5 0.290805 0.714110 0.022006
Si Si6 0.269336 0.697701 0.312518
Si Si7 0.449646 0.752340 0.358046
Si Si8 0.416983 0.908113 0.920600
O O1 0.136523 0.230501 0.431821
O O2 0.116012 0.288956 0.291392
O O3 0.249170 0.445472 0.359145
O O4 0.221145 0.943627 0.342768
O O5 0.339825 0.496116 0.811270
O O6 0.256135 0.117925 0.769525
O O7 0.350363 0.111790 0.895442
O O8 0.211982 0.314376 0.893593
O O9 0.928296 0.733834 0.557155
O O10 0.000000 0.500000 0.447655
O O11 0.000000 0.000000 0.453036
O O12 0.500000 0.500000 0.747898
O O13 0.548374 0.206255 0.845602
O O14 0.378807 0.724984 0.982168
O O15 0.266832 0.416965 0.020125
O O16 0.365408 0.752250 0.313825
O O17 0.500000 0.500000 0.338636
O O18 0.500000 0.000000 0.333384
O O19 0.500000 0.000000 0.959483
#
# Coordination Sequence:
#
# PCOD8156063 Si02
#       8
#     4   4   4   4   4   4   4   4
#     4  11  23  36  56  90 123 156 194 239 296 354
#     4  10  21  37  54  81 117 152 189 236 293 342
#     4  10  21  38  59  84 122 164 199 238 292 349
#     4  11  20  33  52  82 118 154 188 230 285 354
#     4  10  21  36  57  78 108 149 190 231 278 336
#     4  11  23  38  61  88 119 152 198 248 296 357
#     4  10  22  42  64  85 111 155 204 249 300 349
#     4  11  20  34  56  82 113 148 193 228 287 345
#
# _framework density 20.222981000000001
#
# number of rings (size 3 to 8) (size 9 to 14) (size 15 to 20)
#    0.000    1.500    3.750    1.875    0.000    2.500 
#    0.000    0.625    0.000    3.750    0.000    0.000 
#    0.000    0.000    0.000    0.000    0.000    0.000 
#
# Total GULP energy -396442.649192 kJ/mol
# GULP energy per Si atom -12388.832787 kJ/mol
# Density = 2.017695 g / cm^3
# Si number density = 20.222981 Si / 1000 Ang^3
#
#
#
# Elastic Constant Matrix: (Units=GPa)
#
#
# Indices 1 2 3 4 5 6 
#
# 1 92.6893 21.7821 25.8541 0.0000 0.0000 0.0000
# 2 21.7821 102.1245 9.7426 0.0000 0.0000 0.0000
# 3 25.8541 9.7426 43.0232 0.0000 0.0000 0.0000
# 4 0.0000 0.0000 0.0000 15.1150 0.0000 0.0000
# 5 0.0000 0.0000 0.0000 0.0000 29.4476 0.0000
# 6 0.0000 0.0000 0.0000 0.0000 0.0000 30.1450
#
#
#
# Elastic Compliance Matrix: (Units=1/GPa)
#
#
# Indices 1 2 3 4 5 6 
#
# 1 0.013402 -0.002136 -0.007570 0.000000 0.000000 0.000000
# 2 -0.002136 0.010349 -0.001060 0.000000 0.000000 0.000000
# 3 -0.007570 -0.001060 0.028032 0.000000 0.000000 0.000000
# 4 0.000000 0.000000 0.000000 0.066159 0.000000 0.000000
# 5 0.000000 0.000000 0.000000 0.000000 0.033959 0.000000
# 6 0.000000 0.000000 0.000000 0.000000 0.000000 0.033173
#
#
# Mechanical properties :
#
#
# Convention : Reuss Voigt Hill
#
# Bulk Modulus (GPa) = 33.05662 39.17717 36.11690
# Shear Modulus (GPa) = 23.07438 26.97206 25.02322
#
# Velocity S-wave (km/s) = 3.38153 3.65599 3.52144
# Velocity P-wave (km/s) = 5.62387 6.10216 5.86789
#
# Compressibility (1/GPa) = 0.03025113
#
# Stress axis : x y z
#
# Youngs Moduli (GPa) = 74.61383 96.63018 35.67299
#
# Poissons Ratio (x) = 0.20644 0.27005
# Poissons Ratio (y) = 0.15940 0.03780
# Poissons Ratio (z) = 0.56484 0.10239
#
# Static dielectric constant tensor:
#      x y z
#    x 3.843740 0.000000 0.000000 
#    y 0.000000 3.892900 0.000000 
#    z 0.000000 0.000000 3.920350 
# 
# 
# High freq. dielectric constant tensor:
#      x y z
#    x 1.781010 0.000000 0.000000 
#    y 0.000000 1.791350 0.000000 
#    z 0.000000 0.000000 1.783290 
# 
# From -- ./inp_files/7414.got.cif
#   From: 2010.03.12/outbox.cif.g09.slc.cpg/sg18_4_cif.got.tgz:7414.got - 2010.04.10 18:53:55.
