data_PCOD8156700
_publ_section_title
;
Structure prediction by ZEFSAII (Michael W. Deem and Ramdas Pophale) SiO2 
 PCOD8156700
Probable space group: P 21 21 21
;
_chemical_formula_sum "Si O2"
_cell_formula_units_Z 20
_cell_length_a 12.321985
_cell_length_b 6.953087
_cell_length_c 7.358622
_cell_angle_alpha 90.000000
_cell_angle_beta 90.000000
_cell_angle_gamma 90.000000
_cell_volume 630.456075
_symmetry_space_group_name_H-M "P 21 21 21"
_symmetry_group_IT_number 19
_symmetry_cell_setting 'orthorhombic'
loop_
_space_group_symop_operation_xyz
x,y,z
1/2-x,-y,1/2+z
1/2+x,1/2-y,-z
-x,1/2+y,1/2-z
loop_
_atom_site_type_symbol
_atom_site_label
_atom_site_fract_x
_atom_site_fract_y
_atom_site_fract_z
Si Si1 0.919844 0.775731 0.018405
Si Si2 0.246003 0.989075 0.828104
Si Si3 0.303854 0.315977 0.035100
Si Si4 0.105724 0.516035 0.141462
Si Si5 0.038869 0.199996 0.874425
O O1 0.821522 0.623904 0.026077
O O2 0.891654 0.973593 0.136439
O O3 0.034162 0.701545 0.100273
O O4 0.936057 0.821263 0.806881
O O5 0.255725 0.862770 0.645327
O O6 0.118673 0.013184 0.885064
O O7 0.297620 0.213088 0.831389
O O8 0.227711 0.507809 0.056465
O O9 0.415690 0.373740 0.130706
O O10 0.045646 0.334325 0.050150
#
# Coordination Sequence:
#
# PCOD8156700 Si02
#       5
#     4   4   4   4   4
#     4  11  23  44  68 102 136 185 226 284 349 411
#     4  10  19  39  66  90 129 175 233 265 340 417
#     4  10  21  39  65  95 130 180 223 282 343 408
#     4  10  24  43  66 103 138 175 234 283 339 423
#     4  11  21  41  67  94 133 175 234 276 343 407
#
# _framework density 31.723064000000001
#
# number of rings (size 3 to 8) (size 9 to 14) (size 15 to 20)
#    0.000    1.600    4.000    0.000    0.000    6.400 
#    3.600    2.000    0.000    0.000    0.000    0.000 
#    0.000    0.000    0.000    0.000    0.000    0.000 
#
# Total GULP energy -247801.419493 kJ/mol
# GULP energy per Si atom -12390.070975 kJ/mol
# Density = 3.165086 g / cm^3
# Si number density = 31.723064 Si / 1000 Ang^3
#
#
#
# Elastic Constant Matrix: (Units=GPa)
#
#
# Indices 1 2 3 4 5 6 
#
# 1 220.7486 30.4100 18.2487 0.0000 0.0000 0.0000
# 2 30.4100 96.6827 21.6823 0.0000 0.0000 0.0000
# 3 18.2487 21.6823 147.6317 0.0000 0.0000 0.0000
# 4 0.0000 0.0000 0.0000 56.5894 0.0000 0.0000
# 5 0.0000 0.0000 0.0000 0.0000 44.1925 0.0000
# 6 0.0000 0.0000 0.0000 0.0000 0.0000 41.2585
#
#
#
# Elastic Compliance Matrix: (Units=1/GPa)
#
#
# Indices 1 2 3 4 5 6 
#
# 1 0.004756 -0.001410 -0.000381 0.000000 0.000000 0.000000
# 2 -0.001410 0.011114 -0.001458 0.000000 0.000000 0.000000
# 3 -0.000381 -0.001458 0.007035 0.000000 0.000000 0.000000
# 4 0.000000 0.000000 0.000000 0.017671 0.000000 0.000000
# 5 0.000000 0.000000 0.000000 0.000000 0.022628 0.000000
# 6 0.000000 0.000000 0.000000 0.000000 0.000000 0.024237
#
#
# Mechanical properties :
#
#
# Convention : Reuss Voigt Hill
#
# Bulk Modulus (GPa) = 60.95279 67.30498 64.12889
# Shear Modulus (GPa) = 50.29774 54.72290 52.51032
#
# Velocity S-wave (km/s) = 3.98619 4.15784 4.07292
# Velocity P-wave (km/s) = 6.35940 6.65678 6.50979
#
# Compressibility (1/GPa) = 0.01640614
#
# Stress axis : x y z
#
# Youngs Moduli (GPa) = 210.26874 89.97899 142.15067
#
# Poissons Ratio (x) = 0.12691 0.05412
# Poissons Ratio (y) = 0.29658 0.20724
# Poissons Ratio (z) = 0.08005 0.13118
#
# Static dielectric constant tensor:
#      x y z
#    x 6.538130 0.000000 0.000000 
#    y 0.000000 6.219070 0.000000 
#    z 0.000000 0.000000 6.235790 
# 
# 
# High freq. dielectric constant tensor:
#      x y z
#    x 2.332450 0.000000 0.000000 
#    y 0.000000 2.335210 0.000000 
#    z 0.000000 0.000000 2.319330 
# 
# From -- ./inp_files/2763.got.cif
#   From: 2010.03.12/outbox.cif.g09.slc.cpg/sg19_2_cif.got.tgz:2763.got - 2010.04.10 18:59:41.
