data_PCOD8156499
_publ_section_title
;
Structure prediction by ZEFSAII (Michael W. Deem and Ramdas Pophale) SiO2 
 PCOD8156499
Probable space group: P 21 21 2
;
_chemical_formula_sum "Si O2"
_cell_formula_units_Z 22
_cell_length_a 11.552760
_cell_length_b 14.435257
_cell_length_c 5.101779
_cell_angle_alpha 90.000000
_cell_angle_beta 90.000000
_cell_angle_gamma 90.000000
_cell_volume 850.808683
_symmetry_space_group_name_H-M "P 21 21 2"
_symmetry_group_IT_number 18
_symmetry_cell_setting 'orthorhombic'
loop_
_space_group_symop_operation_xyz
x,y,z
-x,-y,z
1/2+x,1/2-y,-z
1/2-x,1/2+y,-z
loop_
_atom_site_type_symbol
_atom_site_label
_atom_site_fract_x
_atom_site_fract_y
_atom_site_fract_z
Si Si1 0.442693 0.387034 0.490623
Si Si2 0.082964 0.090220 0.013025
Si Si3 0.108585 0.684444 0.512708
Si Si4 0.000000 0.500000 0.647962
Si Si5 0.253994 0.938839 0.154800
Si Si6 0.244596 0.732397 0.016175
O O1 0.523865 0.431588 0.711202
O O2 0.467796 0.277008 0.504296
O O3 0.309784 0.417090 0.563560
O O4 0.483915 0.425322 0.208453
O O5 0.191676 0.019959 0.989305
O O6 0.123860 0.196690 0.005261
O O7 0.034882 0.589906 0.474512
O O8 0.205507 0.691002 0.292581
O O9 0.168672 0.683099 0.795149
O O10 0.111863 0.467321 0.814856
O O11 0.242186 0.843368 0.987633
#
# Coordination Sequence:
#
# PCOD8156499 Si02
#       6
#     4   4   4   2   4   4
#     4  11  26  48  78 112 150 202 260 326 385 457
#     4  12  25  50  79 111 152 199 268 318 382 462
#     4  11  25  50  76 112 156 202 255 321 397 457
#     4  12  26  54  76 120 160 210 260 320 392 488
#     4  11  27  47  81 114 155 205 257 321 394 464
#     4  11  25  50  76 112 156 199 260 322 388 461
#
# _framework density 25.857754
#
# number of rings (size 3 to 8) (size 9 to 14) (size 15 to 20)
#    0.000    0.727    1.818    4.909    0.000    9.455 
#    3.273    0.000    0.000    0.000    0.000    0.000 
#    0.000    0.000    0.000    0.000    0.000    0.000 
#
# Total GULP energy -272632.765950 kJ/mol
# GULP energy per Si atom -12392.398452 kJ/mol
# Density = 2.579890 g / cm^3
# Si number density = 25.857754 Si / 1000 Ang^3
#
#
#
# Elastic Constant Matrix: (Units=GPa)
#
#
# Indices 1 2 3 4 5 6 
#
# 1 145.1955 51.3662 36.2384 0.0000 0.0000 0.0000
# 2 51.3662 165.6930 34.7749 0.0000 0.0000 0.0000
# 3 36.2384 34.7749 66.9075 0.0000 0.0000 0.0000
# 4 0.0000 0.0000 0.0000 22.0956 0.0000 0.0000
# 5 0.0000 0.0000 0.0000 0.0000 16.6341 0.0000
# 6 0.0000 0.0000 0.0000 0.0000 0.0000 65.5954
#
#
#
# Elastic Compliance Matrix: (Units=1/GPa)
#
#
# Indices 1 2 3 4 5 6 
#
# 1 0.008446 -0.001861 -0.003607 0.000000 0.000000 0.000000
# 2 -0.001861 0.007184 -0.002726 0.000000 0.000000 0.000000
# 3 -0.003607 -0.002726 0.018316 0.000000 0.000000 0.000000
# 4 0.000000 0.000000 0.000000 0.045258 0.000000 0.000000
# 5 0.000000 0.000000 0.000000 0.000000 0.060117 0.000000
# 6 0.000000 0.000000 0.000000 0.000000 0.000000 0.015245
#
#
# Mechanical properties :
#
#
# Convention : Reuss Voigt Hill
#
# Bulk Modulus (GPa) = 56.95352 69.17276 63.06314
# Shear Modulus (GPa) = 28.27917 37.89279 33.08598
#
# Velocity S-wave (km/s) = 3.31062 3.83225 3.58094
# Velocity P-wave (km/s) = 6.05699 6.81108 6.44507
#
# Compressibility (1/GPa) = 0.01755818
#
# Stress axis : x y z
#
# Youngs Moduli (GPa) = 118.39897 139.19081 54.59562
#
# Poissons Ratio (x) = 0.25907 0.19693
# Poissons Ratio (y) = 0.22037 0.14882
# Poissons Ratio (z) = 0.42708 0.37943
#
# Static dielectric constant tensor:
#      x y z
#    x 4.684800 0.000000 0.000000 
#    y 0.000000 5.417940 0.000000 
#    z 0.000000 0.000000 4.533270 
# 
# 
# High freq. dielectric constant tensor:
#      x y z
#    x 2.023390 0.000000 0.000000 
#    y 0.000000 2.079800 0.000000 
#    z 0.000000 0.000000 2.018420 
# 
# From -- ./inp_files/1014.got.cif
#   From: 2010.03.12/outbox.cif.g09.slc.cpg/sg18_1_cif.got.tgz:1014.got - 2010.04.10 18:53:55.
