data_PCOD8156217
_publ_section_title
;
Structure prediction by ZEFSAII (Michael W. Deem and Ramdas Pophale) SiO2 
 PCOD8156217
Probable space group: P 21 21 2
;
_chemical_formula_sum "Si O2"
_cell_formula_units_Z 32
_cell_length_a 14.920875
_cell_length_b 8.610269
_cell_length_c 11.739059
_cell_angle_alpha 90.000000
_cell_angle_beta 90.000000
_cell_angle_gamma 90.000000
_cell_volume 1508.149162
_symmetry_space_group_name_H-M "P 21 21 2"
_symmetry_group_IT_number 18
_symmetry_cell_setting 'orthorhombic'
loop_
_space_group_symop_operation_xyz
x,y,z
-x,-y,z
1/2+x,1/2-y,-z
1/2-x,1/2+y,-z
loop_
_atom_site_type_symbol
_atom_site_label
_atom_site_fract_x
_atom_site_fract_y
_atom_site_fract_z
Si Si1 0.608646 0.645827 0.296990
Si Si2 0.581631 0.300674 0.229771
Si Si3 0.733755 0.104713 0.859881
Si Si4 0.164898 0.668702 0.494796
Si Si5 0.349289 0.615851 0.995243
Si Si6 0.092046 0.930278 0.214263
Si Si7 0.229563 0.391718 0.650456
Si Si8 0.911264 0.413904 0.267344
O O1 0.601169 0.459935 0.297240
O O2 0.520697 0.742487 0.258363
O O3 0.687356 0.692010 0.209129
O O4 0.627870 0.694343 0.426162
O O5 0.651650 0.164334 0.262802
O O6 0.584305 0.329556 0.094762
O O7 0.680651 0.233600 0.927461
O O8 0.673287 0.017694 0.766938
O O9 0.766387 0.975229 0.949014
O O10 0.192276 0.523542 0.569643
O O11 0.247290 0.739259 0.423031
O O12 0.090023 0.616656 0.403330
O O13 0.401702 0.502853 0.910706
O O14 0.182391 0.963595 0.287378
O O15 0.086109 0.746230 0.198015
O O16 0.000000 0.000000 0.271565
O O17 0.000000 0.500000 0.230903
#
# Coordination Sequence:
#
# PCOD8156217 Si02
#       8
#     4   4   4   4   4   4   4   4
#     4  10  22  41  63  96 126 174 218 271 322 401
#     4  10  23  42  64  97 134 164 223 269 326 398
#     4  11  22  42  66  96 139 170 224 268 332 394
#     4  11  23  41  68  90 128 176 209 269 338 378
#     4  11  22  40  68  95 126 184 205 275 331 386
#     4  11  24  41  67  94 130 170 229 268 330 404
#     4  11  23  43  65  98 132 171 220 272 325 402
#     4  11  25  44  62  98 134 170 220 279 326 405
#
# _framework density 21.218059
#
# number of rings (size 3 to 8) (size 9 to 14) (size 15 to 20)
#    0.000    1.250    0.000    7.500    5.250    1.000 
#   13.500    0.000    0.000    0.000    0.000    0.000 
#    0.000    0.000    0.000    0.000    0.000    0.000 
#
# Total GULP energy -396806.860095 kJ/mol
# GULP energy per Si atom -12400.214378 kJ/mol
# Density = 2.116977 g / cm^3
# Si number density = 21.218059 Si / 1000 Ang^3
#
#
#
# Elastic Constant Matrix: (Units=GPa)
#
#
# Indices 1 2 3 4 5 6 
#
# 1 124.8791 40.1588 39.4105 0.0000 0.0000 0.0000
# 2 40.1588 75.6994 57.0251 0.0000 0.0000 0.0000
# 3 39.4105 57.0251 118.0943 0.0000 0.0000 0.0000
# 4 0.0000 0.0000 0.0000 88.8906 0.0000 0.0000
# 5 0.0000 0.0000 0.0000 0.0000 -22.0557 0.0000
# 6 0.0000 0.0000 0.0000 0.0000 0.0000 35.5608
#
#
#
# Elastic Compliance Matrix: (Units=1/GPa)
#
#
# Indices 1 2 3 4 5 6 
#
# 1 0.009760 -0.004282 -0.001190 0.000000 0.000000 0.000000
# 2 -0.004282 0.022641 -0.009504 0.000000 0.000000 0.000000
# 3 -0.001190 -0.009504 0.013454 0.000000 0.000000 0.000000
# 4 0.000000 0.000000 0.000000 0.011250 0.000000 0.000000
# 5 0.000000 0.000000 0.000000 0.000000 -0.045340 0.000000
# 6 0.000000 0.000000 0.000000 0.000000 0.000000 0.028121
#
#
# Mechanical properties :
#
#
# Convention : Reuss Voigt Hill
#
# Bulk Modulus (GPa) = 62.87446 65.76242 64.31844
# Shear Modulus (GPa) = 66.54435 32.61771 49.58103
#
# Velocity S-wave (km/s) = 5.60627 3.92505 4.83923
# Velocity P-wave (km/s) = 8.46190 7.18347 7.84876
#
# Compressibility (1/GPa) = 0.01590471
#
# Stress axis : x y z
#
# Youngs Moduli (GPa) = 102.45838 44.16775 74.32691
#
# Poissons Ratio (x) = 0.18911 0.08842
# Poissons Ratio (y) = 0.43868 0.70640
# Poissons Ratio (z) = 0.12189 0.41977
#
# Static dielectric constant tensor:
#      x y z
#    x 3.997950 0.000000 0.000000 
#    y 0.000000 3.840900 0.000000 
#    z 0.000000 0.000000 3.866770 
# 
# 
# High freq. dielectric constant tensor:
#      x y z
#    x 1.836130 0.000000 0.000000 
#    y 0.000000 1.833540 0.000000 
#    z 0.000000 0.000000 1.835720 
# 
# From -- ./inp_files/6111.got.cif
#   From: 2010.03.12/outbox.cif.g09.slc.cpg/sg18_4_cif.got.tgz:6111.got - 2010.04.10 18:53:55.
