data_PCOD8156268
_publ_section_title
;
Structure prediction by ZEFSAII (Michael W. Deem and Ramdas Pophale) SiO2 
 PCOD8156268
Probable space group: P 21 21 2
;
_chemical_formula_sum "Si O2"
_cell_formula_units_Z 16
_cell_length_a 9.767036
_cell_length_b 8.187264
_cell_length_c 8.986187
_cell_angle_alpha 90.000000
_cell_angle_beta 90.000000
_cell_angle_gamma 90.000000
_cell_volume 718.583159
_symmetry_space_group_name_H-M "P 21 21 2"
_symmetry_group_IT_number 18
_symmetry_cell_setting 'orthorhombic'
loop_
_space_group_symop_operation_xyz
x,y,z
-x,-y,z
1/2+x,1/2-y,-z
1/2-x,1/2+y,-z
loop_
_atom_site_type_symbol
_atom_site_label
_atom_site_fract_x
_atom_site_fract_y
_atom_site_fract_z
Si Si1 0.853534 0.462169 0.456676
Si Si2 0.867484 0.096724 0.347161
Si Si3 0.402675 0.244740 0.948634
Si Si4 0.310278 0.898093 0.860653
O O1 0.851238 0.275605 0.412016
O O2 0.755213 0.485977 0.595639
O O3 0.825406 0.586760 0.318068
O O4 0.000000 0.500000 0.524226
O O5 0.863750 0.114077 0.169553
O O6 0.000000 0.000000 0.403802
O O7 0.566181 0.210174 0.935195
O O8 0.319055 0.079574 0.924048
O O9 0.339577 0.319832 0.102024
#
# Coordination Sequence:
#
# PCOD8156268 Si02
#       4
#     4   4   4   4
#     4  11  22  45  65  93 133 166 215 267 314 379
#     4  11  24  43  67  95 128 171 211 265 322 377
#     4  10  23  43  65  94 130 167 211 261 318 374
#     4  10  22  44  64  93 131 166 211 265 309 380
#
# _framework density 22.266038999999999
#
# number of rings (size 3 to 8) (size 9 to 14) (size 15 to 20)
#    0.000    1.500    5.000    1.500    3.500    0.000 
#   18.000    0.000    0.000    0.000    0.000    0.000 
#    0.000    0.000    0.000    0.000    0.000    0.000 
#
# Total GULP energy -198244.945337 kJ/mol
# GULP energy per Si atom -12390.309084 kJ/mol
# Density = 2.221536 g / cm^3
# Si number density = 22.266039 Si / 1000 Ang^3
#
#
#
# Elastic Constant Matrix: (Units=GPa)
#
#
# Indices 1 2 3 4 5 6 
#
# 1 126.5152 45.9905 57.1434 0.0000 0.0000 0.0000
# 2 45.9905 76.0143 37.9767 0.0000 0.0000 0.0000
# 3 57.1434 37.9767 63.0942 0.0000 0.0000 0.0000
# 4 0.0000 0.0000 0.0000 34.4168 0.0000 0.0000
# 5 0.0000 0.0000 0.0000 0.0000 14.1743 0.0000
# 6 0.0000 0.0000 0.0000 0.0000 0.0000 45.7905
#
#
#
# Elastic Compliance Matrix: (Units=1/GPa)
#
#
# Indices 1 2 3 4 5 6 
#
# 1 0.013844 -0.003020 -0.010721 0.000000 0.000000 0.000000
# 2 -0.003020 0.019471 -0.008985 0.000000 0.000000 0.000000
# 3 -0.010721 -0.008985 0.030967 0.000000 0.000000 0.000000
# 4 0.000000 0.000000 0.000000 0.029056 0.000000 0.000000
# 5 0.000000 0.000000 0.000000 0.000000 0.070550 0.000000
# 6 0.000000 0.000000 0.000000 0.000000 0.000000 0.021839
#
#
# Mechanical properties :
#
#
# Convention : Reuss Voigt Hill
#
# Bulk Modulus (GPa) = 53.10252 60.87166 56.98709
# Shear Modulus (GPa) = 21.05659 27.17719 24.11689
#
# Velocity S-wave (km/s) = 3.07853 3.49745 3.29466
# Velocity P-wave (km/s) = 6.04461 6.61115 6.33422
#
# Compressibility (1/GPa) = 0.01883150
#
# Stress axis : x y z
#
# Youngs Moduli (GPa) = 72.23183 51.35739 32.29258
#
# Poissons Ratio (x) = 0.15510 0.34620
# Poissons Ratio (y) = 0.21814 0.29014
# Poissons Ratio (z) = 0.77438 0.46143
#
# Static dielectric constant tensor:
#      x y z
#    x 3.992290 0.000000 0.000000 
#    y 0.000000 4.244760 0.000000 
#    z 0.000000 0.000000 4.040210 
# 
# 
# High freq. dielectric constant tensor:
#      x y z
#    x 1.871600 0.000000 0.000000 
#    y 0.000000 1.899240 0.000000 
#    z 0.000000 0.000000 1.850270 
# 
# From -- ./inp_files/2778.got.cif
#   From: 2010.03.12/outbox.cif.g09.slc.cpg/sg18_2_cif.got.tgz:2778.got - 2010.04.10 18:53:55.
