data_PCOD8156021
_publ_section_title
;
Structure prediction by ZEFSAII (Michael W. Deem and Ramdas Pophale) SiO2 
 PCOD8156021
Probable space group: P 21 21 2
;
_chemical_formula_sum "Si O2"
_cell_formula_units_Z 24
_cell_length_a 4.962618
_cell_length_b 14.137824
_cell_length_c 16.786362
_cell_angle_alpha 90.000000
_cell_angle_beta 90.000000
_cell_angle_gamma 90.000000
_cell_volume 1177.741563
_symmetry_space_group_name_H-M "P 21 21 2"
_symmetry_group_IT_number 18
_symmetry_cell_setting 'orthorhombic'
loop_
_space_group_symop_operation_xyz
x,y,z
-x,-y,z
1/2+x,1/2-y,-z
1/2-x,1/2+y,-z
loop_
_atom_site_type_symbol
_atom_site_label
_atom_site_fract_x
_atom_site_fract_y
_atom_site_fract_z
Si Si1 0.953813 0.293530 0.540746
Si Si2 0.757447 0.941183 0.914634
Si Si3 0.000000 0.000000 0.628956
Si Si4 0.973554 0.199903 0.704008
Si Si5 0.000000 0.500000 0.482603
Si Si6 0.954219 0.275096 0.193429
Si Si7 0.989840 0.801553 0.030851
O O1 0.746765 0.249434 0.477495
O O2 0.872502 0.261134 0.629100
O O3 0.947556 0.407759 0.537019
O O4 0.672149 0.864865 0.850475
O O5 0.500000 0.000000 0.940740
O O6 0.876166 0.898775 0.996627
O O7 0.000000 0.000000 0.874246
O O8 0.944706 0.907567 0.682054
O O9 0.251037 0.975794 0.573519
O O10 0.737933 0.197936 0.768647
O O11 0.236529 0.253140 0.739467
O O12 0.991803 0.192807 0.127273
O O13 0.784306 0.716794 0.007145
#
# Coordination Sequence:
#
# PCOD8156021 Si02
#       7
#     4   4   2   4   2   4   4
#     4  12  23  43  66  92 124 167 216 253 305 375
#     4  11  22  37  61  93 118 154 205 255 298 361
#     4  12  24  38  62  98 126 158 198 258 328 372
#     4  12  24  39  61  94 131 159 200 256 319 376
#     4  12  22  44  68  90 118 168 220 260 296 374
#     4  11  24  39  59  89 127 161 192 249 318 373
#     4  10  20  40  60  81 116 164 202 229 289 371
#
# _framework density 20.377983
#
# number of rings (size 3 to 8) (size 9 to 14) (size 15 to 20)
#    0.000    0.667    3.333    7.000    3.500    0.000 
#    0.000    0.000    5.500    0.000    0.000    0.000 
#    0.000    0.000    0.000    0.000    0.000    0.000 
#
# Total GULP energy -297669.508690 kJ/mol
# GULP energy per Si atom -12402.896195 kJ/mol
# Density = 2.033160 g / cm^3
# Si number density = 20.377983 Si / 1000 Ang^3
#
#
#
# Elastic Constant Matrix: (Units=GPa)
#
#
# Indices 1 2 3 4 5 6 
#
# 1 92.9318 3.2562 12.3585 0.0000 0.0000 0.0000
# 2 3.2562 73.8023 20.3190 0.0000 0.0000 0.0000
# 3 12.3585 20.3190 95.5655 0.0000 0.0000 0.0000
# 4 0.0000 0.0000 0.0000 682.2737 0.0000 0.0000
# 5 0.0000 0.0000 0.0000 0.0000 38.7115 0.0000
# 6 0.0000 0.0000 0.0000 0.0000 0.0000 28.9177
#
#
#
# Elastic Compliance Matrix: (Units=1/GPa)
#
#
# Indices 1 2 3 4 5 6 
#
# 1 0.010950 -0.000099 -0.001395 0.000000 0.000000 0.000000
# 2 -0.000099 0.014393 -0.003047 0.000000 0.000000 0.000000
# 3 -0.001395 -0.003047 0.011292 0.000000 0.000000 0.000000
# 4 0.000000 0.000000 0.000000 0.001466 0.000000 0.000000
# 5 0.000000 0.000000 0.000000 0.000000 0.025832 0.000000
# 6 0.000000 0.000000 0.000000 0.000000 0.000000 0.034581
#
#
# Mechanical properties :
#
#
# Convention : Reuss Voigt Hill
#
# Bulk Modulus (GPa) = 36.29476 37.12966 36.71221
# Shear Modulus (GPa) = 42.81531 165.07163 103.94347
#
# Velocity S-wave (km/s) = 4.58870 9.01004 7.14972
# Velocity P-wave (km/s) = 6.77675 11.24727 9.28508
#
# Compressibility (1/GPa) = 0.02755219
#
# Stress axis : x y z
#
# Youngs Moduli (GPa) = 91.32787 69.47779 88.55546
#
# Poissons Ratio (x) = 0.00688 0.12353
# Poissons Ratio (y) = 0.00905 0.26987
# Poissons Ratio (z) = 0.12740 0.21173
#
# Static dielectric constant tensor:
#      x y z
#    x -0.970730 0.000000 0.000000 
#    y 0.000000 3.584780 0.000000 
#    z 0.000000 0.000000 3.730410 
# 
# 
# High freq. dielectric constant tensor:
#      x y z
#    x 1.824160 0.000000 0.000000 
#    y 0.000000 1.771860 0.000000 
#    z 0.000000 0.000000 1.793690 
# 
# From -- ./inp_files/6505.got.cif
#   From: 2010.03.12/outbox.cif.g09.slc.cpg/sg18_4_cif.got.tgz:6505.got - 2010.04.10 18:53:55.
