data_PCOD8156694
_publ_section_title
;
Structure prediction by ZEFSAII (Michael W. Deem and Ramdas Pophale) SiO2 
 PCOD8156694
Probable space group: P 21 21 21
;
_chemical_formula_sum "Si O2"
_cell_formula_units_Z 32
_cell_length_a 9.244302
_cell_length_b 14.154475
_cell_length_c 11.569336
_cell_angle_alpha 90.000000
_cell_angle_beta 90.000000
_cell_angle_gamma 90.000000
_cell_volume 1513.827272
_symmetry_space_group_name_H-M "P 21 21 21"
_symmetry_group_IT_number 19
_symmetry_cell_setting 'orthorhombic'
loop_
_space_group_symop_operation_xyz
x,y,z
1/2-x,-y,1/2+z
1/2+x,1/2-y,-z
-x,1/2+y,1/2-z
loop_
_atom_site_type_symbol
_atom_site_label
_atom_site_fract_x
_atom_site_fract_y
_atom_site_fract_z
Si Si1 0.446757 0.867759 0.723626
Si Si2 0.679540 0.660962 0.399134
Si Si3 0.638917 0.465094 0.069302
Si Si4 0.563160 0.054908 0.004158
Si Si5 0.009019 0.661073 0.016091
Si Si6 0.122816 0.640144 0.498395
Si Si7 0.311550 0.164468 0.548632
Si Si8 0.387693 0.070677 0.773467
O O1 0.278149 0.834447 0.715599
O O2 0.495531 0.832058 0.846846
O O3 0.554400 0.829286 0.624779
O O4 0.457357 0.981076 0.709378
O O5 0.789551 0.615025 0.490212
O O6 0.536270 0.595329 0.391022
O O7 0.632170 0.765953 0.427740
O O8 0.470563 0.435495 0.073483
O O9 0.723601 0.458327 0.190475
O O10 0.655791 0.570600 0.023174
O O11 0.721230 0.095157 0.020402
O O12 0.488723 0.093584 0.884819
O O13 0.570727 0.941969 0.015353
O O14 0.118769 0.745372 0.983499
O O15 0.860627 0.679387 0.947814
O O16 0.375842 0.154745 0.679597
#
# Coordination Sequence:
#
# PCOD8156694 Si02
#       8
#     4   4   4   4   4   4   4   4
#     4  10  20  42  63  94 125 171 214 259 330 383
#     4  10  19  38  65  90 129 164 207 269 327 384
#     4  10  21  41  63  93 126 168 215 265 328 385
#     4  10  21  41  62 100 135 162 220 272 328 385
#     4  11  26  42  66  93 132 179 216 261 326 411
#     4  11  22  35  67 100 126 157 215 289 317 370
#     4  12  23  45  69  89 131 178 219 263 332 393
#     4  10  20  42  69  83 128 183 206 260 334 395
#
# _framework density 21.138473999999999
#
# number of rings (size 3 to 8) (size 9 to 14) (size 15 to 20)
#    0.000    1.500    6.250    1.500    7.000    0.000 
#    2.250    5.000    0.000    0.000    0.000    0.000 
#    0.000    0.000    0.000    0.000    0.000    0.000 
#
# Total GULP energy -396600.815565 kJ/mol
# GULP energy per Si atom -12393.775486 kJ/mol
# Density = 2.109036 g / cm^3
# Si number density = 21.138474 Si / 1000 Ang^3
#
#
#
# Elastic Constant Matrix: (Units=GPa)
#
#
# Indices 1 2 3 4 5 6 
#
# 1 115.8866 31.8184 15.5281 0.0000 0.0000 0.0000
# 2 31.8184 91.9012 17.8977 0.0000 0.0000 0.0000
# 3 15.5281 17.8977 13.6342 0.0000 0.0000 0.0000
# 4 0.0000 0.0000 0.0000 13.1108 0.0000 0.0000
# 5 0.0000 0.0000 0.0000 0.0000 11.9704 0.0000
# 6 0.0000 0.0000 0.0000 0.0000 0.0000 41.5458
#
#
#
# Elastic Compliance Matrix: (Units=1/GPa)
#
#
# Indices 1 2 3 4 5 6 
#
# 1 0.010385 -0.001736 -0.009549 0.000000 0.000000 0.000000
# 2 -0.001736 0.014909 -0.017593 0.000000 0.000000 0.000000
# 3 -0.009549 -0.017593 0.107315 0.000000 0.000000 0.000000
# 4 0.000000 0.000000 0.000000 0.076273 0.000000 0.000000
# 5 0.000000 0.000000 0.000000 0.000000 0.083540 0.000000
# 6 0.000000 0.000000 0.000000 0.000000 0.000000 0.024070
#
#
# Mechanical properties :
#
#
# Convention : Reuss Voigt Hill
#
# Bulk Modulus (GPa) = 13.35967 39.10114 26.23040
# Shear Modulus (GPa) = 12.52508 23.73724 18.13116
#
# Velocity S-wave (km/s) = 2.43682 3.35467 2.93188
# Velocity P-wave (km/s) = 3.77509 5.79162 4.88846
#
# Compressibility (1/GPa) = 0.07485215
#
# Stress axis : x y z
#
# Youngs Moduli (GPa) = 96.29015 67.07551 9.31835
#
# Poissons Ratio (x) = 0.11644 0.08898
# Poissons Ratio (y) = 0.16716 0.16394
# Poissons Ratio (z) = 0.91948 1.18009
#
# Static dielectric constant tensor:
#      x y z
#    x 4.097970 0.000000 0.000000 
#    y 0.000000 3.872450 0.000000 
#    z 0.000000 0.000000 3.781380 
# 
# 
# High freq. dielectric constant tensor:
#      x y z
#    x 1.827850 0.000000 0.000000 
#    y 0.000000 1.836570 0.000000 
#    z 0.000000 0.000000 1.804960 
# 
# From -- ./inp_files/4730.got.cif
#   From: 2010.03.12/outbox.cif.g09.slc.cpg/sg19_3_cif.got.tgz:4730.got - 2010.04.10 18:59:41.
