data_PCOD8156879
_publ_section_title
;
Structure prediction by ZEFSAII (Michael W. Deem and Ramdas Pophale) SiO2 
 PCOD8156879
Probable space group: P 21 21 21
;
_chemical_formula_sum "Si O2"
_cell_formula_units_Z 32
_cell_length_a 8.603402
_cell_length_b 14.509329
_cell_length_c 11.548342
_cell_angle_alpha 90.000000
_cell_angle_beta 90.000000
_cell_angle_gamma 90.000000
_cell_volume 1441.574799
_symmetry_space_group_name_H-M "P 21 21 21"
_symmetry_group_IT_number 19
_symmetry_cell_setting 'orthorhombic'
loop_
_space_group_symop_operation_xyz
x,y,z
1/2-x,-y,1/2+z
1/2+x,1/2-y,-z
-x,1/2+y,1/2-z
loop_
_atom_site_type_symbol
_atom_site_label
_atom_site_fract_x
_atom_site_fract_y
_atom_site_fract_z
Si Si1 0.722961 0.912817 0.579090
Si Si2 0.030840 0.178076 0.214858
Si Si3 0.496134 0.434468 0.107634
Si Si4 0.375519 0.305249 0.542543
Si Si5 0.870127 0.363145 0.826944
Si Si6 0.477816 0.454628 0.369307
Si Si7 0.441958 0.746535 0.481583
Si Si8 0.984499 0.856315 0.908797
O O1 0.573235 0.903030 0.660684
O O2 0.677855 0.926999 0.444552
O O3 0.823374 0.820309 0.582189
O O4 0.807453 0.001080 0.629571
O O5 0.203336 0.138863 0.234730
O O6 0.954906 0.211155 0.333645
O O7 0.041754 0.262161 0.120984
O O8 0.500129 0.410058 0.243250
O O9 0.599324 0.354048 0.046542
O O10 0.545578 0.538385 0.072648
O O11 0.480727 0.378535 0.470340
O O12 0.392896 0.207871 0.476924
O O13 0.194704 0.335837 0.552924
O O14 0.896145 0.463696 0.887047
O O15 0.889818 0.283357 0.925250
O O16 0.001293 0.342063 0.729161
#
# Coordination Sequence:
#
# PCOD8156879 Si02
#       8
#     4   4   4   4   4   4   4   4
#     4  10  21  40  70  98 128 172 229 271 332 409
#     4  11  22  39  65 101 136 169 222 281 329 398
#     4  10  20  40  67  95 127 175 218 274 341 385
#     4  12  24  43  66 100 134 184 224 275 345 397
#     4  10  22  44  67 101 136 171 226 279 330 401
#     4  10  22  41  67  95 131 181 220 276 331 407
#     4  10  21  40  69  96 127 177 223 272 329 397
#     4  11  24  43  69  94 135 179 226 278 331 412
#
# _framework density 22.197946999999999
#
# number of rings (size 3 to 8) (size 9 to 14) (size 15 to 20)
#    0.000    1.500    1.250    5.250    0.000    1.000 
#   13.500    1.250    0.000    0.000    0.000    0.000 
#    0.000    0.000    0.000    0.000    0.000    0.000 
#
# Total GULP energy -396449.080342 kJ/mol
# GULP energy per Si atom -12389.033761 kJ/mol
# Density = 2.214742 g / cm^3
# Si number density = 22.197947 Si / 1000 Ang^3
#
#
#
# Elastic Constant Matrix: (Units=GPa)
#
#
# Indices 1 2 3 4 5 6 
#
# 1 55.2518 18.1938 10.4157 0.0000 0.0000 0.0000
# 2 18.1938 123.3699 58.2229 0.0000 0.0000 0.0000
# 3 10.4157 58.2229 119.1378 0.0000 0.0000 0.0000
# 4 0.0000 0.0000 0.0000 33.3049 0.0000 0.0000
# 5 0.0000 0.0000 0.0000 0.0000 31.2695 0.0000
# 6 0.0000 0.0000 0.0000 0.0000 0.0000 29.2110
#
#
#
# Elastic Compliance Matrix: (Units=1/GPa)
#
#
# Indices 1 2 3 4 5 6 
#
# 1 0.019036 -0.002628 -0.000380 0.000000 0.000000 0.000000
# 2 -0.002628 0.010898 -0.005096 0.000000 0.000000 0.000000
# 3 -0.000380 -0.005096 0.010917 0.000000 0.000000 0.000000
# 4 0.000000 0.000000 0.000000 0.030026 0.000000 0.000000
# 5 0.000000 0.000000 0.000000 0.000000 0.031980 0.000000
# 6 0.000000 0.000000 0.000000 0.000000 0.000000 0.034234
#
#
# Mechanical properties :
#
#
# Convention : Reuss Voigt Hill
#
# Bulk Modulus (GPa) = 40.57894 52.38047 46.47971
# Shear Modulus (GPa) = 30.95705 32.81888 31.88797
#
# Velocity S-wave (km/s) = 3.73847 3.84925 3.79427
# Velocity P-wave (km/s) = 6.07907 6.58816 6.33873
#
# Compressibility (1/GPa) = 0.02464332
#
# Stress axis : x y z
#
# Youngs Moduli (GPa) = 52.53216 91.75647 91.59661
#
# Poissons Ratio (x) = 0.24114 0.03480
# Poissons Ratio (y) = 0.13806 0.46681
# Poissons Ratio (z) = 0.01996 0.46762
#
# Static dielectric constant tensor:
#      x y z
#    x 3.957960 0.000000 0.000000 
#    y 0.000000 4.149810 0.000000 
#    z 0.000000 0.000000 4.184580 
# 
# 
# High freq. dielectric constant tensor:
#      x y z
#    x 1.863890 0.000000 0.000000 
#    y 0.000000 1.868570 0.000000 
#    z 0.000000 0.000000 1.882600 
# 
# From -- ./inp_files/4727.got.cif
#   From: 2010.03.12/outbox.cif.g09.slc.cpg/sg19_3_cif.got.tgz:4727.got - 2010.04.10 18:59:41.
