data_PCOD8156811
_publ_section_title
;
Structure prediction by ZEFSAII (Michael W. Deem and Ramdas Pophale) SiO2 
 PCOD8156811
Probable space group: P 21 21 21
;
_chemical_formula_sum "Si O2"
_cell_formula_units_Z 32
_cell_length_a 8.848239
_cell_length_b 17.106954
_cell_length_c 11.329839
_cell_angle_alpha 90.000000
_cell_angle_beta 90.000000
_cell_angle_gamma 90.000000
_cell_volume 1714.957141
_symmetry_space_group_name_H-M "P 21 21 21"
_symmetry_group_IT_number 19
_symmetry_cell_setting 'orthorhombic'
loop_
_space_group_symop_operation_xyz
x,y,z
1/2-x,-y,1/2+z
1/2+x,1/2-y,-z
-x,1/2+y,1/2-z
loop_
_atom_site_type_symbol
_atom_site_label
_atom_site_fract_x
_atom_site_fract_y
_atom_site_fract_z
Si Si1 0.520270 0.520007 0.830146
Si Si2 0.732834 0.597628 0.257474
Si Si3 0.492800 0.014923 0.406204
Si Si4 0.089937 0.848840 0.351382
Si Si5 0.008865 0.190269 0.225008
Si Si6 0.258278 0.421756 0.752868
Si Si7 0.969586 0.833043 0.592380
Si Si8 0.575867 0.339591 0.049660
O O1 0.637887 0.448661 0.829595
O O2 0.586626 0.577743 0.733320
O O3 0.346609 0.497256 0.802333
O O4 0.517191 0.551652 0.963384
O O5 0.659500 0.545836 0.155527
O O6 0.609830 0.623722 0.350244
O O7 0.827883 0.673940 0.210950
O O8 0.641542 0.050762 0.346155
O O9 0.499050 0.920086 0.401393
O O10 0.050469 0.777892 0.263174
O O11 0.962448 0.852614 0.452968
O O12 0.245901 0.841142 0.422924
O O13 0.887518 0.136510 0.295235
O O14 0.030376 0.169131 0.086218
O O15 0.181386 0.371803 0.856966
O O16 0.982420 0.739366 0.616052
#
# Coordination Sequence:
#
# PCOD8156811 Si02
#       8
#     4   4   4   4   4   4   4   4
#     4  11  23  38  58  87 122 152 197 236 285 363
#     4  10  20  38  59  82 119 155 188 238 292 350
#     4  11  22  38  58  86 120 156 193 234 296 346
#     4  11  21  35  63  90 114 153 193 245 290 346
#     4  10  20  38  58  88 119 146 195 243 295 334
#     4  10  22  37  55  85 124 152 183 246 290 344
#     4  10  21  35  61  90 114 148 192 246 301 331
#     4  11  19  35  62  90 118 142 195 256 287 334
#
# _framework density 18.65936
#
# number of rings (size 3 to 8) (size 9 to 14) (size 15 to 20)
#    0.000    1.500    6.250    0.000    1.750    1.000 
#    0.000    1.250    0.000    0.000    0.000    0.000 
#    0.000    0.000    0.000    0.000    0.000    0.000 
#
# Total GULP energy -396435.972487 kJ/mol
# GULP energy per Si atom -12388.624140 kJ/mol
# Density = 1.861689 g / cm^3
# Si number density = 18.659360 Si / 1000 Ang^3
#
#
#
# Elastic Constant Matrix: (Units=GPa)
#
#
# Indices 1 2 3 4 5 6 
#
# 1 84.7835 14.8163 19.0550 0.0000 0.0000 0.0000
# 2 14.8163 76.2057 17.3314 0.0000 0.0000 0.0000
# 3 19.0550 17.3314 61.9756 0.0000 0.0000 0.0000
# 4 0.0000 0.0000 0.0000 27.6175 0.0000 0.0000
# 5 0.0000 0.0000 0.0000 0.0000 22.4416 0.0000
# 6 0.0000 0.0000 0.0000 0.0000 0.0000 28.9811
#
#
#
# Elastic Compliance Matrix: (Units=1/GPa)
#
#
# Indices 1 2 3 4 5 6 
#
# 1 0.012876 -0.001712 -0.003480 0.000000 0.000000 0.000000
# 2 -0.001712 0.014241 -0.003456 0.000000 0.000000 0.000000
# 3 -0.003480 -0.003456 0.018172 0.000000 0.000000 0.000000
# 4 0.000000 0.000000 0.000000 0.036209 0.000000 0.000000
# 5 0.000000 0.000000 0.000000 0.000000 0.044560 0.000000
# 6 0.000000 0.000000 0.000000 0.000000 0.000000 0.034505
#
#
# Mechanical properties :
#
#
# Convention : Reuss Voigt Hill
#
# Bulk Modulus (GPa) = 35.72361 36.15224 35.93793
# Shear Modulus (GPa) = 26.71070 27.25885 26.98477
#
# Velocity S-wave (km/s) = 3.78761 3.82628 3.80699
# Velocity P-wave (km/s) = 6.18989 6.23999 6.21499
#
# Compressibility (1/GPa) = 0.02799269
#
# Stress axis : x y z
#
# Youngs Moduli (GPa) = 77.66341 70.21849 55.03001
#
# Poissons Ratio (x) = 0.12021 0.19151
# Poissons Ratio (y) = 0.13296 0.19019
# Poissons Ratio (z) = 0.27028 0.24269
#
# Static dielectric constant tensor:
#      x y z
#    x 3.654650 0.000000 0.000000 
#    y 0.000000 3.710650 0.000000 
#    z 0.000000 0.000000 3.121980 
# 
# 
# High freq. dielectric constant tensor:
#      x y z
#    x 1.740770 0.000000 0.000000 
#    y 0.000000 1.730490 0.000000 
#    z 0.000000 0.000000 1.690190 
# 
# From -- ./inp_files/4243.got.cif
#   From: 2010.03.12/outbox.cif.g09.slc.cpg/sg19_3_cif.got.tgz:4243.got - 2010.04.10 18:59:41.
