data_PCOD8156254
_publ_section_title
;
Structure prediction by ZEFSAII (Michael W. Deem and Ramdas Pophale) SiO2 
 PCOD8156254
Probable space group: P 21 21 2
;
_chemical_formula_sum "Si O2"
_cell_formula_units_Z 16
_cell_length_a 13.001836
_cell_length_b 7.829102
_cell_length_c 7.493158
_cell_angle_alpha 90.000000
_cell_angle_beta 90.000000
_cell_angle_gamma 90.000000
_cell_volume 762.748786
_symmetry_space_group_name_H-M "P 21 21 2"
_symmetry_group_IT_number 18
_symmetry_cell_setting 'orthorhombic'
loop_
_space_group_symop_operation_xyz
x,y,z
-x,-y,z
1/2+x,1/2-y,-z
1/2-x,1/2+y,-z
loop_
_atom_site_type_symbol
_atom_site_label
_atom_site_fract_x
_atom_site_fract_y
_atom_site_fract_z
Si Si1 0.850044 0.515306 0.616895
Si Si2 0.930663 0.344706 0.962533
Si Si3 0.563018 0.347598 0.281921
Si Si4 0.710572 0.800150 0.707445
O O1 0.863151 0.400233 0.791834
O O2 0.939028 0.665219 0.608375
O O3 0.739136 0.610993 0.634439
O O4 0.853636 0.402985 0.439872
O O5 0.000000 0.500000 0.035391
O O6 0.004513 0.187522 0.905716
O O7 0.855565 0.280136 0.115620
O O8 0.500000 0.500000 0.381698
O O9 0.681923 0.399818 0.247760
#
# Coordination Sequence:
#
# PCOD8156254 Si02
#       4
#     4   4   4   4
#     4   9  23  39  61  92 125 172 206 265 320 385
#     4  10  22  43  64  92 128 166 214 270 321 374
#     4   9  22  38  65  94 126 165 216 274 309 392
#     4  10  23  41  65  91 129 174 204 268 329 375
#
# _framework density 20.976762000000001
#
# number of rings (size 3 to 8) (size 9 to 14) (size 15 to 20)
#    1.500    1.000    0.000    0.000    7.000    3.000 
#    0.000    0.000    0.000    0.000    0.000    0.000 
#    0.000    0.000    0.000    0.000    0.000    0.000 
#
# Total GULP energy -198212.692313 kJ/mol
# GULP energy per Si atom -12388.293270 kJ/mol
# Density = 2.092902 g / cm^3
# Si number density = 20.976762 Si / 1000 Ang^3
#
#
#
# Elastic Constant Matrix: (Units=GPa)
#
#
# Indices 1 2 3 4 5 6 
#
# 1 60.5396 -12.0361 39.0274 0.0000 0.0000 0.0000
# 2 -12.0361 38.5145 28.8666 0.0000 0.0000 0.0000
# 3 39.0274 28.8666 115.9105 0.0000 0.0000 0.0000
# 4 0.0000 0.0000 0.0000 16.1069 0.0000 0.0000
# 5 0.0000 0.0000 0.0000 0.0000 28.9609 0.0000
# 6 0.0000 0.0000 0.0000 0.0000 0.0000 39.5608
#
#
#
# Elastic Compliance Matrix: (Units=1/GPa)
#
#
# Indices 1 2 3 4 5 6 
#
# 1 0.030969 0.021508 -0.015784 0.000000 0.000000 0.000000
# 2 0.021508 0.046860 -0.018912 0.000000 0.000000 0.000000
# 3 -0.015784 -0.018912 0.018652 0.000000 0.000000 0.000000
# 4 0.000000 0.000000 0.000000 0.062085 0.000000 0.000000
# 5 0.000000 0.000000 0.000000 0.000000 0.034529 0.000000
# 6 0.000000 0.000000 0.000000 0.000000 0.000000 0.025278
#
#
# Mechanical properties :
#
#
# Convention : Reuss Voigt Hill
#
# Bulk Modulus (GPa) = 14.26413 36.29783 25.28098
# Shear Modulus (GPa) = 18.64853 27.53284 23.09069
#
# Velocity S-wave (km/s) = 2.98486 3.62683 3.32139
# Velocity P-wave (km/s) = 4.32365 5.90592 5.17561
#
# Compressibility (1/GPa) = 0.07010592
#
# Stress axis : x y z
#
# Youngs Moduli (GPa) = 32.28984 21.34004 53.61425
#
# Poissons Ratio (x) = -0.45899 0.84625
# Poissons Ratio (y) = -0.69450 1.01396
# Poissons Ratio (z) = 0.50966 0.40358
#
# Static dielectric constant tensor:
#      x y z
#    x 3.838450 0.000000 0.000000 
#    y 0.000000 3.772500 0.000000 
#    z 0.000000 0.000000 3.308200 
# 
# 
# High freq. dielectric constant tensor:
#      x y z
#    x 1.826910 0.000000 0.000000 
#    y 0.000000 1.819080 0.000000 
#    z 0.000000 0.000000 1.783980 
# 
# From -- ./inp_files/2827.got.cif
#   From: 2010.03.12/outbox.cif.g09.slc.cpg/sg18_2_cif.got.tgz:2827.got - 2010.04.10 18:53:55.
