data_PCOD8156142
_publ_section_title
;
Structure prediction by ZEFSAII (Michael W. Deem and Ramdas Pophale) SiO2 
 PCOD8156142
Probable space group: P 21 21 2
;
_chemical_formula_sum "Si O2"
_cell_formula_units_Z 22
_cell_length_a 13.235291
_cell_length_b 5.075750
_cell_length_c 13.860328
_cell_angle_alpha 90.000000
_cell_angle_beta 90.000000
_cell_angle_gamma 90.000000
_cell_volume 931.123367
_symmetry_space_group_name_H-M "P 21 21 2"
_symmetry_group_IT_number 18
_symmetry_cell_setting 'orthorhombic'
loop_
_space_group_symop_operation_xyz
x,y,z
-x,-y,z
1/2+x,1/2-y,-z
1/2-x,1/2+y,-z
loop_
_atom_site_type_symbol
_atom_site_label
_atom_site_fract_x
_atom_site_fract_y
_atom_site_fract_z
Si Si1 0.597273 0.673964 0.241237
Si Si2 0.884406 0.080574 0.158719
Si Si3 0.500000 0.000000 0.401066
Si Si4 0.566119 0.755422 0.034570
Si Si5 0.185996 0.421093 0.263160
Si Si6 0.681908 0.192515 0.521506
O O1 0.500000 0.500000 0.231395
O O2 0.581670 0.858771 0.333073
O O3 0.614956 0.829341 0.138912
O O4 0.695666 0.498565 0.264087
O O5 0.875205 0.321733 0.232733
O O6 0.821300 0.826781 0.190478
O O7 0.853155 0.183322 0.050693
O O8 0.000000 0.000000 0.154834
O O9 0.574386 0.184165 0.464701
O O10 0.500000 0.500000 0.053997
O O11 0.500000 0.000000 0.996380
O O12 0.148034 0.335167 0.367802
O O13 0.763456 0.971004 0.493109
#
# Coordination Sequence:
#
# PCOD8156142 Si02
#       6
#     4   4   2   4   4   4
#     4  11  25  45  74 104 143 187 240 302 366 427
#     4  11  25  45  69 101 148 189 238 293 359 430
#     4  12  26  46  76 100 142 192 234 298 372 420
#     4  10  21  41  71 101 139 188 237 291 355 430
#     4  12  26  45  71 107 142 189 241 297 356 437
#     4  12  27  48  71 104 143 185 242 299 357 432
#
# _framework density 23.627376000000002
#
# number of rings (size 3 to 8) (size 9 to 14) (size 15 to 20)
#    0.000    0.727    2.727    4.909    5.091    1.455 
#    0.000    0.000    0.000    0.000    0.000    0.000 
#    0.000    0.000    0.000    0.000    0.000    0.000 
#
# Total GULP energy -272680.843296 kJ/mol
# GULP energy per Si atom -12394.583786 kJ/mol
# Density = 2.357360 g / cm^3
# Si number density = 23.627376 Si / 1000 Ang^3
#
#
#
# Elastic Constant Matrix: (Units=GPa)
#
#
# Indices 1 2 3 4 5 6 
#
# 1 67.7167 10.3889 55.1523 0.0000 0.0000 0.0000
# 2 10.3889 96.9291 14.6039 0.0000 0.0000 0.0000
# 3 55.1523 14.6039 131.0556 0.0000 0.0000 0.0000
# 4 0.0000 0.0000 0.0000 29.3109 0.0000 0.0000
# 5 0.0000 0.0000 0.0000 0.0000 45.6024 0.0000
# 6 0.0000 0.0000 0.0000 0.0000 0.0000 37.5622
#
#
#
# Elastic Compliance Matrix: (Units=1/GPa)
#
#
# Indices 1 2 3 4 5 6 
#
# 1 0.022564 -0.001005 -0.009384 0.000000 0.000000 0.000000
# 2 -0.001005 0.010538 -0.000751 0.000000 0.000000 0.000000
# 3 -0.009384 -0.000751 0.011663 0.000000 0.000000 0.000000
# 4 0.000000 0.000000 0.000000 0.034117 0.000000 0.000000
# 5 0.000000 0.000000 0.000000 0.000000 0.021929 0.000000
# 6 0.000000 0.000000 0.000000 0.000000 0.000000 0.026622
#
#
# Mechanical properties :
#
#
# Convention : Reuss Voigt Hill
#
# Bulk Modulus (GPa) = 44.47359 50.66573 47.56966
# Shear Modulus (GPa) = 31.80501 36.86554 34.33528
#
# Velocity S-wave (km/s) = 3.67292 3.95433 3.81622
# Velocity P-wave (km/s) = 6.07049 6.50686 6.29246
#
# Compressibility (1/GPa) = 0.02248525
#
# Stress axis : x y z
#
# Youngs Moduli (GPa) = 44.31796 94.89722 85.74076
#
# Poissons Ratio (x) = 0.09534 0.80457
# Poissons Ratio (y) = 0.04452 0.06443
# Poissons Ratio (z) = 0.41587 0.07131
#
# Static dielectric constant tensor:
#      x y z
#    x 4.252520 0.000000 0.000000 
#    y 0.000000 3.715810 0.000000 
#    z 0.000000 0.000000 5.337470 
# 
# 
# High freq. dielectric constant tensor:
#      x y z
#    x 1.921540 0.000000 0.000000 
#    y 0.000000 1.928760 0.000000 
#    z 0.000000 0.000000 1.966750 
# 
# From -- ./inp_files/6847.got.cif
#   From: 2010.03.12/outbox.cif.g09.slc.cpg/sg18_4_cif.got.tgz:6847.got - 2010.04.10 18:53:55.
