data_PCOD8156842
_publ_section_title
;
Structure prediction by ZEFSAII (Michael W. Deem and Ramdas Pophale) SiO2 
 PCOD8156842
Probable space group: P 21 21 21
;
_chemical_formula_sum "Si O2"
_cell_formula_units_Z 28
_cell_length_a 15.322055
_cell_length_b 8.848861
_cell_length_c 9.214654
_cell_angle_alpha 90.000000
_cell_angle_beta 90.000000
_cell_angle_gamma 90.000000
_cell_volume 1249.347991
_symmetry_space_group_name_H-M "P 21 21 21"
_symmetry_group_IT_number 19
_symmetry_cell_setting 'orthorhombic'
loop_
_space_group_symop_operation_xyz
x,y,z
1/2-x,-y,1/2+z
1/2+x,1/2-y,-z
-x,1/2+y,1/2-z
loop_
_atom_site_type_symbol
_atom_site_label
_atom_site_fract_x
_atom_site_fract_y
_atom_site_fract_z
Si Si1 0.202003 0.874581 0.861425
Si Si2 0.053118 0.455579 0.827056
Si Si3 0.827969 0.046146 0.169909
Si Si4 0.414457 0.324760 0.564877
Si Si5 0.606045 0.358647 0.247283
Si Si6 0.882018 0.738912 0.049335
Si Si7 0.317993 0.384832 0.148192
O O1 0.306801 0.864963 0.878725
O O2 0.179001 0.782505 0.715372
O O3 0.179681 0.052894 0.844230
O O4 0.141882 0.811499 0.994089
O O5 0.057229 0.273012 0.844863
O O6 0.091536 0.526635 0.677509
O O7 0.953417 0.508850 0.815914
O O8 0.103956 0.526680 0.965953
O O9 0.887184 0.155241 0.268229
O O10 0.882765 0.903881 0.116740
O O11 0.749053 0.993584 0.268822
O O12 0.797066 0.132372 0.023365
O O13 0.518518 0.310283 0.567050
O O14 0.646860 0.263762 0.380558
#
# Coordination Sequence:
#
# PCOD8156842 Si02
#       7
#     4   4   4   4   4   4   4
#     4  10  23  44  67 100 137 181 231 283 340 410
#     4  10  20  38  69  96 123 173 228 277 340 404
#     4  11  21  42  68  95 133 175 225 283 339 411
#     4  10  23  44  67 100 137 181 231 283 340 410
#     4  11  21  42  68  95 133 175 225 283 339 411
#     4  10  22  44  64 100 142 174 230 282 340 406
#     4  10  20  38  69  96 123 173 228 277 340 404
#
# _framework density 22.411688000000002
#
# number of rings (size 3 to 8) (size 9 to 14) (size 15 to 20)
#    0.000    1.714    1.429    5.143    0.000    0.000 
#   18.000    0.000    0.000    0.000    0.000    0.000 
#    0.000    0.000    0.000    0.000    0.000    0.000 
#
# Total GULP energy -346889.269368 kJ/mol
# GULP energy per Si atom -12388.902477 kJ/mol
# Density = 2.236068 g / cm^3
# Si number density = 22.411688 Si / 1000 Ang^3
#
#
#
# Elastic Constant Matrix: (Units=GPa)
#
#
# Indices 1 2 3 4 5 6 
#
# 1 81.9497 -2.3540 33.9151 0.0000 0.0000 0.0000
# 2 -2.3540 52.5184 33.5557 0.0000 0.0000 0.0000
# 3 33.9151 33.5557 151.9101 0.0000 0.0000 0.0000
# 4 0.0000 0.0000 0.0000 25.8410 0.0000 0.0000
# 5 0.0000 0.0000 0.0000 0.0000 27.7690 0.0000
# 6 0.0000 0.0000 0.0000 0.0000 0.0000 28.7186
#
#
#
# Elastic Compliance Matrix: (Units=1/GPa)
#
#
# Indices 1 2 3 4 5 6 
#
# 1 0.013845 0.003022 -0.003759 0.000000 0.000000 0.000000
# 2 0.003022 0.022830 -0.005718 0.000000 0.000000 0.000000
# 3 -0.003759 -0.005718 0.008685 0.000000 0.000000 0.000000
# 4 0.000000 0.000000 0.000000 0.038698 0.000000 0.000000
# 5 0.000000 0.000000 0.000000 0.000000 0.036011 0.000000
# 6 0.000000 0.000000 0.000000 0.000000 0.000000 0.034821
#
#
# Mechanical properties :
#
#
# Convention : Reuss Voigt Hill
#
# Bulk Modulus (GPa) = 30.81551 46.29021 38.55286
# Shear Modulus (GPa) = 27.99320 31.21647 29.60484
#
# Velocity S-wave (km/s) = 3.53802 3.73616 3.63844
# Velocity P-wave (km/s) = 5.51994 6.26986 5.90681
#
# Compressibility (1/GPa) = 0.03245120
#
# Stress axis : x y z
#
# Youngs Moduli (GPa) = 72.22886 43.80294 115.14216
#
# Poissons Ratio (x) = -0.13237 0.43276
# Poissons Ratio (y) = -0.21827 0.65833
# Poissons Ratio (z) = 0.27147 0.25044
#
# Static dielectric constant tensor:
#      x y z
#    x 3.996110 0.000000 0.000000 
#    y 0.000000 3.906780 0.000000 
#    z 0.000000 0.000000 4.234070 
# 
# 
# High freq. dielectric constant tensor:
#      x y z
#    x 1.885460 0.000000 0.000000 
#    y 0.000000 1.872410 0.000000 
#    z 0.000000 0.000000 1.871520 
# 
# From -- ./inp_files/4166.got.cif
#   From: 2010.03.12/outbox.cif.g09.slc.cpg/sg19_3_cif.got.tgz:4166.got - 2010.04.10 18:59:41.
