data_PCOD8156434
_publ_section_title
;
Structure prediction by ZEFSAII (Michael W. Deem and Ramdas Pophale) SiO2 
 PCOD8156434
Probable space group: P 21 21 2
;
_chemical_formula_sum "Si O2"
_cell_formula_units_Z 20
_cell_length_a 7.872434
_cell_length_b 12.257371
_cell_length_c 9.078625
_cell_angle_alpha 90.000000
_cell_angle_beta 90.000000
_cell_angle_gamma 90.000000
_cell_volume 876.045044
_symmetry_space_group_name_H-M "P 21 21 2"
_symmetry_group_IT_number 18
_symmetry_cell_setting 'orthorhombic'
loop_
_space_group_symop_operation_xyz
x,y,z
-x,-y,z
1/2+x,1/2-y,-z
1/2-x,1/2+y,-z
loop_
_atom_site_type_symbol
_atom_site_label
_atom_site_fract_x
_atom_site_fract_y
_atom_site_fract_z
Si Si1 0.655309 0.374335 0.074834
Si Si2 0.502941 0.382063 0.385104
Si Si3 0.889176 0.186113 0.158304
Si Si4 0.193597 0.520743 0.811600
Si Si5 0.181203 0.230271 0.360737
O O1 0.599105 0.414305 0.234521
O O2 0.741246 0.257334 0.089610
O O3 0.487441 0.362937 0.979232
O O4 0.779390 0.457452 0.987296
O O5 0.500000 0.500000 0.468207
O O6 0.314923 0.330024 0.361756
O O7 0.621912 0.297097 0.473275
O O8 0.009245 0.257077 0.267941
O O9 0.804494 0.082985 0.242648
O O10 0.239510 0.625497 0.716458
O O11 0.000000 0.500000 0.778537
#
# Coordination Sequence:
#
# PCOD8156434 Si02
#       5
#     4   4   4   4   4
#     4  11  22  37  63  94 130 165 214 277 326 380
#     4  12  25  43  65  95 130 169 218 280 332 382
#     4  11  21  41  63  93 130 174 221 267 325 399
#     4  11  23  41  68  96 128 177 223 265 329 401
#     4  11  25  44  65  90 129 177 220 267 330 404
#
# _framework density 22.829872999999999
#
# number of rings (size 3 to 8) (size 9 to 14) (size 15 to 20)
#    0.000    0.800    0.000   10.800    0.000    3.200 
#    0.000    3.000    0.000    0.000    0.000    0.000 
#    0.000    0.000    0.000    0.000    0.000    0.000 
#
# Total GULP energy -247951.969925 kJ/mol
# GULP energy per Si atom -12397.598496 kJ/mol
# Density = 2.277791 g / cm^3
# Si number density = 22.829873 Si / 1000 Ang^3
#
#
#
# Elastic Constant Matrix: (Units=GPa)
#
#
# Indices 1 2 3 4 5 6 
#
# 1 126.3234 51.9266 17.8100 0.0000 0.0000 0.0000
# 2 51.9266 92.7112 -19.1489 0.0000 0.0000 0.0000
# 3 17.8100 -19.1489 78.7690 0.0000 0.0000 0.0000
# 4 0.0000 0.0000 0.0000 22.3868 0.0000 0.0000
# 5 0.0000 0.0000 0.0000 0.0000 66.7767 0.0000
# 6 0.0000 0.0000 0.0000 0.0000 0.0000 47.9076
#
#
#
# Elastic Compliance Matrix: (Units=1/GPa)
#
#
# Indices 1 2 3 4 5 6 
#
# 1 0.011580 -0.007398 -0.004417 0.000000 0.000000 0.000000
# 2 -0.007398 0.016083 0.005582 0.000000 0.000000 0.000000
# 3 -0.004417 0.005582 0.015051 0.000000 0.000000 0.000000
# 4 0.000000 0.000000 0.000000 0.044669 0.000000 0.000000
# 5 0.000000 0.000000 0.000000 0.000000 0.014975 0.000000
# 6 0.000000 0.000000 0.000000 0.000000 0.000000 0.020874
#
#
# Mechanical properties :
#
#
# Convention : Reuss Voigt Hill
#
# Bulk Modulus (GPa) = 33.05876 44.33102 38.69489
# Shear Modulus (GPa) = 34.29833 43.89525 39.09679
#
# Velocity S-wave (km/s) = 3.88021 4.38963 4.14276
# Velocity P-wave (km/s) = 5.88104 6.71952 6.31421
#
# Compressibility (1/GPa) = 0.03024917
#
# Stress axis : x y z
#
# Youngs Moduli (GPa) = 86.35611 62.17825 66.44030
#
# Poissons Ratio (x) = 0.46000 0.29345
# Poissons Ratio (y) = 0.63887 -0.37090
# Poissons Ratio (z) = 0.38141 -0.34711
#
# Static dielectric constant tensor:
#      x y z
#    x 1.978720 0.000000 0.000000 
#    y 0.000000 3.595300 0.000000 
#    z 0.000000 0.000000 4.184370 
# 
# 
# High freq. dielectric constant tensor:
#      x y z
#    x 1.912630 0.000000 0.000000 
#    y 0.000000 1.897190 0.000000 
#    z 0.000000 0.000000 1.901900 
# 
# From -- ./inp_files/2966.got.cif
#   From: 2010.03.12/outbox.cif.g09.slc.cpg/sg18_2_cif.got.tgz:2966.got - 2010.04.10 18:53:55.
