data_PCOD8156978
_publ_section_title
;
Structure prediction by ZEFSAII (Michael W. Deem and Ramdas Pophale) SiO2 
 PCOD8156978
Probable space group: P 21 21 21
;
_chemical_formula_sum "Si O2"
_cell_formula_units_Z 28
_cell_length_a 8.631915
_cell_length_b 9.071883
_cell_length_c 17.419113
_cell_angle_alpha 90.000000
_cell_angle_beta 90.000000
_cell_angle_gamma 90.000000
_cell_volume 1364.051075
_symmetry_space_group_name_H-M "P 21 21 21"
_symmetry_group_IT_number 19
_symmetry_cell_setting 'orthorhombic'
loop_
_space_group_symop_operation_xyz
x,y,z
1/2-x,-y,1/2+z
1/2+x,1/2-y,-z
-x,1/2+y,1/2-z
loop_
_atom_site_type_symbol
_atom_site_label
_atom_site_fract_x
_atom_site_fract_y
_atom_site_fract_z
Si Si1 0.110411 0.915215 0.874052
Si Si2 0.539282 0.472123 0.652297
Si Si3 0.869500 0.911120 0.484026
Si Si4 0.913896 0.381791 0.795495
Si Si5 0.552074 0.818481 0.428178
Si Si6 0.625357 0.217121 0.747864
Si Si7 0.634429 0.905450 0.128704
O O1 0.024393 0.891505 0.791621
O O2 0.112286 0.753387 0.911619
O O3 0.277544 0.988908 0.860958
O O4 0.017476 0.017957 0.932014
O O5 0.453608 0.468935 0.570182
O O6 0.508975 0.316031 0.695391
O O7 0.477310 0.614736 0.698243
O O8 0.734820 0.831617 0.437405
O O9 0.990770 0.782405 0.503350
O O10 0.804579 0.987797 0.561279
O O11 0.991265 0.248695 0.844430
O O12 0.729380 0.341132 0.793510
O O13 0.969532 0.532399 0.838059
O O14 0.738128 0.112666 0.696400
#
# Coordination Sequence:
#
# PCOD8156978 Si02
#       7
#     4   4   4   4   4   4   4
#     4  10  21  38  61  90 122 160 206 263 312 372
#     4  10  22  40  62  89 129 161 213 262 313 374
#     4  11  23  40  60  91 125 169 206 258 314 380
#     4   9  18  37  60  86 118 158 209 254 308 368
#     4  11  22  39  62  89 122 168 205 256 314 381
#     4  10  21  40  62  91 124 166 213 264 314 372
#     4   9  21  38  61  88 128 158 210 257 317 377
#
# _framework density 20.527090999999999
#
# number of rings (size 3 to 8) (size 9 to 14) (size 15 to 20)
#    0.000    2.286    1.429    2.571    0.000    5.714 
#    5.143    0.000    0.000    0.000    0.000    0.000 
#    0.000    0.000    0.000    0.000    0.000    0.000 
#
# Total GULP energy -346880.691857 kJ/mol
# GULP energy per Si atom -12388.596138 kJ/mol
# Density = 2.048037 g / cm^3
# Si number density = 20.527091 Si / 1000 Ang^3
#
#
#
# Elastic Constant Matrix: (Units=GPa)
#
#
# Indices 1 2 3 4 5 6 
#
# 1 79.9307 46.9313 36.7890 0.0000 0.0000 0.0000
# 2 46.9313 107.7570 36.3361 0.0000 0.0000 0.0000
# 3 36.7890 36.3361 76.7442 0.0000 0.0000 0.0000
# 4 0.0000 0.0000 0.0000 32.3577 0.0000 0.0000
# 5 0.0000 0.0000 0.0000 0.0000 27.2924 0.0000
# 6 0.0000 0.0000 0.0000 0.0000 0.0000 41.7892
#
#
#
# Elastic Compliance Matrix: (Units=1/GPa)
#
#
# Indices 1 2 3 4 5 6 
#
# 1 0.018984 -0.006187 -0.006171 0.000000 0.000000 0.000000
# 2 -0.006187 0.013060 -0.003217 0.000000 0.000000 0.000000
# 3 -0.006171 -0.003217 0.017512 0.000000 0.000000 0.000000
# 4 0.000000 0.000000 0.000000 0.030905 0.000000 0.000000
# 5 0.000000 0.000000 0.000000 0.000000 0.036640 0.000000
# 6 0.000000 0.000000 0.000000 0.000000 0.000000 0.023930
#
#
# Mechanical properties :
#
#
# Convention : Reuss Voigt Hill
#
# Bulk Modulus (GPa) = 54.33478 56.06053 55.19766
# Shear Modulus (GPa) = 28.04016 29.91289 28.97653
#
# Velocity S-wave (km/s) = 3.69996 3.82152 3.76123
# Velocity P-wave (km/s) = 6.69180 6.84411 6.76838
#
# Compressibility (1/GPa) = 0.01840442
#
# Stress axis : x y z
#
# Youngs Moduli (GPa) = 52.67636 76.57109 57.10421
#
# Poissons Ratio (x) = 0.47376 0.35238
# Poissons Ratio (y) = 0.32592 0.18373
# Poissons Ratio (z) = 0.32506 0.24636
#
# Static dielectric constant tensor:
#      x y z
#    x 3.468130 0.000000 0.000000 
#    y 0.000000 3.806430 0.000000 
#    z 0.000000 0.000000 3.824480 
# 
# 
# High freq. dielectric constant tensor:
#      x y z
#    x 1.778430 0.000000 0.000000 
#    y 0.000000 1.805830 0.000000 
#    z 0.000000 0.000000 1.802080 
# 
# From -- ./inp_files/2931.got.cif
#   From: 2010.03.12/outbox.cif.g09.slc.cpg/sg19_2_cif.got.tgz:2931.got - 2010.04.10 18:59:41.
