data_PCOD8156340
_publ_section_title
;
Structure prediction by ZEFSAII (Michael W. Deem and Ramdas Pophale) SiO2 
 PCOD8156340
Probable space group: P 21 21 2
;
_chemical_formula_sum "Si O2"
_cell_formula_units_Z 20
_cell_length_a 17.036869
_cell_length_b 5.585679
_cell_length_c 7.813586
_cell_angle_alpha 90.000000
_cell_angle_beta 90.000000
_cell_angle_gamma 90.000000
_cell_volume 743.560232
_symmetry_space_group_name_H-M "P 21 21 2"
_symmetry_group_IT_number 18
_symmetry_cell_setting 'orthorhombic'
loop_
_space_group_symop_operation_xyz
x,y,z
-x,-y,z
1/2+x,1/2-y,-z
1/2-x,1/2+y,-z
loop_
_atom_site_type_symbol
_atom_site_label
_atom_site_fract_x
_atom_site_fract_y
_atom_site_fract_z
Si Si1 0.197448 0.794752 0.631499
Si Si2 0.072413 0.166410 0.121435
Si Si3 0.263122 0.508387 0.904742
Si Si4 0.075239 0.160146 0.736497
Si Si5 0.373952 0.948525 0.574676
O O1 0.201961 0.552201 0.749054
O O2 0.156846 0.008277 0.735786
O O3 0.286588 0.839014 0.579147
O O4 0.142777 0.730125 0.465780
O O5 0.146370 0.990076 0.151349
O O6 0.079760 0.396756 0.249073
O O7 0.000000 0.000000 0.172049
O O8 0.066745 0.270526 0.927796
O O9 0.238351 0.264537 0.993693
O O10 0.075297 0.351534 0.584518
O O11 0.000000 0.000000 0.699199
#
# Coordination Sequence:
#
# PCOD8156340 Si02
#       5
#     4   4   4   4   4
#     4  11  23  40  73 104 143 200 250 314 378 453
#     4  10  23  45  72 106 147 198 249 317 378 456
#     4  11  23  43  75 112 149 196 260 311 376 455
#     4  11  23  45  70 103 150 190 246 312 389 454
#     4  11  23  43  69 103 143 186 259 308 375 448
#
# _framework density 26.897618999999999
#
# number of rings (size 3 to 8) (size 9 to 14) (size 15 to 20)
#    0.000    1.200    4.000    1.800    0.000    0.800 
#    0.000    1.000    0.000    0.000    0.000    0.000 
#    0.000    0.000    0.000    0.000    0.000    0.000 
#
# Total GULP energy -247799.431859 kJ/mol
# GULP energy per Si atom -12389.971593 kJ/mol
# Density = 2.683640 g / cm^3
# Si number density = 26.897619 Si / 1000 Ang^3
#
#
#
# Elastic Constant Matrix: (Units=GPa)
#
#
# Indices 1 2 3 4 5 6 
#
# 1 82.4824 3.3276 1.9199 0.0000 0.0000 0.0000
# 2 3.3276 79.5573 26.4146 0.0000 0.0000 0.0000
# 3 1.9199 26.4146 132.0230 0.0000 0.0000 0.0000
# 4 0.0000 0.0000 0.0000 31.5926 0.0000 0.0000
# 5 0.0000 0.0000 0.0000 0.0000 37.8547 0.0000
# 6 0.0000 0.0000 0.0000 0.0000 0.0000 27.6104
#
#
#
# Elastic Compliance Matrix: (Units=1/GPa)
#
#
# Indices 1 2 3 4 5 6 
#
# 1 0.012145 -0.000481 -0.000080 0.000000 0.000000 0.000000
# 2 -0.000481 0.013483 -0.002691 0.000000 0.000000 0.000000
# 3 -0.000080 -0.002691 0.008114 0.000000 0.000000 0.000000
# 4 0.000000 0.000000 0.000000 0.031653 0.000000 0.000000
# 5 0.000000 0.000000 0.000000 0.000000 0.026417 0.000000
# 6 0.000000 0.000000 0.000000 0.000000 0.000000 0.036218
#
#
# Mechanical properties :
#
#
# Convention : Reuss Voigt Hill
#
# Bulk Modulus (GPa) = 36.71407 39.70967 38.21187
# Shear Modulus (GPa) = 34.81562 36.90493 35.86028
#
# Velocity S-wave (km/s) = 3.60165 3.70814 3.65528
# Velocity P-wave (km/s) = 5.56552 5.75578 5.66145
#
# Compressibility (1/GPa) = 0.02723752
#
# Stress axis : x y z
#
# Youngs Moduli (GPa) = 82.33785 74.16732 123.24478
#
# Poissons Ratio (x) = 0.03570 0.00990
# Poissons Ratio (y) = 0.03963 0.33161
# Poissons Ratio (z) = 0.00661 0.19956
#
# Static dielectric constant tensor:
#      x y z
#    x 5.101270 0.000000 0.000000 
#    y 0.000000 4.610230 0.000000 
#    z 0.000000 0.000000 5.505300 
# 
# 
# High freq. dielectric constant tensor:
#      x y z
#    x 2.096370 0.000000 0.000000 
#    y 0.000000 2.054540 0.000000 
#    z 0.000000 0.000000 2.095860 
# 
# From -- ./inp_files/4414.got.cif
#   From: 2010.03.12/outbox.cif.g09.slc.cpg/sg18_3_cif.got.tgz:4414.got - 2010.04.10 18:53:55.
