data_PCOD8156239
_publ_section_title
;
Structure prediction by ZEFSAII (Michael W. Deem and Ramdas Pophale) SiO2 
 PCOD8156239
Probable space group: P 21 21 2
;
_chemical_formula_sum "Si O2"
_cell_formula_units_Z 30
_cell_length_a 11.924525
_cell_length_b 20.652337
_cell_length_c 5.428109
_cell_angle_alpha 90.000000
_cell_angle_beta 90.000000
_cell_angle_gamma 90.000000
_cell_volume 1336.776652
_symmetry_space_group_name_H-M "P 21 21 2"
_symmetry_group_IT_number 18
_symmetry_cell_setting 'orthorhombic'
loop_
_space_group_symop_operation_xyz
x,y,z
-x,-y,z
1/2+x,1/2-y,-z
1/2-x,1/2+y,-z
loop_
_atom_site_type_symbol
_atom_site_label
_atom_site_fract_x
_atom_site_fract_y
_atom_site_fract_z
Si Si1 0.948942 0.874750 0.372442
Si Si2 0.657363 0.893400 0.911540
Si Si3 0.843723 0.969618 0.719153
Si Si4 0.712042 0.054316 0.368658
Si Si5 0.828716 0.172124 0.588656
Si Si6 0.398688 0.412705 0.010411
Si Si7 0.500000 0.000000 0.103581
Si Si8 0.708021 0.821982 0.399079
O O1 0.935355 0.923000 0.598515
O O2 0.839985 0.831284 0.353907
O O3 0.064832 0.835090 0.406789
O O4 0.978445 0.912397 0.118379
O O5 0.775856 0.931525 0.934341
O O6 0.657627 0.855370 0.647177
O O7 0.558247 0.946671 0.926256
O O8 0.645014 0.846529 0.151272
O O9 0.747016 0.990937 0.523995
O O10 0.913158 0.033387 0.781401
O O11 0.725908 0.122895 0.517730
O O12 0.586693 0.040183 0.274513
O O13 0.795631 0.060199 0.142866
O O14 0.867770 0.156309 0.867412
O O15 0.794226 0.245644 0.570650
#
# Coordination Sequence:
#
# PCOD8156239 Si02
#       8
#     4   4   4   4   4   4   2   4
#     4  10  24  41  69  99 134 190 228 299 372 412
#     4  11  26  45  73 102 144 189 234 307 350 441
#     4  10  22  43  64 107 142 172 237 305 364 435
#     4  10  23  42  70 104 144 186 234 308 358 440
#     4  10  25  46  68 102 140 190 249 301 349 440
#     4  10  22  42  66 103 138 176 236 298 364 425
#     4  12  22  46  76 108 148 192 244 292 400 424
#     4  11  27  50  68 102 147 188 253 292 355 438
#
# _framework density 22.442045
#
# number of rings (size 3 to 8) (size 9 to 14) (size 15 to 20)
#    0.000    1.600    1.333    1.600    7.467    9.067 
#    2.400    0.000    0.000    0.000    0.000    0.000 
#    0.000    0.000    0.000    0.000    0.000    0.000 
#
# Total GULP energy -371749.016949 kJ/mol
# GULP energy per Si atom -12391.633898 kJ/mol
# Density = 2.239097 g / cm^3
# Si number density = 22.442045 Si / 1000 Ang^3
#
#
#
# Elastic Constant Matrix: (Units=GPa)
#
#
# Indices 1 2 3 4 5 6 
#
# 1 131.2484 55.6846 37.4775 0.0000 0.0000 0.0000
# 2 55.6846 133.3158 28.5055 0.0000 0.0000 0.0000
# 3 37.4775 28.5055 81.8165 0.0000 0.0000 0.0000
# 4 0.0000 0.0000 0.0000 20.0370 0.0000 0.0000
# 5 0.0000 0.0000 0.0000 0.0000 41.0122 0.0000
# 6 0.0000 0.0000 0.0000 0.0000 0.0000 34.5801
#
#
#
# Elastic Compliance Matrix: (Units=1/GPa)
#
#
# Indices 1 2 3 4 5 6 
#
# 1 0.010065 -0.003477 -0.003399 0.000000 0.000000 0.000000
# 2 -0.003477 0.009306 -0.001649 0.000000 0.000000 0.000000
# 3 -0.003399 -0.001649 0.014354 0.000000 0.000000 0.000000
# 4 0.000000 0.000000 0.000000 0.049908 0.000000 0.000000
# 5 0.000000 0.000000 0.000000 0.000000 0.024383 0.000000
# 6 0.000000 0.000000 0.000000 0.000000 0.000000 0.028918
#
#
# Mechanical properties :
#
#
# Convention : Reuss Voigt Hill
#
# Bulk Modulus (GPa) = 59.97436 65.52399 62.74917
# Shear Modulus (GPa) = 31.33938 34.10673 32.72305
#
# Velocity S-wave (km/s) = 3.74098 3.90265 3.82267
# Velocity P-wave (km/s) = 6.74107 7.04045 6.89238
#
# Compressibility (1/GPa) = 0.01667379
#
# Stress axis : x y z
#
# Youngs Moduli (GPa) = 99.35416 107.45640 69.66646
#
# Poissons Ratio (x) = 0.37366 0.23679
# Poissons Ratio (y) = 0.34548 0.11491
# Poissons Ratio (z) = 0.33770 0.17725
#
# Static dielectric constant tensor:
#      x y z
#    x 3.923720 0.000000 0.000000 
#    y 0.000000 3.917700 0.000000 
#    z 0.000000 0.000000 4.420110 
# 
# 
# High freq. dielectric constant tensor:
#      x y z
#    x 1.884470 0.000000 0.000000 
#    y 0.000000 1.874580 0.000000 
#    z 0.000000 0.000000 1.901330 
# 
# From -- ./inp_files/1273.got.cif
#   From: 2010.03.12/outbox.cif.g09.slc.cpg/sg18_1_cif.got.tgz:1273.got - 2010.04.10 18:53:55.
