data_PCOD8156019
_publ_section_title
;
Structure prediction by ZEFSAII (Michael W. Deem and Ramdas Pophale) SiO2 
 PCOD8156019
Probable space group: P 21 21 2
;
_chemical_formula_sum "Si O2"
_cell_formula_units_Z 18
_cell_length_a 5.126313
_cell_length_b 13.717038
_cell_length_c 11.169383
_cell_angle_alpha 90.000000
_cell_angle_beta 90.000000
_cell_angle_gamma 90.000000
_cell_volume 785.406777
_symmetry_space_group_name_H-M "P 21 21 2"
_symmetry_group_IT_number 18
_symmetry_cell_setting 'orthorhombic'
loop_
_space_group_symop_operation_xyz
x,y,z
-x,-y,z
1/2+x,1/2-y,-z
1/2-x,1/2+y,-z
loop_
_atom_site_type_symbol
_atom_site_label
_atom_site_fract_x
_atom_site_fract_y
_atom_site_fract_z
Si Si1 0.311087 0.148207 0.902626
Si Si2 0.268399 0.211949 0.650237
Si Si3 0.764490 0.336736 0.615203
Si Si4 0.500000 0.500000 0.756355
Si Si5 0.685482 0.624650 0.961463
O O1 0.259425 0.136008 0.760553
O O2 0.307780 0.262094 0.931406
O O3 0.576074 0.098176 0.949965
O O4 0.080379 0.093873 0.972190
O O5 0.549192 0.261335 0.660350
O O6 0.245877 0.150416 0.528130
O O7 0.043889 0.294841 0.656690
O O8 0.704386 0.440598 0.674492
O O9 0.689778 0.567570 0.836210
#
# Coordination Sequence:
#
# PCOD8156019 Si02
#       5
#     4   4   4   2   4
#     4  10  20  40  59  91 122 178 213 252 304 407
#     4  10  20  42  63  93 125 177 219 255 310 409
#     4  10  23  36  66  96 129 165 214 270 328 373
#     4  12  24  42  62 108 132 162 210 294 330 382
#     4  10  23  34  63  90 131 164 209 262 327 369
#
# _framework density 22.918057999999998
#
# number of rings (size 3 to 8) (size 9 to 14) (size 15 to 20)
#    0.000    1.778    2.222    1.333    6.222    3.556 
#    0.000    1.111    0.000    8.000    0.000    0.000 
#    0.000    0.000    0.000    0.000    0.000    0.000 
#
# Total GULP energy -223226.643834 kJ/mol
# GULP energy per Si atom -12401.480213 kJ/mol
# Density = 2.286590 g / cm^3
# Si number density = 22.918058 Si / 1000 Ang^3
#
#
#
# Elastic Constant Matrix: (Units=GPa)
#
#
# Indices 1 2 3 4 5 6 
#
# 1 136.0072 19.6932 55.0659 0.0000 0.0000 0.0000
# 2 19.6932 29.6599 18.7720 0.0000 0.0000 0.0000
# 3 55.0659 18.7720 151.5198 0.0000 0.0000 0.0000
# 4 0.0000 0.0000 0.0000 45.6632 0.0000 0.0000
# 5 0.0000 0.0000 0.0000 0.0000 38.4007 0.0000
# 6 0.0000 0.0000 0.0000 0.0000 0.0000 19.3074
#
#
#
# Elastic Compliance Matrix: (Units=1/GPa)
#
#
# Indices 1 2 3 4 5 6 
#
# 1 0.009096 -0.004283 -0.002775 0.000000 0.000000 0.000000
# 2 -0.004283 0.038601 -0.003226 0.000000 0.000000 0.000000
# 3 -0.002775 -0.003226 0.008008 0.000000 0.000000 0.000000
# 4 0.000000 0.000000 0.000000 0.021899 0.000000 0.000000
# 5 0.000000 0.000000 0.000000 0.000000 0.026041 0.000000
# 6 0.000000 0.000000 0.000000 0.000000 0.000000 0.051794
#
#
# Mechanical properties :
#
#
# Convention : Reuss Voigt Hill
#
# Bulk Modulus (GPa) = 28.45991 56.02767 42.24379
# Shear Modulus (GPa) = 26.63538 35.58465 31.11002
#
# Velocity S-wave (km/s) = 3.41280 3.94469 3.68835
# Velocity P-wave (km/s) = 5.28911 6.72663 6.05071
#
# Compressibility (1/GPa) = 0.03513715
#
# Stress axis : x y z
#
# Youngs Moduli (GPa) = 109.93432 25.90606 124.87518
#
# Poissons Ratio (x) = 0.11096 0.34655
# Poissons Ratio (y) = 0.47087 0.40281
# Poissons Ratio (z) = 0.30509 0.08357
#
# Static dielectric constant tensor:
#      x y z
#    x 4.303180 0.000000 0.000000 
#    y 0.000000 3.711640 0.000000 
#    z 0.000000 0.000000 4.527690 
# 
# 
# High freq. dielectric constant tensor:
#      x y z
#    x 1.917080 0.000000 0.000000 
#    y 0.000000 1.877840 0.000000 
#    z 0.000000 0.000000 1.918570 
# 
# From -- ./inp_files/5027.got.cif
#   From: 2010.03.12/outbox.cif.g09.slc.cpg/sg18_3_cif.got.tgz:5027.got - 2010.04.10 18:53:55.
