data_PCOD8156165
_publ_section_title
;
Structure prediction by ZEFSAII (Michael W. Deem and Ramdas Pophale) SiO2 
 PCOD8156165
Probable space group: P 21 21 2
;
_chemical_formula_sum "Si O2"
_cell_formula_units_Z 14
_cell_length_a 12.380354
_cell_length_b 5.371907
_cell_length_c 8.664373
_cell_angle_alpha 90.000000
_cell_angle_beta 90.000000
_cell_angle_gamma 90.000000
_cell_volume 576.233747
_symmetry_space_group_name_H-M "P 21 21 2"
_symmetry_group_IT_number 18
_symmetry_cell_setting 'orthorhombic'
loop_
_space_group_symop_operation_xyz
x,y,z
-x,-y,z
1/2+x,1/2-y,-z
1/2-x,1/2+y,-z
loop_
_atom_site_type_symbol
_atom_site_label
_atom_site_fract_x
_atom_site_fract_y
_atom_site_fract_z
Si Si1 0.176754 0.336243 0.296101
Si Si2 0.607372 0.847895 0.222038
Si Si3 0.871099 0.857535 0.623264
Si Si4 0.000000 0.500000 0.064364
O O1 0.262454 0.143551 0.222607
O O2 0.120178 0.218434 0.445947
O O3 0.242570 0.593581 0.336738
O O4 0.084055 0.359288 0.171156
O O5 0.569500 0.623772 0.339273
O O6 0.574841 0.131940 0.275539
O O7 0.564844 0.807380 0.047223
#
# Coordination Sequence:
#
# PCOD8156165 Si02
#       4
#     4   4   4   2
#     4  10  23  48  81 109 150 202 262 313 375 455
#     4  10  24  47  72 110 154 195 246 325 378 450
#     4  10  21  48  78 100 152 200 248 323 372 436
#     4  12  28  46  80 120 154 208 254 310 410 458
#
# _framework density 24.295696
#
# number of rings (size 3 to 8) (size 9 to 14) (size 15 to 20)
#    1.714    0.000    2.857    0.000    4.000    2.286 
#    5.143    0.000    0.000    0.000    0.000    0.000 
#    0.000    0.000    0.000    0.000    0.000    0.000 
#
# Total GULP energy -173490.440737 kJ/mol
# GULP energy per Si atom -12392.174338 kJ/mol
# Density = 2.424040 g / cm^3
# Si number density = 24.295696 Si / 1000 Ang^3
#
#
#
# Elastic Constant Matrix: (Units=GPa)
#
#
# Indices 1 2 3 4 5 6 
#
# 1 103.8741 82.7349 84.5548 0.0000 0.0000 0.0000
# 2 82.7349 166.6243 83.2482 0.0000 0.0000 0.0000
# 3 84.5548 83.2482 220.8013 0.0000 0.0000 0.0000
# 4 0.0000 0.0000 0.0000 40.3271 0.0000 0.0000
# 5 0.0000 0.0000 0.0000 0.0000 60.4362 0.0000
# 6 0.0000 0.0000 0.0000 0.0000 0.0000 59.7299
#
#
#
# Elastic Compliance Matrix: (Units=1/GPa)
#
#
# Indices 1 2 3 4 5 6 
#
# 1 0.019095 -0.007181 -0.004605 0.000000 0.000000 0.000000
# 2 -0.007181 0.010095 -0.001056 0.000000 0.000000 0.000000
# 3 -0.004605 -0.001056 0.006691 0.000000 0.000000 0.000000
# 4 0.000000 0.000000 0.000000 0.024797 0.000000 0.000000
# 5 0.000000 0.000000 0.000000 0.000000 0.016546 0.000000
# 6 0.000000 0.000000 0.000000 0.000000 0.000000 0.016742
#
#
# Mechanical properties :
#
#
# Convention : Reuss Voigt Hill
#
# Bulk Modulus (GPa) = 98.07192 110.26393 104.16792
# Shear Modulus (GPa) = 40.63455 48.14943 44.39199
#
# Velocity S-wave (km/s) = 4.09406 4.45658 4.27916
# Velocity P-wave (km/s) = 7.92477 8.48317 8.20872
#
# Compressibility (1/GPa) = 0.01019660
#
# Stress axis : x y z
#
# Youngs Moduli (GPa) = 52.37028 99.06291 149.46250
#
# Poissons Ratio (x) = 0.71132 0.68828
# Poissons Ratio (y) = 0.37605 0.15786
# Poissons Ratio (z) = 0.24117 0.10463
#
# Static dielectric constant tensor:
#      x y z
#    x 5.076300 0.000000 0.000000 
#    y 0.000000 4.303810 0.000000 
#    z 0.000000 0.000000 4.066870 
# 
# 
# High freq. dielectric constant tensor:
#      x y z
#    x 2.017800 0.000000 0.000000 
#    y 0.000000 1.954700 0.000000 
#    z 0.000000 0.000000 1.949890 
# 
# From -- ./inp_files/4067.got.cif
#   From: 2010.03.12/outbox.cif.g09.slc.cpg/sg18_3_cif.got.tgz:4067.got - 2010.04.10 18:53:55.
