data_PCOD8156078
_publ_section_title
;
Structure prediction by ZEFSAII (Michael W. Deem and Ramdas Pophale) SiO2 
 PCOD8156078
Probable space group: P 21 21 2
;
_chemical_formula_sum "Si O2"
_cell_formula_units_Z 28
_cell_length_a 17.373593
_cell_length_b 9.304752
_cell_length_c 8.541835
_cell_angle_alpha 90.000000
_cell_angle_beta 90.000000
_cell_angle_gamma 90.000000
_cell_volume 1380.847200
_symmetry_space_group_name_H-M "P 21 21 2"
_symmetry_group_IT_number 18
_symmetry_cell_setting 'orthorhombic'
loop_
_space_group_symop_operation_xyz
x,y,z
-x,-y,z
1/2+x,1/2-y,-z
1/2-x,1/2+y,-z
loop_
_atom_site_type_symbol
_atom_site_label
_atom_site_fract_x
_atom_site_fract_y
_atom_site_fract_z
Si Si1 0.638790 0.625860 0.753756
Si Si2 0.482072 0.805523 0.025731
Si Si3 0.340454 0.136211 0.984551
Si Si4 0.500000 0.000000 0.288495
Si Si5 0.362183 0.890935 0.773778
Si Si6 0.000000 0.000000 0.058877
Si Si7 0.883588 0.374631 0.475870
Si Si8 0.246228 0.131433 0.300993
O O1 0.681890 0.723055 0.884233
O O2 0.571941 0.532147 0.830566
O O3 0.601253 0.728287 0.620689
O O4 0.701125 0.517940 0.683486
O O5 0.567111 0.870447 0.000023
O O6 0.434203 0.826027 0.867333
O O7 0.483637 0.634454 0.056087
O O8 0.449536 0.889995 0.178318
O O9 0.313209 0.994018 0.890117
O O10 0.298971 0.139404 0.148675
O O11 0.554778 0.895075 0.386572
O O12 0.311129 0.765135 0.702131
O O13 0.393505 0.984979 0.630587
O O14 0.797969 0.360055 0.544772
#
# Coordination Sequence:
#
# PCOD8156078 Si02
#       8
#     4   4   4   2   4   2   4   4
#     4  10  23  40  64  91 132 170 216 265 332 394
#     4  11  20  42  63  96 120 172 226 274 308 389
#     4  10  21  37  64  94 125 162 227 272 311 375
#     4  12  24  40  70  92 136 166 226 282 318 376
#     4  11  22  38  68  90 126 177 221 254 332 403
#     4  10  22  40  66  90 124 164 226 264 318 382
#     4  11  26  40  61  98 133 172 210 273 330 400
#     4  12  21  42  62  96 131 169 213 277 332 386
#
# _framework density 20.277405999999999
#
# number of rings (size 3 to 8) (size 9 to 14) (size 15 to 20)
#    0.000    1.143    4.286    1.714    6.000    0.000 
#    0.000    2.143    0.000    0.000    0.000    0.000 
#    0.000    0.000    0.000    0.000    0.000    0.000 
#
# Total GULP energy -347172.898281 kJ/mol
# GULP energy per Si atom -12399.032081 kJ/mol
# Density = 2.023125 g / cm^3
# Si number density = 20.277406 Si / 1000 Ang^3
#
#
#
# Elastic Constant Matrix: (Units=GPa)
#
#
# Indices 1 2 3 4 5 6 
#
# 1 63.4277 33.9859 18.8247 0.0000 0.0000 0.0000
# 2 33.9859 113.9503 40.5563 0.0000 0.0000 0.0000
# 3 18.8247 40.5563 91.6120 0.0000 0.0000 0.0000
# 4 0.0000 0.0000 0.0000 12.0142 0.0000 0.0000
# 5 0.0000 0.0000 0.0000 0.0000 34.7975 0.0000
# 6 0.0000 0.0000 0.0000 0.0000 0.0000 28.9056
#
#
#
# Elastic Compliance Matrix: (Units=1/GPa)
#
#
# Indices 1 2 3 4 5 6 
#
# 1 0.018974 -0.005070 -0.001654 0.000000 0.000000 0.000000
# 2 -0.005070 0.011772 -0.004170 0.000000 0.000000 0.000000
# 3 -0.001654 -0.004170 0.013101 0.000000 0.000000 0.000000
# 4 0.000000 0.000000 0.000000 0.083235 0.000000 0.000000
# 5 0.000000 0.000000 0.000000 0.000000 0.028738 0.000000
# 6 0.000000 0.000000 0.000000 0.000000 0.000000 0.034595
#
#
# Mechanical properties :
#
#
# Convention : Reuss Voigt Hill
#
# Bulk Modulus (GPa) = 45.33287 50.63599 47.98443
# Shear Modulus (GPa) = 22.77329 26.85167 24.81248
#
# Velocity S-wave (km/s) = 3.35488 3.64293 3.50187
# Velocity P-wave (km/s) = 6.11652 6.53608 6.32978
#
# Compressibility (1/GPa) = 0.02205905
#
# Stress axis : x y z
#
# Youngs Moduli (GPa) = 52.70469 84.94774 76.32794
#
# Poissons Ratio (x) = 0.43070 0.12626
# Poissons Ratio (y) = 0.26722 0.31825
# Poissons Ratio (z) = 0.08718 0.35419
#
# Static dielectric constant tensor:
#      x y z
#    x 3.581690 0.000000 0.000000 
#    y 0.000000 3.974040 0.000000 
#    z 0.000000 0.000000 3.766410 
# 
# 
# High freq. dielectric constant tensor:
#      x y z
#    x 1.776200 0.000000 0.000000 
#    y 0.000000 1.812530 0.000000 
#    z 0.000000 0.000000 1.790250 
# 
# From -- ./inp_files/3413.got.cif
#   From: 2010.03.12/outbox.cif.g09.slc.cpg/sg18_2_cif.got.tgz:3413.got - 2010.04.10 18:53:55.
