data_PCOD8156877
_publ_section_title
;
Structure prediction by ZEFSAII (Michael W. Deem and Ramdas Pophale) SiO2 
 PCOD8156877
Probable space group: P 21 21 21
;
_chemical_formula_sum "Si O2"
_cell_formula_units_Z 28
_cell_length_a 5.267135
_cell_length_b 17.488352
_cell_length_c 13.379988
_cell_angle_alpha 90.000000
_cell_angle_beta 90.000000
_cell_angle_gamma 90.000000
_cell_volume 1232.477671
_symmetry_space_group_name_H-M "P 21 21 21"
_symmetry_group_IT_number 19
_symmetry_cell_setting 'orthorhombic'
loop_
_space_group_symop_operation_xyz
x,y,z
1/2-x,-y,1/2+z
1/2+x,1/2-y,-z
-x,1/2+y,1/2-z
loop_
_atom_site_type_symbol
_atom_site_label
_atom_site_fract_x
_atom_site_fract_y
_atom_site_fract_z
Si Si1 0.871686 0.252846 0.261618
Si Si2 0.034777 0.606259 0.342363
Si Si3 0.975796 0.838501 0.900662
Si Si4 0.495369 0.866678 0.285182
Si Si5 0.949745 0.458692 0.748742
Si Si6 0.168114 0.701747 0.522337
Si Si7 0.241812 0.690383 0.908061
O O1 0.648395 0.200768 0.305073
O O2 0.757233 0.317612 0.187867
O O3 0.040960 0.190337 0.203240
O O4 0.999392 0.300050 0.348892
O O5 0.780909 0.554874 0.327624
O O6 0.099984 0.625802 0.457043
O O7 0.275102 0.562222 0.294191
O O8 0.110607 0.912686 0.854244
O O9 0.168328 0.775773 0.946003
O O10 0.785680 0.860877 0.992125
O O11 0.700873 0.832201 0.364066
O O12 0.550462 0.850740 0.167652
O O13 0.450690 0.955938 0.293375
O O14 0.936664 0.763048 0.513261
#
# Coordination Sequence:
#
# PCOD8156877 Si02
#       7
#     4   4   4   4   4   4   4
#     4  10  20  40  66  92 128 172 229 282 323 413
#     4  11  23  45  70  98 134 186 228 279 353 411
#     4  10  21  37  66  98 127 174 226 274 344 396
#     4  11  27  42  65 103 139 183 233 291 347 417
#     4  11  26  45  66 100 147 183 216 290 358 414
#     4  12  25  44  75 104 132 183 248 295 339 412
#     4  11  20  39  68  97 129 175 236 285 330 413
#
# _framework density 22.718463
#
# number of rings (size 3 to 8) (size 9 to 14) (size 15 to 20)
#    0.000    1.143    4.286    1.714    4.000    1.143 
#    0.000    0.000    0.000    0.000    0.000    0.000 
#    0.000    0.000    0.000    0.000    0.000    0.000 
#
# Total GULP energy -346868.476544 kJ/mol
# GULP energy per Si atom -12388.159877 kJ/mol
# Density = 2.266675 g / cm^3
# Si number density = 22.718463 Si / 1000 Ang^3
#
#
#
# Elastic Constant Matrix: (Units=GPa)
#
#
# Indices 1 2 3 4 5 6 
#
# 1 83.8042 18.3923 -7.9076 0.0000 0.0000 0.0000
# 2 18.3923 105.6606 11.9877 0.0000 0.0000 0.0000
# 3 -7.9076 11.9877 78.4812 0.0000 0.0000 0.0000
# 4 0.0000 0.0000 0.0000 26.8623 0.0000 0.0000
# 5 0.0000 0.0000 0.0000 0.0000 28.8089 0.0000
# 6 0.0000 0.0000 0.0000 0.0000 0.0000 23.3315
#
#
#
# Elastic Compliance Matrix: (Units=1/GPa)
#
#
# Indices 1 2 3 4 5 6 
#
# 1 0.012609 -0.002380 0.001634 0.000000 0.000000 0.000000
# 2 -0.002380 0.010081 -0.001780 0.000000 0.000000 0.000000
# 3 0.001634 -0.001780 0.013178 0.000000 0.000000 0.000000
# 4 0.000000 0.000000 0.000000 0.037227 0.000000 0.000000
# 5 0.000000 0.000000 0.000000 0.000000 0.034712 0.000000
# 6 0.000000 0.000000 0.000000 0.000000 0.000000 0.042861
#
#
# Mechanical properties :
#
#
# Convention : Reuss Voigt Hill
#
# Bulk Modulus (GPa) = 32.45024 34.76564 33.60794
# Shear Modulus (GPa) = 30.12216 32.16544 31.14380
#
# Velocity S-wave (km/s) = 3.64523 3.76683 3.70653
# Velocity P-wave (km/s) = 5.65964 5.85275 5.75701
#
# Compressibility (1/GPa) = 0.03081641
#
# Stress axis : x y z
#
# Youngs Moduli (GPa) = 79.30754 99.20142 75.88195
#
# Poissons Ratio (x) = 0.23612 -0.12399
# Poissons Ratio (y) = 0.18877 0.13504
# Poissons Ratio (z) = -0.12959 0.17654
#
# Static dielectric constant tensor:
#      x y z
#    x 3.999800 0.000000 0.000000 
#    y 0.000000 4.070050 0.000000 
#    z 0.000000 0.000000 4.469960 
# 
# 
# High freq. dielectric constant tensor:
#      x y z
#    x 1.893010 0.000000 0.000000 
#    y 0.000000 1.873570 0.000000 
#    z 0.000000 0.000000 1.901740 
# 
# From -- ./inp_files/1484.got.cif
#   From: 2010.03.12/outbox.cif.g09.slc.cpg/sg19_1_cif.got.tgz:1484.got - 2010.04.10 18:59:41.
