data_PCOD8156308
_publ_section_title
;
Structure prediction by ZEFSAII (Michael W. Deem and Ramdas Pophale) SiO2 
 PCOD8156308
Probable space group: P 21 21 2
;
_chemical_formula_sum "Si O2"
_cell_formula_units_Z 26
_cell_length_a 8.227232
_cell_length_b 20.960729
_cell_length_c 6.689670
_cell_angle_alpha 90.000000
_cell_angle_beta 90.000000
_cell_angle_gamma 90.000000
_cell_volume 1153.625433
_symmetry_space_group_name_H-M "P 21 21 2"
_symmetry_group_IT_number 18
_symmetry_cell_setting 'orthorhombic'
loop_
_space_group_symop_operation_xyz
x,y,z
-x,-y,z
1/2+x,1/2-y,-z
1/2-x,1/2+y,-z
loop_
_atom_site_type_symbol
_atom_site_label
_atom_site_fract_x
_atom_site_fract_y
_atom_site_fract_z
Si Si1 0.453438 0.403145 0.620534
Si Si2 0.742287 0.314198 0.559045
Si Si3 0.758062 0.027684 0.708788
Si Si4 0.565622 0.900451 0.704409
Si Si5 0.898726 0.303233 0.965595
Si Si6 0.500000 0.500000 0.947268
Si Si7 0.760762 0.707770 0.752256
O O1 0.584480 0.357449 0.515722
O O2 0.390685 0.454046 0.457302
O O3 0.537627 0.439577 0.805596
O O4 0.301262 0.362430 0.699621
O O5 0.903242 0.349673 0.473358
O O6 0.762800 0.302067 0.793506
O O7 0.710542 0.247078 0.451424
O O8 0.624882 0.083792 0.722065
O O9 0.671326 0.962161 0.649289
O O10 0.843124 0.017753 0.921996
O O11 0.622294 0.869381 0.913488
O O12 0.075341 0.297384 0.874529
O O13 0.872634 0.243330 0.111436
#
# Coordination Sequence:
#
# PCOD8156308 Si02
#       7
#     4   4   4   4   4   2   4
#     4  12  25  42  66  97 129 168 217 267 323 390
#     4  11  23  41  65  92 130 169 211 266 326 388
#     4  11  24  42  64  92 127 166 217 268 321 385
#     4  10  23  42  64  91 125 170 214 266 324 383
#     4  11  23  42  64  94 132 170 218 268 326 394
#     4  12  24  40  64  92 124 166 210 262 320 378
#     4  11  25  41  65  97 129 171 215 267 328 388
#
# _framework density 22.537645000000001
#
# number of rings (size 3 to 8) (size 9 to 14) (size 15 to 20)
#    0.000    0.923    0.000    6.923    0.000    9.846 
#    0.000    3.077    0.000    0.000    0.000    0.000 
#    0.000    0.000    0.000    0.000    0.000    0.000 
#
# Total GULP energy -322562.124567 kJ/mol
# GULP energy per Si atom -12406.235560 kJ/mol
# Density = 2.248635 g / cm^3
# Si number density = 22.537645 Si / 1000 Ang^3
#
#
#
# Elastic Constant Matrix: (Units=GPa)
#
#
# Indices 1 2 3 4 5 6 
#
# 1 84.8663 21.9009 26.3704 0.0000 0.0000 0.0000
# 2 21.9009 95.5735 42.4642 0.0000 0.0000 0.0000
# 3 26.3704 42.4642 126.3802 0.0000 0.0000 0.0000
# 4 0.0000 0.0000 0.0000 35.0614 0.0000 0.0000
# 5 0.0000 0.0000 0.0000 0.0000 36.4856 0.0000
# 6 0.0000 0.0000 0.0000 0.0000 0.0000 38.5991
#
#
#
# Elastic Compliance Matrix: (Units=1/GPa)
#
#
# Indices 1 2 3 4 5 6 
#
# 1 0.012941 -0.002076 -0.002003 0.000000 0.000000 0.000000
# 2 -0.002076 0.012632 -0.003811 0.000000 0.000000 0.000000
# 3 -0.002003 -0.003811 0.009611 0.000000 0.000000 0.000000
# 4 0.000000 0.000000 0.000000 0.028521 0.000000 0.000000
# 5 0.000000 0.000000 0.000000 0.000000 0.027408 0.000000
# 6 0.000000 0.000000 0.000000 0.000000 0.000000 0.025907
#
#
# Mechanical properties :
#
#
# Convention : Reuss Voigt Hill
#
# Bulk Modulus (GPa) = 51.53343 54.25455 52.89399
# Shear Modulus (GPa) = 35.90162 36.43486 36.16824
#
# Velocity S-wave (km/s) = 3.99552 4.02509 4.01033
# Velocity P-wave (km/s) = 6.64836 6.76216 6.70551
#
# Compressibility (1/GPa) = 0.01940488
#
# Stress axis : x y z
#
# Youngs Moduli (GPa) = 77.27235 79.16266 104.04543
#
# Poissons Ratio (x) = 0.16431 0.20839
# Poissons Ratio (y) = 0.16039 0.39656
# Poissons Ratio (z) = 0.15477 0.30172
#
# Static dielectric constant tensor:
#      x y z
#    x 3.988820 0.000000 0.000000 
#    y 0.000000 4.127640 0.000000 
#    z 0.000000 0.000000 4.096140 
# 
# 
# High freq. dielectric constant tensor:
#      x y z
#    x 1.892870 0.000000 0.000000 
#    y 0.000000 1.898440 0.000000 
#    z 0.000000 0.000000 1.893760 
# 
# From -- ./inp_files/623.got.cif
#   From: 2010.03.12/outbox.cif.g09.slc.cpg/sg18_1_cif.got.tgz:623.got - 2010.04.10 18:53:55.
