data_PCOD8156661
_publ_section_title
;
Structure prediction by ZEFSAII (Michael W. Deem and Ramdas Pophale) SiO2 
 PCOD8156661
Probable space group: P 21 21 21
;
_chemical_formula_sum "Si O2"
_cell_formula_units_Z 28
_cell_length_a 9.285852
_cell_length_b 18.900608
_cell_length_c 8.196486
_cell_angle_alpha 90.000000
_cell_angle_beta 90.000000
_cell_angle_gamma 90.000000
_cell_volume 1438.550903
_symmetry_space_group_name_H-M "P 21 21 21"
_symmetry_group_IT_number 19
_symmetry_cell_setting 'orthorhombic'
loop_
_space_group_symop_operation_xyz
x,y,z
1/2-x,-y,1/2+z
1/2+x,1/2-y,-z
-x,1/2+y,1/2-z
loop_
_atom_site_type_symbol
_atom_site_label
_atom_site_fract_x
_atom_site_fract_y
_atom_site_fract_z
Si Si1 0.858849 0.814255 0.862184
Si Si2 0.978913 0.726428 0.311430
Si Si3 0.072002 0.859951 0.113886
Si Si4 0.850864 0.946069 0.294635
Si Si5 0.351746 0.418963 0.495124
Si Si6 0.265473 0.681134 0.487573
Si Si7 0.621208 0.341625 0.494347
O O1 0.708436 0.845527 0.929075
O O2 0.867674 0.824790 0.669568
O O3 0.878295 0.732976 0.904841
O O4 0.982571 0.860021 0.946347
O O5 0.064429 0.784435 0.204645
O O6 0.098143 0.696629 0.439475
O O7 0.837311 0.757981 0.400459
O O8 0.911309 0.667555 0.188800
O O9 0.230096 0.879878 0.052288
O O10 0.007617 0.917978 0.238119
O O11 0.772728 0.893294 0.420092
O O12 0.874728 0.023529 0.364613
O O13 0.746827 0.953832 0.140892
O O14 0.503404 0.394779 0.418438
#
# Coordination Sequence:
#
# PCOD8156661 Si02
#       7
#     4   4   4   4   4   4   4
#     4  10  19  36  62  89 124 160 204 257 307 366
#     4  10  22  33  58  92 127 161 201 258 310 364
#     4   9  20  38  57  87 123 158 202 257 309 364
#     4  10  24  40  61  87 122 165 207 251 309 380
#     4  11  22  41  65  87 122 167 213 255 308 382
#     4  11  21  36  57  93 128 159 211 257 308 373
#     4  11  20  38  62  91 122 160 206 259 317 363
#
# _framework density 19.464030000000001
#
# number of rings (size 3 to 8) (size 9 to 14) (size 15 to 20)
#    0.000    1.714    2.857    2.571    4.000    0.000 
#    0.000    4.286    0.000    0.000    0.000    0.000 
#    0.000    0.000    0.000    0.000    0.000    0.000 
#
# Total GULP energy -347101.963830 kJ/mol
# GULP energy per Si atom -12396.498708 kJ/mol
# Density = 1.941973 g / cm^3
# Si number density = 19.464030 Si / 1000 Ang^3
#
#
#
# Elastic Constant Matrix: (Units=GPa)
#
#
# Indices 1 2 3 4 5 6 
#
# 1 133.7315 46.6708 36.5115 0.0000 0.0000 0.0000
# 2 46.6708 90.1450 31.9109 0.0000 0.0000 0.0000
# 3 36.5115 31.9109 72.0227 0.0000 0.0000 0.0000
# 4 0.0000 0.0000 0.0000 32.8562 0.0000 0.0000
# 5 0.0000 0.0000 0.0000 0.0000 33.8969 0.0000
# 6 0.0000 0.0000 0.0000 0.0000 0.0000 17.1887
#
#
#
# Elastic Compliance Matrix: (Units=1/GPa)
#
#
# Indices 1 2 3 4 5 6 
#
# 1 0.009710 -0.003896 -0.003196 0.000000 0.000000 0.000000
# 2 -0.003896 0.014720 -0.004547 0.000000 0.000000 0.000000
# 3 -0.003196 -0.004547 0.017519 0.000000 0.000000 0.000000
# 4 0.000000 0.000000 0.000000 0.030436 0.000000 0.000000
# 5 0.000000 0.000000 0.000000 0.000000 0.029501 0.000000
# 6 0.000000 0.000000 0.000000 0.000000 0.000000 0.058178
#
#
# Mechanical properties :
#
#
# Convention : Reuss Voigt Hill
#
# Bulk Modulus (GPa) = 53.55834 58.45397 56.00616
# Shear Modulus (GPa) = 26.37613 28.84208 27.60911
#
# Velocity S-wave (km/s) = 3.68519 3.85361 3.77034
# Velocity P-wave (km/s) = 6.75898 7.06381 6.91308
#
# Compressibility (1/GPa) = 0.01867123
#
# Stress axis : x y z
#
# Youngs Moduli (GPa) = 102.98811 67.93612 57.07931
#
# Poissons Ratio (x) = 0.26465 0.18244
# Poissons Ratio (y) = 0.40120 0.25954
# Poissons Ratio (z) = 0.32918 0.30890
#
# Static dielectric constant tensor:
#      x y z
#    x 3.656770 0.000000 0.000000 
#    y 0.000000 3.288450 0.000000 
#    z 0.000000 0.000000 3.703000 
# 
# 
# High freq. dielectric constant tensor:
#      x y z
#    x 1.758850 0.000000 0.000000 
#    y 0.000000 1.736180 0.000000 
#    z 0.000000 0.000000 1.763180 
# 
# From -- ./inp_files/2939.got.cif
#   From: 2010.03.12/outbox.cif.g09.slc.cpg/sg19_2_cif.got.tgz:2939.got - 2010.04.10 18:59:41.
