data_PCOD8156300
_publ_section_title
;
Structure prediction by ZEFSAII (Michael W. Deem and Ramdas Pophale) SiO2 
 PCOD8156300
Probable space group: P 21 21 2
;
_chemical_formula_sum "Si O2"
_cell_formula_units_Z 26
_cell_length_a 16.897276
_cell_length_b 10.910842
_cell_length_c 6.838193
_cell_angle_alpha 90.000000
_cell_angle_beta 90.000000
_cell_angle_gamma 90.000000
_cell_volume 1260.713254
_symmetry_space_group_name_H-M "P 21 21 2"
_symmetry_group_IT_number 18
_symmetry_cell_setting 'orthorhombic'
loop_
_space_group_symop_operation_xyz
x,y,z
-x,-y,z
1/2+x,1/2-y,-z
1/2-x,1/2+y,-z
loop_
_atom_site_type_symbol
_atom_site_label
_atom_site_fract_x
_atom_site_fract_y
_atom_site_fract_z
Si Si1 0.752672 0.235531 0.293659
Si Si2 0.500000 0.000000 0.680521
Si Si3 0.208680 0.673551 0.708100
Si Si4 0.132944 0.853129 0.981075
Si Si5 0.982592 0.693135 0.996332
Si Si6 0.390445 0.947686 0.330295
Si Si7 0.657867 0.373383 0.979221
O O1 0.786492 0.306153 0.478889
O O2 0.685658 0.138518 0.353650
O O3 0.828159 0.171836 0.192279
O O4 0.716303 0.338401 0.154427
O O5 0.515286 0.884311 0.821009
O O6 0.424520 0.969949 0.546582
O O7 0.193069 0.802874 0.815993
O O8 0.137890 0.577887 0.758322
O O9 0.290988 0.615153 0.781728
O O10 0.049707 0.789048 0.939655
O O11 0.118475 0.997892 0.961992
O O12 0.906551 0.769795 0.062086
O O13 0.958103 0.608413 0.811008
#
# Coordination Sequence:
#
# PCOD8156300 Si02
#       7
#     4   2   4   4   4   4   4
#     4  10  23  40  63  93 126 167 213 262 320 375
#     4  12  22  38  64  88 124 174 204 260 322 370
#     4  11  22  39  63  91 124 166 213 260 321 376
#     4  11  22  40  64  92 124 168 211 261 318 381
#     4  11  24  42  62  93 129 166 211 263 321 382
#     4  11  23  41  61  94 129 160 218 271 311 384
#     4  10  23  41  63  91 127 164 209 264 316 383
#
# _framework density 20.623248
#
# number of rings (size 3 to 8) (size 9 to 14) (size 15 to 20)
#    0.000    1.231    1.538    4.615    2.154    1.231 
#    0.000    0.000    0.000    5.538    0.000    0.000 
#    0.000    0.000    0.000    0.000    0.000    0.000 
#
# Total GULP energy -322487.042654 kJ/mol
# GULP energy per Si atom -12403.347794 kJ/mol
# Density = 2.057631 g / cm^3
# Si number density = 20.623248 Si / 1000 Ang^3
#
#
#
# Elastic Constant Matrix: (Units=GPa)
#
#
# Indices 1 2 3 4 5 6 
#
# 1 75.2690 16.9025 29.3995 0.0000 0.0000 0.0000
# 2 16.9025 111.3154 37.9873 0.0000 0.0000 0.0000
# 3 29.3995 37.9873 106.1267 0.0000 0.0000 0.0000
# 4 0.0000 0.0000 0.0000 25.1614 0.0000 0.0000
# 5 0.0000 0.0000 0.0000 0.0000 34.9759 0.0000
# 6 0.0000 0.0000 0.0000 0.0000 0.0000 40.0269
#
#
#
# Elastic Compliance Matrix: (Units=1/GPa)
#
#
# Indices 1 2 3 4 5 6 
#
# 1 0.014991 -0.000979 -0.003802 0.000000 0.000000 0.000000
# 2 -0.000979 0.010297 -0.003415 0.000000 0.000000 0.000000
# 3 -0.003802 -0.003415 0.011698 0.000000 0.000000 0.000000
# 4 0.000000 0.000000 0.000000 0.039743 0.000000 0.000000
# 5 0.000000 0.000000 0.000000 0.000000 0.028591 0.000000
# 6 0.000000 0.000000 0.000000 0.000000 0.000000 0.024983
#
#
# Mechanical properties :
#
#
# Convention : Reuss Voigt Hill
#
# Bulk Modulus (GPa) = 48.55616 51.25440 49.90528
# Shear Modulus (GPa) = 32.56041 33.92764 33.24403
#
# Velocity S-wave (km/s) = 3.97775 4.06040 4.01929
# Velocity P-wave (km/s) = 6.68522 6.84757 6.76688
#
# Compressibility (1/GPa) = 0.02059471
#
# Stress axis : x y z
#
# Youngs Moduli (GPa) = 66.70821 97.11195 85.48200
#
# Poissons Ratio (x) = 0.09503 0.32504
# Poissons Ratio (y) = 0.06528 0.29190
# Poissons Ratio (z) = 0.25366 0.33162
#
# Static dielectric constant tensor:
#      x y z
#    x 3.698310 0.000000 0.000000 
#    y 0.000000 3.808130 0.000000 
#    z 0.000000 0.000000 3.580270 
# 
# 
# High freq. dielectric constant tensor:
#      x y z
#    x 1.814170 0.000000 0.000000 
#    y 0.000000 1.815430 0.000000 
#    z 0.000000 0.000000 1.799760 
# 
# From -- ./inp_files/1145.got.cif
#   From: 2010.03.12/outbox.cif.g09.slc.cpg/sg18_1_cif.got.tgz:1145.got - 2010.04.10 18:53:55.
