data_PCOD8156259
_publ_section_title
;
Structure prediction by ZEFSAII (Michael W. Deem and Ramdas Pophale) SiO2 
 PCOD8156259
Probable space group: P 21 21 2
;
_chemical_formula_sum "Si O2"
_cell_formula_units_Z 24
_cell_length_a 10.554557
_cell_length_b 9.257276
_cell_length_c 11.803223
_cell_angle_alpha 90.000000
_cell_angle_beta 90.000000
_cell_angle_gamma 90.000000
_cell_volume 1153.250985
_symmetry_space_group_name_H-M "P 21 21 2"
_symmetry_group_IT_number 18
_symmetry_cell_setting 'orthorhombic'
loop_
_space_group_symop_operation_xyz
x,y,z
-x,-y,z
1/2+x,1/2-y,-z
1/2-x,1/2+y,-z
loop_
_atom_site_type_symbol
_atom_site_label
_atom_site_fract_x
_atom_site_fract_y
_atom_site_fract_z
Si Si1 0.500000 0.500000 0.845955
Si Si2 0.658841 0.372717 0.042164
Si Si3 0.787643 0.146003 0.617223
Si Si4 0.029772 0.288904 0.264576
Si Si5 0.385162 0.089004 0.526956
Si Si6 0.614920 0.070885 0.959693
Si Si7 0.500000 0.500000 0.228799
O O1 0.470000 0.367979 0.761683
O O2 0.615942 0.452927 0.926855
O O3 0.787475 0.448958 0.079026
O O4 0.561239 0.380865 0.145993
O O5 0.684304 0.203115 0.022179
O O6 0.671749 0.220810 0.683508
O O7 0.853093 0.268072 0.541670
O O8 0.894957 0.082311 0.698733
O O9 0.737122 0.014666 0.538852
O O10 0.037616 0.374287 0.148606
O O11 0.932159 0.368504 0.347442
O O12 0.500000 0.000000 0.466442
O O13 0.500000 0.000000 0.034846
#
# Coordination Sequence:
#
# PCOD8156259 Si02
#       7
#     2   4   4   4   4   4   2
#     4   9  22  37  68  96 126 169 210 265 304 380
#     4  10  24  41  62  98 131 161 218 255 313 374
#     4  11  24  42  68  91 127 167 211 267 320 370
#     4  10  22  43  66  95 126 170 215 252 327 379
#     4  10  25  43  64  96 123 163 217 263 316 381
#     4  11  23  41  68  91 131 172 206 261 310 381
#     4  11  24  41  64  92 130 173 202 263 322 370
#
# _framework density 20.810732999999999
#
# number of rings (size 3 to 8) (size 9 to 14) (size 15 to 20)
#    0.000    1.667    1.667    1.500   14.000    0.000 
#    0.000    4.167    0.000    0.000    0.000    0.000 
#    0.000    0.000    0.000    0.000    0.000    0.000 
#
# Total GULP energy -297504.620870 kJ/mol
# GULP energy per Si atom -12396.025870 kJ/mol
# Density = 2.076337 g / cm^3
# Si number density = 20.810733 Si / 1000 Ang^3
#
#
#
# Elastic Constant Matrix: (Units=GPa)
#
#
# Indices 1 2 3 4 5 6 
#
# 1 98.7779 58.4962 26.3581 0.0000 0.0000 0.0000
# 2 58.4962 159.4391 51.1690 0.0000 0.0000 0.0000
# 3 26.3581 51.1690 66.0773 0.0000 0.0000 0.0000
# 4 0.0000 0.0000 0.0000 25.5906 0.0000 0.0000
# 5 0.0000 0.0000 0.0000 0.0000 7.5125 0.0000
# 6 0.0000 0.0000 0.0000 0.0000 0.0000 42.9802
#
#
#
# Elastic Compliance Matrix: (Units=1/GPa)
#
#
# Indices 1 2 3 4 5 6 
#
# 1 0.013131 -0.004174 -0.002006 0.000000 0.000000 0.000000
# 2 -0.004174 0.009673 -0.005826 0.000000 0.000000 0.000000
# 3 -0.002006 -0.005826 0.020445 0.000000 0.000000 0.000000
# 4 0.000000 0.000000 0.000000 0.039077 0.000000 0.000000
# 5 0.000000 0.000000 0.000000 0.000000 0.133111 0.000000
# 6 0.000000 0.000000 0.000000 0.000000 0.000000 0.023267
#
#
# Mechanical properties :
#
#
# Convention : Reuss Voigt Hill
#
# Bulk Modulus (GPa) = 51.97915 66.26010 59.11962
# Shear Modulus (GPa) = 18.57865 27.76806 23.17336
#
# Velocity S-wave (km/s) = 2.99112 3.65679 3.34058
# Velocity P-wave (km/s) = 6.07951 7.05252 6.58401
#
# Compressibility (1/GPa) = 0.01923848
#
# Stress axis : x y z
#
# Youngs Moduli (GPa) = 76.15784 103.38157 48.91150
#
# Poissons Ratio (x) = 0.43149 0.09810
# Poissons Ratio (y) = 0.31786 0.28494
# Poissons Ratio (z) = 0.15275 0.60226
#
# Static dielectric constant tensor:
#      x y z
#    x 3.798330 0.000000 0.000000 
#    y 0.000000 4.621600 0.000000 
#    z 0.000000 0.000000 3.642990 
# 
# 
# High freq. dielectric constant tensor:
#      x y z
#    x 1.819490 0.000000 0.000000 
#    y 0.000000 1.831800 0.000000 
#    z 0.000000 0.000000 1.794560 
# 
# From -- ./inp_files/5875.got.cif
#   From: 2010.03.12/outbox.cif.g09.slc.cpg/sg18_3_cif.got.tgz:5875.got - 2010.04.10 18:53:55.
