data_PCOD8156194
_publ_section_title
;
Structure prediction by ZEFSAII (Michael W. Deem and Ramdas Pophale) SiO2 
 PCOD8156194
Probable space group: P 21 21 2
;
_chemical_formula_sum "Si O2"
_cell_formula_units_Z 32
_cell_length_a 11.262910
_cell_length_b 12.170784
_cell_length_c 11.197915
_cell_angle_alpha 90.000000
_cell_angle_beta 90.000000
_cell_angle_gamma 90.000000
_cell_volume 1534.992773
_symmetry_space_group_name_H-M "P 21 21 2"
_symmetry_group_IT_number 18
_symmetry_cell_setting 'orthorhombic'
loop_
_space_group_symop_operation_xyz
x,y,z
-x,-y,z
1/2+x,1/2-y,-z
1/2-x,1/2+y,-z
loop_
_atom_site_type_symbol
_atom_site_label
_atom_site_fract_x
_atom_site_fract_y
_atom_site_fract_z
Si Si1 0.140097 0.500671 0.724657
Si Si2 0.490214 0.622666 0.298690
Si Si3 0.337058 0.798947 0.826795
Si Si4 0.197559 0.727378 0.609845
Si Si5 0.112817 0.891384 0.942389
Si Si6 0.265581 0.763458 0.339824
Si Si7 0.233907 0.081519 0.044069
Si Si8 0.399023 0.200041 0.870834
O O1 0.181405 0.598346 0.637273
O O2 0.182580 0.385438 0.671125
O O3 0.190436 0.516237 0.857366
O O4 0.000000 0.500000 0.735834
O O5 0.500000 0.500000 0.355484
O O6 0.578174 0.707178 0.360958
O O7 0.512147 0.615450 0.157384
O O8 0.358871 0.668160 0.312240
O O9 0.306444 0.775060 0.688044
O O10 0.243187 0.883846 0.881035
O O11 0.325460 0.688677 0.902813
O O12 0.470255 0.846238 0.837607
O O13 0.221186 0.744786 0.472418
O O14 0.086108 0.796527 0.034630
O O15 0.119120 0.009829 0.005919
O O16 0.156916 0.748086 0.249674
O O17 0.319361 0.105759 0.931081
#
# Coordination Sequence:
#
# PCOD8156194 Si02
#       8
#     4   4   4   4   4   4   4   4
#     4  11  23  44  71  99 132 184 226 272 341 404
#     4  11  25  44  70  98 134 180 221 280 347 398
#     4   9  23  41  60  93 132 171 213 271 333 381
#     4  10  25  48  67  97 135 176 230 287 321 402
#     4  10  22  39  62  93 134 167 214 269 334 401
#     4  12  26  44  72 100 132 179 236 270 343 404
#     4  10  22  40  63  98 134 169 217 273 334 406
#     4  11  24  37  66  99 129 172 218 276 332 400
#
# _framework density 20.847002
#
# number of rings (size 3 to 8) (size 9 to 14) (size 15 to 20)
#    0.000    1.500    2.500    1.500   10.500    0.000 
#    0.000    0.000    0.000    0.000    0.000    0.000 
#    0.000    0.000    0.000    0.000    0.000    0.000 
#
# Total GULP energy -396866.617644 kJ/mol
# GULP energy per Si atom -12402.081801 kJ/mol
# Density = 2.079955 g / cm^3
# Si number density = 20.847002 Si / 1000 Ang^3
#
#
#
# Elastic Constant Matrix: (Units=GPa)
#
#
# Indices 1 2 3 4 5 6 
#
# 1 49.4417 -23.1322 10.2616 0.0000 0.0000 0.0000
# 2 -23.1322 75.7305 7.7026 0.0000 0.0000 0.0000
# 3 10.2616 7.7026 122.0699 0.0000 0.0000 0.0000
# 4 0.0000 0.0000 0.0000 11.0713 0.0000 0.0000
# 5 0.0000 0.0000 0.0000 0.0000 612.8148 0.0000
# 6 0.0000 0.0000 0.0000 0.0000 0.0000 25.6272
#
#
#
# Elastic Compliance Matrix: (Units=1/GPa)
#
#
# Indices 1 2 3 4 5 6 
#
# 1 0.024352 0.007696 -0.002533 0.000000 0.000000 0.000000
# 2 0.007696 0.015722 -0.001639 0.000000 0.000000 0.000000
# 3 -0.002533 -0.001639 0.008508 0.000000 0.000000 0.000000
# 4 0.000000 0.000000 0.000000 0.090323 0.000000 0.000000
# 5 0.000000 0.000000 0.000000 0.000000 0.001632 0.000000
# 6 0.000000 0.000000 0.000000 0.000000 0.000000 0.039021
#
#
# Mechanical properties :
#
#
# Convention : Reuss Voigt Hill
#
# Bulk Modulus (GPa) = 17.97542 26.32290 22.14916
# Shear Modulus (GPa) = 26.17059 146.73002 86.45030
#
# Velocity S-wave (km/s) = 3.54696 8.39863 6.44662
# Velocity P-wave (km/s) = 5.04141 10.32974 8.12771
#
# Compressibility (1/GPa) = 0.05563154
#
# Stress axis : x y z
#
# Youngs Moduli (GPa) = 41.06390 63.60418 117.53141
#
# Poissons Ratio (x) = -0.48950 0.29768
# Poissons Ratio (y) = -0.31603 0.19264
# Poissons Ratio (z) = 0.10400 0.10425
#
# Static dielectric constant tensor:
#      x y z
#    x 3.868850 0.000000 0.000000 
#    y 0.000000 -4.194490 0.000000 
#    z 0.000000 0.000000 3.795960 
# 
# 
# High freq. dielectric constant tensor:
#      x y z
#    x 1.824580 0.000000 0.000000 
#    y 0.000000 1.826170 0.000000 
#    z 0.000000 0.000000 1.812360 
# 
# From -- ./inp_files/5945.got.cif
#   From: 2010.03.12/outbox.cif.g09.slc.cpg/sg18_3_cif.got.tgz:5945.got - 2010.04.10 18:53:55.
