data_PCOD8156115
_publ_section_title
;
Structure prediction by ZEFSAII (Michael W. Deem and Ramdas Pophale) SiO2 
 PCOD8156115
Probable space group: P 21 21 2
;
_chemical_formula_sum "Si O2"
_cell_formula_units_Z 32
_cell_length_a 13.231215
_cell_length_b 11.221690
_cell_length_c 9.977990
_cell_angle_alpha 90.000000
_cell_angle_beta 90.000000
_cell_angle_gamma 90.000000
_cell_volume 1481.497961
_symmetry_space_group_name_H-M "P 21 21 2"
_symmetry_group_IT_number 18
_symmetry_cell_setting 'orthorhombic'
loop_
_space_group_symop_operation_xyz
x,y,z
-x,-y,z
1/2+x,1/2-y,-z
1/2-x,1/2+y,-z
loop_
_atom_site_type_symbol
_atom_site_label
_atom_site_fract_x
_atom_site_fract_y
_atom_site_fract_z
Si Si1 0.777528 0.030668 0.425557
Si Si2 0.166397 0.583124 0.881684
Si Si3 0.275843 0.417764 0.277528
Si Si4 0.151460 0.339806 0.783386
Si Si5 0.443119 0.278458 0.628923
Si Si6 0.838669 0.822884 0.266476
Si Si7 0.188586 0.648615 0.165765
Si Si8 0.551292 0.751536 0.316209
O O1 0.748368 0.033093 0.578284
O O2 0.683377 0.089787 0.350247
O O3 0.877634 0.102311 0.382272
O O4 0.795545 0.890218 0.398205
O O5 0.130604 0.445148 0.890661
O O6 0.289659 0.598323 0.856987
O O7 0.114866 0.642111 0.750792
O O8 0.132551 0.643030 0.021519
O O9 0.201228 0.309831 0.247172
O O10 0.252897 0.526194 0.177744
O O11 0.392775 0.373016 0.277704
O O12 0.237533 0.259462 0.845691
O O13 0.058258 0.253204 0.751422
O O14 0.540953 0.315937 0.716296
O O15 0.389307 0.171984 0.712774
O O16 0.461358 0.231045 0.477124
#
# Coordination Sequence:
#
# PCOD8156115 Si02
#       8
#     4   4   4   4   4   4   4   4
#     4   9  20  37  65  96 128 162 206 268 331 385
#     4  10  24  43  66  90 131 176 216 264 327 397
#     4  10  23  37  63  94 131 164 211 270 322 383
#     4  10  22  41  69  89 128 172 211 264 334 388
#     4  10  22  40  67 102 126 163 220 273 326 391
#     4  10  21  40  64  91 131 170 210 266 325 384
#     4  11  26  42  64  93 133 172 221 264 326 391
#     4  10  22  42  68  99 128 165 219 275 331 391
#
# _framework density 21.59976
#
# number of rings (size 3 to 8) (size 9 to 14) (size 15 to 20)
#    0.000    2.000    0.000    1.500   14.000    2.000 
#    4.500    0.000    8.250    0.000    0.000    0.000 
#    0.000    0.000    0.000    0.000    0.000    0.000 
#
# Total GULP energy -396471.124776 kJ/mol
# GULP energy per Si atom -12389.722649 kJ/mol
# Density = 2.155060 g / cm^3
# Si number density = 21.599760 Si / 1000 Ang^3
#
#
#
# Elastic Constant Matrix: (Units=GPa)
#
#
# Indices 1 2 3 4 5 6 
#
# 1 70.8694 -5.4316 10.4979 0.0000 0.0000 0.0000
# 2 -5.4316 88.0228 16.3727 0.0000 0.0000 0.0000
# 3 10.4979 16.3727 89.3186 0.0000 0.0000 0.0000
# 4 0.0000 0.0000 0.0000 30.3850 0.0000 0.0000
# 5 0.0000 0.0000 0.0000 0.0000 21.2029 0.0000
# 6 0.0000 0.0000 0.0000 0.0000 0.0000 29.7110
#
#
#
# Elastic Compliance Matrix: (Units=1/GPa)
#
#
# Indices 1 2 3 4 5 6 
#
# 1 0.014493 0.001254 -0.001933 0.000000 0.000000 0.000000
# 2 0.001254 0.011870 -0.002323 0.000000 0.000000 0.000000
# 3 -0.001933 -0.002323 0.011849 0.000000 0.000000 0.000000
# 4 0.000000 0.000000 0.000000 0.032911 0.000000 0.000000
# 5 0.000000 0.000000 0.000000 0.000000 0.047163 0.000000
# 6 0.000000 0.000000 0.000000 0.000000 0.000000 0.033658
#
#
# Mechanical properties :
#
#
# Convention : Reuss Voigt Hill
#
# Bulk Modulus (GPa) = 31.04925 32.34320 31.69623
# Shear Modulus (GPa) = 29.64108 31.37791 30.50949
#
# Velocity S-wave (km/s) = 3.70846 3.81556 3.76239
# Velocity P-wave (km/s) = 5.72214 5.86666 5.79485
#
# Compressibility (1/GPa) = 0.03220690
#
# Stress axis : x y z
#
# Youngs Moduli (GPa) = 68.99913 84.24449 84.39556
#
# Poissons Ratio (x) = -0.10564 0.16316
# Poissons Ratio (y) = -0.08652 0.19607
# Poissons Ratio (z) = 0.13339 0.19572
#
# Static dielectric constant tensor:
#      x y z
#    x 4.001540 0.000000 0.000000 
#    y 0.000000 3.995970 0.000000 
#    z 0.000000 0.000000 3.826980 
# 
# 
# High freq. dielectric constant tensor:
#      x y z
#    x 1.837620 0.000000 0.000000 
#    y 0.000000 1.853410 0.000000 
#    z 0.000000 0.000000 1.835750 
# 
# From -- ./inp_files/4323.got.cif
#   From: 2010.03.12/outbox.cif.g09.slc.cpg/sg18_3_cif.got.tgz:4323.got - 2010.04.10 18:53:55.
