data_PCOD8156790
_publ_section_title
;
Structure prediction by ZEFSAII (Michael W. Deem and Ramdas Pophale) SiO2 
 PCOD8156790
Probable space group: P 21 21 21
;
_chemical_formula_sum "Si O2"
_cell_formula_units_Z 32
_cell_length_a 8.351293
_cell_length_b 14.235438
_cell_length_c 13.581123
_cell_angle_alpha 90.000000
_cell_angle_beta 90.000000
_cell_angle_gamma 90.000000
_cell_volume 1614.582487
_symmetry_space_group_name_H-M "P 21 21 21"
_symmetry_group_IT_number 19
_symmetry_cell_setting 'orthorhombic'
loop_
_space_group_symop_operation_xyz
x,y,z
1/2-x,-y,1/2+z
1/2+x,1/2-y,-z
-x,1/2+y,1/2-z
loop_
_atom_site_type_symbol
_atom_site_label
_atom_site_fract_x
_atom_site_fract_y
_atom_site_fract_z
Si Si1 0.560159 0.173012 0.551601
Si Si2 0.462870 0.373714 0.986628
Si Si3 0.106376 0.493283 0.314503
Si Si4 0.822609 0.174614 0.403071
Si Si5 0.610397 0.541125 0.098163
Si Si6 0.096643 0.327975 0.980968
Si Si7 0.975718 0.495746 0.105080
Si Si8 0.106294 0.389631 0.764300
O O1 0.627320 0.105587 0.634204
O O2 0.712114 0.211235 0.491594
O O3 0.473308 0.257503 0.607717
O O4 0.439838 0.118575 0.480567
O O5 0.530400 0.440487 0.073101
O O6 0.278545 0.351089 0.008467
O O7 0.478517 0.426927 0.881866
O O8 0.561732 0.277238 0.982586
O O9 0.288597 0.519711 0.290538
O O10 0.996833 0.475169 0.220068
O O11 0.719413 0.177266 0.302757
O O12 0.887562 0.070043 0.427767
O O13 0.800157 0.537649 0.092307
O O14 0.550715 0.574965 0.205994
O O15 0.987001 0.401861 0.039936
O O16 0.057847 0.335165 0.864106
#
# Coordination Sequence:
#
# PCOD8156790 Si02
#       8
#     4   4   4   4   4   4   4   4
#     4  10  20  37  59  83 113 149 190 236 287 341
#     4  10  21  38  59  84 116 150 191 238 289 342
#     4   9  20  38  58  80 111 151 189 235 286 341
#     4  10  20  37  58  84 115 149 190 239 288 341
#     4  10  21  38  57  84 117 150 191 240 289 344
#     4  11  22  39  61  86 116 154 193 238 288 348
#     4  11  22  36  58  84 114 151 192 237 288 341
#     4   9  20  39  58  81 116 152 190 237 287 342
#
# _framework density 19.819365000000001
#
# number of rings (size 3 to 8) (size 9 to 14) (size 15 to 20)
#    0.000    2.000    0.000    5.250    0.000    7.000 
#    0.000   10.000    0.000    0.000    0.000    0.000 
#    0.000    0.000    0.000    0.000    0.000    0.000 
#
# Total GULP energy -396810.311025 kJ/mol
# GULP energy per Si atom -12400.322220 kJ/mol
# Density = 1.977426 g / cm^3
# Si number density = 19.819365 Si / 1000 Ang^3
#
#
#
# Elastic Constant Matrix: (Units=GPa)
#
#
# Indices 1 2 3 4 5 6 
#
# 1 75.4938 9.9179 27.7123 0.0000 0.0000 0.0000
# 2 9.9179 94.5505 36.4703 0.0000 0.0000 0.0000
# 3 27.7123 36.4703 96.4250 0.0000 0.0000 0.0000
# 4 0.0000 0.0000 0.0000 18.0552 0.0000 0.0000
# 5 0.0000 0.0000 0.0000 0.0000 23.4400 0.0000
# 6 0.0000 0.0000 0.0000 0.0000 0.0000 33.4222
#
#
#
# Elastic Compliance Matrix: (Units=1/GPa)
#
#
# Indices 1 2 3 4 5 6 
#
# 1 0.014809 0.000103 -0.004295 0.000000 0.000000 0.000000
# 2 0.000103 0.012384 -0.004713 0.000000 0.000000 0.000000
# 3 -0.004295 -0.004713 0.013388 0.000000 0.000000 0.000000
# 4 0.000000 0.000000 0.000000 0.055386 0.000000 0.000000
# 5 0.000000 0.000000 0.000000 0.000000 0.042662 0.000000
# 6 0.000000 0.000000 0.000000 0.000000 0.000000 0.029920
#
#
# Mechanical properties :
#
#
# Convention : Reuss Voigt Hill
#
# Bulk Modulus (GPa) = 43.91729 46.07447 44.99588
# Shear Modulus (GPa) = 25.77989 27.80807 26.79398
#
# Velocity S-wave (km/s) = 3.61049 3.74983 3.68082
# Velocity P-wave (km/s) = 6.29188 6.48429 6.38881
#
# Compressibility (1/GPa) = 0.02277007
#
# Stress axis : x y z
#
# Youngs Moduli (GPa) = 67.52546 80.75187 74.69409
#
# Poissons Ratio (x) = -0.00835 0.32083
# Poissons Ratio (y) = -0.00698 0.35207
# Poissons Ratio (z) = 0.29004 0.38062
#
# Static dielectric constant tensor:
#      x y z
#    x 3.525570 0.000000 0.000000 
#    y 0.000000 3.542640 0.000000 
#    z 0.000000 0.000000 3.744350 
# 
# 
# High freq. dielectric constant tensor:
#      x y z
#    x 1.773240 0.000000 0.000000 
#    y 0.000000 1.769010 0.000000 
#    z 0.000000 0.000000 1.773770 
# 
# From -- ./inp_files/4709.got.cif
#   From: 2010.03.12/outbox.cif.g09.slc.cpg/sg19_3_cif.got.tgz:4709.got - 2010.04.10 18:59:41.
