data_PCOD8156925
_publ_section_title
;
Structure prediction by ZEFSAII (Michael W. Deem and Ramdas Pophale) SiO2 
 PCOD8156925
Probable space group: P 21 21 21
;
_chemical_formula_sum "Si O2"
_cell_formula_units_Z 32
_cell_length_a 11.453095
_cell_length_b 13.963955
_cell_length_c 8.892518
_cell_angle_alpha 90.000000
_cell_angle_beta 90.000000
_cell_angle_gamma 90.000000
_cell_volume 1422.184878
_symmetry_space_group_name_H-M "P 21 21 21"
_symmetry_group_IT_number 19
_symmetry_cell_setting 'orthorhombic'
loop_
_space_group_symop_operation_xyz
x,y,z
1/2-x,-y,1/2+z
1/2+x,1/2-y,-z
-x,1/2+y,1/2-z
loop_
_atom_site_type_symbol
_atom_site_label
_atom_site_fract_x
_atom_site_fract_y
_atom_site_fract_z
Si Si1 0.708514 0.104834 0.348517
Si Si2 0.696743 0.584633 0.597449
Si Si3 0.651161 0.734236 0.009870
Si Si4 0.489600 0.677415 0.756178
Si Si5 0.575585 0.337270 0.947049
Si Si6 0.617223 0.990832 0.620436
Si Si7 0.323690 0.916216 0.105226
Si Si8 0.478084 0.759595 0.244055
O O1 0.790702 0.167945 0.455341
O O2 0.780629 0.065231 0.206688
O O3 0.605676 0.168429 0.278124
O O4 0.657907 0.019744 0.452323
O O5 0.600622 0.662082 0.646177
O O6 0.795049 0.633747 0.495748
O O7 0.755769 0.542696 0.748851
O O8 0.633116 0.502604 0.500209
O O9 0.532771 0.713924 0.917335
O O10 0.737348 0.645608 0.997336
O O11 0.608325 0.740445 0.182216
O O12 0.410132 0.761559 0.688178
O O13 0.413243 0.582726 0.778008
O O14 0.499940 0.428020 0.893923
O O15 0.509101 0.282775 0.081393
O O16 0.432621 0.853674 0.156761
#
# Coordination Sequence:
#
# PCOD8156925 Si02
#       8
#     4   4   4   4   4   4   4   4
#     4  11  26  44  71 103 145 183 238 292 352 429
#     4  10  22  41  65  99 129 175 230 285 335 421
#     4  10  20  44  65  94 135 182 225 288 339 414
#     4  11  24  45  71  97 139 185 234 289 354 409
#     4  11  25  44  71  98 141 184 232 291 351 414
#     4  12  27  47  72 105 143 188 235 295 357 423
#     4   9  21  38  64  91 129 168 223 284 333 397
#     4  10  23  43  65  97 139 177 231 284 339 419
#
# _framework density 22.500589000000002
#
# number of rings (size 3 to 8) (size 9 to 14) (size 15 to 20)
#    0.000    1.500    2.500    2.250    5.250    2.000 
#    2.250    0.000    0.000    0.000    0.000    0.000 
#    0.000    0.000    0.000    0.000    0.000    0.000 
#
# Total GULP energy -396896.175514 kJ/mol
# GULP energy per Si atom -12403.005485 kJ/mol
# Density = 2.244938 g / cm^3
# Si number density = 22.500589 Si / 1000 Ang^3
#
#
#
# Elastic Constant Matrix: (Units=GPa)
#
#
# Indices 1 2 3 4 5 6 
#
# 1 40.3894 7.7331 2.8224 0.0000 0.0000 0.0000
# 2 7.7331 80.6354 23.7408 0.0000 0.0000 0.0000
# 3 2.8224 23.7408 39.0092 0.0000 0.0000 0.0000
# 4 0.0000 0.0000 0.0000 48.5137 0.0000 0.0000
# 5 0.0000 0.0000 0.0000 0.0000 42.4956 0.0000
# 6 0.0000 0.0000 0.0000 0.0000 0.0000 15.8599
#
#
#
# Elastic Compliance Matrix: (Units=1/GPa)
#
#
# Indices 1 2 3 4 5 6 
#
# 1 0.025228 -0.002293 -0.000430 0.000000 0.000000 0.000000
# 2 -0.002293 0.015317 -0.009156 0.000000 0.000000 0.000000
# 3 -0.000430 -0.009156 0.031238 0.000000 0.000000 0.000000
# 4 0.000000 0.000000 0.000000 0.020613 0.000000 0.000000
# 5 0.000000 0.000000 0.000000 0.000000 0.023532 0.000000
# 6 0.000000 0.000000 0.000000 0.000000 0.000000 0.063052
#
#
# Mechanical properties :
#
#
# Convention : Reuss Voigt Hill
#
# Bulk Modulus (GPa) = 20.82206 25.40296 23.11251
# Shear Modulus (GPa) = 22.85753 29.75636 26.30694
#
# Velocity S-wave (km/s) = 3.19072 3.64052 3.42302
# Velocity P-wave (km/s) = 4.77999 5.38383 5.09087
#
# Compressibility (1/GPa) = 0.04802598
#
# Stress axis : x y z
#
# Youngs Moduli (GPa) = 39.63852 65.28641 32.01187
#
# Poissons Ratio (x) = 0.14969 0.01376
# Poissons Ratio (y) = 0.09089 0.29310
# Poissons Ratio (z) = 0.01704 0.59776
#
# Static dielectric constant tensor:
#      x y z
#    x 3.871490 0.000000 0.000000 
#    y 0.000000 4.067810 0.000000 
#    z 0.000000 0.000000 4.131010 
# 
# 
# High freq. dielectric constant tensor:
#      x y z
#    x 1.877680 0.000000 0.000000 
#    y 0.000000 1.888460 0.000000 
#    z 0.000000 0.000000 1.893510 
# 
# From -- ./inp_files/3634.got.cif
#   From: 2010.03.12/outbox.cif.g09.slc.cpg/sg19_2_cif.got.tgz:3634.got - 2010.04.10 18:59:41.
