data_PCOD8156995
_publ_section_title
;
Structure prediction by ZEFSAII (Michael W. Deem and Ramdas Pophale) SiO2 
 PCOD8156995
Probable space group: P 21 21 21
;
_chemical_formula_sum "Si O2"
_cell_formula_units_Z 32
_cell_length_a 6.697800
_cell_length_b 7.619765
_cell_length_c 30.779661
_cell_angle_alpha 90.000000
_cell_angle_beta 90.000000
_cell_angle_gamma 90.000000
_cell_volume 1570.860376
_symmetry_space_group_name_H-M "P 21 21 21"
_symmetry_group_IT_number 19
_symmetry_cell_setting 'orthorhombic'
loop_
_space_group_symop_operation_xyz
x,y,z
1/2-x,-y,1/2+z
1/2+x,1/2-y,-z
-x,1/2+y,1/2-z
loop_
_atom_site_type_symbol
_atom_site_label
_atom_site_fract_x
_atom_site_fract_y
_atom_site_fract_z
Si Si1 0.576348 0.990161 0.974994
Si Si2 0.902557 0.530146 0.802145
Si Si3 0.627736 0.190882 0.899707
Si Si4 0.671906 0.910413 0.546690
Si Si5 0.254432 0.628255 0.245102
Si Si6 0.288916 0.117485 0.522564
Si Si7 0.451360 0.016143 0.099290
Si Si8 0.093086 0.284329 0.199222
O O1 0.676992 0.814215 0.993695
O O2 0.646066 0.002891 0.923929
O O3 0.337227 0.986640 0.985285
O O4 0.685850 0.139452 0.005363
O O5 0.845903 0.723366 0.785695
O O6 0.949014 0.560203 0.852406
O O7 0.739828 0.379150 0.794513
O O8 0.094601 0.464381 0.777209
O O9 0.456932 0.252079 0.934134
O O10 0.835173 0.296189 0.901423
O O11 0.541576 0.184147 0.851383
O O12 0.817413 0.971053 0.585889
O O13 0.511038 0.052202 0.531590
O O14 0.168228 0.472142 0.215822
O O15 0.101823 0.732766 0.274972
O O16 0.164416 0.115106 0.567562
#
# Coordination Sequence:
#
# PCOD8156995 Si02
#       8
#     4   4   4   4   4   4   4   4
#     4  11  22  37  60  88 124 164 210 261 310 381
#     4  11  23  42  68  98 136 169 223 272 338 398
#     4  10  24  39  63  92 125 162 214 265 318 394
#     4  10  21  40  61  86 121 165 204 257 321 367
#     4  12  23  42  71  99 133 181 215 278 339 400
#     4  10  21  39  59  87 122 163 209 253 311 373
#     4   9  22  41  62  90 124 164 204 270 319 381
#     4  11  24  44  66 102 133 172 225 274 336 408
#
# _framework density 20.371001
#
# number of rings (size 3 to 8) (size 9 to 14) (size 15 to 20)
#    0.000    1.500    3.750    0.750    7.000    0.000 
#    0.000    1.250    0.000    0.000    0.000    0.000 
#    0.000    0.000    0.000    0.000    0.000    0.000 
#
# Total GULP energy -396429.034794 kJ/mol
# GULP energy per Si atom -12388.407337 kJ/mol
# Density = 2.032464 g / cm^3
# Si number density = 20.371001 Si / 1000 Ang^3
#
#
#
# Elastic Constant Matrix: (Units=GPa)
#
#
# Indices 1 2 3 4 5 6 
#
# 1 93.6026 16.1632 20.3156 0.0000 0.0000 0.0000
# 2 16.1632 67.2437 21.4368 0.0000 0.0000 0.0000
# 3 20.3156 21.4368 112.6122 0.0000 0.0000 0.0000
# 4 0.0000 0.0000 0.0000 18.5917 0.0000 0.0000
# 5 0.0000 0.0000 0.0000 0.0000 35.4901 0.0000
# 6 0.0000 0.0000 0.0000 0.0000 0.0000 29.6442
#
#
#
# Elastic Compliance Matrix: (Units=1/GPa)
#
#
# Indices 1 2 3 4 5 6 
#
# 1 0.011423 -0.002224 -0.001637 0.000000 0.000000 0.000000
# 2 -0.002224 0.016265 -0.002695 0.000000 0.000000 0.000000
# 3 -0.001637 -0.002695 0.009688 0.000000 0.000000 0.000000
# 4 0.000000 0.000000 0.000000 0.053787 0.000000 0.000000
# 5 0.000000 0.000000 0.000000 0.000000 0.028177 0.000000
# 6 0.000000 0.000000 0.000000 0.000000 0.000000 0.033733
#
#
# Mechanical properties :
#
#
# Convention : Reuss Voigt Hill
#
# Bulk Modulus (GPa) = 41.21333 43.25438 42.23386
# Shear Modulus (GPa) = 28.69044 31.11474 29.90259
#
# Velocity S-wave (km/s) = 3.75693 3.91244 3.83547
# Velocity P-wave (km/s) = 6.25257 6.45670 6.35546
#
# Compressibility (1/GPa) = 0.02426399
#
# Stress axis : x y z
#
# Youngs Moduli (GPa) = 87.54394 61.48193 103.21566
#
# Poissons Ratio (x) = 0.13672 0.16901
# Poissons Ratio (y) = 0.19467 0.27817
# Poissons Ratio (z) = 0.14335 0.16570
#
# Static dielectric constant tensor:
#      x y z
#    x 3.878740 0.000000 0.000000 
#    y 0.000000 3.767810 0.000000 
#    z 0.000000 0.000000 3.773050 
# 
# 
# High freq. dielectric constant tensor:
#      x y z
#    x 1.807380 0.000000 0.000000 
#    y 0.000000 1.791290 0.000000 
#    z 0.000000 0.000000 1.803670 
# 
# From -- ./inp_files/702.got.cif
#   From: 2010.03.12/outbox.cif.g09.slc.cpg/sg19_1_cif.got.tgz:702.got - 2010.04.10 18:59:41.
