data_PCOD8156509
_publ_section_title
;
Structure prediction by ZEFSAII (Michael W. Deem and Ramdas Pophale) SiO2 
 PCOD8156509
Probable space group: P 21 21 2
;
_chemical_formula_sum "Si O2"
_cell_formula_units_Z 20
_cell_length_a 15.473711
_cell_length_b 4.992861
_cell_length_c 11.994716
_cell_angle_alpha 90.000000
_cell_angle_beta 90.000000
_cell_angle_gamma 90.000000
_cell_volume 926.688826
_symmetry_space_group_name_H-M "P 21 21 2"
_symmetry_group_IT_number 18
_symmetry_cell_setting 'orthorhombic'
loop_
_space_group_symop_operation_xyz
x,y,z
-x,-y,z
1/2+x,1/2-y,-z
1/2-x,1/2+y,-z
loop_
_atom_site_type_symbol
_atom_site_label
_atom_site_fract_x
_atom_site_fract_y
_atom_site_fract_z
Si Si1 0.299980 0.392746 0.039286
Si Si2 0.940168 0.246852 0.541062
Si Si3 0.556893 0.747613 0.875062
Si Si4 0.324249 0.263452 0.671690
Si Si5 0.211746 0.779828 0.704885
O O1 0.311488 0.367054 0.170830
O O2 0.272161 0.693950 0.009813
O O3 0.392880 0.339409 0.985726
O O4 0.886211 0.176163 0.431231
O O5 0.875529 0.305581 0.642626
O O6 0.000000 0.500000 0.517459
O O7 0.000000 0.000000 0.574352
O O8 0.500000 0.500000 0.830934
O O9 0.621460 0.839187 0.777510
O O10 0.500000 0.000000 0.908845
O O11 0.276699 0.532904 0.706997
O O12 0.256361 0.029400 0.640401
#
# Coordination Sequence:
#
# PCOD8156509 Si02
#       5
#     4   4   4   4   4
#     4  12  23  44  65  95 133 176 218 268 321 393
#     4  12  26  44  66 100 137 171 216 279 337 389
#     4  12  24  39  65  97 130 167 216 273 329 373
#     4  12  23  44  68  98 131 174 224 272 327 398
#     4  12  24  43  72  94 131 180 226 264 328 405
#
# _framework density 21.582218000000001
#
# number of rings (size 3 to 8) (size 9 to 14) (size 15 to 20)
#    0.000    0.000    4.000    7.200    0.000    1.600 
#    0.000    0.000    0.000    0.000    0.000    0.000 
#    0.000    0.000    0.000    0.000    0.000    0.000 
#
# Total GULP energy -248222.473083 kJ/mol
# GULP energy per Si atom -12411.123654 kJ/mol
# Density = 2.153310 g / cm^3
# Si number density = 21.582218 Si / 1000 Ang^3
#
#
#
# Elastic Constant Matrix: (Units=GPa)
#
#
# Indices 1 2 3 4 5 6 
#
# 1 91.0608 12.9090 37.7956 0.0000 0.0000 0.0000
# 2 12.9090 87.6112 -9.3678 0.0000 0.0000 0.0000
# 3 37.7956 -9.3678 86.6539 0.0000 0.0000 0.0000
# 4 0.0000 0.0000 0.0000 25.7166 0.0000 0.0000
# 5 0.0000 0.0000 0.0000 0.0000 15.5459 0.0000
# 6 0.0000 0.0000 0.0000 0.0000 0.0000 33.1812
#
#
#
# Elastic Compliance Matrix: (Units=1/GPa)
#
#
# Indices 1 2 3 4 5 6 
#
# 1 0.014037 -0.002755 -0.006420 0.000000 0.000000 0.000000
# 2 -0.002755 0.012088 0.002508 0.000000 0.000000 0.000000
# 3 -0.006420 0.002508 0.014612 0.000000 0.000000 0.000000
# 4 0.000000 0.000000 0.000000 0.038885 0.000000 0.000000
# 5 0.000000 0.000000 0.000000 0.000000 0.064326 0.000000
# 6 0.000000 0.000000 0.000000 0.000000 0.000000 0.030138
#
#
# Mechanical properties :
#
#
# Convention : Reuss Voigt Hill
#
# Bulk Modulus (GPa) = 36.49183 38.66663 37.57923
# Shear Modulus (GPa) = 25.43839 29.82134 27.62987
#
# Velocity S-wave (km/s) = 3.43691 3.72123 3.58189
# Velocity P-wave (km/s) = 5.71793 6.03475 5.87848
#
# Compressibility (1/GPa) = 0.02740340
#
# Stress axis : x y z
#
# Youngs Moduli (GPa) = 71.24033 82.72553 68.43853
#
# Poissons Ratio (x) = 0.22789 0.43940
# Poissons Ratio (y) = 0.19625 -0.17167
# Poissons Ratio (z) = 0.45738 -0.20750
#
# Static dielectric constant tensor:
#      x y z
#    x 4.076480 0.000000 0.000000 
#    y 0.000000 3.903170 0.000000 
#    z 0.000000 0.000000 3.870520 
# 
# 
# High freq. dielectric constant tensor:
#      x y z
#    x 1.857340 0.000000 0.000000 
#    y 0.000000 1.863500 0.000000 
#    z 0.000000 0.000000 1.851370 
# 
# From -- ./inp_files/5990.got.cif
#   From: 2010.03.12/outbox.cif.g09.slc.cpg/sg18_3_cif.got.tgz:5990.got - 2010.04.10 18:53:55.
