data_PCOD8156624
_publ_section_title
;
Structure prediction by ZEFSAII (Michael W. Deem and Ramdas Pophale) SiO2 
 PCOD8156624
Probable space group: P 21 21 21
;
_chemical_formula_sum "Si O2"
_cell_formula_units_Z 32
_cell_length_a 10.945269
_cell_length_b 17.837938
_cell_length_c 8.594193
_cell_angle_alpha 90.000000
_cell_angle_beta 90.000000
_cell_angle_gamma 90.000000
_cell_volume 1677.939092
_symmetry_space_group_name_H-M "P 21 21 21"
_symmetry_group_IT_number 19
_symmetry_cell_setting 'orthorhombic'
loop_
_space_group_symop_operation_xyz
x,y,z
1/2-x,-y,1/2+z
1/2+x,1/2-y,-z
-x,1/2+y,1/2-z
loop_
_atom_site_type_symbol
_atom_site_label
_atom_site_fract_x
_atom_site_fract_y
_atom_site_fract_z
Si Si1 0.526386 0.753625 0.560621
Si Si2 0.236955 0.833197 0.289493
Si Si3 0.062203 0.939664 0.098256
Si Si4 0.896751 0.697887 0.983096
Si Si5 0.112149 0.713444 0.778447
Si Si6 0.292263 0.126578 0.339463
Si Si7 0.126625 0.333244 0.282848
Si Si8 0.126351 0.106516 0.074975
O O1 0.660189 0.730851 0.621048
O O2 0.535817 0.765835 0.375889
O O3 0.434153 0.687119 0.614950
O O4 0.469302 0.830011 0.634280
O O5 0.155579 0.899397 0.215680
O O6 0.305047 0.784253 0.159489
O O7 0.335805 0.875428 0.398203
O O8 0.926997 0.909861 0.142604
O O9 0.058522 0.028849 0.107845
O O10 0.105132 0.924656 0.919520
O O11 0.026629 0.675232 0.908195
O O12 0.839864 0.625488 0.071678
O O13 0.911152 0.769454 0.093771
O O14 0.162311 0.788888 0.853369
O O15 0.228180 0.658484 0.751953
O O16 0.258415 0.104427 0.163553
#
# Coordination Sequence:
#
# PCOD8156624 Si02
#       8
#     4   4   4   4   4   4   4   4
#     4  11  20  34  58  83 111 142 193 231 275 332
#     4  10  21  35  55  87 111 146 191 237 278 332
#     4  10  22  36  55  80 121 148 184 232 290 337
#     4  10  19  33  59  83 104 144 188 233 274 326
#     4  11  19  34  58  81 111 139 187 239 269 330
#     4  10  20  35  55  85 108 143 187 232 281 328
#     4  10  21  36  55  83 111 150 186 230 281 336
#     4  12  20  35  57  86 113 150 184 236 290 333
#
# _framework density 19.071014999999999
#
# number of rings (size 3 to 8) (size 9 to 14) (size 15 to 20)
#    0.000    1.500    6.250    0.750    1.750    0.000 
#    0.000    0.000    5.500    0.000    0.000    0.000 
#    0.000    0.000    0.000    0.000    0.000    0.000 
#
# Total GULP energy -396462.702610 kJ/mol
# GULP energy per Si atom -12389.459457 kJ/mol
# Density = 1.902761 g / cm^3
# Si number density = 19.071015 Si / 1000 Ang^3
#
#
#
# Elastic Constant Matrix: (Units=GPa)
#
#
# Indices 1 2 3 4 5 6 
#
# 1 74.3100 11.3114 16.9595 0.0000 0.0000 0.0000
# 2 11.3114 70.8305 3.8959 0.0000 0.0000 0.0000
# 3 16.9595 3.8959 72.9388 0.0000 0.0000 0.0000
# 4 0.0000 0.0000 0.0000 16.1039 0.0000 0.0000
# 5 0.0000 0.0000 0.0000 0.0000 33.2039 0.0000
# 6 0.0000 0.0000 0.0000 0.0000 0.0000 21.5775
#
#
#
# Elastic Compliance Matrix: (Units=1/GPa)
#
#
# Indices 1 2 3 4 5 6 
#
# 1 0.014528 -0.002141 -0.003264 0.000000 0.000000 0.000000
# 2 -0.002141 0.014475 -0.000275 0.000000 0.000000 0.000000
# 3 -0.003264 -0.000275 0.014484 0.000000 0.000000 0.000000
# 4 0.000000 0.000000 0.000000 0.062097 0.000000 0.000000
# 5 0.000000 0.000000 0.000000 0.000000 0.030117 0.000000
# 6 0.000000 0.000000 0.000000 0.000000 0.000000 0.046345
#
#
# Mechanical properties :
#
#
# Convention : Reuss Voigt Hill
#
# Bulk Modulus (GPa) = 31.12602 31.37921 31.25262
# Shear Modulus (GPa) = 24.49619 26.57123 25.53371
#
# Velocity S-wave (km/s) = 3.58784 3.73671 3.66303
# Velocity P-wave (km/s) = 5.78965 5.92511 5.85777
#
# Compressibility (1/GPa) = 0.03212746
#
# Stress axis : x y z
#
# Youngs Moduli (GPa) = 68.83349 69.08366 69.04321
#
# Poissons Ratio (x) = 0.14788 0.22533
# Poissons Ratio (y) = 0.14734 0.01902
# Poissons Ratio (z) = 0.22465 0.01903
#
# Static dielectric constant tensor:
#      x y z
#    x 3.747750 0.000000 0.000000 
#    y 0.000000 3.107580 0.000000 
#    z 0.000000 0.000000 3.712540 
# 
# 
# High freq. dielectric constant tensor:
#      x y z
#    x 1.740560 0.000000 0.000000 
#    y 0.000000 1.695120 0.000000 
#    z 0.000000 0.000000 1.755180 
# 
# From -- ./inp_files/3704.got.cif
#   From: 2010.03.12/outbox.cif.g09.slc.cpg/sg19_2_cif.got.tgz:3704.got - 2010.04.10 18:59:41.
