data_PCOD8156042
_publ_section_title
;
Structure prediction by ZEFSAII (Michael W. Deem and Ramdas Pophale) SiO2 
 PCOD8156042
Probable space group: P 21 21 2
;
_chemical_formula_sum "Si O2"
_cell_formula_units_Z 30
_cell_length_a 12.470719
_cell_length_b 7.862340
_cell_length_c 14.495501
_cell_angle_alpha 90.000000
_cell_angle_beta 90.000000
_cell_angle_gamma 90.000000
_cell_volume 1421.269853
_symmetry_space_group_name_H-M "P 21 21 2"
_symmetry_group_IT_number 18
_symmetry_cell_setting 'orthorhombic'
loop_
_space_group_symop_operation_xyz
x,y,z
-x,-y,z
1/2+x,1/2-y,-z
1/2-x,1/2+y,-z
loop_
_atom_site_type_symbol
_atom_site_label
_atom_site_fract_x
_atom_site_fract_y
_atom_site_fract_z
Si Si1 0.307266 0.258817 0.078970
Si Si2 0.500000 0.000000 0.654204
Si Si3 0.510616 0.193819 0.172616
Si Si4 0.433456 0.327121 0.549669
Si Si5 0.416975 0.349893 0.346588
Si Si6 0.299636 0.858893 0.746912
Si Si7 0.737107 0.130521 0.118109
Si Si8 0.872484 0.018849 0.278927
O O1 0.430011 0.305928 0.108303
O O2 0.222751 0.364643 0.142518
O O3 0.294396 0.061454 0.099498
O O4 0.288292 0.288895 0.972352
O O5 0.498996 0.166995 0.590182
O O6 0.603130 0.016065 0.721084
O O7 0.473159 0.212850 0.279110
O O8 0.634514 0.243639 0.151780
O O9 0.500000 0.000000 0.144343
O O10 0.500000 0.500000 0.539481
O O11 0.391145 0.273152 0.448555
O O12 0.343881 0.378663 0.626120
O O13 0.500000 0.500000 0.356052
O O14 0.306019 0.421111 0.306489
O O15 0.318843 0.664828 0.716155
O O16 0.826909 0.135831 0.197169
O O17 0.000000 0.000000 0.264902
#
# Coordination Sequence:
#
# PCOD8156042 Si02
#       8
#     4   2   4   4   4   4   4   4
#     4   9  21  39  59  92 127 159 216 267 313 384
#     4  12  22  40  68  98 124 178 220 256 340 388
#     4   9  20  41  60  87 124 165 214 261 317 392
#     4  10  22  42  62  96 132 166 221 272 318 388
#     4  10  23  42  64  91 133 166 213 279 320 384
#     4  10  22  42  63  94 128 170 218 267 325 398
#     4  10  21  37  63  89 120 172 209 257 330 376
#     4  10  20  42  61  86 136 165 207 275 320 377
#
# _framework density 21.107886000000001
#
# number of rings (size 3 to 8) (size 9 to 14) (size 15 to 20)
#    0.000    2.133    2.667    0.800    0.933    7.467 
#    6.000    0.667    0.000    0.000    0.000    0.000 
#    0.000    0.000    0.000    0.000    0.000    0.000 
#
# Total GULP energy -371715.068122 kJ/mol
# GULP energy per Si atom -12390.502271 kJ/mol
# Density = 2.105984 g / cm^3
# Si number density = 21.107886 Si / 1000 Ang^3
#
#
#
# Elastic Constant Matrix: (Units=GPa)
#
#
# Indices 1 2 3 4 5 6 
#
# 1 134.2390 25.1880 81.0189 0.0000 0.0000 0.0000
# 2 25.1880 45.3708 22.1067 0.0000 0.0000 0.0000
# 3 81.0189 22.1067 191.7018 0.0000 0.0000 0.0000
# 4 0.0000 0.0000 0.0000 26.5121 0.0000 0.0000
# 5 0.0000 0.0000 0.0000 0.0000 23.9899 0.0000
# 6 0.0000 0.0000 0.0000 0.0000 0.0000 23.2429
#
#
#
# Elastic Compliance Matrix: (Units=1/GPa)
#
#
# Indices 1 2 3 4 5 6 
#
# 1 0.010623 -0.003931 -0.004036 0.000000 0.000000 0.000000
# 2 -0.003931 0.024807 -0.001199 0.000000 0.000000 0.000000
# 3 -0.004036 -0.001199 0.007061 0.000000 0.000000 0.000000
# 4 0.000000 0.000000 0.000000 0.037719 0.000000 0.000000
# 5 0.000000 0.000000 0.000000 0.000000 0.041684 0.000000
# 6 0.000000 0.000000 0.000000 0.000000 0.000000 0.043024
#
#
# Mechanical properties :
#
#
# Convention : Reuss Voigt Hill
#
# Bulk Modulus (GPa) = 41.39455 69.77097 55.58276
# Shear Modulus (GPa) = 26.13650 30.94885 28.54268
#
# Velocity S-wave (km/s) = 3.52267 3.83328 3.68125
# Velocity P-wave (km/s) = 6.01657 7.26074 6.66774
#
# Compressibility (1/GPa) = 0.02415777
#
# Stress axis : x y z
#
# Youngs Moduli (GPa) = 94.13490 40.31077 141.63050
#
# Poissons Ratio (x) = 0.15845 0.57167
# Poissons Ratio (y) = 0.37003 0.16988
# Poissons Ratio (z) = 0.37996 0.04835
#
# Static dielectric constant tensor:
#      x y z
#    x 4.258120 0.000000 0.000000 
#    y 0.000000 3.648050 0.000000 
#    z 0.000000 0.000000 4.708440 
# 
# 
# High freq. dielectric constant tensor:
#      x y z
#    x 1.819700 0.000000 0.000000 
#    y 0.000000 1.817720 0.000000 
#    z 0.000000 0.000000 1.835610 
# 
# From -- ./inp_files/6895.got.cif
#   From: 2010.03.12/outbox.cif.g09.slc.cpg/sg18_4_cif.got.tgz:6895.got - 2010.04.10 18:53:55.
