data_PCOD8156752
_publ_section_title
;
Structure prediction by ZEFSAII (Michael W. Deem and Ramdas Pophale) SiO2 
 PCOD8156752
Probable space group: P 21 21 21
;
_chemical_formula_sum "Si O2"
_cell_formula_units_Z 28
_cell_length_a 21.339374
_cell_length_b 8.787199
_cell_length_c 7.331774
_cell_angle_alpha 90.000000
_cell_angle_beta 90.000000
_cell_angle_gamma 90.000000
_cell_volume 1374.805327
_symmetry_space_group_name_H-M "P 21 21 21"
_symmetry_group_IT_number 19
_symmetry_cell_setting 'orthorhombic'
loop_
_space_group_symop_operation_xyz
x,y,z
1/2-x,-y,1/2+z
1/2+x,1/2-y,-z
-x,1/2+y,1/2-z
loop_
_atom_site_type_symbol
_atom_site_label
_atom_site_fract_x
_atom_site_fract_y
_atom_site_fract_z
Si Si1 0.499117 0.493102 0.336755
Si Si2 0.389014 0.937835 0.928185
Si Si3 0.569376 0.836878 0.868542
Si Si4 0.176258 0.886061 0.126120
Si Si5 0.072393 0.229590 0.884668
Si Si6 0.310045 0.921876 0.269205
Si Si7 0.549565 0.159702 0.716336
O O1 0.547365 0.524667 0.506438
O O2 0.444725 0.387983 0.423740
O O3 0.464782 0.644385 0.264398
O O4 0.536917 0.428039 0.164203
O O5 0.406110 0.755750 0.924684
O O6 0.366718 0.990088 0.729492
O O7 0.335394 0.980104 0.074210
O O8 0.640436 0.775210 0.870099
O O9 0.523207 0.697863 0.818133
O O10 0.562984 0.978028 0.722767
O O11 0.240176 0.861264 0.238155
O O12 0.188326 0.943701 0.920032
O O13 0.145495 0.217622 0.831694
O O14 0.067910 0.268484 0.092152
#
# Coordination Sequence:
#
# PCOD8156752 Si02
#       7
#     4   4   4   4   4   4   4
#     4   9  21  35  58  96 126 156 207 252 327 370
#     4  10  21  40  63  90 124 160 211 256 316 378
#     4  10  22  37  62  92 127 168 203 262 319 377
#     4  12  22  42  64  85 124 171 217 256 309 372
#     4  10  20  35  59  91 128 156 201 260 311 375
#     4  11  24  38  66  89 120 170 215 259 302 371
#     4  10  20  39  62  95 125 163 200 263 328 373
#
# _framework density 20.366520999999999
#
# number of rings (size 3 to 8) (size 9 to 14) (size 15 to 20)
#    0.000    1.714    2.857    2.571    4.000    2.286 
#    0.000    2.857    0.000    0.000    0.000    0.000 
#    0.000    0.000    0.000    0.000    0.000    0.000 
#
# Total GULP energy -346941.204579 kJ/mol
# GULP energy per Si atom -12390.757306 kJ/mol
# Density = 2.032017 g / cm^3
# Si number density = 20.366521 Si / 1000 Ang^3
#
#
#
# Elastic Constant Matrix: (Units=GPa)
#
#
# Indices 1 2 3 4 5 6 
#
# 1 136.7853 57.5862 22.5040 0.0000 0.0000 0.0000
# 2 57.5862 76.5169 19.8121 0.0000 0.0000 0.0000
# 3 22.5040 19.8121 62.8576 0.0000 0.0000 0.0000
# 4 0.0000 0.0000 0.0000 31.6855 0.0000 0.0000
# 5 0.0000 0.0000 0.0000 0.0000 30.0122 0.0000
# 6 0.0000 0.0000 0.0000 0.0000 0.0000 30.5241
#
#
#
# Elastic Compliance Matrix: (Units=1/GPa)
#
#
# Indices 1 2 3 4 5 6 
#
# 1 0.010817 -0.007772 -0.001423 0.000000 0.000000 0.000000
# 2 -0.007772 0.019815 -0.003463 0.000000 0.000000 0.000000
# 3 -0.001423 -0.003463 0.017510 0.000000 0.000000 0.000000
# 4 0.000000 0.000000 0.000000 0.031560 0.000000 0.000000
# 5 0.000000 0.000000 0.000000 0.000000 0.033320 0.000000
# 6 0.000000 0.000000 0.000000 0.000000 0.000000 0.032761
#
#
# Mechanical properties :
#
#
# Convention : Reuss Voigt Hill
#
# Bulk Modulus (GPa) = 43.81037 52.88494 48.34765
# Shear Modulus (GPa) = 27.97864 30.19484 29.08674
#
# Velocity S-wave (km/s) = 3.71044 3.85460 3.78321
# Velocity P-wave (km/s) = 6.31777 6.77005 6.54781
#
# Compressibility (1/GPa) = 0.02282565
#
# Stress axis : x y z
#
# Youngs Moduli (GPa) = 92.44729 50.46659 57.11068
#
# Poissons Ratio (x) = 0.39225 0.08126
# Poissons Ratio (y) = 0.71854 0.19777
# Poissons Ratio (z) = 0.13154 0.17476
#
# Static dielectric constant tensor:
#      x y z
#    x 3.769220 0.000000 0.000000 
#    y 0.000000 3.760730 0.000000 
#    z 0.000000 0.000000 3.753130 
# 
# 
# High freq. dielectric constant tensor:
#      x y z
#    x 1.790120 0.000000 0.000000 
#    y 0.000000 1.771100 0.000000 
#    z 0.000000 0.000000 1.806500 
# 
# From -- ./inp_files/3069.got.cif
#   From: 2010.03.12/outbox.cif.g09.slc.cpg/sg19_2_cif.got.tgz:3069.got - 2010.04.10 18:59:41.
