data_PCOD8156869
_publ_section_title
;
Structure prediction by ZEFSAII (Michael W. Deem and Ramdas Pophale) SiO2 
 PCOD8156869
Probable space group: P 21 21 21
;
_chemical_formula_sum "Si O2"
_cell_formula_units_Z 32
_cell_length_a 13.851157
_cell_length_b 9.501145
_cell_length_c 11.674079
_cell_angle_alpha 90.000000
_cell_angle_beta 90.000000
_cell_angle_gamma 90.000000
_cell_volume 1536.330406
_symmetry_space_group_name_H-M "P 21 21 21"
_symmetry_group_IT_number 19
_symmetry_cell_setting 'orthorhombic'
loop_
_space_group_symop_operation_xyz
x,y,z
1/2-x,-y,1/2+z
1/2+x,1/2-y,-z
-x,1/2+y,1/2-z
loop_
_atom_site_type_symbol
_atom_site_label
_atom_site_fract_x
_atom_site_fract_y
_atom_site_fract_z
Si Si1 0.392627 0.000737 0.693563
Si Si2 0.210287 0.267316 0.148530
Si Si3 0.099000 0.408935 0.336112
Si Si4 0.889670 0.613863 0.058572
Si Si5 0.810196 0.295898 0.473119
Si Si6 0.401568 0.204358 0.289557
Si Si7 0.017692 0.516680 0.857856
Si Si8 0.217774 0.484761 0.959230
O O1 0.336960 0.883127 0.618381
O O2 0.370066 0.979228 0.827771
O O3 0.507049 0.989424 0.671858
O O4 0.355180 0.151683 0.647240
O O5 0.127344 0.358016 0.209793
O O6 0.300888 0.248750 0.232409
O O7 0.240663 0.348585 0.035037
O O8 0.073798 0.270730 0.411188
O O9 0.186988 0.499290 0.384263
O O10 0.791804 0.626898 0.987114
O O11 0.968102 0.535104 0.981412
O O12 0.878694 0.339919 0.579837
O O13 0.800279 0.126731 0.466969
O O14 0.474216 0.336333 0.290390
O O15 0.453765 0.081377 0.222099
O O16 0.124842 0.454280 0.879160
#
# Coordination Sequence:
#
# PCOD8156869 Si02
#       8
#     4   4   4   4   4   4   4   4
#     4  11  22  39  70  98 127 168 224 275 324 386
#     4  11  22  42  64  93 132 162 213 284 312 384
#     4  10  20  40  63  89 128 175 211 259 339 392
#     4  10  21  40  66  96 131 169 219 272 328 393
#     4  10  21  43  65  92 132 175 208 271 341 397
#     4  11  23  44  66  93 137 170 217 265 334 394
#     4  11  23  41  68  97 128 177 216 271 324 398
#     4  10  22  41  62  88 131 174 216 261 330 392
#
# _framework density 20.828852000000001
#
# number of rings (size 3 to 8) (size 9 to 14) (size 15 to 20)
#    0.000    1.500    5.000    3.000    0.000    6.000 
#    0.000    5.000    5.500    0.000    0.000    0.000 
#    0.000    0.000    0.000    0.000    0.000    0.000 
#
# Total GULP energy -396813.872992 kJ/mol
# GULP energy per Si atom -12400.433531 kJ/mol
# Density = 2.078144 g / cm^3
# Si number density = 20.828852 Si / 1000 Ang^3
#
#
#
# Elastic Constant Matrix: (Units=GPa)
#
#
# Indices 1 2 3 4 5 6 
#
# 1 94.5270 28.5709 22.7623 0.0000 0.0000 0.0000
# 2 28.5709 56.1075 24.0922 0.0000 0.0000 0.0000
# 3 22.7623 24.0922 45.6349 0.0000 0.0000 0.0000
# 4 0.0000 0.0000 0.0000 38.7779 0.0000 0.0000
# 5 0.0000 0.0000 0.0000 0.0000 27.6883 0.0000
# 6 0.0000 0.0000 0.0000 0.0000 0.0000 35.1241
#
#
#
# Elastic Compliance Matrix: (Units=1/GPa)
#
#
# Indices 1 2 3 4 5 6 
#
# 1 0.013011 -0.004964 -0.003869 0.000000 0.000000 0.000000
# 2 -0.004964 0.024942 -0.010691 0.000000 0.000000 0.000000
# 3 -0.003869 -0.010691 0.029487 0.000000 0.000000 0.000000
# 4 0.000000 0.000000 0.000000 0.025788 0.000000 0.000000
# 5 0.000000 0.000000 0.000000 0.000000 0.036116 0.000000
# 6 0.000000 0.000000 0.000000 0.000000 0.000000 0.028470
#
#
# Mechanical properties :
#
#
# Convention : Reuss Voigt Hill
#
# Bulk Modulus (GPa) = 35.22286 38.56892 36.89589
# Shear Modulus (GPa) = 24.23333 28.37432 26.30382
#
# Velocity S-wave (km/s) = 3.41464 3.69489 3.55752
# Velocity P-wave (km/s) = 5.70032 6.06302 5.88446
#
# Compressibility (1/GPa) = 0.02839065
#
# Stress axis : x y z
#
# Youngs Moduli (GPa) = 76.85753 40.09374 33.91294
#
# Poissons Ratio (x) = 0.19903 0.13121
# Poissons Ratio (y) = 0.38153 0.36258
# Poissons Ratio (z) = 0.29737 0.42866
#
# Static dielectric constant tensor:
#      x y z
#    x 3.908240 0.000000 0.000000 
#    y 0.000000 3.717470 0.000000 
#    z 0.000000 0.000000 3.612820 
# 
# 
# High freq. dielectric constant tensor:
#      x y z
#    x 1.831800 0.000000 0.000000 
#    y 0.000000 1.803040 0.000000 
#    z 0.000000 0.000000 1.801960 
# 
# From -- ./inp_files/5249.got.cif
#   From: 2010.03.12/outbox.cif.g09.slc.cpg/sg19_3_cif.got.tgz:5249.got - 2010.04.10 18:59:41.
