data_PCOD8156157
_publ_section_title
;
Structure prediction by ZEFSAII (Michael W. Deem and Ramdas Pophale) SiO2 
 PCOD8156157
Probable space group: P 21 21 2
;
_chemical_formula_sum "Si O2"
_cell_formula_units_Z 32
_cell_length_a 16.633099
_cell_length_b 12.754638
_cell_length_c 6.903538
_cell_angle_alpha 90.000000
_cell_angle_beta 90.000000
_cell_angle_gamma 90.000000
_cell_volume 1464.579764
_symmetry_space_group_name_H-M "P 21 21 2"
_symmetry_group_IT_number 18
_symmetry_cell_setting 'orthorhombic'
loop_
_space_group_symop_operation_xyz
x,y,z
-x,-y,z
1/2+x,1/2-y,-z
1/2-x,1/2+y,-z
loop_
_atom_site_type_symbol
_atom_site_label
_atom_site_fract_x
_atom_site_fract_y
_atom_site_fract_z
Si Si1 0.521787 0.763848 0.468886
Si Si2 0.372383 0.654934 0.635450
Si Si3 0.012512 0.616464 0.919927
Si Si4 0.647774 0.205268 0.968121
Si Si5 0.633355 0.868305 0.746971
Si Si6 0.268861 0.771760 0.361913
Si Si7 0.745270 0.065086 0.691149
Si Si8 0.416361 0.459928 0.416725
O O1 0.433910 0.742260 0.552683
O O2 0.562805 0.857081 0.589259
O O3 0.575418 0.658835 0.487279
O O4 0.518348 0.797656 0.246898
O O5 0.358708 0.680222 0.863052
O O6 0.292220 0.677904 0.510651
O O7 0.401910 0.535975 0.604154
O O8 0.094977 0.619758 0.041267
O O9 0.000000 0.500000 0.834567
O O10 0.937034 0.645513 0.056873
O O11 0.719251 0.142161 0.863165
O O12 0.664355 0.216034 0.195238
O O13 0.686766 0.762738 0.743263
O O14 0.686969 0.966841 0.691252
O O15 0.259553 0.880333 0.479315
O O16 0.838853 0.031048 0.725193
O O17 0.500000 0.500000 0.314534
#
# Coordination Sequence:
#
# PCOD8156157 Si02
#       8
#     4   4   4   4   4   4   4   4
#     4  11  24  43  70  95 135 179 230 287 342 418
#     4  10  21  43  71  91 132 179 226 284 348 412
#     4  12  26  42  66 106 138 182 234 286 352 413
#     4  11  24  43  66  99 138 176 228 289 344 418
#     4  12  25  42  68  99 142 179 232 288 347 419
#     4  11  24  43  67  99 133 182 228 283 349 410
#     4  11  24  43  67  98 141 179 226 291 347 419
#     4  10  22  44  70  96 130 183 233 276 348 414
#
# _framework density 21.849270000000001
#
# number of rings (size 3 to 8) (size 9 to 14) (size 15 to 20)
#    0.000    1.000    6.250    0.000    3.500    0.500 
#    2.250    1.250    0.000    0.000    0.000    0.000 
#    0.000    0.000    0.000    0.000    0.000    0.000 
#
# Total GULP energy -396753.798645 kJ/mol
# GULP energy per Si atom -12398.556208 kJ/mol
# Density = 2.179954 g / cm^3
# Si number density = 21.849270 Si / 1000 Ang^3
#
#
#
# Elastic Constant Matrix: (Units=GPa)
#
#
# Indices 1 2 3 4 5 6 
#
# 1 97.4365 28.1135 27.7337 0.0000 0.0000 0.0000
# 2 28.1135 102.4930 41.7054 0.0000 0.0000 0.0000
# 3 27.7337 41.7054 96.9388 0.0000 0.0000 0.0000
# 4 0.0000 0.0000 0.0000 22.2269 0.0000 0.0000
# 5 0.0000 0.0000 0.0000 0.0000 25.1920 0.0000
# 6 0.0000 0.0000 0.0000 0.0000 0.0000 33.9481
#
#
#
# Elastic Compliance Matrix: (Units=1/GPa)
#
#
# Indices 1 2 3 4 5 6 
#
# 1 0.011573 -0.002215 -0.002358 0.000000 0.000000 0.000000
# 2 -0.002215 0.012251 -0.004637 0.000000 0.000000 0.000000
# 3 -0.002358 -0.004637 0.012985 0.000000 0.000000 0.000000
# 4 0.000000 0.000000 0.000000 0.044991 0.000000 0.000000
# 5 0.000000 0.000000 0.000000 0.000000 0.039695 0.000000
# 6 0.000000 0.000000 0.000000 0.000000 0.000000 0.029457
#
#
# Mechanical properties :
#
#
# Convention : Reuss Voigt Hill
#
# Bulk Modulus (GPa) = 54.37854 54.66372 54.52113
# Shear Modulus (GPa) = 28.48959 29.56110 29.02534
#
# Velocity S-wave (km/s) = 3.61489 3.68225 3.64872
# Velocity P-wave (km/s) = 6.50887 6.56898 6.53899
#
# Compressibility (1/GPa) = 0.01838961
#
# Stress axis : x y z
#
# Youngs Moduli (GPa) = 86.40506 81.62476 77.00944
#
# Poissons Ratio (x) = 0.18080 0.18160
# Poissons Ratio (y) = 0.19139 0.35710
# Poissons Ratio (z) = 0.20376 0.37850
#
# Static dielectric constant tensor:
#      x y z
#    x 4.281590 0.000000 0.000000 
#    y 0.000000 3.861490 0.000000 
#    z 0.000000 0.000000 3.571820 
# 
# 
# High freq. dielectric constant tensor:
#      x y z
#    x 1.879190 0.000000 0.000000 
#    y 0.000000 1.858260 0.000000 
#    z 0.000000 0.000000 1.830430 
# 
# From -- ./inp_files/1878.got.cif
#   From: 2010.03.12/outbox.cif.g09.slc.cpg/sg18_1_cif.got.tgz:1878.got - 2010.04.10 18:53:55.
