data_PCOD8156867
_publ_section_title
;
Structure prediction by ZEFSAII (Michael W. Deem and Ramdas Pophale) SiO2 
 PCOD8156867
Probable space group: P 21 21 21
;
_chemical_formula_sum "Si O2"
_cell_formula_units_Z 24
_cell_length_a 8.884260
_cell_length_b 8.631372
_cell_length_c 15.487997
_cell_angle_alpha 90.000000
_cell_angle_beta 90.000000
_cell_angle_gamma 90.000000
_cell_volume 1187.671541
_symmetry_space_group_name_H-M "P 21 21 21"
_symmetry_group_IT_number 19
_symmetry_cell_setting 'orthorhombic'
loop_
_space_group_symop_operation_xyz
x,y,z
1/2-x,-y,1/2+z
1/2+x,1/2-y,-z
-x,1/2+y,1/2-z
loop_
_atom_site_type_symbol
_atom_site_label
_atom_site_fract_x
_atom_site_fract_y
_atom_site_fract_z
Si Si1 0.597640 0.407344 0.467575
Si Si2 0.158673 0.436631 0.560992
Si Si3 0.955887 0.034431 0.352552
Si Si4 0.830088 0.912379 0.579855
Si Si5 0.566390 0.803868 0.678463
Si Si6 0.106672 0.102112 0.013600
O O1 0.614340 0.241508 0.422693
O O2 0.518579 0.387256 0.560613
O O3 0.496835 0.517637 0.403911
O O4 0.758572 0.482592 0.480666
O O5 0.275814 0.492359 0.635270
O O6 0.235547 0.451484 0.466630
O O7 0.009248 0.543485 0.560603
O O8 0.986225 0.150501 0.273695
O O9 0.046256 0.878485 0.332964
O O10 0.743049 0.852129 0.665077
O O11 0.837087 0.772260 0.510936
O O12 0.469343 0.893967 0.607360
#
# Coordination Sequence:
#
# PCOD8156867 Si02
#       6
#     4   4   4   4   4   4
#     4  11  21  39  68  94 124 164 218 266 312 380
#     4  10  22  37  62  95 127 161 217 262 308 385
#     4  11  24  42  60  95 130 165 212 266 327 379
#     4  10  20  40  62  89 123 169 217 251 312 388
#     4  11  24  40  62  92 127 167 209 267 324 381
#     4  11  19  40  68  87 121 172 215 260 311 387
#
# _framework density 20.207605999999998
#
# number of rings (size 3 to 8) (size 9 to 14) (size 15 to 20)
#    0.000    1.333    5.000    3.000    7.000    0.000 
#    0.000    3.333    0.000    0.000    0.000    0.000 
#    0.000    0.000    0.000    0.000    0.000    0.000 
#
# Total GULP energy -297541.143589 kJ/mol
# GULP energy per Si atom -12397.547650 kJ/mol
# Density = 2.016161 g / cm^3
# Si number density = 20.207606 Si / 1000 Ang^3
#
#
#
# Elastic Constant Matrix: (Units=GPa)
#
#
# Indices 1 2 3 4 5 6 
#
# 1 82.5694 15.9325 17.2929 0.0000 0.0000 0.0000
# 2 15.9325 87.7947 12.7916 0.0000 0.0000 0.0000
# 3 17.2929 12.7916 55.6010 0.0000 0.0000 0.0000
# 4 0.0000 0.0000 0.0000 23.8488 0.0000 0.0000
# 5 0.0000 0.0000 0.0000 0.0000 23.4909 0.0000
# 6 0.0000 0.0000 0.0000 0.0000 0.0000 39.7379
#
#
#
# Elastic Compliance Matrix: (Units=1/GPa)
#
#
# Indices 1 2 3 4 5 6 
#
# 1 0.013244 -0.001866 -0.003690 0.000000 0.000000 0.000000
# 2 -0.001866 0.012048 -0.002192 0.000000 0.000000 0.000000
# 3 -0.003690 -0.002192 0.019637 0.000000 0.000000 0.000000
# 4 0.000000 0.000000 0.000000 0.041931 0.000000 0.000000
# 5 0.000000 0.000000 0.000000 0.000000 0.042570 0.000000
# 6 0.000000 0.000000 0.000000 0.000000 0.000000 0.025165
#
#
# Mechanical properties :
#
#
# Convention : Reuss Voigt Hill
#
# Bulk Modulus (GPa) = 33.97347 35.33326 34.65337
# Shear Modulus (GPa) = 27.79316 29.41203 28.60260
#
# Velocity S-wave (km/s) = 3.71264 3.81923 3.76631
# Velocity P-wave (km/s) = 5.93523 6.08044 6.00827
#
# Compressibility (1/GPa) = 0.02943473
#
# Stress axis : x y z
#
# Youngs Moduli (GPa) = 75.50690 83.00059 50.92407
#
# Poissons Ratio (x) = 0.15486 0.18790
# Poissons Ratio (y) = 0.14088 0.11160
# Poissons Ratio (z) = 0.27861 0.18190
#
# Static dielectric constant tensor:
#      x y z
#    x 4.050590 0.000000 0.000000 
#    y 0.000000 3.675280 0.000000 
#    z 0.000000 0.000000 3.398460 
# 
# 
# High freq. dielectric constant tensor:
#      x y z
#    x 1.802680 0.000000 0.000000 
#    y 0.000000 1.796310 0.000000 
#    z 0.000000 0.000000 1.745100 
# 
# From -- ./inp_files/2740.got.cif
#   From: 2010.03.12/outbox.cif.g09.slc.cpg/sg19_2_cif.got.tgz:2740.got - 2010.04.10 18:59:41.
