data_PCOD8156313
_publ_section_title
;
Structure prediction by ZEFSAII (Michael W. Deem and Ramdas Pophale) SiO2 
 PCOD8156313
Probable space group: P 21 21 2
;
_chemical_formula_sum "Si O2"
_cell_formula_units_Z 24
_cell_length_a 14.272618
_cell_length_b 8.821000
_cell_length_c 8.470199
_cell_angle_alpha 90.000000
_cell_angle_beta 90.000000
_cell_angle_gamma 90.000000
_cell_volume 1066.387580
_symmetry_space_group_name_H-M "P 21 21 2"
_symmetry_group_IT_number 18
_symmetry_cell_setting 'orthorhombic'
loop_
_space_group_symop_operation_xyz
x,y,z
-x,-y,z
1/2+x,1/2-y,-z
1/2-x,1/2+y,-z
loop_
_atom_site_type_symbol
_atom_site_label
_atom_site_fract_x
_atom_site_fract_y
_atom_site_fract_z
Si Si1 0.000000 0.500000 0.347392
Si Si2 0.491503 0.296572 0.491855
Si Si3 0.681173 0.118558 0.820991
Si Si4 0.676434 0.589895 0.669867
Si Si5 0.323778 0.564462 0.994945
Si Si6 0.212602 0.207197 0.469181
Si Si7 0.500000 0.500000 0.207702
O O1 0.956801 0.373377 0.466263
O O2 0.922485 0.567708 0.229643
O O3 0.430223 0.406667 0.604778
O O4 0.601216 0.299968 0.521249
O O5 0.472195 0.353100 0.313961
O O6 0.676877 0.262791 0.937953
O O7 0.740306 0.171486 0.667057
O O8 0.731202 0.976473 0.904549
O O9 0.670459 0.558614 0.854636
O O10 0.733040 0.746110 0.629596
O O11 0.740773 0.461163 0.585279
O O12 0.413301 0.543714 0.102301
#
# Coordination Sequence:
#
# PCOD8156313 Si02
#       7
#     2   4   4   4   4   4   2
#     4  10  26  46  76 100 138 188 250 292 342 418
#     4  11  24  44  73 100 138 186 247 291 341 420
#     4  10  25  47  69 106 141 187 232 292 359 425
#     4  11  24  43  72  99 141 187 234 295 348 418
#     4  11  28  44  71 107 150 185 231 293 374 431
#     4  10  23  42  70 102 131 186 244 284 343 419
#     4  12  26  44  72 108 140 184 236 290 366 430
#
# _framework density 22.505889
#
# number of rings (size 3 to 8) (size 9 to 14) (size 15 to 20)
#    0.000    1.333    1.667    1.000   16.333    0.000 
#    0.000    0.833    0.000    0.000    0.000    0.000 
#    0.000    0.000    0.000    0.000    0.000    0.000 
#
# Total GULP energy -297432.170878 kJ/mol
# GULP energy per Si atom -12393.007120 kJ/mol
# Density = 2.245466 g / cm^3
# Si number density = 22.505889 Si / 1000 Ang^3
#
#
#
# Elastic Constant Matrix: (Units=GPa)
#
#
# Indices 1 2 3 4 5 6 
#
# 1 99.5634 33.9450 27.3847 0.0000 0.0000 0.0000
# 2 33.9450 112.0896 56.5463 0.0000 0.0000 0.0000
# 3 27.3847 56.5463 81.0917 0.0000 0.0000 0.0000
# 4 0.0000 0.0000 0.0000 54.0194 0.0000 0.0000
# 5 0.0000 0.0000 0.0000 0.0000 82.7226 0.0000
# 6 0.0000 0.0000 0.0000 0.0000 0.0000 38.4905
#
#
#
# Elastic Compliance Matrix: (Units=1/GPa)
#
#
# Indices 1 2 3 4 5 6 
#
# 1 0.011457 -0.002342 -0.002236 0.000000 0.000000 0.000000
# 2 -0.002342 0.014241 -0.009140 0.000000 0.000000 0.000000
# 3 -0.002236 -0.009140 0.019460 0.000000 0.000000 0.000000
# 4 0.000000 0.000000 0.000000 0.018512 0.000000 0.000000
# 5 0.000000 0.000000 0.000000 0.000000 0.012089 0.000000
# 6 0.000000 0.000000 0.000000 0.000000 0.000000 0.025980
#
#
# Mechanical properties :
#
#
# Convention : Reuss Voigt Hill
#
# Bulk Modulus (GPa) = 56.42281 58.72185 57.57233
# Shear Modulus (GPa) = 37.01416 46.70442 41.85929
#
# Velocity S-wave (km/s) = 4.05982 4.56039 4.31736
# Velocity P-wave (km/s) = 6.86301 7.34016 7.10559
#
# Compressibility (1/GPa) = 0.01772333
#
# Stress axis : x y z
#
# Youngs Moduli (GPa) = 87.28088 70.21770 51.38648
#
# Poissons Ratio (x) = 0.16442 0.11492
# Poissons Ratio (y) = 0.20437 0.46967
# Poissons Ratio (z) = 0.19519 0.64179
#
# Static dielectric constant tensor:
#      x y z
#    x 6.341500 0.000000 0.000000 
#    y 0.000000 4.124810 0.000000 
#    z 0.000000 0.000000 4.207150 
# 
# 
# High freq. dielectric constant tensor:
#      x y z
#    x 1.887310 0.000000 0.000000 
#    y 0.000000 1.903010 0.000000 
#    z 0.000000 0.000000 1.883440 
# 
# From -- ./inp_files/4196.got.cif
#   From: 2010.03.12/outbox.cif.g09.slc.cpg/sg18_3_cif.got.tgz:4196.got - 2010.04.10 18:53:55.
