data_PCOD8156536
_publ_section_title
;
Structure prediction by ZEFSAII (Michael W. Deem and Ramdas Pophale) SiO2 
 PCOD8156536
Probable space group: P 21 21 21
;
_chemical_formula_sum "Si O2"
_cell_formula_units_Z 32
_cell_length_a 11.481103
_cell_length_b 17.072733
_cell_length_c 8.818518
_cell_angle_alpha 90.000000
_cell_angle_beta 90.000000
_cell_angle_gamma 90.000000
_cell_volume 1728.551277
_symmetry_space_group_name_H-M "P 21 21 21"
_symmetry_group_IT_number 19
_symmetry_cell_setting 'orthorhombic'
loop_
_space_group_symop_operation_xyz
x,y,z
1/2-x,-y,1/2+z
1/2+x,1/2-y,-z
-x,1/2+y,1/2-z
loop_
_atom_site_type_symbol
_atom_site_label
_atom_site_fract_x
_atom_site_fract_y
_atom_site_fract_z
Si Si1 0.595021 0.804400 0.531502
Si Si2 0.788797 0.841954 0.731583
Si Si3 0.339562 0.250104 0.293660
Si Si4 0.109074 0.518325 0.528792
Si Si5 0.485267 0.648061 0.049117
Si Si6 0.911028 0.128906 0.455796
Si Si7 0.431585 0.759661 0.789998
Si Si8 0.664331 0.997371 0.139970
O O1 0.723367 0.786330 0.609312
O O2 0.594401 0.769331 0.363468
O O3 0.564347 0.898190 0.535059
O O4 0.495658 0.760204 0.627198
O O5 0.881942 0.808164 0.851389
O O6 0.858599 0.909677 0.640748
O O7 0.681696 0.881147 0.821900
O O8 0.394086 0.172509 0.371022
O O9 0.353363 0.320387 0.410720
O O10 0.204688 0.235014 0.260852
O O11 0.015552 0.447140 0.544765
O O12 0.159850 0.539673 0.693254
O O13 0.207315 0.479702 0.423859
O O14 0.472989 0.681660 0.879041
O O15 0.029874 0.165462 0.392064
O O16 0.932180 0.043417 0.530537
#
# Coordination Sequence:
#
# PCOD8156536 Si02
#       8
#     4   4   4   4   4   4   4   4
#     4  10  22  34  58  85 115 143 187 248 287 317
#     4   9  18  32  53  84 111 136 183 228 285 336
#     4  11  21  35  58  80 112 152 189 226 289 337
#     4  10  19  33  56  86 114 142 184 240 288 329
#     4  10  20  36  59  79 112 151 185 222 283 352
#     4  10  17  33  53  82 109 151 179 217 285 340
#     4  10  22  37  55  81 118 150 191 226 276 359
#     4  10  15  28  52  83 109 137 170 233 285 326
#
# _framework density 18.512612000000001
#
# number of rings (size 3 to 8) (size 9 to 14) (size 15 to 20)
#    0.000    2.000    5.000    0.000    1.750    0.000 
#    0.000    0.000    5.500    0.000    0.000    0.000 
#    0.000    0.000    0.000    0.000    0.000    0.000 
#
# Total GULP energy -396424.917215 kJ/mol
# GULP energy per Si atom -12388.278663 kJ/mol
# Density = 1.847048 g / cm^3
# Si number density = 18.512612 Si / 1000 Ang^3
#
#
#
# Elastic Constant Matrix: (Units=GPa)
#
#
# Indices 1 2 3 4 5 6 
#
# 1 72.4635 26.1337 26.3718 0.0000 0.0000 0.0000
# 2 26.1337 66.1428 36.1385 0.0000 0.0000 0.0000
# 3 26.3718 36.1385 94.7309 0.0000 0.0000 0.0000
# 4 0.0000 0.0000 0.0000 31.2242 0.0000 0.0000
# 5 0.0000 0.0000 0.0000 0.0000 31.3706 0.0000
# 6 0.0000 0.0000 0.0000 0.0000 0.0000 21.1909
#
#
#
# Elastic Compliance Matrix: (Units=1/GPa)
#
#
# Indices 1 2 3 4 5 6 
#
# 1 0.016615 -0.005101 -0.002679 0.000000 0.000000 0.000000
# 2 -0.005101 0.020666 -0.006464 0.000000 0.000000 0.000000
# 3 -0.002679 -0.006464 0.013768 0.000000 0.000000 0.000000
# 4 0.000000 0.000000 0.000000 0.032026 0.000000 0.000000
# 5 0.000000 0.000000 0.000000 0.000000 0.031877 0.000000
# 6 0.000000 0.000000 0.000000 0.000000 0.000000 0.047190
#
#
# Mechanical properties :
#
#
# Convention : Reuss Voigt Hill
#
# Bulk Modulus (GPa) = 44.32490 45.62503 44.97496
# Shear Modulus (GPa) = 25.23341 26.40334 25.81837
#
# Velocity S-wave (km/s) = 3.69594 3.78065 3.73854
# Velocity P-wave (km/s) = 6.49680 6.61488 6.55610
#
# Compressibility (1/GPa) = 0.02256068
#
# Stress axis : x y z
#
# Youngs Moduli (GPa) = 60.18750 48.38927 72.63231
#
# Poissons Ratio (x) = 0.24682 0.19462
# Poissons Ratio (y) = 0.30700 0.46948
# Poissons Ratio (z) = 0.16127 0.31278
#
# Static dielectric constant tensor:
#      x y z
#    x 3.146670 0.000000 0.000000 
#    y 0.000000 3.278030 0.000000 
#    z 0.000000 0.000000 3.745390 
# 
# 
# High freq. dielectric constant tensor:
#      x y z
#    x 1.678240 0.000000 0.000000 
#    y 0.000000 1.695030 0.000000 
#    z 0.000000 0.000000 1.744620 
# 
# From -- ./inp_files/3728.got.cif
#   From: 2010.03.12/outbox.cif.g09.slc.cpg/sg19_2_cif.got.tgz:3728.got - 2010.04.10 18:59:41.
