data_PCOD8156647
_publ_section_title
;
Structure prediction by ZEFSAII (Michael W. Deem and Ramdas Pophale) SiO2 
 PCOD8156647
Probable space group: P 21 21 21
;
_chemical_formula_sum "Si O2"
_cell_formula_units_Z 32
_cell_length_a 14.988009
_cell_length_b 8.602145
_cell_length_c 11.964882
_cell_angle_alpha 90.000000
_cell_angle_beta 90.000000
_cell_angle_gamma 90.000000
_cell_volume 1542.620591
_symmetry_space_group_name_H-M "P 21 21 21"
_symmetry_group_IT_number 19
_symmetry_cell_setting 'orthorhombic'
loop_
_space_group_symop_operation_xyz
x,y,z
1/2-x,-y,1/2+z
1/2+x,1/2-y,-z
-x,1/2+y,1/2-z
loop_
_atom_site_type_symbol
_atom_site_label
_atom_site_fract_x
_atom_site_fract_y
_atom_site_fract_z
Si Si1 0.817628 0.194453 0.988050
Si Si2 0.875123 0.888446 0.508938
Si Si3 0.957285 0.936004 0.742225
Si Si4 0.019744 0.731053 0.360707
Si Si5 0.475887 0.129258 0.618374
Si Si6 0.374208 0.234542 0.247590
Si Si7 0.681805 0.763585 0.009354
Si Si8 0.130085 0.340966 0.541796
O O1 0.715645 0.210445 0.029193
O O2 0.816848 0.272712 0.865231
O O3 0.841344 0.014689 0.985447
O O4 0.889869 0.274440 0.070415
O O5 0.930576 0.873943 0.621582
O O6 0.934526 0.820973 0.409133
O O7 0.852758 0.065340 0.476190
O O8 0.906810 0.829600 0.833004
O O9 0.063327 0.916450 0.756766
O O10 0.938678 0.116288 0.760210
O O11 0.035544 0.781598 0.234096
O O12 0.999161 0.549264 0.362692
O O13 0.383856 0.139738 0.548169
O O14 0.554010 0.212269 0.545928
O O15 0.312218 0.245000 0.356318
O O16 0.782477 0.732198 0.967062
#
# Coordination Sequence:
#
# PCOD8156647 Si02
#       8
#     4   4   4   4   4   4   4   4
#     4   9  20  37  59  84 113 152 192 231 284 347
#     4  10  21  37  61  87 112 149 196 239 282 340
#     4  10  19  35  59  84 112 146 188 236 285 338
#     4  11  23  40  60  84 118 156 193 239 290 345
#     4  11  23  40  60  84 118 156 193 239 290 345
#     4  10  19  35  59  84 112 146 188 236 285 338
#     4  10  21  37  61  87 112 149 196 239 282 340
#     4   9  20  37  59  84 113 152 192 231 284 347
#
# _framework density 20.743919999999999
#
# number of rings (size 3 to 8) (size 9 to 14) (size 15 to 20)
#    0.000    2.000    2.500    0.750    3.500    0.000 
#    0.000    3.750    0.000    0.000    0.000    0.000 
#    0.000    0.000    0.000    0.000    0.000    0.000 
#
# Total GULP energy -396801.867873 kJ/mol
# GULP energy per Si atom -12400.058371 kJ/mol
# Density = 2.069671 g / cm^3
# Si number density = 20.743920 Si / 1000 Ang^3
#
#
#
# Elastic Constant Matrix: (Units=GPa)
#
#
# Indices 1 2 3 4 5 6 
#
# 1 66.0053 -7.4538 8.8926 0.0000 0.0000 0.0000
# 2 -7.4538 23.9527 14.7002 0.0000 0.0000 0.0000
# 3 8.8926 14.7002 101.4817 0.0000 0.0000 0.0000
# 4 0.0000 0.0000 0.0000 28.0103 0.0000 0.0000
# 5 0.0000 0.0000 0.0000 0.0000 28.7867 0.0000
# 6 0.0000 0.0000 0.0000 0.0000 0.0000 25.7507
#
#
#
# Elastic Compliance Matrix: (Units=1/GPa)
#
#
# Indices 1 2 3 4 5 6 
#
# 1 0.016201 0.006490 -0.002360 0.000000 0.000000 0.000000
# 2 0.006490 0.048422 -0.007583 0.000000 0.000000 0.000000
# 3 -0.002360 -0.007583 0.011159 0.000000 0.000000 0.000000
# 4 0.000000 0.000000 0.000000 0.035701 0.000000 0.000000
# 5 0.000000 0.000000 0.000000 0.000000 0.034738 0.000000
# 6 0.000000 0.000000 0.000000 0.000000 0.000000 0.038834
#
#
# Mechanical properties :
#
#
# Convention : Reuss Voigt Hill
#
# Bulk Modulus (GPa) = 14.51864 24.85750 19.68807
# Shear Modulus (GPa) = 23.26441 28.19627 25.73034
#
# Velocity S-wave (km/s) = 3.35252 3.69081 3.52572
# Velocity P-wave (km/s) = 4.69042 5.49288 5.10744
#
# Compressibility (1/GPa) = 0.06887700
#
# Stress axis : x y z
#
# Youngs Moduli (GPa) = 61.72421 20.65161 89.61211
#
# Poissons Ratio (x) = -0.13403 0.21146
# Poissons Ratio (y) = -0.40058 0.67952
# Poissons Ratio (z) = 0.14565 0.15660
#
# Static dielectric constant tensor:
#      x y z
#    x 3.944050 0.000000 0.000000 
#    y 0.000000 3.416670 0.000000 
#    z 0.000000 0.000000 3.840320 
# 
# 
# High freq. dielectric constant tensor:
#      x y z
#    x 1.815400 0.000000 0.000000 
#    y 0.000000 1.781930 0.000000 
#    z 0.000000 0.000000 1.822240 
# 
# From -- ./inp_files/3619.got.cif
#   From: 2010.03.12/outbox.cif.g09.slc.cpg/sg19_2_cif.got.tgz:3619.got - 2010.04.10 18:59:41.
