data_PCOD8156439
_publ_section_title
;
Structure prediction by ZEFSAII (Michael W. Deem and Ramdas Pophale) SiO2 
 PCOD8156439
Probable space group: P 21 21 2
;
_chemical_formula_sum "Si O2"
_cell_formula_units_Z 30
_cell_length_a 9.193273
_cell_length_b 12.052903
_cell_length_c 13.249067
_cell_angle_alpha 90.000000
_cell_angle_beta 90.000000
_cell_angle_gamma 90.000000
_cell_volume 1468.071186
_symmetry_space_group_name_H-M "P 21 21 2"
_symmetry_group_IT_number 18
_symmetry_cell_setting 'orthorhombic'
loop_
_space_group_symop_operation_xyz
x,y,z
-x,-y,z
1/2+x,1/2-y,-z
1/2-x,1/2+y,-z
loop_
_atom_site_type_symbol
_atom_site_label
_atom_site_fract_x
_atom_site_fract_y
_atom_site_fract_z
Si Si1 0.960601 0.726674 0.590259
Si Si2 0.616198 0.808916 0.223464
Si Si3 0.000000 0.500000 0.301968
Si Si4 0.797402 0.512475 0.652829
Si Si5 0.385563 0.406826 0.821500
Si Si6 0.410449 0.889179 0.060929
Si Si7 0.312047 0.126585 0.540747
Si Si8 0.585546 0.201264 0.839311
O O1 0.915782 0.601131 0.617440
O O2 0.826262 0.806931 0.579089
O O3 0.057070 0.768386 0.684807
O O4 0.061288 0.714658 0.490528
O O5 0.636064 0.935758 0.259265
O O6 0.497708 0.806055 0.134522
O O7 0.769540 0.763640 0.190752
O O8 0.130413 0.545780 0.371940
O O9 0.064540 0.404517 0.231798
O O10 0.659416 0.573313 0.704189
O O11 0.752194 0.441544 0.555252
O O12 0.500000 0.500000 0.857271
O O13 0.248701 0.414504 0.895990
O O14 0.450097 0.283544 0.826037
O O15 0.500000 0.000000 0.043254
O O16 0.395005 0.830151 0.954597
#
# Coordination Sequence:
#
# PCOD8156439 Si02
#       8
#     4   4   2   4   4   4   4   4
#     4  11  23  43  69 101 129 180 223 284 342 399
#     4  11  22  44  72  95 136 176 230 285 335 403
#     4  12  26  46  64  92 148 188 214 278 358 412
#     4  11  21  42  69  98 133 176 224 283 333 397
#     4  12  24  42  75 108 131 173 242 285 332 408
#     4  12  22  45  71 103 140 178 224 285 354 402
#     4  11  25  42  68  98 138 178 227 275 345 413
#     4  12  27  45  67 100 139 186 227 282 345 412
#
# _framework density 20.434977
#
# number of rings (size 3 to 8) (size 9 to 14) (size 15 to 20)
#    0.000    0.533    6.000    2.800    3.733    1.067 
#    0.000    3.333    0.000    0.000    0.000    0.000 
#    0.000    0.000    0.000    0.000    0.000    0.000 
#
# Total GULP energy -372052.050100 kJ/mol
# GULP energy per Si atom -12401.735003 kJ/mol
# Density = 2.038847 g / cm^3
# Si number density = 20.434977 Si / 1000 Ang^3
#
#
#
# Elastic Constant Matrix: (Units=GPa)
#
#
# Indices 1 2 3 4 5 6 
#
# 1 122.3271 37.9981 39.2912 0.0000 0.0000 0.0000
# 2 37.9981 69.7004 35.6209 0.0000 0.0000 0.0000
# 3 39.2912 35.6209 113.9055 0.0000 0.0000 0.0000
# 4 0.0000 0.0000 0.0000 18.9433 0.0000 0.0000
# 5 0.0000 0.0000 0.0000 0.0000 30.8480 0.0000
# 6 0.0000 0.0000 0.0000 0.0000 0.0000 33.4800
#
#
#
# Elastic Compliance Matrix: (Units=1/GPa)
#
#
# Indices 1 2 3 4 5 6 
#
# 1 0.010258 -0.004504 -0.002130 0.000000 0.000000 0.000000
# 2 -0.004504 0.019054 -0.004405 0.000000 0.000000 0.000000
# 3 -0.002130 -0.004405 0.010891 0.000000 0.000000 0.000000
# 4 0.000000 0.000000 0.000000 0.052789 0.000000 0.000000
# 5 0.000000 0.000000 0.000000 0.000000 0.032417 0.000000
# 6 0.000000 0.000000 0.000000 0.000000 0.000000 0.029869
#
#
# Mechanical properties :
#
#
# Convention : Reuss Voigt Hill
#
# Bulk Modulus (GPa) = 55.17050 59.08371 57.12711
# Shear Modulus (GPa) = 27.26325 29.52243 28.39284
#
# Velocity S-wave (km/s) = 3.65656 3.80505 3.73154
# Velocity P-wave (km/s) = 6.69955 6.94840 6.82511
#
# Compressibility (1/GPa) = 0.01812563
#
# Stress axis : x y z
#
# Youngs Moduli (GPa) = 97.48561 52.48361 91.81481
#
# Poissons Ratio (x) = 0.23637 0.19557
# Poissons Ratio (y) = 0.43904 0.40444
# Poissons Ratio (z) = 0.20765 0.23119
#
# Static dielectric constant tensor:
#      x y z
#    x 3.871630 0.000000 0.000000 
#    y 0.000000 3.663090 0.000000 
#    z 0.000000 0.000000 4.069030 
# 
# 
# High freq. dielectric constant tensor:
#      x y z
#    x 1.810670 0.000000 0.000000 
#    y 0.000000 1.788930 0.000000 
#    z 0.000000 0.000000 1.810710 
# 
# From -- ./inp_files/6730.got.cif
#   From: 2010.03.12/outbox.cif.g09.slc.cpg/sg18_4_cif.got.tgz:6730.got - 2010.04.10 18:53:55.
