data_PCOD8156961
_publ_section_title
;
Structure prediction by ZEFSAII (Michael W. Deem and Ramdas Pophale) SiO2 
 PCOD8156961
Probable space group: P 21 21 21
;
_chemical_formula_sum "Si O2"
_cell_formula_units_Z 28
_cell_length_a 8.370324
_cell_length_b 23.094467
_cell_length_c 7.000794
_cell_angle_alpha 90.000000
_cell_angle_beta 90.000000
_cell_angle_gamma 90.000000
_cell_volume 1353.310686
_symmetry_space_group_name_H-M "P 21 21 21"
_symmetry_group_IT_number 19
_symmetry_cell_setting 'orthorhombic'
loop_
_space_group_symop_operation_xyz
x,y,z
1/2-x,-y,1/2+z
1/2+x,1/2-y,-z
-x,1/2+y,1/2-z
loop_
_atom_site_type_symbol
_atom_site_label
_atom_site_fract_x
_atom_site_fract_y
_atom_site_fract_z
Si Si1 0.390996 0.154709 0.065979
Si Si2 0.018419 0.605676 0.054489
Si Si3 0.971726 0.519261 0.733268
Si Si4 0.313840 0.952354 0.633710
Si Si5 0.375958 0.601630 0.158364
Si Si6 0.698546 0.288670 0.613953
Si Si7 0.990018 0.319758 0.358705
O O1 0.303515 0.093948 0.038129
O O2 0.550825 0.147511 0.192290
O O3 0.265429 0.196743 0.174165
O O4 0.444519 0.177245 0.861973
O O5 0.186966 0.609436 0.160378
O O6 0.891325 0.567790 0.169718
O O7 0.945609 0.669862 0.041120
O O8 0.045902 0.573180 0.850930
O O9 0.084686 0.462949 0.731844
O O10 0.957068 0.535464 0.511449
O O11 0.794224 0.507844 0.816106
O O12 0.455836 0.618378 0.951766
O O13 0.836910 0.293441 0.460213
O O14 0.639406 0.223038 0.617234
#
# Coordination Sequence:
#
# PCOD8156961 Si02
#       7
#     4   4   4   4   4   4   4
#     4   9  22  41  62  91 123 162 208 254 312 374
#     4  11  23  41  58  90 134 155 213 265 299 382
#     4  11  22  37  62  86 122 168 205 256 317 361
#     4  10  21  37  62  85 116 165 210 251 310 370
#     4  10  25  39  59  97 125 165 215 252 317 376
#     4  10  23  40  64  95 117 170 207 250 319 371
#     4  11  22  43  69  88 135 161 206 266 306 376
#
# _framework density 20.690002
#
# number of rings (size 3 to 8) (size 9 to 14) (size 15 to 20)
#    0.000    1.714    1.429    2.571    4.000    4.571 
#    0.000    2.857    0.000    0.000    0.000    0.000 
#    0.000    0.000    0.000    0.000    0.000    0.000 
#
# Total GULP energy -347165.781088 kJ/mol
# GULP energy per Si atom -12398.777896 kJ/mol
# Density = 2.064291 g / cm^3
# Si number density = 20.690002 Si / 1000 Ang^3
#
#
#
# Elastic Constant Matrix: (Units=GPa)
#
#
# Indices 1 2 3 4 5 6 
#
# 1 89.0352 11.6600 12.5430 0.0000 0.0000 0.0000
# 2 11.6600 54.7776 24.0013 0.0000 0.0000 0.0000
# 3 12.5430 24.0013 87.9849 0.0000 0.0000 0.0000
# 4 0.0000 0.0000 0.0000 24.1299 0.0000 0.0000
# 5 0.0000 0.0000 0.0000 0.0000 27.7389 0.0000
# 6 0.0000 0.0000 0.0000 0.0000 0.0000 26.1337
#
#
#
# Elastic Compliance Matrix: (Units=1/GPa)
#
#
# Indices 1 2 3 4 5 6 
#
# 1 0.011650 -0.001990 -0.001118 0.000000 0.000000 0.000000
# 2 -0.001990 0.021074 -0.005465 0.000000 0.000000 0.000000
# 3 -0.001118 -0.005465 0.013016 0.000000 0.000000 0.000000
# 4 0.000000 0.000000 0.000000 0.041442 0.000000 0.000000
# 5 0.000000 0.000000 0.000000 0.000000 0.036050 0.000000
# 6 0.000000 0.000000 0.000000 0.000000 0.000000 0.038265
#
#
# Mechanical properties :
#
#
# Convention : Reuss Voigt Hill
#
# Bulk Modulus (GPa) = 34.97308 36.46735 35.72022
# Shear Modulus (GPa) = 26.57123 27.84007 27.20565
#
# Velocity S-wave (km/s) = 3.58754 3.67220 3.63011
# Velocity P-wave (km/s) = 5.83957 5.97025 5.90527
#
# Compressibility (1/GPa) = 0.02859342
#
# Stress axis : x y z
#
# Youngs Moduli (GPa) = 85.83983 47.45241 76.83004
#
# Poissons Ratio (x) = 0.09443 0.08589
# Poissons Ratio (y) = 0.17081 0.41988
# Poissons Ratio (z) = 0.09596 0.25933
#
# Static dielectric constant tensor:
#      x y z
#    x 3.668860 0.000000 0.000000 
#    y 0.000000 3.661780 0.000000 
#    z 0.000000 0.000000 3.707610 
# 
# 
# High freq. dielectric constant tensor:
#      x y z
#    x 1.811910 0.000000 0.000000 
#    y 0.000000 1.800410 0.000000 
#    z 0.000000 0.000000 1.809210 
# 
# From -- ./inp_files/655.got.cif
#   From: 2010.03.12/outbox.cif.g09.slc.cpg/sg19_1_cif.got.tgz:655.got - 2010.04.10 18:59:41.
