data_PCOD8156160
_publ_section_title
;
Structure prediction by ZEFSAII (Michael W. Deem and Ramdas Pophale) SiO2 
 PCOD8156160
Probable space group: P 21 21 2
;
_chemical_formula_sum "Si O2"
_cell_formula_units_Z 32
_cell_length_a 10.424837
_cell_length_b 14.392501
_cell_length_c 8.945160
_cell_angle_alpha 90.000000
_cell_angle_beta 90.000000
_cell_angle_gamma 90.000000
_cell_volume 1342.127128
_symmetry_space_group_name_H-M "P 21 21 2"
_symmetry_group_IT_number 18
_symmetry_cell_setting 'orthorhombic'
loop_
_space_group_symop_operation_xyz
x,y,z
-x,-y,z
1/2+x,1/2-y,-z
1/2-x,1/2+y,-z
loop_
_atom_site_type_symbol
_atom_site_label
_atom_site_fract_x
_atom_site_fract_y
_atom_site_fract_z
Si Si1 0.991739 0.272312 0.161183
Si Si2 0.668035 0.139766 0.372507
Si Si3 0.414785 0.080899 0.059048
Si Si4 0.797665 0.995964 0.875029
Si Si5 0.602471 0.565938 0.824962
Si Si6 0.754898 0.344979 0.342697
Si Si7 0.246591 0.332105 0.312524
Si Si8 0.128103 0.648953 0.645435
O O1 0.129996 0.275692 0.238140
O O2 0.956980 0.165386 0.132853
O O3 0.891111 0.320619 0.270679
O O4 0.992406 0.328540 0.003185
O O5 0.762281 0.082589 0.261088
O O6 0.675206 0.250854 0.356719
O O7 0.703116 0.111118 0.541232
O O8 0.519663 0.114978 0.347987
O O9 0.318606 0.112935 0.193526
O O10 0.500000 0.000000 0.129149
O O11 0.345595 0.033006 0.919113
O O12 0.834796 0.915824 0.754001
O O13 0.805173 0.096655 0.803547
O O14 0.879816 0.003336 0.025246
O O15 0.500000 0.500000 0.733787
O O16 0.790356 0.390879 0.505035
O O17 0.358214 0.260577 0.360216
#
# Coordination Sequence:
#
# PCOD8156160 Si02
#       8
#     4   4   4   4   4   4   4   4
#     4  10  21  44  67  96 139 193 231 293 363 436
#     4  10  23  47  69 102 143 187 247 296 359 441
#     4  11  22  38  65  97 140 180 238 295 354 426
#     4  11  24  42  63 105 137 184 240 296 364 429
#     4  11  26  47  73 103 145 189 241 304 368 431
#     4   9  22  42  69  96 139 186 237 301 358 427
#     4  11  23  43  71  97 141 191 235 296 366 435
#     4  11  23  41  68 103 135 190 238 299 367 432
#
# _framework density 23.842749000000001
#
# number of rings (size 3 to 8) (size 9 to 14) (size 15 to 20)
#    0.000    1.500    2.500    1.500    1.750    4.000 
#    2.250    0.625    0.000    0.000    0.000    0.000 
#    0.000    0.000    0.000    0.000    0.000    0.000 
#
# Total GULP energy -396513.466837 kJ/mol
# GULP energy per Si atom -12391.045839 kJ/mol
# Density = 2.378848 g / cm^3
# Si number density = 23.842749 Si / 1000 Ang^3
#
#
#
# Elastic Constant Matrix: (Units=GPa)
#
#
# Indices 1 2 3 4 5 6 
#
# 1 65.2239 21.3235 15.5159 0.0000 0.0000 0.0000
# 2 21.3235 96.6307 38.6255 0.0000 0.0000 0.0000
# 3 15.5159 38.6255 135.2795 0.0000 0.0000 0.0000
# 4 0.0000 0.0000 0.0000 40.1329 0.0000 0.0000
# 5 0.0000 0.0000 0.0000 0.0000 22.0581 0.0000
# 6 0.0000 0.0000 0.0000 0.0000 0.0000 27.5519
#
#
#
# Elastic Compliance Matrix: (Units=1/GPa)
#
#
# Indices 1 2 3 4 5 6 
#
# 1 0.016636 -0.003283 -0.000971 0.000000 0.000000 0.000000
# 2 -0.003283 0.012330 -0.003144 0.000000 0.000000 0.000000
# 3 -0.000971 -0.003144 0.008401 0.000000 0.000000 0.000000
# 4 0.000000 0.000000 0.000000 0.024917 0.000000 0.000000
# 5 0.000000 0.000000 0.000000 0.000000 0.045335 0.000000
# 6 0.000000 0.000000 0.000000 0.000000 0.000000 0.036295
#
#
# Mechanical properties :
#
#
# Convention : Reuss Voigt Hill
#
# Bulk Modulus (GPa) = 44.30336 49.78489 47.04413
# Shear Modulus (GPa) = 30.07820 32.72653 31.40236
#
# Velocity S-wave (km/s) = 3.55565 3.70888 3.63307
# Velocity P-wave (km/s) = 5.95640 6.26633 6.11333
#
# Compressibility (1/GPa) = 0.02257165
#
# Stress axis : x y z
#
# Youngs Moduli (GPa) = 60.11047 81.10395 119.03204
#
# Poissons Ratio (x) = 0.26627 0.11554
# Poissons Ratio (y) = 0.19735 0.37423
# Poissons Ratio (z) = 0.05835 0.25498
#
# Static dielectric constant tensor:
#      x y z
#    x 3.980780 0.000000 0.000000 
#    y 0.000000 4.339320 0.000000 
#    z 0.000000 0.000000 4.487480 
# 
# 
# High freq. dielectric constant tensor:
#      x y z
#    x 1.922720 0.000000 0.000000 
#    y 0.000000 1.952820 0.000000 
#    z 0.000000 0.000000 1.955030 
# 
# From -- ./inp_files/3948.got.cif
#   From: 2010.03.12/outbox.cif.g09.slc.cpg/sg18_2_cif.got.tgz:3948.got - 2010.04.10 18:53:55.
