data_PCOD8156683
_publ_section_title
;
Structure prediction by ZEFSAII (Michael W. Deem and Ramdas Pophale) SiO2 
 PCOD8156683
Probable space group: P 21 21 21
;
_chemical_formula_sum "Si O2"
_cell_formula_units_Z 28
_cell_length_a 16.916412
_cell_length_b 10.642865
_cell_length_c 7.728103
_cell_angle_alpha 90.000000
_cell_angle_beta 90.000000
_cell_angle_gamma 90.000000
_cell_volume 1391.360625
_symmetry_space_group_name_H-M "P 21 21 21"
_symmetry_group_IT_number 19
_symmetry_cell_setting 'orthorhombic'
loop_
_space_group_symop_operation_xyz
x,y,z
1/2-x,-y,1/2+z
1/2+x,1/2-y,-z
-x,1/2+y,1/2-z
loop_
_atom_site_type_symbol
_atom_site_label
_atom_site_fract_x
_atom_site_fract_y
_atom_site_fract_z
Si Si1 0.726873 0.178647 0.370877
Si Si2 0.563282 0.790657 0.422138
Si Si3 0.813718 0.069692 0.686380
Si Si4 0.050570 0.254168 0.626717
Si Si5 0.874683 0.306446 0.264382
Si Si6 0.505442 0.526867 0.894298
Si Si7 0.550403 0.931345 0.947425
O O1 0.752772 0.153846 0.571454
O O2 0.643402 0.244985 0.339518
O O3 0.781517 0.283288 0.278312
O O4 0.733979 0.043313 0.276154
O O5 0.641492 0.845335 0.329049
O O6 0.505120 0.715579 0.292909
O O7 0.595434 0.694457 0.565824
O O8 0.506725 0.896400 0.508155
O O9 0.883192 0.007089 0.570275
O O10 0.041097 0.365851 0.492075
O O11 0.026515 0.115958 0.555028
O O12 0.902182 0.435293 0.362020
O O13 0.914115 0.194496 0.368899
O O14 0.468835 0.528919 0.701782
#
# Coordination Sequence:
#
# PCOD8156683 Si02
#       7
#     4   4   4   4   4   4   4
#     4  11  21  35  54  91 120 148 189 249 303 340
#     4  10  20  38  57  87 111 157 205 233 283 363
#     4  10  20  33  57  83 122 149 188 245 297 333
#     4  10  21  35  59  88 115 152 202 238 286 354
#     4   9  20  35  55  81 116 145 193 241 296 343
#     4  10  19  38  59  79 115 153 192 249 283 339
#     4   8  19  36  55  83 109 154 197 229 280 354
#
# _framework density 20.124185000000001
#
# number of rings (size 3 to 8) (size 9 to 14) (size 15 to 20)
#    0.000    2.286    1.429    1.714    6.000    0.000 
#    0.000    1.429    0.000    0.000    0.000    0.000 
#    0.000    0.000    0.000    0.000    0.000    0.000 
#
# Total GULP energy -346947.310847 kJ/mol
# GULP energy per Si atom -12390.975387 kJ/mol
# Density = 2.007838 g / cm^3
# Si number density = 20.124185 Si / 1000 Ang^3
#
#
#
# Elastic Constant Matrix: (Units=GPa)
#
#
# Indices 1 2 3 4 5 6 
#
# 1 100.1830 10.5875 28.6697 0.0000 0.0000 0.0000
# 2 10.5875 22.7695 13.7614 0.0000 0.0000 0.0000
# 3 28.6697 13.7614 96.0632 0.0000 0.0000 0.0000
# 4 0.0000 0.0000 0.0000 31.4281 0.0000 0.0000
# 5 0.0000 0.0000 0.0000 0.0000 28.6595 0.0000
# 6 0.0000 0.0000 0.0000 0.0000 0.0000 33.7002
#
#
#
# Elastic Compliance Matrix: (Units=1/GPa)
#
#
# Indices 1 2 3 4 5 6 
#
# 1 0.011160 -0.003477 -0.002832 0.000000 0.000000 0.000000
# 2 -0.003477 0.049165 -0.006005 0.000000 0.000000 0.000000
# 3 -0.002832 -0.006005 0.012115 0.000000 0.000000 0.000000
# 4 0.000000 0.000000 0.000000 0.031819 0.000000 0.000000
# 5 0.000000 0.000000 0.000000 0.000000 0.034892 0.000000
# 6 0.000000 0.000000 0.000000 0.000000 0.000000 0.029673
#
#
# Mechanical properties :
#
#
# Convention : Reuss Voigt Hill
#
# Bulk Modulus (GPa) = 20.91617 36.11699 28.51658
# Shear Modulus (GPa) = 23.87877 29.82403 26.85140
#
# Velocity S-wave (km/s) = 3.44840 3.85385 3.65675
# Velocity P-wave (km/s) = 5.12556 6.14727 5.65952
#
# Compressibility (1/GPa) = 0.04780990
#
# Stress axis : x y z
#
# Youngs Moduli (GPa) = 89.60737 20.33982 82.53941
#
# Poissons Ratio (x) = 0.07073 0.23379
# Poissons Ratio (y) = 0.31159 0.49567
# Poissons Ratio (z) = 0.25381 0.12215
#
# Static dielectric constant tensor:
#      x y z
#    x 3.861410 0.000000 0.000000 
#    y 0.000000 3.372100 0.000000 
#    z 0.000000 0.000000 4.057270 
# 
# 
# High freq. dielectric constant tensor:
#      x y z
#    x 1.778950 0.000000 0.000000 
#    y 0.000000 1.748730 0.000000 
#    z 0.000000 0.000000 1.803160 
# 
# From -- ./inp_files/3500.got.cif
#   From: 2010.03.12/outbox.cif.g09.slc.cpg/sg19_2_cif.got.tgz:3500.got - 2010.04.10 18:59:41.
