data_PCOD8156278
_publ_section_title
;
Structure prediction by ZEFSAII (Michael W. Deem and Ramdas Pophale) SiO2 
 PCOD8156278
Probable space group: P 21 21 2
;
_chemical_formula_sum "Si O2"
_cell_formula_units_Z 18
_cell_length_a 12.344363
_cell_length_b 9.571263
_cell_length_c 6.907477
_cell_angle_alpha 90.000000
_cell_angle_beta 90.000000
_cell_angle_gamma 90.000000
_cell_volume 816.126316
_symmetry_space_group_name_H-M "P 21 21 2"
_symmetry_group_IT_number 18
_symmetry_cell_setting 'orthorhombic'
loop_
_space_group_symop_operation_xyz
x,y,z
-x,-y,z
1/2+x,1/2-y,-z
1/2-x,1/2+y,-z
loop_
_atom_site_type_symbol
_atom_site_label
_atom_site_fract_x
_atom_site_fract_y
_atom_site_fract_z
Si Si1 0.000000 0.000000 0.225192
Si Si2 0.981296 0.849880 0.854653
Si Si3 0.105384 0.591341 0.894370
Si Si4 0.724292 0.539636 0.603651
Si Si5 0.242243 0.658820 0.265762
O O1 0.105411 0.021161 0.355782
O O2 0.991555 0.135256 0.084398
O O3 0.857674 0.807024 0.828879
O O4 0.063384 0.730215 0.778645
O O5 0.000000 0.000000 0.747476
O O6 0.192020 0.508884 0.767953
O O7 0.000000 0.500000 0.940268
O O8 0.156669 0.635369 0.097426
O O9 0.760573 0.480928 0.396053
O O10 0.715297 0.707482 0.600086
#
# Coordination Sequence:
#
# PCOD8156278 Si02
#       5
#     2   4   4   4   4
#     4  10  22  44  72  96 136 192 228 282 354 428
#     4  10  22  44  72  96 139 189 235 284 351 420
#     4  12  25  48  75 103 145 188 241 297 359 426
#     4  12  28  45  71 107 145 185 239 295 362 424
#     4  12  27  45  70 109 143 189 236 296 357 426
#
# _framework density 22.055409000000001
#
# number of rings (size 3 to 8) (size 9 to 14) (size 15 to 20)
#    0.667    0.000    6.667    0.000    4.667    2.667 
#    0.000    0.000    0.000    0.000    0.000    0.000 
#    0.000    0.000    0.000    0.000    0.000    0.000 
#
# Total GULP energy -223132.550582 kJ/mol
# GULP energy per Si atom -12396.252810 kJ/mol
# Density = 2.200521 g / cm^3
# Si number density = 22.055409 Si / 1000 Ang^3
#
#
#
# Elastic Constant Matrix: (Units=GPa)
#
#
# Indices 1 2 3 4 5 6 
#
# 1 150.4579 36.9655 33.7855 0.0000 0.0000 0.0000
# 2 36.9655 95.2180 25.9081 0.0000 0.0000 0.0000
# 3 33.7855 25.9081 70.9789 0.0000 0.0000 0.0000
# 4 0.0000 0.0000 0.0000 30.3496 0.0000 0.0000
# 5 0.0000 0.0000 0.0000 0.0000 16.2441 0.0000
# 6 0.0000 0.0000 0.0000 0.0000 0.0000 35.1499
#
#
#
# Elastic Compliance Matrix: (Units=1/GPa)
#
#
# Indices 1 2 3 4 5 6 
#
# 1 0.007855 -0.002256 -0.002916 0.000000 0.000000 0.000000
# 2 -0.002256 0.012308 -0.003419 0.000000 0.000000 0.000000
# 3 -0.002916 -0.003419 0.016724 0.000000 0.000000 0.000000
# 4 0.000000 0.000000 0.000000 0.032949 0.000000 0.000000
# 5 0.000000 0.000000 0.000000 0.000000 0.061561 0.000000
# 6 0.000000 0.000000 0.000000 0.000000 0.000000 0.028450
#
#
# Mechanical properties :
#
#
# Convention : Reuss Voigt Hill
#
# Bulk Modulus (GPa) = 50.74344 56.66368 53.70356
# Shear Modulus (GPa) = 27.23342 31.01509 29.12425
#
# Velocity S-wave (km/s) = 3.51775 3.75405 3.63782
# Velocity P-wave (km/s) = 6.28940 6.67366 6.48438
#
# Compressibility (1/GPa) = 0.01970698
#
# Stress axis : x y z
#
# Youngs Moduli (GPa) = 127.30063 81.24553 59.79309
#
# Poissons Ratio (x) = 0.18332 0.17433
# Poissons Ratio (y) = 0.28723 0.20441
# Poissons Ratio (z) = 0.37115 0.27775
#
# Static dielectric constant tensor:
#      x y z
#    x 4.009300 0.000000 0.000000 
#    y 0.000000 4.130270 0.000000 
#    z 0.000000 0.000000 3.582040 
# 
# 
# High freq. dielectric constant tensor:
#      x y z
#    x 1.883990 0.000000 0.000000 
#    y 0.000000 1.874090 0.000000 
#    z 0.000000 0.000000 1.846620 
# 
# From -- ./inp_files/902.got.cif
#   From: 2010.03.12/outbox.cif.g09.slc.cpg/sg18_1_cif.got.tgz:902.got - 2010.04.10 18:53:55.
