data_PCOD8156075
_publ_section_title
;
Structure prediction by ZEFSAII (Michael W. Deem and Ramdas Pophale) SiO2 
 PCOD8156075
Probable space group: P 21 21 2
;
_chemical_formula_sum "Si O2"
_cell_formula_units_Z 16
_cell_length_a 5.200914
_cell_length_b 14.317500
_cell_length_c 9.646002
_cell_angle_alpha 90.000000
_cell_angle_beta 90.000000
_cell_angle_gamma 90.000000
_cell_volume 718.280724
_symmetry_space_group_name_H-M "P 21 21 2"
_symmetry_group_IT_number 18
_symmetry_cell_setting 'orthorhombic'
loop_
_space_group_symop_operation_xyz
x,y,z
-x,-y,z
1/2+x,1/2-y,-z
1/2-x,1/2+y,-z
loop_
_atom_site_type_symbol
_atom_site_label
_atom_site_fract_x
_atom_site_fract_y
_atom_site_fract_z
Si Si1 0.928180 0.136878 0.997347
Si Si2 0.003872 0.301175 0.446672
Si Si3 0.428492 0.167902 0.870085
Si Si4 0.000000 0.500000 0.579544
Si Si5 0.000000 0.000000 0.239387
O O1 0.921752 0.247131 0.021322
O O2 0.934939 0.088709 0.146119
O O3 0.678387 0.106228 0.908252
O O4 0.172708 0.107601 0.902601
O O5 0.768800 0.255016 0.530635
O O6 0.931672 0.295668 0.286013
O O7 0.049347 0.408946 0.486435
O O8 0.251047 0.521890 0.669581
#
# Coordination Sequence:
#
# PCOD8156075 Si02
#       5
#     4   4   4   2   2
#     4  10  21  37  62  87 117 156 200 261 310 375
#     4  12  25  43  67  95 135 177 214 270 326 386
#     4  10  21  39  60  88 119 157 206 250 318 376
#     4  12  26  42  66  96 128 172 224 262 320 410
#     4  12  24  42  64  92 126 164 216 270 328 378
#
# _framework density 22.275413
#
# number of rings (size 3 to 8) (size 9 to 14) (size 15 to 20)
#    0.000    1.000    0.000    7.500    0.000    6.000 
#    0.000    0.000    0.000    0.000    0.000    0.000 
#    0.000    0.000    0.000    0.000    0.000    0.000 
#
# Total GULP energy -198421.095531 kJ/mol
# GULP energy per Si atom -12401.318471 kJ/mol
# Density = 2.222471 g / cm^3
# Si number density = 22.275413 Si / 1000 Ang^3
#
#
#
# Elastic Constant Matrix: (Units=GPa)
#
#
# Indices 1 2 3 4 5 6 
#
# 1 159.3248 12.7244 31.9176 0.0000 0.0000 0.0000
# 2 12.7244 74.2979 -3.7143 0.0000 0.0000 0.0000
# 3 31.9176 -3.7143 91.6088 0.0000 0.0000 0.0000
# 4 0.0000 0.0000 0.0000 54.1038 0.0000 0.0000
# 5 0.0000 0.0000 0.0000 0.0000 42.9870 0.0000
# 6 0.0000 0.0000 0.0000 0.0000 0.0000 26.0039
#
#
#
# Elastic Compliance Matrix: (Units=1/GPa)
#
#
# Indices 1 2 3 4 5 6 
#
# 1 0.006870 -0.001299 -0.002446 0.000000 0.000000 0.000000
# 2 -0.001299 0.013732 0.001009 0.000000 0.000000 0.000000
# 3 -0.002446 0.001009 0.011809 0.000000 0.000000 0.000000
# 4 0.000000 0.000000 0.000000 0.018483 0.000000 0.000000
# 5 0.000000 0.000000 0.000000 0.000000 0.023263 0.000000
# 6 0.000000 0.000000 0.000000 0.000000 0.000000 0.038456
#
#
# Mechanical properties :
#
#
# Convention : Reuss Voigt Hill
#
# Bulk Modulus (GPa) = 37.11965 45.23187 41.17576
# Shear Modulus (GPa) = 39.34987 43.57253 41.46120
#
# Velocity S-wave (km/s) = 4.20755 4.42756 4.31896
# Velocity P-wave (km/s) = 6.34861 6.81818 6.58758
#
# Compressibility (1/GPa) = 0.02693991
#
# Stress axis : x y z
#
# Youngs Moduli (GPa) = 145.55391 72.82127 84.67939
#
# Poissons Ratio (x) = 0.09459 0.20716
# Poissons Ratio (y) = 0.18906 -0.08547
# Poissons Ratio (z) = 0.35608 -0.07350
#
# Static dielectric constant tensor:
#      x y z
#    x 4.665550 0.000000 0.000000 
#    y 0.000000 3.794020 0.000000 
#    z 0.000000 0.000000 3.773780 
# 
# 
# High freq. dielectric constant tensor:
#      x y z
#    x 1.906720 0.000000 0.000000 
#    y 0.000000 1.868520 0.000000 
#    z 0.000000 0.000000 1.873150 
# 
# From -- ./inp_files/2408.got.cif
#   From: 2010.03.12/outbox.cif.g09.slc.cpg/sg18_2_cif.got.tgz:2408.got - 2010.04.10 18:53:55.
