data_PCOD8156780
_publ_section_title
;
Structure prediction by ZEFSAII (Michael W. Deem and Ramdas Pophale) SiO2 
 PCOD8156780
Probable space group: P 21 21 21
;
_chemical_formula_sum "Si O2"
_cell_formula_units_Z 32
_cell_length_a 9.903459
_cell_length_b 18.411087
_cell_length_c 7.796812
_cell_angle_alpha 90.000000
_cell_angle_beta 90.000000
_cell_angle_gamma 90.000000
_cell_volume 1421.619594
_symmetry_space_group_name_H-M "P 21 21 21"
_symmetry_group_IT_number 19
_symmetry_cell_setting 'orthorhombic'
loop_
_space_group_symop_operation_xyz
x,y,z
1/2-x,-y,1/2+z
1/2+x,1/2-y,-z
-x,1/2+y,1/2-z
loop_
_atom_site_type_symbol
_atom_site_label
_atom_site_fract_x
_atom_site_fract_y
_atom_site_fract_z
Si Si1 0.373894 0.634977 0.570009
Si Si2 0.705281 0.275061 0.104704
Si Si3 0.693941 0.431240 0.582706
Si Si4 0.971872 0.683273 0.890676
Si Si5 0.556512 0.376078 0.889755
Si Si6 0.932203 0.451977 0.837093
Si Si7 0.036740 0.764740 0.209674
Si Si8 0.882933 0.068365 0.804847
O O1 0.281930 0.694232 0.471256
O O2 0.502093 0.611426 0.453572
O O3 0.426853 0.675147 0.740451
O O4 0.274086 0.570075 0.633905
O O5 0.566340 0.278645 0.212267
O O6 0.819571 0.296944 0.238927
O O7 0.696115 0.339159 0.961569
O O8 0.657033 0.357565 0.478648
O O9 0.590753 0.434732 0.743259
O O10 0.845296 0.428387 0.667412
O O11 0.667761 0.499577 0.457407
O O12 0.092245 0.627322 0.846097
O O13 0.027817 0.747815 0.009016
O O14 0.471085 0.309615 0.816130
O O15 0.478377 0.419204 0.033504
O O16 0.069041 0.491886 0.772269
#
# Coordination Sequence:
#
# PCOD8156780 Si02
#       8
#     4   4   4   4   4   4   4   4
#     4  11  24  39  60  96 126 168 210 250 318 390
#     4  10  20  38  61  90 125 154 209 258 318 372
#     4  10  21  41  64  89 123 158 228 257 301 375
#     4   9  22  38  64  92 117 164 205 266 324 363
#     4   9  18  37  63  85 114 167 198 261 313 359
#     4  11  24  41  65  93 124 175 210 264 309 367
#     4  10  20  36  61  87 121 159 195 263 316 369
#     4  10  21  42  60  86 132 165 207 255 315 377
#
# _framework density 22.509537999999999
#
# number of rings (size 3 to 8) (size 9 to 14) (size 15 to 20)
#    0.000    2.000    1.250    1.500    1.750    4.000 
#    2.250    2.500    0.000    0.000    0.000    0.000 
#    0.000    0.000    0.000    0.000    0.000    0.000 
#
# Total GULP energy -396494.635855 kJ/mol
# GULP energy per Si atom -12390.457370 kJ/mol
# Density = 2.245831 g / cm^3
# Si number density = 22.509538 Si / 1000 Ang^3
#
#
#
# Elastic Constant Matrix: (Units=GPa)
#
#
# Indices 1 2 3 4 5 6 
#
# 1 76.6440 -1.0999 5.7608 0.0000 0.0000 0.0000
# 2 -1.0999 28.4087 3.8885 0.0000 0.0000 0.0000
# 3 5.7608 3.8885 74.2008 0.0000 0.0000 0.0000
# 4 0.0000 0.0000 0.0000 29.5387 0.0000 0.0000
# 5 0.0000 0.0000 0.0000 0.0000 39.2353 0.0000
# 6 0.0000 0.0000 0.0000 0.0000 0.0000 13.6499
#
#
#
# Elastic Compliance Matrix: (Units=1/GPa)
#
#
# Indices 1 2 3 4 5 6 
#
# 1 0.013136 0.000653 -0.001054 0.000000 0.000000 0.000000
# 2 0.000653 0.035487 -0.001910 0.000000 0.000000 0.000000
# 3 -0.001054 -0.001910 0.013659 0.000000 0.000000 0.000000
# 4 0.000000 0.000000 0.000000 0.033854 0.000000 0.000000
# 5 0.000000 0.000000 0.000000 0.000000 0.025487 0.000000
# 6 0.000000 0.000000 0.000000 0.000000 0.000000 0.073261
#
#
# Mechanical properties :
#
#
# Convention : Reuss Voigt Hill
#
# Bulk Modulus (GPa) = 17.34339 21.81692 19.58016
# Shear Modulus (GPa) = 22.85957 27.86505 25.36231
#
# Velocity S-wave (km/s) = 3.19023 3.52223 3.36033
# Velocity P-wave (km/s) = 4.61429 5.12394 4.87578
#
# Compressibility (1/GPa) = 0.05765885
#
# Stress axis : x y z
#
# Youngs Moduli (GPa) = 76.12704 28.17914 73.21236
#
# Poissons Ratio (x) = -0.01840 0.07717
# Poissons Ratio (y) = -0.04970 0.13986
# Poissons Ratio (z) = 0.08024 0.05383
#
# Static dielectric constant tensor:
#      x y z
#    x 3.805940 0.000000 0.000000 
#    y 0.000000 3.830060 0.000000 
#    z 0.000000 0.000000 4.239650 
# 
# 
# High freq. dielectric constant tensor:
#      x y z
#    x 1.871770 0.000000 0.000000 
#    y 0.000000 1.865350 0.000000 
#    z 0.000000 0.000000 1.898950 
# 
# From -- ./inp_files/3121.got.cif
#   From: 2010.03.12/outbox.cif.g09.slc.cpg/sg19_2_cif.got.tgz:3121.got - 2010.04.10 18:59:41.
