data_PCOD8156372
_publ_section_title
;
Structure prediction by ZEFSAII (Michael W. Deem and Ramdas Pophale) SiO2 
 PCOD8156372
Probable space group: P 21 21 2
;
_chemical_formula_sum "Si O2"
_cell_formula_units_Z 20
_cell_length_a 8.425842
_cell_length_b 8.930768
_cell_length_c 11.725160
_cell_angle_alpha 90.000000
_cell_angle_beta 90.000000
_cell_angle_gamma 90.000000
_cell_volume 882.309380
_symmetry_space_group_name_H-M "P 21 21 2"
_symmetry_group_IT_number 18
_symmetry_cell_setting 'orthorhombic'
loop_
_space_group_symop_operation_xyz
x,y,z
-x,-y,z
1/2+x,1/2-y,-z
1/2-x,1/2+y,-z
loop_
_atom_site_type_symbol
_atom_site_label
_atom_site_fract_x
_atom_site_fract_y
_atom_site_fract_z
Si Si1 0.306655 0.171806 0.432221
Si Si2 0.687736 0.705929 0.859275
Si Si3 0.167067 0.335141 0.626644
Si Si4 0.597296 0.149761 0.743995
Si Si5 0.320917 0.489442 0.074408
O O1 0.279551 0.211981 0.565573
O O2 0.486503 0.205997 0.399779
O O3 0.183223 0.277419 0.364534
O O4 0.273368 0.997261 0.414509
O O5 0.817956 0.674178 0.762546
O O6 0.517957 0.727019 0.799341
O O7 0.736577 0.850603 0.931603
O O8 0.682393 0.568289 0.945188
O O9 0.728632 0.116136 0.838666
O O10 0.500000 0.000000 0.706955
O O11 0.500000 0.500000 0.119685
#
# Coordination Sequence:
#
# PCOD8156372 Si02
#       5
#     4   4   4   4   4
#     4  11  26  47  74 104 143 182 235 294 355 424
#     4  11  25  44  69 105 137 186 231 286 349 416
#     4  11  27  46  73 106 141 184 236 289 357 424
#     4  10  24  44  72 100 142 185 236 291 349 417
#     4  11  24  43  69  97 141 182 235 281 348 409
#
# _framework density 22.667784999999999
#
# number of rings (size 3 to 8) (size 9 to 14) (size 15 to 20)
#    0.000    1.200    0.000    3.600   14.000    2.400 
#    7.200    0.000    0.000    0.000    0.000    0.000 
#    0.000    0.000    0.000    0.000    0.000    0.000 
#
# Total GULP energy -248126.647874 kJ/mol
# GULP energy per Si atom -12406.332394 kJ/mol
# Density = 2.261619 g / cm^3
# Si number density = 22.667785 Si / 1000 Ang^3
#
#
#
# Elastic Constant Matrix: (Units=GPa)
#
#
# Indices 1 2 3 4 5 6 
#
# 1 117.0213 30.9556 30.8833 0.0000 0.0000 0.0000
# 2 30.9556 101.8768 49.9687 0.0000 0.0000 0.0000
# 3 30.8833 49.9687 91.6438 0.0000 0.0000 0.0000
# 4 0.0000 0.0000 0.0000 29.7353 0.0000 0.0000
# 5 0.0000 0.0000 0.0000 0.0000 35.1815 0.0000
# 6 0.0000 0.0000 0.0000 0.0000 0.0000 35.5893
#
#
#
# Elastic Compliance Matrix: (Units=1/GPa)
#
#
# Indices 1 2 3 4 5 6 
#
# 1 0.009621 -0.001820 -0.002250 0.000000 0.000000 0.000000
# 2 -0.001820 0.013743 -0.006880 0.000000 0.000000 0.000000
# 3 -0.002250 -0.006880 0.015422 0.000000 0.000000 0.000000
# 4 0.000000 0.000000 0.000000 0.033630 0.000000 0.000000
# 5 0.000000 0.000000 0.000000 0.000000 0.028424 0.000000
# 6 0.000000 0.000000 0.000000 0.000000 0.000000 0.028098
#
#
# Mechanical properties :
#
#
# Convention : Reuss Voigt Hill
#
# Bulk Modulus (GPa) = 59.22200 59.35080 59.28640
# Shear Modulus (GPa) = 31.95574 33.35016 32.65295
#
# Velocity S-wave (km/s) = 3.75873 3.83986 3.79951
# Velocity P-wave (km/s) = 6.70971 6.77489 6.74237
#
# Compressibility (1/GPa) = 0.01688562
#
# Stress axis : x y z
#
# Youngs Moduli (GPa) = 103.94377 72.76223 64.84451
#
# Poissons Ratio (x) = 0.13241 0.14589
# Poissons Ratio (y) = 0.18915 0.44615
# Poissons Ratio (z) = 0.23386 0.50063
#
# Static dielectric constant tensor:
#      x y z
#    x 4.195960 0.000000 0.000000 
#    y 0.000000 4.061570 0.000000 
#    z 0.000000 0.000000 4.063550 
# 
# 
# High freq. dielectric constant tensor:
#      x y z
#    x 1.907240 0.000000 0.000000 
#    y 0.000000 1.896260 0.000000 
#    z 0.000000 0.000000 1.903420 
# 
# From -- ./inp_files/5413.got.cif
#   From: 2010.03.12/outbox.cif.g09.slc.cpg/sg18_3_cif.got.tgz:5413.got - 2010.04.10 18:53:55.
