data_PCOD8156591
_publ_section_title
;
Structure prediction by ZEFSAII (Michael W. Deem and Ramdas Pophale) SiO2 
 PCOD8156591
Probable space group: P 21 21 21
;
_chemical_formula_sum "Si O2"
_cell_formula_units_Z 28
_cell_length_a 8.884708
_cell_length_b 8.516548
_cell_length_c 20.687360
_cell_angle_alpha 90.000000
_cell_angle_beta 90.000000
_cell_angle_gamma 90.000000
_cell_volume 1565.351341
_symmetry_space_group_name_H-M "P 21 21 21"
_symmetry_group_IT_number 19
_symmetry_cell_setting 'orthorhombic'
loop_
_space_group_symop_operation_xyz
x,y,z
1/2-x,-y,1/2+z
1/2+x,1/2-y,-z
-x,1/2+y,1/2-z
loop_
_atom_site_type_symbol
_atom_site_label
_atom_site_fract_x
_atom_site_fract_y
_atom_site_fract_z
Si Si1 0.489750 0.065239 0.700676
Si Si2 0.756267 0.161436 0.634170
Si Si3 0.659138 0.425292 0.920242
Si Si4 0.145289 0.436418 0.053779
Si Si5 0.539821 0.403068 0.667306
Si Si6 0.521928 0.422934 0.440136
Si Si7 0.586637 0.098539 0.503147
O O1 0.671671 0.052841 0.687952
O O2 0.442990 0.247240 0.686605
O O3 0.406557 0.950032 0.651267
O O4 0.448863 0.023100 0.773511
O O5 0.711072 0.344871 0.649014
O O6 0.688283 0.123804 0.564792
O O7 0.931994 0.116808 0.627401
O O8 0.681076 0.242170 0.930157
O O9 0.815785 0.516398 0.921546
O O10 0.554240 0.489608 0.977750
O O11 0.308509 0.520622 0.051952
O O12 0.039339 0.512108 0.107922
O O13 0.060683 0.447483 0.984756
O O14 0.521299 0.262439 0.479882
#
# Coordination Sequence:
#
# PCOD8156591 Si02
#       7
#     4   4   4   4   4   4   4
#     4   9  19  35  58  80 108 147 201 237 283 352
#     4   8  19  33  56  84 104 144 192 231 284 342
#     4  11  21  34  56  86 116 155 190 240 297 346
#     4  11  21  33  56  87 116 149 191 245 289 354
#     4  10  18  36  59  84 108 155 195 240 293 344
#     4  11  19  36  59  79 120 151 188 240 294 355
#     4  10  19  35  54  86 112 149 191 227 294 353
#
# _framework density 17.887357999999999
#
# number of rings (size 3 to 8) (size 9 to 14) (size 15 to 20)
#    0.857    1.143    1.429    4.286    0.000    0.000 
#    0.000    0.000    9.429    0.000    0.000    0.000 
#    0.000    0.000    0.000    0.000    0.000    0.000 
#
# Total GULP energy -346902.475068 kJ/mol
# GULP energy per Si atom -12389.374110 kJ/mol
# Density = 1.784665 g / cm^3
# Si number density = 17.887358 Si / 1000 Ang^3
#
#
#
# Elastic Constant Matrix: (Units=GPa)
#
#
# Indices 1 2 3 4 5 6 
#
# 1 93.3901 11.3253 27.6982 0.0000 0.0000 0.0000
# 2 11.3253 70.1633 15.1393 0.0000 0.0000 0.0000
# 3 27.6982 15.1393 58.0212 0.0000 0.0000 0.0000
# 4 0.0000 0.0000 0.0000 28.8143 0.0000 0.0000
# 5 0.0000 0.0000 0.0000 0.0000 2.9736 0.0000
# 6 0.0000 0.0000 0.0000 0.0000 0.0000 13.9328
#
#
#
# Elastic Compliance Matrix: (Units=1/GPa)
#
#
# Indices 1 2 3 4 5 6 
#
# 1 0.012513 -0.000774 -0.005772 0.000000 0.000000 0.000000
# 2 -0.000774 0.015151 -0.003584 0.000000 0.000000 0.000000
# 3 -0.005772 -0.003584 0.020925 0.000000 0.000000 0.000000
# 4 0.000000 0.000000 0.000000 0.034705 0.000000 0.000000
# 5 0.000000 0.000000 0.000000 0.000000 0.336289 0.000000
# 6 0.000000 0.000000 0.000000 0.000000 0.000000 0.071773
#
#
# Mechanical properties :
#
#
# Convention : Reuss Voigt Hill
#
# Bulk Modulus (GPa) = 35.29785 36.65558 35.97671
# Shear Modulus (GPa) = 9.59584 20.30493 14.95039
#
# Velocity S-wave (km/s) = 2.31867 3.37286 2.89417
# Velocity P-wave (km/s) = 5.19082 5.97538 5.59686
#
# Compressibility (1/GPa) = 0.02833034
#
# Stress axis : x y z
#
# Youngs Moduli (GPa) = 79.91386 66.00351 47.78892
#
# Poissons Ratio (x) = 0.05112 0.27582
# Poissons Ratio (y) = 0.06189 0.17125
# Poissons Ratio (z) = 0.46123 0.23652
#
# Static dielectric constant tensor:
#      x y z
#    x 3.507430 0.000000 0.000000 
#    y 0.000000 3.290830 0.000000 
#    z 0.000000 0.000000 3.240750 
# 
# 
# High freq. dielectric constant tensor:
#      x y z
#    x 1.680860 0.000000 0.000000 
#    y 0.000000 1.692400 0.000000 
#    z 0.000000 0.000000 1.677340 
# 
# From -- ./inp_files/6573.got.cif
#   From: 2010.03.12/outbox.cif.g09.slc.cpg/sg19_4_cif.got.tgz:6573.got - 2010.04.10 18:59:41.
