data_PCOD8156199
_publ_section_title
;
Structure prediction by ZEFSAII (Michael W. Deem and Ramdas Pophale) SiO2 
 PCOD8156199
Probable space group: P 21 21 2
;
_chemical_formula_sum "Si O2"
_cell_formula_units_Z 32
_cell_length_a 11.138594
_cell_length_b 15.731304
_cell_length_c 8.929303
_cell_angle_alpha 90.000000
_cell_angle_beta 90.000000
_cell_angle_gamma 90.000000
_cell_volume 1564.633621
_symmetry_space_group_name_H-M "P 21 21 2"
_symmetry_group_IT_number 18
_symmetry_cell_setting 'orthorhombic'
loop_
_space_group_symop_operation_xyz
x,y,z
-x,-y,z
1/2+x,1/2-y,-z
1/2-x,1/2+y,-z
loop_
_atom_site_type_symbol
_atom_site_label
_atom_site_fract_x
_atom_site_fract_y
_atom_site_fract_z
Si Si1 0.072868 0.415526 0.858407
Si Si2 0.420250 0.753398 0.298298
Si Si3 0.871384 0.726995 0.355470
Si Si4 0.261304 0.195275 0.926492
Si Si5 0.161340 0.935730 0.091220
Si Si6 0.982016 0.403193 0.177074
Si Si7 0.082760 0.124287 0.149277
Si Si8 0.850545 0.174364 0.826281
O O1 0.019438 0.342483 0.752837
O O2 0.213371 0.423670 0.825029
O O3 0.000000 0.500000 0.820992
O O4 0.065356 0.390305 0.032369
O O5 0.387377 0.758984 0.470553
O O6 0.290582 0.743318 0.218355
O O7 0.519653 0.682220 0.255206
O O8 0.979799 0.666671 0.298790
O O9 0.872309 0.822522 0.290968
O O10 0.747093 0.682257 0.306655
O O11 0.345042 0.116076 0.875041
O O12 0.137997 0.163790 0.999969
O O13 0.332226 0.255703 0.041612
O O14 0.061728 0.868527 0.149763
O O15 0.122579 0.027608 0.146252
O O16 0.163931 0.917900 0.909763
O O17 0.000000 0.500000 0.237404
#
# Coordination Sequence:
#
# PCOD8156199 Si02
#       8
#     4   4   4   4   4   4   4   4
#     4  11  22  38  65  97 125 167 230 277 319 389
#     4  12  25  41  65  98 133 180 212 271 346 407
#     4  11  26  41  62  95 140 177 211 266 352 406
#     4  11  21  39  67  94 124 169 232 277 314 390
#     4  11  20  38  70  91 121 163 230 279 317 371
#     4  11  22  40  66  96 130 171 222 282 325 387
#     4  10  22  39  65  95 121 170 224 277 321 388
#     4  11  22  42  66  95 129 171 227 276 317 395
#
# _framework density 20.452072000000001
#
# number of rings (size 3 to 8) (size 9 to 14) (size 15 to 20)
#    0.000    1.000    5.000    3.000    3.500    0.500 
#    0.000    1.250    5.500    0.000    0.000    0.000 
#    0.000    0.000    0.000    0.000    0.000    0.000 
#
# Total GULP energy -396549.175331 kJ/mol
# GULP energy per Si atom -12392.161729 kJ/mol
# Density = 2.040552 g / cm^3
# Si number density = 20.452072 Si / 1000 Ang^3
#
#
#
# Elastic Constant Matrix: (Units=GPa)
#
#
# Indices 1 2 3 4 5 6 
#
# 1 100.3013 28.4967 23.0188 0.0000 0.0000 0.0000
# 2 28.4967 94.9371 39.7561 0.0000 0.0000 0.0000
# 3 23.0188 39.7561 105.7644 0.0000 0.0000 0.0000
# 4 0.0000 0.0000 0.0000 18.3090 0.0000 0.0000
# 5 0.0000 0.0000 0.0000 0.0000 21.1191 0.0000
# 6 0.0000 0.0000 0.0000 0.0000 0.0000 29.9221
#
#
#
# Elastic Compliance Matrix: (Units=1/GPa)
#
#
# Indices 1 2 3 4 5 6 
#
# 1 0.011066 -0.002745 -0.001377 0.000000 0.000000 0.000000
# 2 -0.002745 0.013182 -0.004358 0.000000 0.000000 0.000000
# 3 -0.001377 -0.004358 0.011393 0.000000 0.000000 0.000000
# 4 0.000000 0.000000 0.000000 0.054618 0.000000 0.000000
# 5 0.000000 0.000000 0.000000 0.000000 0.047350 0.000000
# 6 0.000000 0.000000 0.000000 0.000000 0.000000 0.033420
#
#
# Mechanical properties :
#
#
# Convention : Reuss Voigt Hill
#
# Bulk Modulus (GPa) = 53.52755 53.72732 53.62744
# Shear Modulus (GPa) = 25.74469 27.85212 26.79840
#
# Velocity S-wave (km/s) = 3.55178 3.69429 3.62374
# Velocity P-wave (km/s) = 6.56119 6.67263 6.61714
#
# Compressibility (1/GPa) = 0.01868197
#
# Stress axis : x y z
#
# Youngs Moduli (GPa) = 90.36868 75.86056 87.77663
#
# Poissons Ratio (x) = 0.20825 0.12083
# Poissons Ratio (y) = 0.24807 0.38250
# Poissons Ratio (z) = 0.12439 0.33057
#
# Static dielectric constant tensor:
#      x y z
#    x 3.989320 0.000000 0.000000 
#    y 0.000000 3.910350 0.000000 
#    z 0.000000 0.000000 3.362240 
# 
# 
# High freq. dielectric constant tensor:
#      x y z
#    x 1.819370 0.000000 0.000000 
#    y 0.000000 1.800190 0.000000 
#    z 0.000000 0.000000 1.760420 
# 
# From -- ./inp_files/3936.got.cif
#   From: 2010.03.12/outbox.cif.g09.slc.cpg/sg18_2_cif.got.tgz:3936.got - 2010.04.10 18:53:55.
