data_PCOD8156343
_publ_section_title
;
Structure prediction by ZEFSAII (Michael W. Deem and Ramdas Pophale) SiO2 
 PCOD8156343
Probable space group: P 21 21 2
;
_chemical_formula_sum "Si O2"
_cell_formula_units_Z 22
_cell_length_a 6.836431
_cell_length_b 14.176129
_cell_length_c 10.976096
_cell_angle_alpha 90.000000
_cell_angle_beta 90.000000
_cell_angle_gamma 90.000000
_cell_volume 1063.738770
_symmetry_space_group_name_H-M "P 21 21 2"
_symmetry_group_IT_number 18
_symmetry_cell_setting 'orthorhombic'
loop_
_space_group_symop_operation_xyz
x,y,z
-x,-y,z
1/2+x,1/2-y,-z
1/2-x,1/2+y,-z
loop_
_atom_site_type_symbol
_atom_site_label
_atom_site_fract_x
_atom_site_fract_y
_atom_site_fract_z
Si Si1 0.042953 0.728797 0.177192
Si Si2 0.385325 0.585031 0.707317
Si Si3 0.196906 0.554096 0.279673
Si Si4 0.500000 0.000000 0.205608
Si Si5 0.286890 0.860884 0.027357
Si Si6 0.000000 0.000000 0.523418
Si Si7 0.500000 0.500000 0.082926
O O1 0.915379 0.813646 0.233106
O O2 0.137728 0.665346 0.286415
O O3 0.220747 0.765538 0.094514
O O4 0.900866 0.663574 0.096390
O O5 0.500000 0.500000 0.778778
O O6 0.158589 0.552071 0.707881
O O7 0.477679 0.589673 0.569058
O O8 0.305829 0.506336 0.394505
O O9 0.329765 0.546622 0.161253
O O10 0.000000 0.500000 0.256892
O O11 0.420535 0.918563 0.119211
O O12 0.089413 0.917663 0.998937
#
# Coordination Sequence:
#
# PCOD8156343 Si02
#       7
#     4   4   4   2   4   2   2
#     4  12  23  41  65 105 133 171 234 265 330 403
#     4  10  23  47  64 100 130 173 227 282 327 401
#     4  11  23  45  67  96 131 173 219 285 329 396
#     4  12  22  42  70  92 146 182 218 266 342 394
#     4  12  22  38  66 101 139 185 212 270 329 407
#     4   9  24  47  70  88 130 173 218 281 352 370
#     4  11  22  43  64  96 146 175 222 257 342 404
#
# _framework density 20.681768999999999
#
# number of rings (size 3 to 8) (size 9 to 14) (size 15 to 20)
#    0.545    0.364    3.636    4.364    1.273    0.000 
#    3.273    0.000    0.000    0.000    0.000    0.000 
#    0.000    0.000    0.000    0.000    0.000    0.000 
#
# Total GULP energy -272582.930560 kJ/mol
# GULP energy per Si atom -12390.133207 kJ/mol
# Density = 2.063470 g / cm^3
# Si number density = 20.681769 Si / 1000 Ang^3
#
#
#
# Elastic Constant Matrix: (Units=GPa)
#
#
# Indices 1 2 3 4 5 6 
#
# 1 132.0142 60.5497 45.4449 0.0000 0.0000 0.0000
# 2 60.5497 120.5655 45.2823 0.0000 0.0000 0.0000
# 3 45.4449 45.2823 91.7609 0.0000 0.0000 0.0000
# 4 0.0000 0.0000 0.0000 28.7828 0.0000 0.0000
# 5 0.0000 0.0000 0.0000 0.0000 30.2177 0.0000
# 6 0.0000 0.0000 0.0000 0.0000 0.0000 44.3407
#
#
#
# Elastic Compliance Matrix: (Units=1/GPa)
#
#
# Indices 1 2 3 4 5 6 
#
# 1 0.010559 -0.004098 -0.003207 0.000000 0.000000 0.000000
# 2 -0.004098 0.011772 -0.003780 0.000000 0.000000 0.000000
# 3 -0.003207 -0.003780 0.014351 0.000000 0.000000 0.000000
# 4 0.000000 0.000000 0.000000 0.034743 0.000000 0.000000
# 5 0.000000 0.000000 0.000000 0.000000 0.033093 0.000000
# 6 0.000000 0.000000 0.000000 0.000000 0.000000 0.022553
#
#
# Mechanical properties :
#
#
# Convention : Reuss Voigt Hill
#
# Bulk Modulus (GPa) = 68.90579 71.87714 70.39147
# Shear Modulus (GPa) = 32.45125 33.53915 32.99520
#
# Velocity S-wave (km/s) = 3.96545 4.03137 3.99855
# Velocity P-wave (km/s) = 7.37265 7.51656 7.44495
#
# Compressibility (1/GPa) = 0.01451257
#
# Stress axis : x y z
#
# Youngs Moduli (GPa) = 94.70996 84.94745 69.68065
#
# Poissons Ratio (x) = 0.34814 0.22345
# Poissons Ratio (y) = 0.38815 0.26336
# Poissons Ratio (z) = 0.30371 0.32107
#
# Static dielectric constant tensor:
#      x y z
#    x 3.906800 0.000000 0.000000 
#    y 0.000000 3.847000 0.000000 
#    z 0.000000 0.000000 3.666390 
# 
# 
# High freq. dielectric constant tensor:
#      x y z
#    x 1.822960 0.000000 0.000000 
#    y 0.000000 1.806750 0.000000 
#    z 0.000000 0.000000 1.796770 
# 
# From -- ./inp_files/5116.got.cif
#   From: 2010.03.12/outbox.cif.g09.slc.cpg/sg18_3_cif.got.tgz:5116.got - 2010.04.10 18:53:55.
