data_PCOD8156680
_publ_section_title
;
Structure prediction by ZEFSAII (Michael W. Deem and Ramdas Pophale) SiO2 
 PCOD8156680
Probable space group: P 21 21 21
;
_chemical_formula_sum "Si O2"
_cell_formula_units_Z 28
_cell_length_a 12.800491
_cell_length_b 10.895602
_cell_length_c 6.876852
_cell_angle_alpha 90.000000
_cell_angle_beta 90.000000
_cell_angle_gamma 90.000000
_cell_volume 959.108052
_symmetry_space_group_name_H-M "P 21 21 21"
_symmetry_group_IT_number 19
_symmetry_cell_setting 'orthorhombic'
loop_
_space_group_symop_operation_xyz
x,y,z
1/2-x,-y,1/2+z
1/2+x,1/2-y,-z
-x,1/2+y,1/2-z
loop_
_atom_site_type_symbol
_atom_site_label
_atom_site_fract_x
_atom_site_fract_y
_atom_site_fract_z
Si Si1 0.300486 0.335146 0.022851
Si Si2 0.114117 0.938651 0.093565
Si Si3 0.754629 0.902280 0.081233
Si Si4 0.068283 0.445380 0.124870
Si Si5 0.508513 0.803027 0.011499
Si Si6 0.464342 0.812677 0.582329
Si Si7 0.802844 0.695562 0.783189
O O1 0.224212 0.457776 0.993886
O O2 0.412475 0.340512 0.922881
O O3 0.234142 0.219960 0.941006
O O4 0.317265 0.331110 0.256401
O O5 0.051463 0.951495 0.296900
O O6 0.073153 0.823304 0.965406
O O7 0.237423 0.920179 0.135389
O O8 0.099136 0.071619 0.985078
O O9 0.866573 0.931880 0.176286
O O10 0.766828 0.819286 0.892237
O O11 0.086340 0.575439 0.001483
O O12 0.070268 0.319515 0.992003
O O13 0.439669 0.800079 0.813669
O O14 0.428401 0.822404 0.192377
#
# Coordination Sequence:
#
# PCOD8156680 Si02
#       7
#     4   4   4   4   4   4   4
#     4  12  23  38  70 103 134 186 250 295 353 439
#     4  10  19  37  69  93 134 189 229 289 370 417
#     4  12  23  38  70 103 134 186 250 295 353 439
#     4  10  19  41  67  93 136 189 227 289 377 423
#     4  10  19  37  69  93 134 189 229 289 370 417
#     4  10  19  41  67  93 136 189 227 289 377 423
#     4  12  22  42  68 104 140 182 250 310 360 424
#
# _framework density 29.193791999999998
#
# number of rings (size 3 to 8) (size 9 to 14) (size 15 to 20)
#    0.000    1.143   10.000    0.000    0.000    0.000 
#    2.571    1.429    0.000    0.000    0.000    0.000 
#    0.000    0.000    0.000    0.000    0.000    0.000 
#
# Total GULP energy -347092.286672 kJ/mol
# GULP energy per Si atom -12396.153095 kJ/mol
# Density = 2.912735 g / cm^3
# Si number density = 29.193792 Si / 1000 Ang^3
#
#
#
# Elastic Constant Matrix: (Units=GPa)
#
#
# Indices 1 2 3 4 5 6 
#
# 1 102.9769 49.0367 2.0013 0.0000 0.0000 0.0000
# 2 49.0367 247.7580 20.3973 0.0000 0.0000 0.0000
# 3 2.0013 20.3973 88.4897 0.0000 0.0000 0.0000
# 4 0.0000 0.0000 0.0000 28.8475 0.0000 0.0000
# 5 0.0000 0.0000 0.0000 0.0000 45.1697 0.0000
# 6 0.0000 0.0000 0.0000 0.0000 0.0000 56.3408
#
#
#
# Elastic Compliance Matrix: (Units=1/GPa)
#
#
# Indices 1 2 3 4 5 6 
#
# 1 0.010727 -0.002144 0.000252 0.000000 0.000000 0.000000
# 2 -0.002144 0.004543 -0.000999 0.000000 0.000000 0.000000
# 3 0.000252 -0.000999 0.011525 0.000000 0.000000 0.000000
# 4 0.000000 0.000000 0.000000 0.034665 0.000000 0.000000
# 5 0.000000 0.000000 0.000000 0.000000 0.022139 0.000000
# 6 0.000000 0.000000 0.000000 0.000000 0.000000 0.017749
#
#
# Mechanical properties :
#
#
# Convention : Reuss Voigt Hill
#
# Bulk Modulus (GPa) = 47.58936 64.67726 56.13331
# Shear Modulus (GPa) = 43.80821 50.59090 47.19955
#
# Velocity S-wave (km/s) = 3.87796 4.16737 4.02527
# Velocity P-wave (km/s) = 6.03225 6.73487 6.39322
#
# Compressibility (1/GPa) = 0.02101310
#
# Stress axis : x y z
#
# Youngs Moduli (GPa) = 93.22375 220.13270 86.76599
#
# Poissons Ratio (x) = 0.47192 -0.02183
# Poissons Ratio (y) = 0.19985 0.08665
# Poissons Ratio (z) = -0.02345 0.21983
#
# Static dielectric constant tensor:
#      x y z
#    x 5.625820 0.000000 0.000000 
#    y 0.000000 6.364350 0.000000 
#    z 0.000000 0.000000 5.066540 
# 
# 
# High freq. dielectric constant tensor:
#      x y z
#    x 2.223720 0.000000 0.000000 
#    y 0.000000 2.208970 0.000000 
#    z 0.000000 0.000000 2.174460 
# 
# From -- ./inp_files/3888.got.cif
#   From: 2010.03.12/outbox.cif.g09.slc.cpg/sg19_2_cif.got.tgz:3888.got - 2010.04.10 18:59:41.
