data_PCOD8156951
_publ_section_title
;
Structure prediction by ZEFSAII (Michael W. Deem and Ramdas Pophale) SiO2 
 PCOD8156951
Probable space group: P 21 21 21
;
_chemical_formula_sum "Si O2"
_cell_formula_units_Z 32
_cell_length_a 13.938086
_cell_length_b 8.671833
_cell_length_c 13.946249
_cell_angle_alpha 90.000000
_cell_angle_beta 90.000000
_cell_angle_gamma 90.000000
_cell_volume 1685.665741
_symmetry_space_group_name_H-M "P 21 21 21"
_symmetry_group_IT_number 19
_symmetry_cell_setting 'orthorhombic'
loop_
_space_group_symop_operation_xyz
x,y,z
1/2-x,-y,1/2+z
1/2+x,1/2-y,-z
-x,1/2+y,1/2-z
loop_
_atom_site_type_symbol
_atom_site_label
_atom_site_fract_x
_atom_site_fract_y
_atom_site_fract_z
Si Si1 0.506909 0.178388 0.893923
Si Si2 0.143335 0.321338 0.763071
Si Si3 0.506908 0.821612 0.893922
Si Si4 0.643334 0.821338 0.236928
Si Si5 0.997905 0.321385 0.597210
Si Si6 0.653052 0.678025 0.758328
Si Si7 0.846948 0.678024 0.258329
Si Si8 0.002095 0.178616 0.902789
O O1 0.411018 0.215714 0.834453
O O2 0.595188 0.278806 0.854342
O O3 0.534717 0.000000 0.883923
O O4 0.486795 0.220379 0.003128
O O5 0.130813 0.500000 0.788859
O O6 0.253665 0.282806 0.747921
O O7 0.101746 0.222572 0.851252
O O8 0.086525 0.280012 0.666172
O O9 0.595188 0.721194 0.854341
O O10 0.411018 0.784287 0.834452
O O11 0.486793 0.779618 0.003128
O O12 0.601746 0.722572 0.148747
O O13 0.753665 0.782804 0.252079
O O14 0.586524 0.780010 0.333827
O O15 0.995497 0.500001 0.568966
O O16 0.683149 0.500001 0.763489
#
# Coordination Sequence:
#
# PCOD8156951 Si02
#       8
#     4   4   4   4   4   4   4   4
#     4  10  21  37  57  81 109 143 182 225 273 323
#     4  10  21  37  57  81 111 145 182 225 271 323
#     4  10  21  37  57  81 109 143 182 225 273 323
#     4  10  21  37  57  81 111 145 182 225 271 323
#     4  10  21  37  57  81 109 143 182 225 273 323
#     4  10  21  37  57  81 111 145 182 225 271 323
#     4  10  21  37  57  81 111 145 182 225 271 323
#     4  10  21  37  57  81 109 143 182 225 273 323
#
# _framework density 18.983597
#
# number of rings (size 3 to 8) (size 9 to 14) (size 15 to 20)
#    0.000    2.000    0.000    3.000    0.000    8.000 
#    0.000    5.000    0.000    0.000    0.000    0.000 
#    0.000    0.000    0.000    0.000    0.000    0.000 
#
# Total GULP energy -397008.718641 kJ/mol
# GULP energy per Si atom -12406.522458 kJ/mol
# Density = 1.894039 g / cm^3
# Si number density = 18.983597 Si / 1000 Ang^3
#
#
#
# Elastic Constant Matrix: (Units=GPa)
#
#
# Indices 1 2 3 4 5 6 
#
# 1 104.7451 26.4892 37.7583 0.0000 0.0000 0.0000
# 2 26.4892 45.0494 28.7203 0.0000 0.0000 0.0000
# 3 37.7583 28.7203 111.2565 0.0000 0.0000 0.0000
# 4 0.0000 0.0000 0.0000 33.9286 0.0000 0.0000
# 5 0.0000 0.0000 0.0000 0.0000 13.2179 0.0000
# 6 0.0000 0.0000 0.0000 0.0000 0.0000 34.5707
#
#
#
# Elastic Compliance Matrix: (Units=1/GPa)
#
#
# Indices 1 2 3 4 5 6 
#
# 1 0.011837 -0.005266 -0.002658 0.000000 0.000000 0.000000
# 2 -0.005266 0.028913 -0.005677 0.000000 0.000000 0.000000
# 3 -0.002658 -0.005677 0.011356 0.000000 0.000000 0.000000
# 4 0.000000 0.000000 0.000000 0.029474 0.000000 0.000000
# 5 0.000000 0.000000 0.000000 0.000000 0.075655 0.000000
# 6 0.000000 0.000000 0.000000 0.000000 0.000000 0.028926
#
#
# Mechanical properties :
#
#
# Convention : Reuss Voigt Hill
#
# Bulk Modulus (GPa) = 40.15233 49.66516 44.90875
# Shear Modulus (GPa) = 22.55680 27.54897 25.05288
#
# Velocity S-wave (km/s) = 3.45080 3.81359 3.63673
# Velocity P-wave (km/s) = 6.08887 6.75354 6.42980
#
# Compressibility (1/GPa) = 0.02490515
#
# Stress axis : x y z
#
# Youngs Moduli (GPa) = 84.48296 34.58644 88.06160
#
# Poissons Ratio (x) = 0.18212 0.23406
# Poissons Ratio (y) = 0.44485 0.49990
# Poissons Ratio (z) = 0.22454 0.19634
#
# Static dielectric constant tensor:
#      x y z
#    x 3.372490 0.000000 0.000000 
#    y 0.000000 3.525110 0.000000 
#    z 0.000000 0.000000 3.426770 
# 
# 
# High freq. dielectric constant tensor:
#      x y z
#    x 1.735590 0.000000 0.000000 
#    y 0.000000 1.752680 0.000000 
#    z 0.000000 0.000000 1.737830 
# 
# From -- ./inp_files/6275.got.cif
#   From: 2010.03.12/outbox.cif.g09.slc.cpg/sg19_4_cif.got.tgz:6275.got - 2010.04.10 18:59:41.
