data_PCOD8156166
_publ_section_title
;
Structure prediction by ZEFSAII (Michael W. Deem and Ramdas Pophale) SiO2 
 PCOD8156166
Probable space group: P 21 21 2
;
_chemical_formula_sum "Si O2"
_cell_formula_units_Z 30
_cell_length_a 27.603102
_cell_length_b 8.505657
_cell_length_c 7.048658
_cell_angle_alpha 90.000000
_cell_angle_beta 90.000000
_cell_angle_gamma 90.000000
_cell_volume 1654.901672
_symmetry_space_group_name_H-M "P 21 21 2"
_symmetry_group_IT_number 18
_symmetry_cell_setting 'orthorhombic'
loop_
_space_group_symop_operation_xyz
x,y,z
-x,-y,z
1/2+x,1/2-y,-z
1/2-x,1/2+y,-z
loop_
_atom_site_type_symbol
_atom_site_label
_atom_site_fract_x
_atom_site_fract_y
_atom_site_fract_z
Si Si1 0.000000 0.000000 0.500154
Si Si2 0.721593 0.357146 0.083160
Si Si3 0.131444 0.942309 0.957559
Si Si4 0.161023 0.723107 0.641215
Si Si5 0.089182 0.142138 0.649574
Si Si6 0.903694 0.114971 0.369385
Si Si7 0.240458 0.357118 0.270301
Si Si8 0.829287 0.637124 0.611604
O O1 0.968998 0.870891 0.621309
O O2 0.962707 0.110803 0.382869
O O3 0.761944 0.462804 0.192282
O O4 0.698786 0.236941 0.231703
O O5 0.684015 0.485829 0.003512
O O6 0.742336 0.265286 0.903734
O O7 0.107370 0.891050 0.150610
O O8 0.099109 0.077488 0.859988
O O9 0.133769 0.786641 0.828260
O O10 0.174749 0.542766 0.671250
O O11 0.123982 0.735697 0.461948
O O12 0.210268 0.825042 0.609492
O O13 0.116547 0.032281 0.492780
O O14 0.113633 0.312425 0.615556
O O15 0.194020 0.333002 0.404613
#
# Coordination Sequence:
#
# PCOD8156166 Si02
#       8
#     2   4   4   4   4   4   4   4
#     4   8  18  36  62  86 104 136 194 234 274 342
#     4  10  22  34  51  82 108 148 193 223 273 332
#     4   9  18  35  57  78 114 140 181 236 274 331
#     4  10  22  34  52  83 111 147 184 226 277 333
#     4   8  18  35  56  86 104 139 187 228 277 331
#     4   9  18  36  56  82 103 142 183 225 278 324
#     4  11  22  36  55  78 115 151 188 236 273 333
#     4  11  21  36  55  80 114 151 183 227 284 329
#
# _framework density 18.127963999999999
#
# number of rings (size 3 to 8) (size 9 to 14) (size 15 to 20)
#    0.800    1.600    0.000    3.200    0.000    6.933 
#    0.000    0.667    0.000    0.000    3.467    0.000 
#    0.000    0.000    0.000    0.000    0.000    0.000 
#
# Total GULP energy -371691.456887 kJ/mol
# GULP energy per Si atom -12389.715230 kJ/mol
# Density = 1.808670 g / cm^3
# Si number density = 18.127964 Si / 1000 Ang^3
#
#
#
# Elastic Constant Matrix: (Units=GPa)
#
#
# Indices 1 2 3 4 5 6 
#
# 1 96.0914 29.3560 48.2748 0.0000 0.0000 0.0000
# 2 29.3560 90.0208 32.9300 0.0000 0.0000 0.0000
# 3 48.2748 32.9300 106.6632 0.0000 0.0000 0.0000
# 4 0.0000 0.0000 0.0000 20.3657 0.0000 0.0000
# 5 0.0000 0.0000 0.0000 0.0000 23.0856 0.0000
# 6 0.0000 0.0000 0.0000 0.0000 0.0000 25.3625
#
#
#
# Elastic Compliance Matrix: (Units=1/GPa)
#
#
# Indices 1 2 3 4 5 6 
#
# 1 0.013961 -0.002527 -0.005539 0.000000 0.000000 0.000000
# 2 -0.002527 0.012980 -0.002864 0.000000 0.000000 0.000000
# 3 -0.005539 -0.002864 0.012766 0.000000 0.000000 0.000000
# 4 0.000000 0.000000 0.000000 0.049102 0.000000 0.000000
# 5 0.000000 0.000000 0.000000 0.000000 0.043317 0.000000
# 6 0.000000 0.000000 0.000000 0.000000 0.000000 0.039428
#
#
# Mechanical properties :
#
#
# Convention : Reuss Voigt Hill
#
# Bulk Modulus (GPa) = 56.02487 57.09967 56.56227
# Shear Modulus (GPa) = 25.07989 25.91040 25.49514
#
# Velocity S-wave (km/s) = 3.72357 3.78472 3.75427
# Velocity P-wave (km/s) = 7.03270 7.11795 7.07546
#
# Compressibility (1/GPa) = 0.01784922
#
# Stress axis : x y z
#
# Youngs Moduli (GPa) = 71.62702 77.04106 78.33208
#
# Poissons Ratio (x) = 0.19466 0.43385
# Poissons Ratio (y) = 0.18098 0.22432
# Poissons Ratio (z) = 0.39672 0.22063
#
# Static dielectric constant tensor:
#      x y z
#    x 3.279830 0.000000 0.000000 
#    y 0.000000 3.255400 0.000000 
#    z 0.000000 0.000000 3.206500 
# 
# 
# High freq. dielectric constant tensor:
#      x y z
#    x 1.686810 0.000000 0.000000 
#    y 0.000000 1.687160 0.000000 
#    z 0.000000 0.000000 1.699900 
# 
# From -- ./inp_files/2282.got.cif
#   From: 2010.03.12/outbox.cif.g09.slc.cpg/sg18_2_cif.got.tgz:2282.got - 2010.04.10 18:53:55.
