data_PCOD8156718
_publ_section_title
;
Structure prediction by ZEFSAII (Michael W. Deem and Ramdas Pophale) SiO2 
 PCOD8156718
Probable space group: P 21 21 21
;
_chemical_formula_sum "Si O2"
_cell_formula_units_Z 24
_cell_length_a 8.963035
_cell_length_b 14.802156
_cell_length_c 8.355737
_cell_angle_alpha 90.000000
_cell_angle_beta 90.000000
_cell_angle_gamma 90.000000
_cell_volume 1108.574364
_symmetry_space_group_name_H-M "P 21 21 21"
_symmetry_group_IT_number 19
_symmetry_cell_setting 'orthorhombic'
loop_
_space_group_symop_operation_xyz
x,y,z
1/2-x,-y,1/2+z
1/2+x,1/2-y,-z
-x,1/2+y,1/2-z
loop_
_atom_site_type_symbol
_atom_site_label
_atom_site_fract_x
_atom_site_fract_y
_atom_site_fract_z
Si Si1 0.933953 0.182105 0.914530
Si Si2 0.931599 0.922645 0.222565
Si Si3 0.046256 0.023954 0.697746
Si Si4 0.173423 0.044085 0.349309
Si Si5 0.647962 0.270444 0.817991
Si Si6 0.235498 0.462646 0.965567
O O1 0.826712 0.258422 0.837086
O O2 0.994150 0.118482 0.773047
O O3 0.830537 0.129626 0.044548
O O4 0.073266 0.225390 0.006332
O O5 0.928715 0.814313 0.228215
O O6 0.829449 0.971013 0.356864
O O7 0.853271 0.955031 0.058272
O O8 0.096872 0.961974 0.249485
O O9 0.139491 0.041731 0.536435
O O10 0.149657 0.969568 0.823082
O O11 0.901194 0.963185 0.659980
O O12 0.116833 0.139724 0.281933
#
# Coordination Sequence:
#
# PCOD8156718 Si02
#       6
#     4   4   4   4   4   4
#     4  11  24  42  68  99 137 182 232 280 340 412
#     4  10  22  41  67  97 132 179 228 274 342 397
#     4  11  24  45  67 100 135 182 230 283 352 404
#     4  11  25  43  70  99 144 179 228 289 340 407
#     4  11  24  43  68 103 138 185 233 280 341 412
#     4  10  19  42  66  92 130 177 221 280 331 406
#
# _framework density 21.649428
#
# number of rings (size 3 to 8) (size 9 to 14) (size 15 to 20)
#    0.000    1.333    5.000    1.000    9.333    0.000 
#    3.000    3.333    0.000    0.000    0.000    0.000 
#    0.000    0.000    0.000    0.000    0.000    0.000 
#
# Total GULP energy -297523.044117 kJ/mol
# GULP energy per Si atom -12396.793505 kJ/mol
# Density = 2.160015 g / cm^3
# Si number density = 21.649428 Si / 1000 Ang^3
#
#
#
# Elastic Constant Matrix: (Units=GPa)
#
#
# Indices 1 2 3 4 5 6 
#
# 1 105.8993 28.5135 31.4660 0.0000 0.0000 0.0000
# 2 28.5135 83.4674 19.6843 0.0000 0.0000 0.0000
# 3 31.4660 19.6843 44.2020 0.0000 0.0000 0.0000
# 4 0.0000 0.0000 0.0000 35.2903 0.0000 0.0000
# 5 0.0000 0.0000 0.0000 0.0000 43.7683 0.0000
# 6 0.0000 0.0000 0.0000 0.0000 0.0000 43.0908
#
#
#
# Elastic Compliance Matrix: (Units=1/GPa)
#
#
# Indices 1 2 3 4 5 6 
#
# 1 0.012394 -0.002406 -0.007751 0.000000 0.000000 0.000000
# 2 -0.002406 0.013854 -0.004457 0.000000 0.000000 0.000000
# 3 -0.007751 -0.004457 0.030126 0.000000 0.000000 0.000000
# 4 0.000000 0.000000 0.000000 0.028336 0.000000 0.000000
# 5 0.000000 0.000000 0.000000 0.000000 0.022848 0.000000
# 6 0.000000 0.000000 0.000000 0.000000 0.000000 0.023207
#
#
# Mechanical properties :
#
#
# Convention : Reuss Voigt Hill
#
# Bulk Modulus (GPa) = 36.83840 43.65514 40.24677
# Shear Modulus (GPa) = 29.57861 34.69020 32.13440
#
# Velocity S-wave (km/s) = 3.70030 4.00729 3.85685
# Velocity P-wave (km/s) = 5.94214 6.45132 6.20196
#
# Compressibility (1/GPa) = 0.02714559
#
# Stress axis : x y z
#
# Youngs Moduli (GPa) = 80.68471 72.18323 33.19383
#
# Poissons Ratio (x) = 0.17366 0.25730
# Poissons Ratio (y) = 0.19412 0.14794
# Poissons Ratio (z) = 0.62542 0.32170
#
# Static dielectric constant tensor:
#      x y z
#    x 4.377890 0.000000 0.000000 
#    y 0.000000 3.732730 0.000000 
#    z 0.000000 0.000000 3.832820 
# 
# 
# High freq. dielectric constant tensor:
#      x y z
#    x 1.871250 0.000000 0.000000 
#    y 0.000000 1.833320 0.000000 
#    z 0.000000 0.000000 1.838180 
# 
# From -- ./inp_files/2832.got.cif
#   From: 2010.03.12/outbox.cif.g09.slc.cpg/sg19_2_cif.got.tgz:2832.got - 2010.04.10 18:59:41.
