data_PCOD8156605
_publ_section_title
;
Structure prediction by ZEFSAII (Michael W. Deem and Ramdas Pophale) SiO2 
 PCOD8156605
Probable space group: P 21 21 21
;
_chemical_formula_sum "Si O2"
_cell_formula_units_Z 28
_cell_length_a 9.156782
_cell_length_b 10.467064
_cell_length_c 12.605399
_cell_angle_alpha 90.000000
_cell_angle_beta 90.000000
_cell_angle_gamma 90.000000
_cell_volume 1208.159718
_symmetry_space_group_name_H-M "P 21 21 21"
_symmetry_group_IT_number 19
_symmetry_cell_setting 'orthorhombic'
loop_
_space_group_symop_operation_xyz
x,y,z
1/2-x,-y,1/2+z
1/2+x,1/2-y,-z
-x,1/2+y,1/2-z
loop_
_atom_site_type_symbol
_atom_site_label
_atom_site_fract_x
_atom_site_fract_y
_atom_site_fract_z
Si Si1 0.130057 0.282944 0.073002
Si Si2 0.414597 0.934468 0.415171
Si Si3 0.854480 0.334156 0.202398
Si Si4 0.936939 0.323869 0.435956
Si Si5 0.316754 0.595996 0.365754
Si Si6 0.092201 0.755880 0.699245
Si Si7 0.765668 0.188019 0.598385
O O1 0.265801 0.217359 0.129781
O O2 0.016951 0.345022 0.155393
O O3 0.054772 0.174069 0.002893
O O4 0.187929 0.391672 0.993436
O O5 0.251836 0.929027 0.363793
O O6 0.527329 0.888208 0.322684
O O7 0.445218 0.066737 0.473806
O O8 0.860240 0.371699 0.327121
O O9 0.799917 0.188119 0.191435
O O10 0.842755 0.206464 0.484109
O O11 0.097542 0.270220 0.411115
O O12 0.477076 0.630860 0.321502
O O13 0.272157 0.450920 0.347126
O O14 0.143043 0.775758 0.820306
#
# Coordination Sequence:
#
# PCOD8156605 Si02
#       7
#     4   4   4   4   4   4   4
#     4  10  18  42  69 101 129 185 248 285 343 435
#     4  10  23  43  71  98 144 190 236 295 361 440
#     4  10  22  45  71 103 145 187 244 300 356 432
#     4  12  28  47  68 113 147 185 248 307 372 424
#     4  10  23  44  70  98 139 195 237 286 363 435
#     4  10  22  42  71  98 134 192 239 283 363 427
#     4  12  28  45  70 103 150 188 234 312 360 441
#
# _framework density 23.175744999999999
#
# number of rings (size 3 to 8) (size 9 to 14) (size 15 to 20)
#    0.000    1.714    1.429    5.143    6.000    4.571 
#    5.143    0.000    0.000    0.000    0.000    0.000 
#    0.000    0.000    0.000    0.000    0.000    0.000 
#
# Total GULP energy -347087.681809 kJ/mol
# GULP energy per Si atom -12395.988636 kJ/mol
# Density = 2.312300 g / cm^3
# Si number density = 23.175745 Si / 1000 Ang^3
#
#
#
# Elastic Constant Matrix: (Units=GPa)
#
#
# Indices 1 2 3 4 5 6 
#
# 1 111.9515 -3.4314 39.4937 0.0000 0.0000 0.0000
# 2 -3.4314 37.0263 9.7388 0.0000 0.0000 0.0000
# 3 39.4937 9.7388 123.4356 0.0000 0.0000 0.0000
# 4 0.0000 0.0000 0.0000 21.6208 0.0000 0.0000
# 5 0.0000 0.0000 0.0000 0.0000 45.4283 0.0000
# 6 0.0000 0.0000 0.0000 0.0000 0.0000 21.0416
#
#
#
# Elastic Compliance Matrix: (Units=1/GPa)
#
#
# Indices 1 2 3 4 5 6 
#
# 1 0.010190 0.001840 -0.003406 0.000000 0.000000 0.000000
# 2 0.001840 0.027912 -0.002791 0.000000 0.000000 0.000000
# 3 -0.003406 -0.002791 0.009411 0.000000 0.000000 0.000000
# 4 0.000000 0.000000 0.000000 0.046252 0.000000 0.000000
# 5 0.000000 0.000000 0.000000 0.000000 0.022013 0.000000
# 6 0.000000 0.000000 0.000000 0.000000 0.000000 0.047525
#
#
# Mechanical properties :
#
#
# Convention : Reuss Voigt Hill
#
# Bulk Modulus (GPa) = 25.77251 40.44618 33.10934
# Shear Modulus (GPa) = 27.03437 32.72563 29.88000
#
# Velocity S-wave (km/s) = 3.41910 3.76182 3.59455
# Velocity P-wave (km/s) = 5.17026 6.02978 5.61649
#
# Compressibility (1/GPa) = 0.03880103
#
# Stress axis : x y z
#
# Youngs Moduli (GPa) = 98.13304 35.82628 106.25610
#
# Poissons Ratio (x) = -0.06592 0.36186
# Poissons Ratio (y) = -0.18058 0.29656
# Poissons Ratio (z) = 0.33420 0.09999
#
# Static dielectric constant tensor:
#      x y z
#    x 4.192540 0.000000 0.000000 
#    y 0.000000 3.826110 0.000000 
#    z 0.000000 0.000000 4.448490 
# 
# 
# High freq. dielectric constant tensor:
#      x y z
#    x 1.924420 0.000000 0.000000 
#    y 0.000000 1.882940 0.000000 
#    z 0.000000 0.000000 1.930800 
# 
# From -- ./inp_files/4598.got.cif
#   From: 2010.03.12/outbox.cif.g09.slc.cpg/sg19_3_cif.got.tgz:4598.got - 2010.04.10 18:59:41.
