data_PCOD8156738
_publ_section_title
;
Structure prediction by ZEFSAII (Michael W. Deem and Ramdas Pophale) SiO2 
 PCOD8156738
Probable space group: P 21 21 21
;
_chemical_formula_sum "Si O2"
_cell_formula_units_Z 32
_cell_length_a 12.075704
_cell_length_b 6.551745
_cell_length_c 19.343343
_cell_angle_alpha 90.000000
_cell_angle_beta 90.000000
_cell_angle_gamma 90.000000
_cell_volume 1530.385978
_symmetry_space_group_name_H-M "P 21 21 21"
_symmetry_group_IT_number 19
_symmetry_cell_setting 'orthorhombic'
loop_
_space_group_symop_operation_xyz
x,y,z
1/2-x,-y,1/2+z
1/2+x,1/2-y,-z
-x,1/2+y,1/2-z
loop_
_atom_site_type_symbol
_atom_site_label
_atom_site_fract_x
_atom_site_fract_y
_atom_site_fract_z
Si Si1 0.736956 0.410431 0.632003
Si Si2 0.412868 0.063125 0.489479
Si Si3 0.726917 0.842702 0.264417
Si Si4 0.172238 0.260977 0.096938
Si Si5 0.547308 0.584881 0.315260
Si Si6 0.827424 0.748328 0.727796
Si Si7 0.593768 0.750752 0.453136
Si Si8 0.017173 0.050249 0.439019
O O1 0.813313 0.386612 0.563701
O O2 0.757422 0.232877 0.686673
O O3 0.760544 0.628068 0.668820
O O4 0.607638 0.373434 0.615676
O O5 0.472948 0.269685 0.512470
O O6 0.370394 0.942903 0.557992
O O7 0.504021 0.931593 0.448280
O O8 0.802836 0.722043 0.321329
O O9 0.599442 0.796105 0.285727
O O10 0.751484 0.087613 0.267199
O O11 0.282892 0.339895 0.057450
O O12 0.087782 0.447819 0.096819
O O13 0.610731 0.395701 0.281561
O O14 0.416043 0.595667 0.305853
O O15 0.568990 0.575911 0.396737
O O16 0.585369 0.630399 0.524122
#
# Coordination Sequence:
#
# PCOD8156738 Si02
#       8
#     4   4   4   4   4   4   4   4
#     4  11  25  45  64 104 131 181 232 271 345 402
#     4  11  24  42  71  97 136 172 222 288 332 408
#     4  10  24  40  65  96 135 181 224 280 330 404
#     4  10  24  46  64  98 135 173 228 280 336 399
#     4  10  20  34  60 100 133 163 213 263 339 388
#     4  11  21  38  66  93 140 171 215 278 327 396
#     4  10  22  40  66  98 132 166 210 280 336 399
#     4  11  26  43  68  96 130 183 224 272 341 406
#
# _framework density 20.909758
#
# number of rings (size 3 to 8) (size 9 to 14) (size 15 to 20)
#    0.000    1.500    3.750    0.000    3.500    7.000 
#    4.500    0.000    0.000    0.000    0.000    0.000 
#    0.000    0.000    0.000    0.000    0.000    0.000 
#
# Total GULP energy -396572.009200 kJ/mol
# GULP energy per Si atom -12392.875287 kJ/mol
# Density = 2.086217 g / cm^3
# Si number density = 20.909758 Si / 1000 Ang^3
#
#
#
# Elastic Constant Matrix: (Units=GPa)
#
#
# Indices 1 2 3 4 5 6 
#
# 1 117.3546 32.9709 37.2393 0.0000 0.0000 0.0000
# 2 32.9709 101.6131 37.3964 0.0000 0.0000 0.0000
# 3 37.2393 37.3964 90.5958 0.0000 0.0000 0.0000
# 4 0.0000 0.0000 0.0000 24.9477 0.0000 0.0000
# 5 0.0000 0.0000 0.0000 0.0000 26.1974 0.0000
# 6 0.0000 0.0000 0.0000 0.0000 0.0000 21.1315
#
#
#
# Elastic Compliance Matrix: (Units=1/GPa)
#
#
# Indices 1 2 3 4 5 6 
#
# 1 0.010157 -0.002074 -0.003319 0.000000 0.000000 0.000000
# 2 -0.002074 0.012028 -0.004112 0.000000 0.000000 0.000000
# 3 -0.003319 -0.004112 0.014100 0.000000 0.000000 0.000000
# 4 0.000000 0.000000 0.000000 0.040084 0.000000 0.000000
# 5 0.000000 0.000000 0.000000 0.000000 0.038172 0.000000
# 6 0.000000 0.000000 0.000000 0.000000 0.000000 0.047323
#
#
# Mechanical properties :
#
#
# Convention : Reuss Voigt Hill
#
# Bulk Modulus (GPa) = 57.89097 58.30850 58.09973
# Shear Modulus (GPa) = 26.79079 27.91912 27.35495
#
# Velocity S-wave (km/s) = 3.58335 3.65803 3.62088
# Velocity P-wave (km/s) = 6.69826 6.76668 6.73256
#
# Compressibility (1/GPa) = 0.01727385
#
# Stress axis : x y z
#
# Youngs Moduli (GPa) = 98.45329 83.14136 70.92357
#
# Poissons Ratio (x) = 0.17246 0.23538
# Poissons Ratio (y) = 0.20422 0.29165
# Poissons Ratio (z) = 0.32675 0.34189
#
# Static dielectric constant tensor:
#      x y z
#    x 3.878800 0.000000 0.000000 
#    y 0.000000 3.638440 0.000000 
#    z 0.000000 0.000000 3.760340 
# 
# 
# High freq. dielectric constant tensor:
#      x y z
#    x 1.816670 0.000000 0.000000 
#    y 0.000000 1.812810 0.000000 
#    z 0.000000 0.000000 1.820020 
# 
# From -- ./inp_files/1244.got.cif
#   From: 2010.03.12/outbox.cif.g09.slc.cpg/sg19_1_cif.got.tgz:1244.got - 2010.04.10 18:59:41.
