data_PCOD8156592
_publ_section_title
;
Structure prediction by ZEFSAII (Michael W. Deem and Ramdas Pophale) SiO2 
 PCOD8156592
Probable space group: P 21 21 21
;
_chemical_formula_sum "Si O2"
_cell_formula_units_Z 28
_cell_length_a 11.577542
_cell_length_b 8.516235
_cell_length_c 14.053916
_cell_angle_alpha 90.000000
_cell_angle_beta 90.000000
_cell_angle_gamma 90.000000
_cell_volume 1385.674917
_symmetry_space_group_name_H-M "P 21 21 21"
_symmetry_group_IT_number 19
_symmetry_cell_setting 'orthorhombic'
loop_
_space_group_symop_operation_xyz
x,y,z
1/2-x,-y,1/2+z
1/2+x,1/2-y,-z
-x,1/2+y,1/2-z
loop_
_atom_site_type_symbol
_atom_site_label
_atom_site_fract_x
_atom_site_fract_y
_atom_site_fract_z
Si Si1 0.415661 0.161595 0.552748
Si Si2 0.645161 0.929929 0.082725
Si Si3 0.275391 0.402439 0.212376
Si Si4 0.350798 0.870632 0.642305
Si Si5 0.467549 0.431981 0.696224
Si Si6 0.870998 0.048444 0.986626
Si Si7 0.501017 0.650391 0.533445
O O1 0.360542 0.258985 0.466568
O O2 0.450789 0.268784 0.641503
O O3 0.319465 0.036965 0.592608
O O4 0.524697 0.064080 0.515178
O O5 0.642930 0.916365 0.196178
O O6 0.762889 0.011335 0.051967
O O7 0.534409 0.032747 0.051725
O O8 0.253282 0.213924 0.198333
O O9 0.154723 0.493267 0.226299
O O10 0.342681 0.479539 0.124142
O O11 0.462190 0.900466 0.708670
O O12 0.385995 0.747952 0.559877
O O13 0.538087 0.549425 0.626357
O O14 0.897763 0.233543 0.001254
#
# Coordination Sequence:
#
# PCOD8156592 Si02
#       7
#     4   4   4   4   4   4   4
#     4  10  21  37  62  89 126 158 199 268 300 362
#     4  11  22  42  60  91 127 159 210 256 307 364
#     4  11  22  38  63  85 124 167 196 250 311 372
#     4  10  18  36  59  91 117 153 213 254 299 347
#     4  10  18  38  62  95 114 152 216 259 300 341
#     4  11  21  42  62  85 127 168 200 251 310 360
#     4   9  20  37  60  86 123 163 194 254 305 362
#
# _framework density 20.206761
#
# number of rings (size 3 to 8) (size 9 to 14) (size 15 to 20)
#    0.000    1.714    4.286    4.286    0.000    1.143 
#    7.714    2.857    0.000    0.000    0.000    0.000 
#    0.000    0.000    0.000    0.000    0.000    0.000 
#
# Total GULP energy -347119.590645 kJ/mol
# GULP energy per Si atom -12397.128237 kJ/mol
# Density = 2.016077 g / cm^3
# Si number density = 20.206761 Si / 1000 Ang^3
#
#
#
# Elastic Constant Matrix: (Units=GPa)
#
#
# Indices 1 2 3 4 5 6 
#
# 1 40.4690 18.7439 5.6555 0.0000 0.0000 0.0000
# 2 18.7439 119.2583 24.1585 0.0000 0.0000 0.0000
# 3 5.6555 24.1585 91.6025 0.0000 0.0000 0.0000
# 4 0.0000 0.0000 0.0000 28.4112 0.0000 0.0000
# 5 0.0000 0.0000 0.0000 0.0000 29.6905 0.0000
# 6 0.0000 0.0000 0.0000 0.0000 0.0000 32.2725
#
#
#
# Elastic Compliance Matrix: (Units=1/GPa)
#
#
# Indices 1 2 3 4 5 6 
#
# 1 0.026679 -0.004077 -0.000572 0.000000 0.000000 0.000000
# 2 -0.004077 0.009482 -0.002249 0.000000 0.000000 0.000000
# 3 -0.000572 -0.002249 0.011545 0.000000 0.000000 0.000000
# 4 0.000000 0.000000 0.000000 0.035197 0.000000 0.000000
# 5 0.000000 0.000000 0.000000 0.000000 0.033681 0.000000
# 6 0.000000 0.000000 0.000000 0.000000 0.000000 0.030986
#
#
# Mechanical properties :
#
#
# Convention : Reuss Voigt Hill
#
# Bulk Modulus (GPa) = 29.49030 38.71617 34.10324
# Shear Modulus (GPa) = 28.95720 31.59298 30.27509
#
# Velocity S-wave (km/s) = 3.78967 3.95838 3.87494
# Velocity P-wave (km/s) = 5.81160 6.33193 6.07734
#
# Compressibility (1/GPa) = 0.03390946
#
# Stress axis : x y z
#
# Youngs Moduli (GPa) = 37.48316 105.46808 86.61660
#
# Poissons Ratio (x) = 0.43002 0.04953
# Poissons Ratio (y) = 0.15283 0.19479
# Poissons Ratio (z) = 0.02143 0.23718
#
# Static dielectric constant tensor:
#      x y z
#    x 3.318010 0.000000 0.000000 
#    y 0.000000 4.139750 0.000000 
#    z 0.000000 0.000000 3.737150 
# 
# 
# High freq. dielectric constant tensor:
#      x y z
#    x 1.749220 0.000000 0.000000 
#    y 0.000000 1.807330 0.000000 
#    z 0.000000 0.000000 1.794730 
# 
# From -- ./inp_files/3871.got.cif
#   From: 2010.03.12/outbox.cif.g09.slc.cpg/sg19_2_cif.got.tgz:3871.got - 2010.04.10 18:59:41.
