data_PCOD8156304
_publ_section_title
;
Structure prediction by ZEFSAII (Michael W. Deem and Ramdas Pophale) SiO2 
 PCOD8156304
Probable space group: P 21 21 2
;
_chemical_formula_sum "Si O2"
_cell_formula_units_Z 20
_cell_length_a 7.735709
_cell_length_b 8.083873
_cell_length_c 13.419402
_cell_angle_alpha 90.000000
_cell_angle_beta 90.000000
_cell_angle_gamma 90.000000
_cell_volume 839.175448
_symmetry_space_group_name_H-M "P 21 21 2"
_symmetry_group_IT_number 18
_symmetry_cell_setting 'orthorhombic'
loop_
_space_group_symop_operation_xyz
x,y,z
-x,-y,z
1/2+x,1/2-y,-z
1/2-x,1/2+y,-z
loop_
_atom_site_type_symbol
_atom_site_label
_atom_site_fract_x
_atom_site_fract_y
_atom_site_fract_z
Si Si1 0.000000 0.000000 0.489842
Si Si2 0.236199 0.246896 0.607421
Si Si3 0.164269 0.724228 0.842693
Si Si4 0.887936 0.838832 0.978946
Si Si5 0.691777 0.944717 0.801398
Si Si6 0.000000 0.500000 0.691654
O O1 0.162540 0.087231 0.547054
O O2 0.907048 0.153613 0.431335
O O3 0.270093 0.193914 0.720586
O O4 0.077579 0.371431 0.614523
O O5 0.998184 0.706672 0.915397
O O6 0.150705 0.581634 0.760078
O O7 0.174057 0.901460 0.787099
O O8 0.336780 0.718969 0.910631
O O9 0.716053 0.872600 0.913084
O O10 0.000000 0.000000 0.994975
O O11 0.500000 0.000000 0.782785
#
# Coordination Sequence:
#
# PCOD8156304 Si02
#       6
#     2   4   4   4   4   2
#     4  12  30  52  84 108 148 184 244 312 388 458
#     4  12  28  51  79 110 144 187 242 304 383 445
#     4  11  24  41  67 103 149 196 245 295 345 422
#     4  10  23  41  65 102 146 199 246 289 348 413
#     4  11  25  43  72 100 144 187 242 294 359 431
#     4  12  26  44  74 104 152 188 242 298 362 434
#
# _framework density 23.832916000000001
#
# number of rings (size 3 to 8) (size 9 to 14) (size 15 to 20)
#    0.000    0.800    2.000    3.600   14.000    1.600 
#    0.000    0.000    0.000    0.000    0.000    0.000 
#    0.000    0.000    0.000    0.000    0.000    0.000 
#
# Total GULP energy -247833.377297 kJ/mol
# GULP energy per Si atom -12391.668865 kJ/mol
# Density = 2.377867 g / cm^3
# Si number density = 23.832916 Si / 1000 Ang^3
#
#
#
# Elastic Constant Matrix: (Units=GPa)
#
#
# Indices 1 2 3 4 5 6 
#
# 1 80.3752 15.6279 10.3123 0.0000 0.0000 0.0000
# 2 15.6279 87.9298 31.1239 0.0000 0.0000 0.0000
# 3 10.3123 31.1239 66.3234 0.0000 0.0000 0.0000
# 4 0.0000 0.0000 0.0000 37.6894 0.0000 0.0000
# 5 0.0000 0.0000 0.0000 0.0000 30.4605 0.0000
# 6 0.0000 0.0000 0.0000 0.0000 0.0000 48.3468
#
#
#
# Elastic Compliance Matrix: (Units=1/GPa)
#
#
# Indices 1 2 3 4 5 6 
#
# 1 0.012956 -0.001906 -0.001120 0.000000 0.000000 0.000000
# 2 -0.001906 0.013919 -0.006235 0.000000 0.000000 0.000000
# 3 -0.001120 -0.006235 0.018178 0.000000 0.000000 0.000000
# 4 0.000000 0.000000 0.000000 0.026533 0.000000 0.000000
# 5 0.000000 0.000000 0.000000 0.000000 0.032829 0.000000
# 6 0.000000 0.000000 0.000000 0.000000 0.000000 0.020684
#
#
# Mechanical properties :
#
#
# Convention : Reuss Voigt Hill
#
# Bulk Modulus (GPa) = 37.69386 38.75075 38.22231
# Shear Modulus (GPa) = 32.79455 35.13695 33.96575
#
# Velocity S-wave (km/s) = 3.71350 3.84383 3.77923
# Velocity P-wave (km/s) = 5.85124 5.99956 5.92586
#
# Compressibility (1/GPa) = 0.02652952
#
# Stress axis : x y z
#
# Youngs Moduli (GPa) = 77.18444 71.84650 55.01212
#
# Poissons Ratio (x) = 0.13696 0.06161
# Poissons Ratio (y) = 0.14714 0.34301
# Poissons Ratio (z) = 0.08644 0.44798
#
# Static dielectric constant tensor:
#      x y z
#    x 4.353160 0.000000 0.000000 
#    y 0.000000 4.676510 0.000000 
#    z 0.000000 0.000000 4.270650 
# 
# 
# High freq. dielectric constant tensor:
#      x y z
#    x 1.945360 0.000000 0.000000 
#    y 0.000000 1.956370 0.000000 
#    z 0.000000 0.000000 1.935450 
# 
# From -- ./inp_files/5432.got.cif
#   From: 2010.03.12/outbox.cif.g09.slc.cpg/sg18_3_cif.got.tgz:5432.got - 2010.04.10 18:53:55.
