data_PCOD8156118
_publ_section_title
;
Structure prediction by ZEFSAII (Michael W. Deem and Ramdas Pophale) SiO2 
 PCOD8156118
Probable space group: P 21 21 2
;
_chemical_formula_sum "Si O2"
_cell_formula_units_Z 32
_cell_length_a 33.594909
_cell_length_b 8.812263
_cell_length_c 4.933331
_cell_angle_alpha 90.000000
_cell_angle_beta 90.000000
_cell_angle_gamma 90.000000
_cell_volume 1460.498699
_symmetry_space_group_name_H-M "P 21 21 2"
_symmetry_group_IT_number 18
_symmetry_cell_setting 'orthorhombic'
loop_
_space_group_symop_operation_xyz
x,y,z
-x,-y,z
1/2+x,1/2-y,-z
1/2-x,1/2+y,-z
loop_
_atom_site_type_symbol
_atom_site_label
_atom_site_fract_x
_atom_site_fract_y
_atom_site_fract_z
Si Si1 0.219889 0.001556 0.791037
Si Si2 0.356138 0.237406 0.761675
Si Si3 0.461382 0.081322 0.028621
Si Si4 0.413994 0.000879 0.532820
Si Si5 0.868573 0.068786 0.746759
Si Si6 0.067786 0.186386 0.651406
Si Si7 0.732101 0.699864 0.725466
Si Si8 0.986057 0.837072 0.133467
O O1 0.234213 0.171436 0.728659
O O2 0.172331 0.014276 0.834434
O O3 0.231305 0.879368 0.564194
O O4 0.240519 0.934620 0.060659
O O5 0.374709 0.080455 0.654375
O O6 0.364236 0.372653 0.555760
O O7 0.309053 0.213197 0.796849
O O8 0.376405 0.291701 0.043826
O O9 0.431006 0.100332 0.280774
O O10 0.473366 0.238785 0.880764
O O11 0.500000 0.000000 0.153385
O O12 0.444771 0.981650 0.779681
O O13 0.404678 0.829545 0.434730
O O14 0.905042 0.953842 0.738279
O O15 0.044650 0.236308 0.920407
O O16 0.034616 0.147506 0.426284
O O17 0.000000 0.000000 0.031336
#
# Coordination Sequence:
#
# PCOD8156118 Si02
#       8
#     4   4   4   4   4   4   4   4
#     4  10  21  40  65  96 129 171 207 260 311 369
#     4  10  23  41  62  93 124 166 209 253 309 380
#     4  12  23  43  62  86 121 158 205 269 314 364
#     4  12  24  40  65  89 120 164 208 256 321 369
#     4  10  23  41  62  90 130 164 204 256 316 368
#     4  12  24  43  60  90 125 158 209 262 312 378
#     4  10  21  40  65  96 132 164 215 255 309 375
#     4  12  27  41  61  90 119 158 213 262 314 375
#
# _framework density 21.910323999999999
#
# number of rings (size 3 to 8) (size 9 to 14) (size 15 to 20)
#    0.000    1.000    2.500    3.750    5.250    1.000 
#    0.000    2.500    0.000    0.000    0.000    0.000 
#    0.000    0.000    0.000    0.000    0.000    0.000 
#
# Total GULP energy -396804.220746 kJ/mol
# GULP energy per Si atom -12400.131898 kJ/mol
# Density = 2.186046 g / cm^3
# Si number density = 21.910324 Si / 1000 Ang^3
#
#
#
# Elastic Constant Matrix: (Units=GPa)
#
#
# Indices 1 2 3 4 5 6 
#
# 1 43.5380 10.8958 20.4028 0.0000 0.0000 0.0000
# 2 10.8958 66.8183 4.4323 0.0000 0.0000 0.0000
# 3 20.4028 4.4323 105.1084 0.0000 0.0000 0.0000
# 4 0.0000 0.0000 0.0000 34.5936 0.0000 0.0000
# 5 0.0000 0.0000 0.0000 0.0000 27.3071 0.0000
# 6 0.0000 0.0000 0.0000 0.0000 0.0000 38.2705
#
#
#
# Elastic Compliance Matrix: (Units=1/GPa)
#
#
# Indices 1 2 3 4 5 6 
#
# 1 0.026270 -0.003957 -0.004932 0.000000 0.000000 0.000000
# 2 -0.003957 0.015604 0.000110 0.000000 0.000000 0.000000
# 3 -0.004932 0.000110 0.010467 0.000000 0.000000 0.000000
# 4 0.000000 0.000000 0.000000 0.028907 0.000000 0.000000
# 5 0.000000 0.000000 0.000000 0.000000 0.036621 0.000000
# 6 0.000000 0.000000 0.000000 0.000000 0.000000 0.026130
#
#
# Mechanical properties :
#
#
# Convention : Reuss Voigt Hill
#
# Bulk Modulus (GPa) = 28.74998 31.88073 30.31536
# Shear Modulus (GPa) = 28.87663 32.01649 30.44656
#
# Velocity S-wave (km/s) = 3.63429 3.82678 3.73178
# Velocity P-wave (km/s) = 5.54625 5.84019 5.69512
#
# Compressibility (1/GPa) = 0.03478263
#
# Stress axis : x y z
#
# Youngs Moduli (GPa) = 38.06615 64.08679 95.54018
#
# Poissons Ratio (x) = 0.25356 0.47125
# Poissons Ratio (y) = 0.15061 -0.01051
# Poissons Ratio (z) = 0.18776 -0.00705
#
# Static dielectric constant tensor:
#      x y z
#    x 3.881860 0.000000 0.000000 
#    y 0.000000 3.756080 0.000000 
#    z 0.000000 0.000000 4.090480 
# 
# 
# High freq. dielectric constant tensor:
#      x y z
#    x 1.844920 0.000000 0.000000 
#    y 0.000000 1.860650 0.000000 
#    z 0.000000 0.000000 1.881130 
# 
# From -- ./inp_files/2313.got.cif
#   From: 2010.03.12/outbox.cif.g09.slc.cpg/sg18_2_cif.got.tgz:2313.got - 2010.04.10 18:53:55.
