data_PCOD8156465
_publ_section_title
;
Structure prediction by ZEFSAII (Michael W. Deem and Ramdas Pophale) SiO2 
 PCOD8156465
Probable space group: P 21 21 2
;
_chemical_formula_sum "Si O2"
_cell_formula_units_Z 22
_cell_length_a 13.186889
_cell_length_b 6.649865
_cell_length_c 11.623781
_cell_angle_alpha 90.000000
_cell_angle_beta 90.000000
_cell_angle_gamma 90.000000
_cell_volume 1019.301347
_symmetry_space_group_name_H-M "P 21 21 2"
_symmetry_group_IT_number 18
_symmetry_cell_setting 'orthorhombic'
loop_
_space_group_symop_operation_xyz
x,y,z
-x,-y,z
1/2+x,1/2-y,-z
1/2-x,1/2+y,-z
loop_
_atom_site_type_symbol
_atom_site_label
_atom_site_fract_x
_atom_site_fract_y
_atom_site_fract_z
Si Si1 0.000000 0.500000 0.467715
Si Si2 0.612207 0.920178 0.069476
Si Si3 0.631893 0.356458 0.455393
Si Si4 0.890443 0.057673 0.784775
Si Si5 0.841897 0.201555 0.378855
Si Si6 0.768657 0.251238 0.130444
O O1 0.054773 0.332456 0.547371
O O2 0.078711 0.615377 0.385695
O O3 0.621752 0.794104 0.188489
O O4 0.500000 0.000000 0.052458
O O5 0.691435 0.097792 0.074294
O O6 0.639793 0.787191 0.957979
O O7 0.609653 0.507028 0.350104
O O8 0.744013 0.266106 0.452266
O O9 0.616166 0.491463 0.569516
O O10 0.795843 0.950580 0.844870
O O11 0.000000 0.000000 0.838555
O O12 0.816454 0.161351 0.246419
#
# Coordination Sequence:
#
# PCOD8156465 Si02
#       6
#     2   4   4   4   4   4
#     4  12  24  46  72 102 146 188 226 280 356 418
#     4  12  25  46  73 101 139 188 235 294 351 407
#     4  11  25  45  71 105 145 181 230 284 349 426
#     4  11  23  42  70 105 135 178 234 285 348 415
#     4  11  25  44  68 106 142 188 228 287 350 420
#     4  11  26  44  69 103 142 181 237 295 342 414
#
# _framework density 21.583411000000002
#
# number of rings (size 3 to 8) (size 9 to 14) (size 15 to 20)
#    0.000    0.727    5.455    1.636    3.818    2.909 
#    1.636    3.636    0.000    0.000    0.000    0.000 
#    0.000    0.000    0.000    0.000    0.000    0.000 
#
# Total GULP energy -272846.730585 kJ/mol
# GULP energy per Si atom -12402.124118 kJ/mol
# Density = 2.153429 g / cm^3
# Si number density = 21.583411 Si / 1000 Ang^3
#
#
#
# Elastic Constant Matrix: (Units=GPa)
#
#
# Indices 1 2 3 4 5 6 
#
# 1 119.0806 65.1629 54.4269 0.0000 0.0000 0.0000
# 2 65.1629 117.9260 61.0949 0.0000 0.0000 0.0000
# 3 54.4269 61.0949 122.0838 0.0000 0.0000 0.0000
# 4 0.0000 0.0000 0.0000 35.9361 0.0000 0.0000
# 5 0.0000 0.0000 0.0000 0.0000 43.5498 0.0000
# 6 0.0000 0.0000 0.0000 0.0000 0.0000 44.6836
#
#
#
# Elastic Compliance Matrix: (Units=1/GPa)
#
#
# Indices 1 2 3 4 5 6 
#
# 1 0.012763 -0.005541 -0.002917 0.000000 0.000000 0.000000
# 2 -0.005541 0.013854 -0.004462 0.000000 0.000000 0.000000
# 3 -0.002917 -0.004462 0.011725 0.000000 0.000000 0.000000
# 4 0.000000 0.000000 0.000000 0.027827 0.000000 0.000000
# 5 0.000000 0.000000 0.000000 0.000000 0.022962 0.000000
# 6 0.000000 0.000000 0.000000 0.000000 0.000000 0.022380
#
#
# Mechanical properties :
#
#
# Convention : Reuss Voigt Hill
#
# Bulk Modulus (GPa) = 79.99944 80.05108 80.02526
# Shear Modulus (GPa) = 35.33087 36.72759 36.02923
#
# Velocity S-wave (km/s) = 4.05031 4.12959 4.09014
# Velocity P-wave (km/s) = 7.68238 7.74001 7.71125
#
# Compressibility (1/GPa) = 0.01250009
#
# Stress axis : x y z
#
# Youngs Moduli (GPa) = 78.34988 72.18191 85.29012
#
# Poissons Ratio (x) = 0.39999 0.24878
# Poissons Ratio (y) = 0.43417 0.38061
# Poissons Ratio (z) = 0.22854 0.32211
#
# Static dielectric constant tensor:
#      x y z
#    x 3.889370 0.000000 0.000000 
#    y 0.000000 3.930180 0.000000 
#    z 0.000000 0.000000 3.713430 
# 
# 
# High freq. dielectric constant tensor:
#      x y z
#    x 1.865910 0.000000 0.000000 
#    y 0.000000 1.854330 0.000000 
#    z 0.000000 0.000000 1.832050 
# 
# From -- ./inp_files/6028.got.cif
#   From: 2010.03.12/outbox.cif.g09.slc.cpg/sg18_4_cif.got.tgz:6028.got - 2010.04.10 18:53:55.
