data_PCOD8156243
_publ_section_title
;
Structure prediction by ZEFSAII (Michael W. Deem and Ramdas Pophale) SiO2 
 PCOD8156243
Probable space group: P 21 21 2
;
_chemical_formula_sum "Si O2"
_cell_formula_units_Z 32
_cell_length_a 10.566243
_cell_length_b 12.295848
_cell_length_c 11.638402
_cell_angle_alpha 90.000000
_cell_angle_beta 90.000000
_cell_angle_gamma 90.000000
_cell_volume 1512.071870
_symmetry_space_group_name_H-M "P 21 21 2"
_symmetry_group_IT_number 18
_symmetry_cell_setting 'orthorhombic'
loop_
_space_group_symop_operation_xyz
x,y,z
-x,-y,z
1/2+x,1/2-y,-z
1/2-x,1/2+y,-z
loop_
_atom_site_type_symbol
_atom_site_label
_atom_site_fract_x
_atom_site_fract_y
_atom_site_fract_z
Si Si1 0.951502 0.661367 0.001343
Si Si2 0.673623 0.972077 0.885142
Si Si3 0.326377 0.027923 0.614859
Si Si4 0.398528 0.595064 0.980800
Si Si5 0.548498 0.161367 0.501343
Si Si6 0.601472 0.404936 0.519200
Si Si7 0.347076 0.519044 0.750000
Si Si8 0.404695 0.899864 0.250000
O O1 0.937631 0.665970 0.864376
O O2 0.835995 0.594888 0.062553
O O3 0.960649 0.787367 0.033652
O O4 0.077745 0.604415 0.046000
O O5 0.643453 0.972877 0.750000
O O6 0.811320 0.920682 0.906963
O O7 0.422255 0.104415 0.546001
O O8 0.188680 0.079318 0.593037
O O9 0.335995 0.905112 0.562554
O O10 0.500000 0.500000 0.985964
O O11 0.313118 0.583846 0.865880
O O12 0.539351 0.287367 0.533652
O O13 0.562368 0.165968 0.364376
O O14 0.500000 0.500000 0.514035
O O15 0.686882 0.416154 0.634119
O O16 0.500000 0.500000 0.750000
O O17 0.247685 0.419378 0.750000
O O18 0.500000 0.000000 0.249999
#
# Coordination Sequence:
#
# PCOD8156243 Si02
#       8
#     4   4   4   4   4   4   4   4
#     4  11  24  43  71  99 132 181 227 277 345 406
#     4  11  25  46  68  99 139 179 227 280 347 413
#     4  11  25  46  68  99 139 179 227 280 347 413
#     4  11  26  44  67 104 136 176 227 281 343 409
#     4  11  24  43  71  99 132 181 227 277 345 406
#     4  11  26  44  67 104 136 176 227 281 343 409
#     4  10  22  42  66  95 134 171 228 280 332 406
#     4  12  20  44  69  98 132 177 232 283 330 412
#
# _framework density 21.163015000000001
#
# number of rings (size 3 to 8) (size 9 to 14) (size 15 to 20)
#    0.000    1.000    5.000    1.500    8.750    0.500 
#    0.000    0.000    0.000    0.000    0.000    0.000 
#    0.000    0.000    0.000    0.000    0.000    0.000 
#
# Total GULP energy -396467.600607 kJ/mol
# GULP energy per Si atom -12389.612519 kJ/mol
# Density = 2.111485 g / cm^3
# Si number density = 21.163015 Si / 1000 Ang^3
#
#
#
# Elastic Constant Matrix: (Units=GPa)
#
#
# Indices 1 2 3 4 5 6 
#
# 1 87.1155 41.0656 34.9065 0.0000 0.0000 0.0000
# 2 41.0656 163.8754 40.6823 0.0000 0.0000 0.0000
# 3 34.9065 40.6823 174.6352 0.0000 0.0000 0.0000
# 4 0.0000 0.0000 0.0000 16.2536 0.0000 0.0000
# 5 0.0000 0.0000 0.0000 0.0000 31.1568 0.0000
# 6 0.0000 0.0000 0.0000 0.0000 0.0000 17.7881
#
#
#
# Elastic Compliance Matrix: (Units=1/GPa)
#
#
# Indices 1 2 3 4 5 6 
#
# 1 0.013677 -0.002917 -0.002054 0.000000 0.000000 0.000000
# 2 -0.002917 0.007099 -0.001071 0.000000 0.000000 0.000000
# 3 -0.002054 -0.001071 0.006386 0.000000 0.000000 0.000000
# 4 0.000000 0.000000 0.000000 0.061525 0.000000 0.000000
# 5 0.000000 0.000000 0.000000 0.000000 0.032096 0.000000
# 6 0.000000 0.000000 0.000000 0.000000 0.000000 0.056217
#
#
# Mechanical properties :
#
#
# Convention : Reuss Voigt Hill
#
# Bulk Modulus (GPa) = 66.32148 73.21501 69.76824
# Shear Modulus (GPa) = 25.75842 33.63780 29.69811
#
# Velocity S-wave (km/s) = 3.49254 3.99113 3.75013
# Velocity P-wave (km/s) = 6.90436 7.47728 7.19652
#
# Compressibility (1/GPa) = 0.01507807
#
# Stress axis : x y z
#
# Youngs Moduli (GPa) = 73.11334 140.86353 156.58675
#
# Poissons Ratio (x) = 0.41096 0.32167
# Poissons Ratio (y) = 0.21331 0.16765
# Poissons Ratio (z) = 0.15019 0.15081
#
# Static dielectric constant tensor:
#      x y z
#    x 3.825060 0.000000 0.000000 
#    y 0.000000 3.959610 0.000000 
#    z 0.000000 0.000000 4.708290 
# 
# 
# High freq. dielectric constant tensor:
#      x y z
#    x 1.825560 0.000000 0.000000 
#    y 0.000000 1.812840 0.000000 
#    z 0.000000 0.000000 1.852900 
# 
# From -- ./inp_files/5968.got.cif
#   From: 2010.03.12/outbox.cif.g09.slc.cpg/sg18_3_cif.got.tgz:5968.got - 2010.04.10 18:53:55.
