data_PCOD8156903
_publ_section_title
;
Structure prediction by ZEFSAII (Michael W. Deem and Ramdas Pophale) SiO2 
 PCOD8156903
Probable space group: P 21 21 21
;
_chemical_formula_sum "Si O2"
_cell_formula_units_Z 16
_cell_length_a 13.311978
_cell_length_b 10.526713
_cell_length_c 5.115882
_cell_angle_alpha 90.000000
_cell_angle_beta 90.000000
_cell_angle_gamma 90.000000
_cell_volume 716.895563
_symmetry_space_group_name_H-M "P 21 21 21"
_symmetry_group_IT_number 19
_symmetry_cell_setting 'orthorhombic'
loop_
_space_group_symop_operation_xyz
x,y,z
1/2-x,-y,1/2+z
1/2+x,1/2-y,-z
-x,1/2+y,1/2-z
loop_
_atom_site_type_symbol
_atom_site_label
_atom_site_fract_x
_atom_site_fract_y
_atom_site_fract_z
Si Si1 0.808747 0.538417 0.125642
Si Si2 0.684533 0.176174 0.749411
Si Si3 0.367952 0.434795 0.014803
Si Si4 0.029915 0.494083 0.027434
O O1 0.774772 0.496320 0.412965
O O2 0.830039 0.688410 0.117709
O O3 0.911935 0.466928 0.055947
O O4 0.787043 0.174757 0.921489
O O5 0.588168 0.140453 0.930855
O O6 0.693967 0.068568 0.520756
O O7 0.448977 0.447152 0.245382
O O8 0.430379 0.405999 0.749631
#
# Coordination Sequence:
#
# PCOD8156903 Si02
#       4
#     4   4   4   4
#     4  12  29  44  63 103 140 177 218 280 340 386
#     4  10  23  42  74  95 138 163 233 269 332 407
#     4  10  20  41  71 100 118 176 222 273 324 390
#     4  10  22  43  64  98 128 176 225 256 336 391
#
# _framework density 22.318451
#
# number of rings (size 3 to 8) (size 9 to 14) (size 15 to 20)
#    1.500    0.000    2.500    1.500    3.500    4.000 
#    0.000    0.000    0.000    0.000    0.000    0.000 
#    0.000    0.000    0.000    0.000    0.000    0.000 
#
# Total GULP energy -198351.962750 kJ/mol
# GULP energy per Si atom -12396.997672 kJ/mol
# Density = 2.226765 g / cm^3
# Si number density = 22.318451 Si / 1000 Ang^3
#
#
#
# Elastic Constant Matrix: (Units=GPa)
#
#
# Indices 1 2 3 4 5 6 
#
# 1 104.8318 -0.3833 3.7287 0.0000 0.0000 0.0000
# 2 -0.3833 49.6942 -6.1709 0.0000 0.0000 0.0000
# 3 3.7287 -6.1709 103.4014 0.0000 0.0000 0.0000
# 4 0.0000 0.0000 0.0000 20.1372 0.0000 0.0000
# 5 0.0000 0.0000 0.0000 0.0000 42.4043 0.0000
# 6 0.0000 0.0000 0.0000 0.0000 0.0000 17.5514
#
#
#
# Elastic Compliance Matrix: (Units=1/GPa)
#
#
# Indices 1 2 3 4 5 6 
#
# 1 0.009551 0.000031 -0.000343 0.000000 0.000000 0.000000
# 2 0.000031 0.020273 0.001209 0.000000 0.000000 0.000000
# 3 -0.000343 0.001209 0.009756 0.000000 0.000000 0.000000
# 4 0.000000 0.000000 0.000000 0.049659 0.000000 0.000000
# 5 0.000000 0.000000 0.000000 0.000000 0.023583 0.000000
# 6 0.000000 0.000000 0.000000 0.000000 0.000000 0.056975
#
#
# Mechanical properties :
#
#
# Convention : Reuss Voigt Hill
#
# Bulk Modulus (GPa) = 24.16915 28.03069 26.09992
# Shear Modulus (GPa) = 27.50356 33.40212 30.45284
#
# Velocity S-wave (km/s) = 3.51426 3.87281 3.69788
# Velocity P-wave (km/s) = 5.22680 5.70832 5.47285
#
# Compressibility (1/GPa) = 0.04137505
#
# Stress axis : x y z
#
# Youngs Moduli (GPa) = 104.69683 49.32568 102.50586
#
# Poissons Ratio (x) = -0.00154 0.03512
# Poissons Ratio (y) = -0.00326 -0.12391
# Poissons Ratio (z) = 0.03587 -0.05962
#
# Static dielectric constant tensor:
#      x y z
#    x 3.881250 0.000000 0.000000 
#    y 0.000000 3.498400 0.000000 
#    z 0.000000 0.000000 3.925730 
# 
# 
# High freq. dielectric constant tensor:
#      x y z
#    x 1.885090 0.000000 0.000000 
#    y 0.000000 1.835120 0.000000 
#    z 0.000000 0.000000 1.884550 
# 
# From -- ./inp_files/756.got.cif
#   From: 2010.03.12/outbox.cif.g09.slc.cpg/sg19_1_cif.got.tgz:756.got - 2010.04.10 18:59:41.
