data_PCOD8156354
_publ_section_title
;
Structure prediction by ZEFSAII (Michael W. Deem and Ramdas Pophale) SiO2 
 PCOD8156354
Probable space group: P 21 21 2
;
_chemical_formula_sum "Si O2"
_cell_formula_units_Z 26
_cell_length_a 11.828150
_cell_length_b 11.828149
_cell_length_c 7.394283
_cell_angle_alpha 90.000000
_cell_angle_beta 90.000000
_cell_angle_gamma 90.000000
_cell_volume 1034.498055
_symmetry_space_group_name_H-M "P 21 21 2"
_symmetry_group_IT_number 18
_symmetry_cell_setting 'orthorhombic'
loop_
_space_group_symop_operation_xyz
x,y,z
-x,-y,z
1/2+x,1/2-y,-z
1/2-x,1/2+y,-z
loop_
_atom_site_type_symbol
_atom_site_label
_atom_site_fract_x
_atom_site_fract_y
_atom_site_fract_z
Si Si1 0.925852 0.754297 0.779788
Si Si2 0.886452 0.790029 0.382539
Si Si3 0.290029 0.386452 0.382539
Si Si4 0.067668 0.750015 0.107268
Si Si5 0.749985 0.432332 0.107268
Si Si6 0.745703 0.574148 0.779788
Si Si7 0.500000 0.500000 0.500000
O O1 0.944076 0.741548 0.565482
O O2 0.863228 0.873084 0.820449
O O3 0.849073 0.650927 0.852436
O O4 0.043921 0.754683 0.891163
O O5 0.755023 0.744977 0.375925
O O6 0.906143 0.927610 0.384175
O O7 0.948910 0.736974 0.210458
O O8 0.236974 0.448910 0.210458
O O9 0.241548 0.444076 0.565482
O O10 0.427610 0.406143 0.384176
O O11 0.142673 0.642673 0.155075
O O12 0.126916 0.863228 0.179551
O O13 0.745317 0.456079 0.891163
#
# Coordination Sequence:
#
# PCOD8156354 Si02
#       7
#     4   4   4   4   4   4   2
#     4  10  24  42  65  99 134 176 237 295 353 434
#     4  11  25  45  70 104 140 186 246 289 353 443
#     4  11  25  45  70 104 140 186 246 289 353 443
#     4  11  25  44  68  99 140 187 236 301 368 428
#     4  11  25  44  68  99 140 187 236 301 368 428
#     4  10  24  42  65  99 134 176 237 295 353 434
#     4  12  24  44  78 104 148 198 224 308 370 408
#
# _framework density 25.132961999999999
#
# number of rings (size 3 to 8) (size 9 to 14) (size 15 to 20)
#    0.000    1.231    3.077    0.923    4.308    4.308 
#    0.000    3.077    0.000    0.000    0.000    0.000 
#    0.000    0.000    0.000    0.000    0.000    0.000 
#
# Total GULP energy -322264.199980 kJ/mol
# GULP energy per Si atom -12394.776922 kJ/mol
# Density = 2.507576 g / cm^3
# Si number density = 25.132962 Si / 1000 Ang^3
#
#
#
# Elastic Constant Matrix: (Units=GPa)
#
#
# Indices 1 2 3 4 5 6 
#
# 1 95.9957 45.0529 -10.1032 0.0000 0.0000 0.0000
# 2 45.0529 95.9954 -10.1033 0.0000 0.0000 0.0000
# 3 -10.1032 -10.1033 77.0828 0.0000 0.0000 0.0000
# 4 0.0000 0.0000 0.0000 33.7154 0.0000 0.0000
# 5 0.0000 0.0000 0.0000 0.0000 33.7154 0.0000
# 6 0.0000 0.0000 0.0000 0.0000 0.0000 41.3269
#
#
#
# Elastic Compliance Matrix: (Units=1/GPa)
#
#
# Indices 1 2 3 4 5 6 
#
# 1 0.013428 -0.006202 0.000947 0.000000 0.000000 0.000000
# 2 -0.006202 0.013428 0.000947 0.000000 0.000000 0.000000
# 3 0.000947 0.000947 0.013221 0.000000 0.000000 0.000000
# 4 0.000000 0.000000 0.000000 0.029660 0.000000 0.000000
# 5 0.000000 0.000000 0.000000 0.000000 0.029660 0.000000
# 6 0.000000 0.000000 0.000000 0.000000 0.000000 0.024197
#
#
# Mechanical properties :
#
#
# Convention : Reuss Voigt Hill
#
# Bulk Modulus (GPa) = 31.78605 35.41852 33.60228
# Shear Modulus (GPa) = 35.03924 38.03337 36.53630
#
# Velocity S-wave (km/s) = 3.73789 3.89432 3.81691
# Velocity P-wave (km/s) = 5.59497 5.86038 5.72921
#
# Compressibility (1/GPa) = 0.03146034
#
# Stress axis : x y z
#
# Youngs Moduli (GPa) = 74.47315 74.47291 75.63539
#
# Poissons Ratio (x) = 0.46190 -0.07163
# Poissons Ratio (y) = 0.46190 -0.07163
# Poissons Ratio (z) = -0.07053 -0.07053
#
# Static dielectric constant tensor:
#      x y z
#    x 4.485760 0.000000 0.000000 
#    y 0.000000 4.485760 0.000000 
#    z 0.000000 0.000000 4.515480 
# 
# 
# High freq. dielectric constant tensor:
#      x y z
#    x 1.991510 0.000000 0.000000 
#    y 0.000000 1.991510 0.000000 
#    z 0.000000 0.000000 2.014650 
# 
# From -- ./inp_files/3764.got.cif
#   From: 2010.03.12/outbox.cif.g09.slc.cpg/sg18_2_cif.got.tgz:3764.got - 2010.04.10 18:53:55.
