data_PCOD8156651
_publ_section_title
;
Structure prediction by ZEFSAII (Michael W. Deem and Ramdas Pophale) SiO2 
 PCOD8156651
Probable space group: P 21 21 21
;
_chemical_formula_sum "Si O2"
_cell_formula_units_Z 28
_cell_length_a 9.743696
_cell_length_b 8.459692
_cell_length_c 18.713950
_cell_angle_alpha 90.000000
_cell_angle_beta 90.000000
_cell_angle_gamma 90.000000
_cell_volume 1542.565955
_symmetry_space_group_name_H-M "P 21 21 21"
_symmetry_group_IT_number 19
_symmetry_cell_setting 'orthorhombic'
loop_
_space_group_symop_operation_xyz
x,y,z
1/2-x,-y,1/2+z
1/2+x,1/2-y,-z
-x,1/2+y,1/2-z
loop_
_atom_site_type_symbol
_atom_site_label
_atom_site_fract_x
_atom_site_fract_y
_atom_site_fract_z
Si Si1 0.784436 0.855668 0.459697
Si Si2 0.396564 0.582162 0.692449
Si Si3 0.666991 0.769018 0.216689
Si Si4 0.015026 0.243461 0.931887
Si Si5 0.911831 0.589391 0.706870
Si Si6 0.154053 0.706916 0.287936
Si Si7 0.296442 0.499886 0.399324
O O1 0.842757 0.932167 0.388214
O O2 0.646332 0.757083 0.446309
O O3 0.895390 0.733641 0.494717
O O4 0.754276 0.999363 0.516469
O O5 0.302875 0.700767 0.737663
O O6 0.398231 0.404468 0.723530
O O7 0.547888 0.655257 0.692799
O O8 0.633663 0.587535 0.221476
O O9 0.549062 0.878422 0.249335
O O10 0.690151 0.825335 0.134335
O O11 0.058445 0.103121 0.878048
O O12 0.056202 0.408690 0.892418
O O13 0.794924 0.708040 0.735055
O O14 0.179249 0.598087 0.357213
#
# Coordination Sequence:
#
# PCOD8156651 Si02
#       7
#     4   4   4   4   4   4   4
#     4  10  19  35  62  82 113 154 191 236 294 349
#     4  11  21  36  62  84 121 153 194 235 291 347
#     4  11  21  37  61  87 114 153 198 246 283 345
#     4   9  19  35  59  82 112 154 187 235 291 349
#     4  11  21  36  62  85 113 149 199 241 290 337
#     4  10  21  38  56  90 115 153 190 240 287 347
#     4   8  20  35  58  82 118 144 193 239 282 338
#
# _framework density 18.151572999999999
#
# number of rings (size 3 to 8) (size 9 to 14) (size 15 to 20)
#    0.857    1.143    1.429    4.286    0.000    0.000 
#    0.000    0.000   18.857    0.000    0.000    0.000 
#    0.000    0.000    0.000    0.000    0.000    0.000 
#
# Total GULP energy -346993.162094 kJ/mol
# GULP energy per Si atom -12392.612932 kJ/mol
# Density = 1.811026 g / cm^3
# Si number density = 18.151573 Si / 1000 Ang^3
#
#
#
# Elastic Constant Matrix: (Units=GPa)
#
#
# Indices 1 2 3 4 5 6 
#
# 1 83.6841 6.2696 17.6352 0.0000 0.0000 0.0000
# 2 6.2696 69.8837 21.1611 0.0000 0.0000 0.0000
# 3 17.6352 21.1611 113.2498 0.0000 0.0000 0.0000
# 4 0.0000 0.0000 0.0000 21.0268 0.0000 0.0000
# 5 0.0000 0.0000 0.0000 0.0000 26.9143 0.0000
# 6 0.0000 0.0000 0.0000 0.0000 0.0000 23.5966
#
#
#
# Elastic Compliance Matrix: (Units=1/GPa)
#
#
# Indices 1 2 3 4 5 6 
#
# 1 0.012376 -0.000558 -0.001823 0.000000 0.000000 0.000000
# 2 -0.000558 0.015193 -0.002752 0.000000 0.000000 0.000000
# 3 -0.001823 -0.002752 0.009628 0.000000 0.000000 0.000000
# 4 0.000000 0.000000 0.000000 0.047558 0.000000 0.000000
# 5 0.000000 0.000000 0.000000 0.000000 0.037155 0.000000
# 6 0.000000 0.000000 0.000000 0.000000 0.000000 0.042379
#
#
# Mechanical properties :
#
#
# Convention : Reuss Voigt Hill
#
# Bulk Modulus (GPa) = 37.13253 39.66103 38.39678
# Shear Modulus (GPa) = 27.24325 29.09101 28.16713
#
# Velocity S-wave (km/s) = 3.87832 4.00768 3.94353
# Velocity P-wave (km/s) = 6.36839 6.58124 6.47569
#
# Compressibility (1/GPa) = 0.02693056
#
# Stress axis : x y z
#
# Youngs Moduli (GPa) = 80.80380 65.82037 103.86289
#
# Poissons Ratio (x) = 0.03675 0.18932
# Poissons Ratio (y) = 0.04511 0.28582
# Poissons Ratio (z) = 0.14729 0.18113
#
# Static dielectric constant tensor:
#      x y z
#    x 3.382260 0.000000 0.000000 
#    y 0.000000 3.043520 0.000000 
#    z 0.000000 0.000000 3.454290 
# 
# 
# High freq. dielectric constant tensor:
#      x y z
#    x 1.710940 0.000000 0.000000 
#    y 0.000000 1.674900 0.000000 
#    z 0.000000 0.000000 1.704440 
# 
# From -- ./inp_files/3071.got.cif
#   From: 2010.03.12/outbox.cif.g09.slc.cpg/sg19_2_cif.got.tgz:3071.got - 2010.04.10 18:59:41.
