data_PCOD8156940
_publ_section_title
;
Structure prediction by ZEFSAII (Michael W. Deem and Ramdas Pophale) SiO2 
 PCOD8156940
Probable space group: P 21 21 21
;
_chemical_formula_sum "Si O2"
_cell_formula_units_Z 28
_cell_length_a 11.077382
_cell_length_b 5.067114
_cell_length_c 23.344354
_cell_angle_alpha 90.000000
_cell_angle_beta 90.000000
_cell_angle_gamma 90.000000
_cell_volume 1310.326934
_symmetry_space_group_name_H-M "P 21 21 21"
_symmetry_group_IT_number 19
_symmetry_cell_setting 'orthorhombic'
loop_
_space_group_symop_operation_xyz
x,y,z
1/2-x,-y,1/2+z
1/2+x,1/2-y,-z
-x,1/2+y,1/2-z
loop_
_atom_site_type_symbol
_atom_site_label
_atom_site_fract_x
_atom_site_fract_y
_atom_site_fract_z
Si Si1 0.081436 0.453855 0.061891
Si Si2 0.805177 0.020089 0.552485
Si Si3 0.087586 0.441740 0.190680
Si Si4 0.835329 0.441223 0.243367
Si Si5 0.046314 0.448641 0.472222
Si Si6 0.440259 0.988176 0.410223
Si Si7 0.945680 0.526337 0.719070
O O1 0.128018 0.495504 0.125913
O O2 0.969201 0.647582 0.048457
O O3 0.055002 0.144898 0.052147
O O4 0.181575 0.541966 0.016263
O O5 0.888100 0.804591 0.582687
O O6 0.665967 0.948283 0.559077
O O7 0.834034 0.299943 0.581187
O O8 0.156635 0.650998 0.229976
O O9 0.941047 0.465823 0.195286
O O10 0.135805 0.154778 0.207903
O O11 0.701024 0.479485 0.218167
O O12 0.044538 0.461098 0.542060
O O13 0.492617 0.011878 0.346064
O O14 0.002837 0.301491 0.758307
#
# Coordination Sequence:
#
# PCOD8156940 Si02
#       7
#     4   4   4   4   4   4   4
#     4  10  21  37  58  91 119 152 204 244 303 370
#     4  10  21  37  61  89 119 156 193 243 310 360
#     4  10  21  41  61  92 122 155 207 257 312 351
#     4  10  23  39  62  90 122 161 205 256 302 359
#     4  10  21  36  60  91 122 157 194 244 307 369
#     4  10  23  42  58  91 122 154 205 248 293 363
#     4  12  26  44  64  92 124 171 214 248 307 370
#
# _framework density 21.368711999999999
#
# number of rings (size 3 to 8) (size 9 to 14) (size 15 to 20)
#    0.000    1.714    0.000    3.429    4.000    2.286 
#    0.000    0.000    0.000    0.000    0.000    0.000 
#    0.000    0.000    0.000    0.000    0.000    0.000 
#
# Total GULP energy -347122.343568 kJ/mol
# GULP energy per Si atom -12397.226556 kJ/mol
# Density = 2.132008 g / cm^3
# Si number density = 21.368712 Si / 1000 Ang^3
#
#
#
# Elastic Constant Matrix: (Units=GPa)
#
#
# Indices 1 2 3 4 5 6 
#
# 1 57.1617 12.7491 -9.8762 0.0000 0.0000 0.0000
# 2 12.7491 90.2141 10.5908 0.0000 0.0000 0.0000
# 3 -9.8762 10.5908 101.4437 0.0000 0.0000 0.0000
# 4 0.0000 0.0000 0.0000 26.8647 0.0000 0.0000
# 5 0.0000 0.0000 0.0000 0.0000 8.3117 0.0000
# 6 0.0000 0.0000 0.0000 0.0000 0.0000 20.6432
#
#
#
# Elastic Compliance Matrix: (Units=1/GPa)
#
#
# Indices 1 2 3 4 5 6 
#
# 1 0.018495 -0.002860 0.002099 0.000000 0.000000 0.000000
# 2 -0.002860 0.011665 -0.001496 0.000000 0.000000 0.000000
# 3 0.002099 -0.001496 0.010218 0.000000 0.000000 0.000000
# 4 0.000000 0.000000 0.000000 0.037224 0.000000 0.000000
# 5 0.000000 0.000000 0.000000 0.000000 0.120312 0.000000
# 6 0.000000 0.000000 0.000000 0.000000 0.000000 0.048442
#
#
# Mechanical properties :
#
#
# Convention : Reuss Voigt Hill
#
# Bulk Modulus (GPa) = 27.88363 30.63853 29.26108
# Shear Modulus (GPa) = 19.02415 26.85433 22.93924
#
# Velocity S-wave (km/s) = 2.98699 3.54886 3.27998
# Velocity P-wave (km/s) = 4.99733 5.58227 5.29788
#
# Compressibility (1/GPa) = 0.03586334
#
# Stress axis : x y z
#
# Youngs Moduli (GPa) = 54.06911 85.72953 97.86398
#
# Poissons Ratio (x) = 0.24520 -0.20544
# Poissons Ratio (y) = 0.15464 0.14643
# Poissons Ratio (z) = -0.11350 0.12827
#
# Static dielectric constant tensor:
#      x y z
#    x 3.710590 0.000000 0.000000 
#    y 0.000000 3.925910 0.000000 
#    z 0.000000 0.000000 3.840090 
# 
# 
# High freq. dielectric constant tensor:
#      x y z
#    x 1.814130 0.000000 0.000000 
#    y 0.000000 1.857560 0.000000 
#    z 0.000000 0.000000 1.839050 
# 
# From -- ./inp_files/7341.got.cif
#   From: 2010.03.12/outbox.cif.g09.slc.cpg/sg19_4_cif.got.tgz:7341.got - 2010.04.10 18:59:41.
