data_PCOD8156378
_publ_section_title
;
Structure prediction by ZEFSAII (Michael W. Deem and Ramdas Pophale) SiO2 
 PCOD8156378
Probable space group: P 21 21 2
;
_chemical_formula_sum "Si O2"
_cell_formula_units_Z 28
_cell_length_a 14.527874
_cell_length_b 10.645980
_cell_length_c 7.803254
_cell_angle_alpha 90.000000
_cell_angle_beta 90.000000
_cell_angle_gamma 90.000000
_cell_volume 1206.878232
_symmetry_space_group_name_H-M "P 21 21 2"
_symmetry_group_IT_number 18
_symmetry_cell_setting 'orthorhombic'
loop_
_space_group_symop_operation_xyz
x,y,z
-x,-y,z
1/2+x,1/2-y,-z
1/2-x,1/2+y,-z
loop_
_atom_site_type_symbol
_atom_site_label
_atom_site_fract_x
_atom_site_fract_y
_atom_site_fract_z
Si Si1 0.970098 0.864171 0.064759
Si Si2 0.792963 0.841747 0.849058
Si Si3 0.494782 0.304574 0.550340
Si Si4 0.838198 0.092863 0.674845
Si Si5 0.588873 0.928368 0.405356
Si Si6 0.319643 0.823234 0.449019
Si Si7 0.371747 0.215431 0.070648
O O1 0.991810 0.868468 0.266573
O O2 0.025118 0.742778 0.994772
O O3 0.000000 0.000000 0.988672
O O4 0.864991 0.842345 0.007076
O O5 0.795233 0.708843 0.748010
O O6 0.808719 0.948616 0.703680
O O7 0.690978 0.850142 0.927818
O O8 0.439141 0.398416 0.419944
O O9 0.437058 0.173583 0.552030
O O10 0.598179 0.273037 0.491387
O O11 0.770214 0.185514 0.567733
O O12 0.836686 0.147180 0.868443
O O13 0.631773 0.868146 0.238227
O O14 0.500000 0.000000 0.337060
O O15 0.658112 0.030383 0.480283
#
# Coordination Sequence:
#
# PCOD8156378 Si02
#       7
#     4   4   4   4   4   4   4
#     4  12  25  45  70 107 143 187 239 302 370 427
#     4  12  27  44  74 107 145 188 242 306 368 429
#     4  10  24  45  71  99 138 188 240 293 358 440
#     4  11  25  45  71 105 143 186 243 296 358 443
#     4   9  21  45  69  99 136 184 233 291 357 436
#     4  11  25  43  72  98 139 191 236 293 362 429
#     4  11  25  45  69 100 146 181 236 301 366 426
#
# _framework density 23.200353
#
# number of rings (size 3 to 8) (size 9 to 14) (size 15 to 20)
#    0.000    1.143    1.429    4.286   10.000    1.143 
#    2.571    0.000    0.000    0.000    0.000    0.000 
#    0.000    0.000    0.000    0.000    0.000    0.000 
#
# Total GULP energy -346930.342055 kJ/mol
# GULP energy per Si atom -12390.369359 kJ/mol
# Density = 2.314755 g / cm^3
# Si number density = 23.200353 Si / 1000 Ang^3
#
#
#
# Elastic Constant Matrix: (Units=GPa)
#
#
# Indices 1 2 3 4 5 6 
#
# 1 111.6957 27.0919 30.8935 0.0000 0.0000 0.0000
# 2 27.0919 73.8604 24.0715 0.0000 0.0000 0.0000
# 3 30.8935 24.0715 91.1027 0.0000 0.0000 0.0000
# 4 0.0000 0.0000 0.0000 28.6492 0.0000 0.0000
# 5 0.0000 0.0000 0.0000 0.0000 41.6886 0.0000
# 6 0.0000 0.0000 0.0000 0.0000 0.0000 34.3192
#
#
#
# Elastic Compliance Matrix: (Units=1/GPa)
#
#
# Indices 1 2 3 4 5 6 
#
# 1 0.010426 -0.002924 -0.002763 0.000000 0.000000 0.000000
# 2 -0.002924 0.015635 -0.003140 0.000000 0.000000 0.000000
# 3 -0.002763 -0.003140 0.012743 0.000000 0.000000 0.000000
# 4 0.000000 0.000000 0.000000 0.034905 0.000000 0.000000
# 5 0.000000 0.000000 0.000000 0.000000 0.023987 0.000000
# 6 0.000000 0.000000 0.000000 0.000000 0.000000 0.029138
#
#
# Mechanical properties :
#
#
# Convention : Reuss Voigt Hill
#
# Bulk Modulus (GPa) = 47.27868 48.97473 48.12670
# Shear Modulus (GPa) = 32.99498 33.90485 33.44992
#
# Velocity S-wave (km/s) = 3.77527 3.82697 3.80120
# Velocity P-wave (km/s) = 6.27903 6.37831 6.32886
#
# Compressibility (1/GPa) = 0.02115118
#
# Stress axis : x y z
#
# Youngs Moduli (GPa) = 95.91119 63.96015 78.47350
#
# Poissons Ratio (x) = 0.18701 0.21683
# Poissons Ratio (y) = 0.28043 0.24637
# Poissons Ratio (z) = 0.26501 0.20081
#
# Static dielectric constant tensor:
#      x y z
#    x 4.213160 0.000000 0.000000 
#    y 0.000000 4.365920 0.000000 
#    z 0.000000 0.000000 4.064430 
# 
# 
# High freq. dielectric constant tensor:
#      x y z
#    x 1.923480 0.000000 0.000000 
#    y 0.000000 1.921880 0.000000 
#    z 0.000000 0.000000 1.905840 
# 
# From -- ./inp_files/4231.got.cif
#   From: 2010.03.12/outbox.cif.g09.slc.cpg/sg18_3_cif.got.tgz:4231.got - 2010.04.10 18:53:55.
