data_PCOD8156747
_publ_section_title
;
Structure prediction by ZEFSAII (Michael W. Deem and Ramdas Pophale) SiO2 
 PCOD8156747
Probable space group: P 21 21 21
;
_chemical_formula_sum "Si O2"
_cell_formula_units_Z 28
_cell_length_a 9.084115
_cell_length_b 11.557411
_cell_length_c 12.866926
_cell_angle_alpha 90.000000
_cell_angle_beta 90.000000
_cell_angle_gamma 90.000000
_cell_volume 1350.883772
_symmetry_space_group_name_H-M "P 21 21 21"
_symmetry_group_IT_number 19
_symmetry_cell_setting 'orthorhombic'
loop_
_space_group_symop_operation_xyz
x,y,z
1/2-x,-y,1/2+z
1/2+x,1/2-y,-z
-x,1/2+y,1/2-z
loop_
_atom_site_type_symbol
_atom_site_label
_atom_site_fract_x
_atom_site_fract_y
_atom_site_fract_z
Si Si1 0.940124 0.525432 0.751856
Si Si2 0.282354 0.837369 0.083708
Si Si3 0.244808 0.157039 0.144584
Si Si4 0.960653 0.541989 0.207542
Si Si5 0.446135 0.726996 0.914533
Si Si6 0.769453 0.902523 0.248328
Si Si7 0.755708 0.553105 0.563403
O O1 0.854347 0.631870 0.806131
O O2 0.888714 0.402178 0.801163
O O3 0.908347 0.534463 0.627389
O O4 0.112558 0.540340 0.772185
O O5 0.117081 0.796027 0.096628
O O6 0.385826 0.737874 0.032290
O O7 0.281077 0.947942 0.011352
O O8 0.104950 0.075538 0.178670
O O9 0.237508 0.290742 0.177553
O O10 0.244885 0.160842 0.017593
O O11 0.919154 0.652804 0.141348
O O12 0.869717 0.436362 0.153218
O O13 0.130566 0.505710 0.204585
O O14 0.347801 0.628858 0.860109
#
# Coordination Sequence:
#
# PCOD8156747 Si02
#       7
#     4   4   4   4   4   4   4
#     4  10  21  36  54  81 112 144 184 234 278 329
#     4  10  20  36  59  82 112 150 187 232 283 331
#     4   9  20  38  56  76 109 149 183 225 284 339
#     4   9  20  36  54  79 111 143 184 235 278 328
#     4  10  20  35  58  85 112 148 190 232 279 332
#     4  11  21  35  57  84 112 146 187 230 284 339
#     4   9  18  36  54  73 108 148 181 224 280 332
#
# _framework density 20.727171999999999
#
# number of rings (size 3 to 8) (size 9 to 14) (size 15 to 20)
#    0.000    2.286    0.000    4.286    0.000    3.429 
#    0.000    4.286    0.000    0.000    0.000    0.000 
#    0.000    0.000    0.000    0.000    0.000    0.000 
#
# Total GULP energy -346924.519280 kJ/mol
# GULP energy per Si atom -12390.161403 kJ/mol
# Density = 2.068000 g / cm^3
# Si number density = 20.727172 Si / 1000 Ang^3
#
#
#
# Elastic Constant Matrix: (Units=GPa)
#
#
# Indices 1 2 3 4 5 6 
#
# 1 153.5346 20.2361 17.8366 0.0000 0.0000 0.0000
# 2 20.2361 27.4275 -6.7217 0.0000 0.0000 0.0000
# 3 17.8366 -6.7217 59.8687 0.0000 0.0000 0.0000
# 4 0.0000 0.0000 0.0000 13.5141 0.0000 0.0000
# 5 0.0000 0.0000 0.0000 0.0000 26.3141 0.0000
# 6 0.0000 0.0000 0.0000 0.0000 0.0000 38.5577
#
#
#
# Elastic Compliance Matrix: (Units=1/GPa)
#
#
# Indices 1 2 3 4 5 6 
#
# 1 0.007711 -0.006429 -0.003019 0.000000 0.000000 0.000000
# 2 -0.006429 0.042852 0.006727 0.000000 0.000000 0.000000
# 3 -0.003019 0.006727 0.018358 0.000000 0.000000 0.000000
# 4 0.000000 0.000000 0.000000 0.073997 0.000000 0.000000
# 5 0.000000 0.000000 0.000000 0.000000 0.038002 0.000000
# 6 0.000000 0.000000 0.000000 0.000000 0.000000 0.025935
#
#
# Mechanical properties :
#
#
# Convention : Reuss Voigt Hill
#
# Bulk Modulus (GPa) = 15.75371 33.72587 24.73979
# Shear Modulus (GPa) = 21.41704 29.64250 25.52977
#
# Velocity S-wave (km/s) = 3.21796 3.78581 3.51337
# Velocity P-wave (km/s) = 4.62861 5.95117 5.33106
#
# Compressibility (1/GPa) = 0.06347712
#
# Stress axis : x y z
#
# Youngs Moduli (GPa) = 129.67889 23.33620 54.47222
#
# Poissons Ratio (x) = 0.15004 0.16447
# Poissons Ratio (y) = 0.83376 -0.36641
# Poissons Ratio (z) = 0.39154 -0.15697
#
# Static dielectric constant tensor:
#      x y z
#    x 3.706900 0.000000 0.000000 
#    y 0.000000 4.122960 0.000000 
#    z 0.000000 0.000000 4.248230 
# 
# 
# High freq. dielectric constant tensor:
#      x y z
#    x 1.807550 0.000000 0.000000 
#    y 0.000000 1.788500 0.000000 
#    z 0.000000 0.000000 1.814280 
# 
# From -- ./inp_files/3461.got.cif
#   From: 2010.03.12/outbox.cif.g09.slc.cpg/sg19_2_cif.got.tgz:3461.got - 2010.04.10 18:59:41.
