data_PCOD8156876
_publ_section_title
;
Structure prediction by ZEFSAII (Michael W. Deem and Ramdas Pophale) SiO2 
 PCOD8156876
Probable space group: P 21 21 21
;
_chemical_formula_sum "Si O2"
_cell_formula_units_Z 32
_cell_length_a 11.777044
_cell_length_b 14.086955
_cell_length_c 7.801965
_cell_angle_alpha 90.000000
_cell_angle_beta 90.000000
_cell_angle_gamma 90.000000
_cell_volume 1294.366972
_symmetry_space_group_name_H-M "P 21 21 21"
_symmetry_group_IT_number 19
_symmetry_cell_setting 'orthorhombic'
loop_
_space_group_symop_operation_xyz
x,y,z
1/2-x,-y,1/2+z
1/2+x,1/2-y,-z
-x,1/2+y,1/2-z
loop_
_atom_site_type_symbol
_atom_site_label
_atom_site_fract_x
_atom_site_fract_y
_atom_site_fract_z
Si Si1 0.959205 0.851927 0.478730
Si Si2 0.603339 0.979967 0.176279
Si Si3 0.200570 0.923516 0.506447
Si Si4 0.694879 0.211221 0.446061
Si Si5 0.590303 0.874774 0.820833
Si Si6 0.647493 0.051612 0.664959
Si Si7 0.855518 0.697866 0.283845
Si Si8 0.626507 0.401892 0.295326
O O1 0.937775 0.896431 0.291669
O O2 0.895900 0.749927 0.462300
O O3 0.095919 0.848774 0.495216
O O4 0.907371 0.905321 0.646472
O O5 0.724980 0.949505 0.249803
O O6 0.496895 0.933956 0.280164
O O7 0.594731 0.943967 0.981650
O O8 0.280153 0.891684 0.664342
O O9 0.273183 0.921972 0.335195
O O10 0.154332 0.030120 0.540720
O O11 0.812611 0.205542 0.341779
O O12 0.641524 0.103317 0.474977
O O13 0.716643 0.239208 0.647468
O O14 0.618784 0.291138 0.352816
O O15 0.469067 0.827001 0.818117
O O16 0.610132 0.940765 0.650561
#
# Coordination Sequence:
#
# PCOD8156876 Si02
#       8
#     4   4   4   4   4   4   4   4
#     4   9  21  40  61  91 136 168 226 284 343 412
#     4   9  19  39  61  91 134 173 222 295 334 421
#     4  11  25  42  69  99 147 188 229 307 353 422
#     4  10  21  41  71 101 132 185 237 292 352 434
#     4  10  20  40  65  97 136 172 229 294 347 422
#     4   9  20  39  67  95 130 177 224 284 353 404
#     4  11  22  43  66 101 136 187 232 289 359 426
#     4  11  22  42  64  99 141 182 241 289 365 417
#
# _framework density 24.72251
#
# number of rings (size 3 to 8) (size 9 to 14) (size 15 to 20)
#    0.000    2.000    1.250    1.500    3.500    2.000 
#   13.500    2.500    0.000    0.000    0.000    0.000 
#    0.000    0.000    0.000    0.000    0.000    0.000 
#
# Total GULP energy -396485.722412 kJ/mol
# GULP energy per Si atom -12390.178825 kJ/mol
# Density = 2.466624 g / cm^3
# Si number density = 24.722510 Si / 1000 Ang^3
#
#
#
# Elastic Constant Matrix: (Units=GPa)
#
#
# Indices 1 2 3 4 5 6 
#
# 1 111.0026 25.7405 10.0557 0.0000 0.0000 0.0000
# 2 25.7405 93.0078 -4.1578 0.0000 0.0000 0.0000
# 3 10.0557 -4.1578 40.9311 0.0000 0.0000 0.0000
# 4 0.0000 0.0000 0.0000 11.5014 0.0000 0.0000
# 5 0.0000 0.0000 0.0000 0.0000 38.0158 0.0000
# 6 0.0000 0.0000 0.0000 0.0000 0.0000 33.1217
#
#
#
# Elastic Compliance Matrix: (Units=1/GPa)
#
#
# Indices 1 2 3 4 5 6 
#
# 1 0.009921 -0.002868 -0.002729 0.000000 0.000000 0.000000
# 2 -0.002868 0.011630 0.001886 0.000000 0.000000 0.000000
# 3 -0.002729 0.001886 0.025293 0.000000 0.000000 0.000000
# 4 0.000000 0.000000 0.000000 0.086946 0.000000 0.000000
# 5 0.000000 0.000000 0.000000 0.000000 0.026305 0.000000
# 6 0.000000 0.000000 0.000000 0.000000 0.000000 0.030192
#
#
# Mechanical properties :
#
#
# Convention : Reuss Voigt Hill
#
# Bulk Modulus (GPa) = 25.36586 34.24647 29.80617
# Shear Modulus (GPa) = 23.71372 30.74799 27.23085
#
# Velocity S-wave (km/s) = 3.10045 3.53047 3.32243
# Velocity P-wave (km/s) = 4.80620 5.52281 5.17692
#
# Compressibility (1/GPa) = 0.03942307
#
# Stress axis : x y z
#
# Youngs Moduli (GPa) = 100.79663 85.98645 39.53632
#
# Poissons Ratio (x) = 0.24658 0.10788
# Poissons Ratio (y) = 0.28905 -0.07456
# Poissons Ratio (z) = 0.27504 -0.16216
#
# Static dielectric constant tensor:
#      x y z
#    x 4.502200 0.000000 0.000000 
#    y 0.000000 4.854700 0.000000 
#    z 0.000000 0.000000 4.102320 
# 
# 
# High freq. dielectric constant tensor:
#      x y z
#    x 1.980000 0.000000 0.000000 
#    y 0.000000 1.989740 0.000000 
#    z 0.000000 0.000000 1.965040 
# 
# From -- ./inp_files/3628.got.cif
#   From: 2010.03.12/outbox.cif.g09.slc.cpg/sg19_2_cif.got.tgz:3628.got - 2010.04.10 18:59:41.
