data_PCOD8156461
_publ_section_title
;
Structure prediction by ZEFSAII (Michael W. Deem and Ramdas Pophale) SiO2 
 PCOD8156461
Probable space group: P 21 21 2
;
_chemical_formula_sum "Si O2"
_cell_formula_units_Z 24
_cell_length_a 8.505665
_cell_length_b 10.372219
_cell_length_c 12.331413
_cell_angle_alpha 90.000000
_cell_angle_beta 90.000000
_cell_angle_gamma 90.000000
_cell_volume 1087.909565
_symmetry_space_group_name_H-M "P 21 21 2"
_symmetry_group_IT_number 18
_symmetry_cell_setting 'orthorhombic'
loop_
_space_group_symop_operation_xyz
x,y,z
-x,-y,z
1/2+x,1/2-y,-z
1/2-x,1/2+y,-z
loop_
_atom_site_type_symbol
_atom_site_label
_atom_site_fract_x
_atom_site_fract_y
_atom_site_fract_z
Si Si1 0.634074 0.759081 0.264174
Si Si2 0.934807 0.641085 0.321068
Si Si3 0.080307 0.362201 0.562774
Si Si4 0.450568 0.648995 0.069234
Si Si5 0.867237 0.234301 0.133987
Si Si6 0.181343 0.975425 0.285870
O O1 0.758170 0.641896 0.273619
O O2 0.511089 0.758899 0.363067
O O3 0.540070 0.738722 0.154312
O O4 0.729217 0.891900 0.265657
O O5 0.917490 0.700020 0.442704
O O6 0.000000 0.500000 0.329243
O O7 0.053581 0.717630 0.244969
O O8 0.251781 0.389449 0.614377
O O9 0.000000 0.500000 0.560666
O O10 0.500000 0.500000 0.081360
O O11 0.262876 0.667054 0.086560
O O12 0.495982 0.706311 0.952488
O O13 0.790794 0.099052 0.171317
O O14 0.000000 0.000000 0.312040
#
# Coordination Sequence:
#
# PCOD8156461 Si02
#       6
#     4   4   4   4   4   4
#     4  11  23  43  71  99 138 185 229 293 352 425
#     4  11  24  44  67 102 145 182 234 287 359 423
#     4   9  22  42  68 105 138 182 228 286 352 426
#     4  12  28  47  70 102 140 184 240 295 364 422
#     4  12  26  45  72  99 142 184 241 296 351 428
#     4  11  22  44  72 103 137 181 243 283 351 425
#
# _framework density 22.060656000000002
#
# number of rings (size 3 to 8) (size 9 to 14) (size 15 to 20)
#    0.000    1.000    3.333    2.500    4.667    0.000 
#    0.000    4.167    0.000    0.000    0.000    0.000 
#    0.000    0.000    0.000    0.000    0.000    0.000 
#
# Total GULP energy -297517.609351 kJ/mol
# GULP energy per Si atom -12396.567056 kJ/mol
# Density = 2.201044 g / cm^3
# Si number density = 22.060656 Si / 1000 Ang^3
#
#
#
# Elastic Constant Matrix: (Units=GPa)
#
#
# Indices 1 2 3 4 5 6 
#
# 1 132.5979 43.3541 52.6297 0.0000 0.0000 0.0000
# 2 43.3541 67.0901 39.9233 0.0000 0.0000 0.0000
# 3 52.6297 39.9233 162.1938 0.0000 0.0000 0.0000
# 4 0.0000 0.0000 0.0000 28.4674 0.0000 0.0000
# 5 0.0000 0.0000 0.0000 0.0000 39.4423 0.0000
# 6 0.0000 0.0000 0.0000 0.0000 0.0000 39.2831
#
#
#
# Elastic Compliance Matrix: (Units=1/GPa)
#
#
# Indices 1 2 3 4 5 6 
#
# 1 0.010062 -0.005342 -0.001950 0.000000 0.000000 0.000000
# 2 -0.005342 0.020299 -0.003263 0.000000 0.000000 0.000000
# 3 -0.001950 -0.003263 0.007601 0.000000 0.000000 0.000000
# 4 0.000000 0.000000 0.000000 0.035128 0.000000 0.000000
# 5 0.000000 0.000000 0.000000 0.000000 0.025354 0.000000
# 6 0.000000 0.000000 0.000000 0.000000 0.000000 0.025456
#
#
# Mechanical properties :
#
#
# Convention : Reuss Voigt Hill
#
# Bulk Modulus (GPa) = 59.33861 70.41066 64.87464
# Shear Modulus (GPa) = 33.19435 36.50354 34.84894
#
# Velocity S-wave (km/s) = 3.88324 4.07220 3.97884
# Velocity P-wave (km/s) = 6.86020 7.35504 7.11192
#
# Compressibility (1/GPa) = 0.01685243
#
# Stress axis : x y z
#
# Youngs Moduli (GPa) = 99.38198 49.26348 131.55302
#
# Poissons Ratio (x) = 0.26315 0.25655
# Poissons Ratio (y) = 0.53087 0.42928
# Poissons Ratio (z) = 0.19381 0.16076
#
# Static dielectric constant tensor:
#      x y z
#    x 4.394070 0.000000 0.000000 
#    y 0.000000 4.129600 0.000000 
#    z 0.000000 0.000000 4.304990 
# 
# 
# High freq. dielectric constant tensor:
#      x y z
#    x 1.878200 0.000000 0.000000 
#    y 0.000000 1.857840 0.000000 
#    z 0.000000 0.000000 1.878940 
# 
# From -- ./inp_files/5497.got.cif
#   From: 2010.03.12/outbox.cif.g09.slc.cpg/sg18_3_cif.got.tgz:5497.got - 2010.04.10 18:53:55.
