data_PCOD8156872
_publ_section_title
;
Structure prediction by ZEFSAII (Michael W. Deem and Ramdas Pophale) SiO2 
 PCOD8156872
Probable space group: P 21 21 21
;
_chemical_formula_sum "Si O2"
_cell_formula_units_Z 28
_cell_length_a 12.783247
_cell_length_b 9.588288
_cell_length_c 11.888048
_cell_angle_alpha 90.000000
_cell_angle_beta 90.000000
_cell_angle_gamma 90.000000
_cell_volume 1457.111550
_symmetry_space_group_name_H-M "P 21 21 21"
_symmetry_group_IT_number 19
_symmetry_cell_setting 'orthorhombic'
loop_
_space_group_symop_operation_xyz
x,y,z
1/2-x,-y,1/2+z
1/2+x,1/2-y,-z
-x,1/2+y,1/2-z
loop_
_atom_site_type_symbol
_atom_site_label
_atom_site_fract_x
_atom_site_fract_y
_atom_site_fract_z
Si Si1 0.374318 0.166947 0.048291
Si Si2 0.752350 0.341481 0.731238
Si Si3 0.374038 0.099281 0.700902
Si Si4 0.108098 0.314814 0.980598
Si Si5 0.816274 0.501746 0.523110
Si Si6 0.611358 0.105686 0.763129
Si Si7 0.696632 0.835821 0.651956
O O1 0.330864 0.206891 0.170336
O O2 0.495657 0.127923 0.057008
O O3 0.366616 0.296752 0.961789
O O4 0.306350 0.036701 0.000968
O O5 0.660011 0.441591 0.774325
O O6 0.823363 0.415343 0.637976
O O7 0.687450 0.206080 0.690063
O O8 0.363398 0.108923 0.566176
O O9 0.490166 0.136886 0.740927
O O10 0.294725 0.202044 0.765699
O O11 0.187746 0.380639 0.888922
O O12 0.118101 0.146087 0.974678
O O13 0.135523 0.370205 0.105099
O O14 0.636225 0.950592 0.723420
#
# Coordination Sequence:
#
# PCOD8156872 Si02
#       7
#     4   4   4   4   4   4   4
#     4  10  20  40  64  87 125 165 202 252 317 365
#     4  11  21  42  62  92 124 166 204 256 311 376
#     4  11  20  39  65  93 115 166 213 253 301 379
#     4  11  20  40  62  89 126 166 200 259 315 364
#     4  10  21  40  67  88 121 165 219 249 301 382
#     4  12  22  36  66  91 125 159 206 260 310 362
#     4  11  22  37  60  96 122 155 208 257 309 362
#
# _framework density 19.216097999999999
#
# number of rings (size 3 to 8) (size 9 to 14) (size 15 to 20)
#    0.000    1.143    8.571    1.714    0.000    1.143 
#    2.571    1.429    0.000    0.000    0.000    0.000 
#    0.000    0.000    0.000    0.000    0.000    0.000 
#
# Total GULP energy -347075.519974 kJ/mol
# GULP energy per Si atom -12395.554285 kJ/mol
# Density = 1.917236 g / cm^3
# Si number density = 19.216098 Si / 1000 Ang^3
#
#
#
# Elastic Constant Matrix: (Units=GPa)
#
#
# Indices 1 2 3 4 5 6 
#
# 1 94.6885 24.5941 35.7256 0.0000 0.0000 0.0000
# 2 24.5941 68.0256 43.1517 0.0000 0.0000 0.0000
# 3 35.7256 43.1517 116.3427 0.0000 0.0000 0.0000
# 4 0.0000 0.0000 0.0000 33.9019 0.0000 0.0000
# 5 0.0000 0.0000 0.0000 0.0000 26.6659 0.0000
# 6 0.0000 0.0000 0.0000 0.0000 0.0000 19.1197
#
#
#
# Elastic Compliance Matrix: (Units=1/GPa)
#
#
# Indices 1 2 3 4 5 6 
#
# 1 0.012309 -0.002684 -0.002784 0.000000 0.000000 0.000000
# 2 -0.002684 0.019808 -0.006523 0.000000 0.000000 0.000000
# 3 -0.002784 -0.006523 0.011870 0.000000 0.000000 0.000000
# 4 0.000000 0.000000 0.000000 0.029497 0.000000 0.000000
# 5 0.000000 0.000000 0.000000 0.000000 0.037501 0.000000
# 6 0.000000 0.000000 0.000000 0.000000 0.000000 0.052302
#
#
# Mechanical properties :
#
#
# Convention : Reuss Voigt Hill
#
# Bulk Modulus (GPa) = 49.98821 53.99996 51.99409
# Shear Modulus (GPa) = 25.78161 27.64317 26.71239
#
# Velocity S-wave (km/s) = 3.66685 3.79693 3.73246
# Velocity P-wave (km/s) = 6.63309 6.88365 6.75953
#
# Compressibility (1/GPa) = 0.02000472
#
# Stress axis : x y z
#
# Youngs Moduli (GPa) = 81.24465 50.48359 84.24928
#
# Poissons Ratio (x) = 0.13550 0.23456
# Poissons Ratio (y) = 0.21806 0.54954
# Poissons Ratio (z) = 0.22619 0.32929
#
# Static dielectric constant tensor:
#      x y z
#    x 3.510010 0.000000 0.000000 
#    y 0.000000 3.291860 0.000000 
#    z 0.000000 0.000000 3.707000 
# 
# 
# High freq. dielectric constant tensor:
#      x y z
#    x 1.743030 0.000000 0.000000 
#    y 0.000000 1.725750 0.000000 
#    z 0.000000 0.000000 1.751770 
# 
# From -- ./inp_files/4945.got.cif
#   From: 2010.03.12/outbox.cif.g09.slc.cpg/sg19_3_cif.got.tgz:4945.got - 2010.04.10 18:59:41.
