data_PCOD8156702
_publ_section_title
;
Structure prediction by ZEFSAII (Michael W. Deem and Ramdas Pophale) SiO2 
 PCOD8156702
Probable space group: P 21 21 21
;
_chemical_formula_sum "Si O2"
_cell_formula_units_Z 28
_cell_length_a 15.677187
_cell_length_b 9.111030
_cell_length_c 9.345498
_cell_angle_alpha 90.000000
_cell_angle_beta 90.000000
_cell_angle_gamma 90.000000
_cell_volume 1334.867207
_symmetry_space_group_name_H-M "P 21 21 21"
_symmetry_group_IT_number 19
_symmetry_cell_setting 'orthorhombic'
loop_
_space_group_symop_operation_xyz
x,y,z
1/2-x,-y,1/2+z
1/2+x,1/2-y,-z
-x,1/2+y,1/2-z
loop_
_atom_site_type_symbol
_atom_site_label
_atom_site_fract_x
_atom_site_fract_y
_atom_site_fract_z
Si Si1 0.005946 0.470331 0.072868
Si Si2 0.038642 0.148743 0.177781
Si Si3 0.395744 0.466823 0.995780
Si Si4 0.174314 0.014770 0.357400
Si Si5 0.733571 0.790777 0.697168
Si Si6 0.629602 0.983421 0.176922
Si Si7 0.239008 0.298094 0.482888
O O1 0.043024 0.321222 0.143737
O O2 0.019842 0.608055 0.182072
O O3 0.904387 0.448741 0.049209
O O4 0.046711 0.512012 0.922151
O O5 0.994428 0.052982 0.051070
O O6 0.134960 0.091469 0.212569
O O7 0.339497 0.349918 0.907563
O O8 0.355140 0.627478 0.967620
O O9 0.397087 0.438098 0.164630
O O10 0.238564 0.884815 0.315837
O O11 0.227277 0.126686 0.454442
O O12 0.825803 0.857473 0.657932
O O13 0.717800 0.831860 0.863674
O O14 0.697364 0.860301 0.134503
#
# Coordination Sequence:
#
# PCOD8156702 Si02
#       7
#     4   4   4   4   4   4   4
#     4  10  22  41  62  96 118 168 213 261 312 385
#     4  10  20  38  66  87 128 163 214 257 320 381
#     4  10  19  40  61  91 117 168 205 259 314 387
#     4  10  23  38  64  93 126 161 218 267 312 378
#     4  10  21  41  64  90 127 167 213 260 317 382
#     4  10  23  39  66  91 126 166 217 262 315 385
#     4  10  22  39  63  88 126 169 214 258 316 382
#
# _framework density 20.97587
#
# number of rings (size 3 to 8) (size 9 to 14) (size 15 to 20)
#    0.857    1.143    1.429    1.714    0.000    6.857 
#    5.143    0.000    0.000    0.000    0.000    0.000 
#    0.000    0.000    0.000    0.000    0.000    0.000 
#
# Total GULP energy -346953.032770 kJ/mol
# GULP energy per Si atom -12391.179742 kJ/mol
# Density = 2.092813 g / cm^3
# Si number density = 20.975870 Si / 1000 Ang^3
#
#
#
# Elastic Constant Matrix: (Units=GPa)
#
#
# Indices 1 2 3 4 5 6 
#
# 1 49.2018 11.2151 35.3694 0.0000 0.0000 0.0000
# 2 11.2151 93.0690 33.2761 0.0000 0.0000 0.0000
# 3 35.3694 33.2761 132.0931 0.0000 0.0000 0.0000
# 4 0.0000 0.0000 0.0000 29.2459 0.0000 0.0000
# 5 0.0000 0.0000 0.0000 0.0000 27.0686 0.0000
# 6 0.0000 0.0000 0.0000 0.0000 0.0000 22.0469
#
#
#
# Elastic Compliance Matrix: (Units=1/GPa)
#
#
# Indices 1 2 3 4 5 6 
#
# 1 0.025209 -0.000686 -0.006577 0.000000 0.000000 0.000000
# 2 -0.000686 0.011827 -0.002796 0.000000 0.000000 0.000000
# 3 -0.006577 -0.002796 0.010036 0.000000 0.000000 0.000000
# 4 0.000000 0.000000 0.000000 0.034193 0.000000 0.000000
# 5 0.000000 0.000000 0.000000 0.000000 0.036943 0.000000
# 6 0.000000 0.000000 0.000000 0.000000 0.000000 0.045358
#
#
# Mechanical properties :
#
#
# Convention : Reuss Voigt Hill
#
# Bulk Modulus (GPa) = 37.10050 48.23167 42.66609
# Shear Modulus (GPa) = 25.95138 28.63917 27.29527
#
# Velocity S-wave (km/s) = 3.52120 3.69906 3.61123
# Velocity P-wave (km/s) = 5.85299 6.42556 6.14595
#
# Compressibility (1/GPa) = 0.02695381
#
# Stress axis : x y z
#
# Youngs Moduli (GPa) = 39.66851 84.55261 99.64351
#
# Poissons Ratio (x) = 0.05802 0.65537
# Poissons Ratio (y) = 0.02722 0.27857
# Poissons Ratio (z) = 0.26090 0.23638
#
# Static dielectric constant tensor:
#      x y z
#    x 3.544050 0.000000 0.000000 
#    y 0.000000 3.654100 0.000000 
#    z 0.000000 0.000000 3.695240 
# 
# 
# High freq. dielectric constant tensor:
#      x y z
#    x 1.799020 0.000000 0.000000 
#    y 0.000000 1.818250 0.000000 
#    z 0.000000 0.000000 1.816220 
# 
# From -- ./inp_files/4136.got.cif
#   From: 2010.03.12/outbox.cif.g09.slc.cpg/sg19_3_cif.got.tgz:4136.got - 2010.04.10 18:59:41.
