data_PCOD8156729
_publ_section_title
;
Structure prediction by ZEFSAII (Michael W. Deem and Ramdas Pophale) SiO2 
 PCOD8156729
Probable space group: P 21 21 21
;
_chemical_formula_sum "Si O2"
_cell_formula_units_Z 28
_cell_length_a 11.173181
_cell_length_b 5.002228
_cell_length_c 24.896370
_cell_angle_alpha 90.000000
_cell_angle_beta 90.000000
_cell_angle_gamma 90.000000
_cell_volume 1391.478008
_symmetry_space_group_name_H-M "P 21 21 21"
_symmetry_group_IT_number 19
_symmetry_cell_setting 'orthorhombic'
loop_
_space_group_symop_operation_xyz
x,y,z
1/2-x,-y,1/2+z
1/2+x,1/2-y,-z
-x,1/2+y,1/2-z
loop_
_atom_site_type_symbol
_atom_site_label
_atom_site_fract_x
_atom_site_fract_y
_atom_site_fract_z
Si Si1 0.661804 0.092128 0.046982
Si Si2 0.838147 0.092167 0.953029
Si Si3 0.582384 0.500159 0.810832
Si Si4 0.226400 0.109596 0.410339
Si Si5 0.499971 0.750011 0.983311
Si Si6 0.773643 0.390360 0.410346
Si Si7 0.917608 0.500220 0.189170
O O1 0.678199 0.398423 0.064623
O O2 0.702870 0.889988 0.094907
O O3 0.533546 0.002663 0.022345
O O4 0.749978 0.011435 0.000005
O O5 0.821747 0.398473 0.935396
O O6 0.797082 0.890041 0.905101
O O7 0.966403 0.002679 0.977664
O O8 0.694442 0.506807 0.850881
O O9 0.632206 0.499999 0.750002
O O10 0.500024 0.249922 0.823558
O O11 0.499964 0.749919 0.822574
O O12 0.106361 0.132263 0.446360
O O13 0.194458 0.006779 0.350875
O O14 0.606301 0.632315 0.946355
#
# Coordination Sequence:
#
# PCOD8156729 Si02
#       7
#     4   4   4   4   4   4   4
#     4  10  22  34  51  78 105 147 189 212 266 331
#     4  10  22  34  51  78 105 147 189 212 266 331
#     4  10  20  34  53  78 107 142 178 221 281 332
#     4  11  21  35  54  78 108 147 181 219 275 323
#     4  10  22  38  54  76 122 146 180 236 262 322
#     4  11  21  35  54  78 108 147 181 219 275 323
#     4  10  20  34  53  78 107 142 178 221 281 332
#
# _framework density 20.122487
#
# number of rings (size 3 to 8) (size 9 to 14) (size 15 to 20)
#    0.000    1.714    1.429    4.286    4.000    5.714 
#    0.000    0.000    0.000    0.000    0.000    4.000 
#    0.000    0.000    0.000    0.000    0.000    0.000 
#
# Total GULP energy -346947.233804 kJ/mol
# GULP energy per Si atom -12390.972636 kJ/mol
# Density = 2.007669 g / cm^3
# Si number density = 20.122487 Si / 1000 Ang^3
#
#
#
# Elastic Constant Matrix: (Units=GPa)
#
#
# Indices 1 2 3 4 5 6 
#
# 1 51.3548 12.8995 24.7641 0.0000 0.0000 0.0000
# 2 12.8995 115.4361 10.0522 0.0000 0.0000 0.0000
# 3 24.7641 10.0522 90.9559 0.0000 0.0000 0.0000
# 4 0.0000 0.0000 0.0000 26.2735 0.0000 0.0000
# 5 0.0000 0.0000 0.0000 0.0000 26.6610 0.0000
# 6 0.0000 0.0000 0.0000 0.0000 0.0000 44.9151
#
#
#
# Elastic Compliance Matrix: (Units=1/GPa)
#
#
# Indices 1 2 3 4 5 6 
#
# 1 0.022879 -0.002034 -0.006004 0.000000 0.000000 0.000000
# 2 -0.002034 0.008928 -0.000433 0.000000 0.000000 0.000000
# 3 -0.006004 -0.000433 0.012677 0.000000 0.000000 0.000000
# 4 0.000000 0.000000 0.000000 0.038061 0.000000 0.000000
# 5 0.000000 0.000000 0.000000 0.000000 0.037508 0.000000
# 6 0.000000 0.000000 0.000000 0.000000 0.000000 0.022264
#
#
# Mechanical properties :
#
#
# Convention : Reuss Voigt Hill
#
# Bulk Modulus (GPa) = 36.30903 39.24205 37.77554
# Shear Modulus (GPa) = 29.68432 33.57197 31.62814
#
# Velocity S-wave (km/s) = 3.84498 4.08901 3.96887
# Velocity P-wave (km/s) = 6.14776 6.46818 6.31000
#
# Compressibility (1/GPa) = 0.02754136
#
# Stress axis : x y z
#
# Youngs Moduli (GPa) = 43.70897 112.01008 78.88339
#
# Poissons Ratio (x) = 0.22780 0.47364
# Poissons Ratio (y) = 0.08889 0.03415
# Poissons Ratio (z) = 0.26244 0.04850
#
# Static dielectric constant tensor:
#      x y z
#    x 3.678930 0.000000 0.000000 
#    y 0.000000 3.768720 0.000000 
#    z 0.000000 0.000000 3.267010 
# 
# 
# High freq. dielectric constant tensor:
#      x y z
#    x 1.762060 0.000000 0.000000 
#    y 0.000000 1.813200 0.000000 
#    z 0.000000 0.000000 1.757450 
# 
# From -- ./inp_files/7388.got.cif
#   From: 2010.03.12/outbox.cif.g09.slc.cpg/sg19_4_cif.got.tgz:7388.got - 2010.04.10 18:59:41.
