data_PCOD8156843
_publ_section_title
;
Structure prediction by ZEFSAII (Michael W. Deem and Ramdas Pophale) SiO2 
 PCOD8156843
Probable space group: P 21 21 21
;
_chemical_formula_sum "Si O2"
_cell_formula_units_Z 32
_cell_length_a 11.105356
_cell_length_b 16.818805
_cell_length_c 7.638147
_cell_angle_alpha 90.000000
_cell_angle_beta 90.000000
_cell_angle_gamma 90.000000
_cell_volume 1426.644061
_symmetry_space_group_name_H-M "P 21 21 21"
_symmetry_group_IT_number 19
_symmetry_cell_setting 'orthorhombic'
loop_
_space_group_symop_operation_xyz
x,y,z
1/2-x,-y,1/2+z
1/2+x,1/2-y,-z
-x,1/2+y,1/2-z
loop_
_atom_site_type_symbol
_atom_site_label
_atom_site_fract_x
_atom_site_fract_y
_atom_site_fract_z
Si Si1 0.801642 0.999549 0.822618
Si Si2 0.659956 0.595628 0.099342
Si Si3 0.131202 0.044891 0.629032
Si Si4 0.898415 0.841608 0.933321
Si Si5 0.238991 0.253529 0.276243
Si Si6 0.950452 0.148694 0.818969
Si Si7 0.586981 0.215060 0.046262
Si Si8 0.067497 0.457905 0.034302
O O1 0.818205 0.921605 0.942778
O O2 0.848830 0.979353 0.631083
O O3 0.879896 0.073319 0.901296
O O4 0.659716 0.024315 0.806417
O O5 0.629929 0.523303 0.225769
O O6 0.537144 0.635202 0.034110
O O7 0.740716 0.659986 0.199970
O O8 0.734093 0.564429 0.931351
O O9 0.067757 0.122510 0.708794
O O10 0.051572 0.012641 0.463889
O O11 0.876983 0.796310 0.749396
O O12 0.862513 0.782869 0.089505
O O13 0.361258 0.303009 0.310719
O O14 0.202026 0.266831 0.074037
O O15 0.994389 0.210651 0.969106
O O16 0.525281 0.133890 0.974852
#
# Coordination Sequence:
#
# PCOD8156843 Si02
#       8
#     4   4   4   4   4   4   4   4
#     4  10  20  38  70  94 127 176 224 292 351 398
#     4  12  26  47  69 104 146 188 241 294 362 440
#     4  11  25  46  71  96 140 191 227 303 356 425
#     4  11  23  48  69 103 141 179 236 300 351 421
#     4  12  26  45  74 105 138 194 238 291 364 426
#     4  11  21  45  69  98 145 178 236 299 345 423
#     4  11  23  43  68  98 145 177 230 292 348 419
#     4  10  20  42  64 100 128 173 232 291 347 412
#
# _framework density 22.430261000000002
#
# number of rings (size 3 to 8) (size 9 to 14) (size 15 to 20)
#    0.000    1.000    6.250    2.250    1.750    1.000 
#    6.750    0.000    0.000    0.000    0.000    0.000 
#    0.000    0.000    0.000    0.000    0.000    0.000 
#
# Total GULP energy -396752.141202 kJ/mol
# GULP energy per Si atom -12398.504413 kJ/mol
# Density = 2.237921 g / cm^3
# Si number density = 22.430261 Si / 1000 Ang^3
#
#
#
# Elastic Constant Matrix: (Units=GPa)
#
#
# Indices 1 2 3 4 5 6 
#
# 1 101.8611 33.2696 39.4796 0.0000 0.0000 0.0000
# 2 33.2696 113.8204 18.5014 0.0000 0.0000 0.0000
# 3 39.4796 18.5014 60.0591 0.0000 0.0000 0.0000
# 4 0.0000 0.0000 0.0000 27.1371 0.0000 0.0000
# 5 0.0000 0.0000 0.0000 0.0000 37.5285 0.0000
# 6 0.0000 0.0000 0.0000 0.0000 0.0000 44.2968
#
#
#
# Elastic Compliance Matrix: (Units=1/GPa)
#
#
# Indices 1 2 3 4 5 6 
#
# 1 0.013930 -0.002719 -0.008319 0.000000 0.000000 0.000000
# 2 -0.002719 0.009780 -0.001225 0.000000 0.000000 0.000000
# 3 -0.008319 -0.001225 0.022496 0.000000 0.000000 0.000000
# 4 0.000000 0.000000 0.000000 0.036850 0.000000 0.000000
# 5 0.000000 0.000000 0.000000 0.000000 0.026646 0.000000
# 6 0.000000 0.000000 0.000000 0.000000 0.000000 0.022575
#
#
# Mechanical properties :
#
#
# Convention : Reuss Voigt Hill
#
# Bulk Modulus (GPa) = 46.12820 50.91574 48.52197
# Shear Modulus (GPa) = 30.48219 34.09180 32.28699
#
# Velocity S-wave (km/s) = 3.69043 3.90282 3.79811
# Velocity P-wave (km/s) = 6.22646 6.56188 6.39637
#
# Compressibility (1/GPa) = 0.02167871
#
# Stress axis : x y z
#
# Youngs Moduli (GPa) = 71.78866 102.25160 44.45220
#
# Poissons Ratio (x) = 0.27806 0.36980
# Poissons Ratio (y) = 0.19522 0.05446
# Poissons Ratio (z) = 0.59721 0.12527
#
# Static dielectric constant tensor:
#      x y z
#    x 4.175840 0.000000 0.000000 
#    y 0.000000 4.434920 0.000000 
#    z 0.000000 0.000000 3.685090 
# 
# 
# High freq. dielectric constant tensor:
#      x y z
#    x 1.881030 0.000000 0.000000 
#    y 0.000000 1.909330 0.000000 
#    z 0.000000 0.000000 1.849120 
# 
# From -- ./inp_files/3759.got.cif
#   From: 2010.03.12/outbox.cif.g09.slc.cpg/sg19_2_cif.got.tgz:3759.got - 2010.04.10 18:59:41.
