data_PCOD8156774
_publ_section_title
;
Structure prediction by ZEFSAII (Michael W. Deem and Ramdas Pophale) SiO2 
 PCOD8156774
Probable space group: P 21 21 21
;
_chemical_formula_sum "Si O2"
_cell_formula_units_Z 32
_cell_length_a 9.295465
_cell_length_b 5.420508
_cell_length_c 30.793172
_cell_angle_alpha 90.000000
_cell_angle_beta 90.000000
_cell_angle_gamma 90.000000
_cell_volume 1551.549149
_symmetry_space_group_name_H-M "P 21 21 21"
_symmetry_group_IT_number 19
_symmetry_cell_setting 'orthorhombic'
loop_
_space_group_symop_operation_xyz
x,y,z
1/2-x,-y,1/2+z
1/2+x,1/2-y,-z
-x,1/2+y,1/2-z
loop_
_atom_site_type_symbol
_atom_site_label
_atom_site_fract_x
_atom_site_fract_y
_atom_site_fract_z
Si Si1 0.709361 0.891897 0.406798
Si Si2 0.000275 0.809851 0.441180
Si Si3 0.818245 0.428723 0.263493
Si Si4 0.844299 0.930742 0.219115
Si Si5 0.779879 0.694724 0.039970
Si Si6 0.020442 0.479860 0.518992
Si Si7 0.087257 0.432925 0.376575
Si Si8 0.767553 0.371977 0.360236
O O1 0.722122 0.624910 0.384219
O O2 0.857337 0.967464 0.431863
O O3 0.577300 0.859844 0.440459
O O4 0.678275 0.128414 0.375447
O O5 0.950467 0.617872 0.478011
O O6 0.049523 0.703396 0.394529
O O7 0.140033 0.933844 0.462154
O O8 0.772028 0.680299 0.238236
O O9 0.737383 0.420940 0.309570
O O10 0.988496 0.434712 0.269577
O O11 0.771622 0.179991 0.237986
O O12 0.819857 0.940946 0.167299
O O13 0.608314 0.691033 0.036581
O O14 0.819528 0.801370 0.086842
O O15 0.840466 0.836787 0.998381
O O16 0.934911 0.299517 0.367603
#
# Coordination Sequence:
#
# PCOD8156774 Si02
#       8
#     4   4   4   4   4   4   4   4
#     4  11  22  38  59  85 116 160 198 244 295 355
#     4  10  21  37  57  81 118 158 203 245 302 348
#     4   9  17  29  50  82 116 156 180 242 287 362
#     4   9  17  28  50  81 121 147 192 226 304 349
#     4  11  22  40  58  81 122 153 209 246 303 349
#     4  11  25  37  59  86 114 165 203 252 296 357
#     4   9  20  33  53  86 116 161 188 250 294 359
#     4  10  20  36  58  84 123 154 199 239 303 351
#
# _framework density 20.624548999999998
#
# number of rings (size 3 to 8) (size 9 to 14) (size 15 to 20)
#    0.000    2.000    1.250    2.250    7.000    4.000 
#    0.000    0.000    0.000    0.000    0.000    3.500 
#    0.000    0.000    0.000    0.000    0.000    0.000 
#
# Total GULP energy -396502.662374 kJ/mol
# GULP energy per Si atom -12390.708199 kJ/mol
# Density = 2.057761 g / cm^3
# Si number density = 20.624549 Si / 1000 Ang^3
#
#
#
# Elastic Constant Matrix: (Units=GPa)
#
#
# Indices 1 2 3 4 5 6 
#
# 1 34.7026 16.8491 34.9461 0.0000 0.0000 0.0000
# 2 16.8491 119.6041 46.7374 0.0000 0.0000 0.0000
# 3 34.9461 46.7374 136.0039 0.0000 0.0000 0.0000
# 4 0.0000 0.0000 0.0000 16.7772 0.0000 0.0000
# 5 0.0000 0.0000 0.0000 0.0000 15.5586 0.0000
# 6 0.0000 0.0000 0.0000 0.0000 0.0000 19.1763
#
#
#
# Elastic Compliance Matrix: (Units=1/GPa)
#
#
# Indices 1 2 3 4 5 6 
#
# 1 0.039220 -0.001833 -0.009448 0.000000 0.000000 0.000000
# 2 -0.001833 0.009744 -0.002877 0.000000 0.000000 0.000000
# 3 -0.009448 -0.002877 0.010769 0.000000 0.000000 0.000000
# 4 0.000000 0.000000 0.000000 0.059605 0.000000 0.000000
# 5 0.000000 0.000000 0.000000 0.000000 0.064273 0.000000
# 6 0.000000 0.000000 0.000000 0.000000 0.000000 0.052148
#
#
# Mechanical properties :
#
#
# Convention : Reuss Voigt Hill
#
# Bulk Modulus (GPa) = 31.83042 54.15286 42.99164
# Shear Modulus (GPa) = 18.21183 23.08763 20.64973
#
# Velocity S-wave (km/s) = 2.97478 3.34941 3.16764
# Velocity P-wave (km/s) = 5.22168 6.42430 5.85395
#
# Compressibility (1/GPa) = 0.03141649
#
# Stress axis : x y z
#
# Youngs Moduli (GPa) = 25.49704 102.63227 92.85869
#
# Poissons Ratio (x) = 0.18815 0.87729
# Poissons Ratio (y) = 0.04674 0.26718
# Poissons Ratio (z) = 0.24089 0.29530
#
# Static dielectric constant tensor:
#      x y z
#    x 3.200610 0.000000 0.000000 
#    y 0.000000 3.825570 0.000000 
#    z 0.000000 0.000000 3.899880 
# 
# 
# High freq. dielectric constant tensor:
#      x y z
#    x 1.750300 0.000000 0.000000 
#    y 0.000000 1.809960 0.000000 
#    z 0.000000 0.000000 1.818820 
# 
# From -- ./inp_files/2326.got.cif
#   From: 2010.03.12/outbox.cif.g09.slc.cpg/sg19_2_cif.got.tgz:2326.got - 2010.04.10 18:59:41.
