data_PCOD8156135
_publ_section_title
;
Structure prediction by ZEFSAII (Michael W. Deem and Ramdas Pophale) SiO2 
 PCOD8156135
Probable space group: P 21 21 2
;
_chemical_formula_sum "Si O2"
_cell_formula_units_Z 32
_cell_length_a 11.604915
_cell_length_b 11.719448
_cell_length_c 11.424786
_cell_angle_alpha 90.000000
_cell_angle_beta 90.000000
_cell_angle_gamma 90.000000
_cell_volume 1553.807431
_symmetry_space_group_name_H-M "P 21 21 2"
_symmetry_group_IT_number 18
_symmetry_cell_setting 'orthorhombic'
loop_
_space_group_symop_operation_xyz
x,y,z
-x,-y,z
1/2+x,1/2-y,-z
1/2-x,1/2+y,-z
loop_
_atom_site_type_symbol
_atom_site_label
_atom_site_fract_x
_atom_site_fract_y
_atom_site_fract_z
Si Si1 0.261061 0.622368 0.299683
Si Si2 0.312130 0.373906 0.282233
Si Si3 0.219674 0.934441 0.171885
Si Si4 0.062312 0.792525 0.310665
Si Si5 0.662783 0.305000 0.829207
Si Si6 0.926600 0.109655 0.956249
Si Si7 0.982487 0.866087 0.555074
Si Si8 0.138372 0.249817 0.911782
O O1 0.247947 0.487625 0.328445
O O2 0.133981 0.674916 0.320206
O O3 0.360032 0.669443 0.388416
O O4 0.300390 0.652270 0.167207
O O5 0.223924 0.270426 0.269252
O O6 0.359791 0.421003 0.160373
O O7 0.413020 0.323707 0.363395
O O8 0.157054 0.893018 0.291311
O O9 0.345438 0.873811 0.153382
O O10 0.220422 0.069735 0.170743
O O11 0.156285 0.869240 0.065104
O O12 0.972942 0.801911 0.201499
O O13 0.990468 0.808303 0.428726
O O14 0.689970 0.253062 0.956349
O O15 0.003589 0.221203 0.927743
O O16 0.000000 0.000000 0.995505
O O17 0.000000 0.000000 0.542694
#
# Coordination Sequence:
#
# PCOD8156135 Si02
#       8
#     4   4   4   4   4   4   4   4
#     4  10  22  41  65  92 127 161 212 270 310 376
#     4  11  22  38  65  90 121 167 212 257 316 383
#     4  11  22  38  59  92 127 162 212 256 320 383
#     4  11  24  39  65  94 125 164 213 263 314 371
#     4  12  23  37  63  92 128 168 206 258 324 391
#     4  12  17  35  63  86 120 160 209 250 315 382
#     4  10  21  41  66  91 119 170 221 257 310 381
#     4  11  21  35  61  92 121 159 207 268 311 368
#
# _framework density 20.594573
#
# number of rings (size 3 to 8) (size 9 to 14) (size 15 to 20)
#    0.000    1.000    6.250    1.500    1.750    0.500 
#    0.000    0.625    2.750    0.000    0.000    0.000 
#    0.000    0.000    0.000    0.000    0.000    0.000 
#
# Total GULP energy -396576.389951 kJ/mol
# GULP energy per Si atom -12393.012186 kJ/mol
# Density = 2.054770 g / cm^3
# Si number density = 20.594573 Si / 1000 Ang^3
#
#
#
# Elastic Constant Matrix: (Units=GPa)
#
#
# Indices 1 2 3 4 5 6 
#
# 1 61.4307 40.2555 19.4010 0.0000 0.0000 0.0000
# 2 40.2555 98.3023 16.3305 0.0000 0.0000 0.0000
# 3 19.4010 16.3305 91.2608 0.0000 0.0000 0.0000
# 4 0.0000 0.0000 0.0000 21.6236 0.0000 0.0000
# 5 0.0000 0.0000 0.0000 0.0000 32.6491 0.0000
# 6 0.0000 0.0000 0.0000 0.0000 0.0000 34.6187
#
#
#
# Elastic Compliance Matrix: (Units=1/GPa)
#
#
# Indices 1 2 3 4 5 6 
#
# 1 0.023191 -0.008944 -0.003330 0.000000 0.000000 0.000000
# 2 -0.008944 0.013934 -0.000592 0.000000 0.000000 0.000000
# 3 -0.003330 -0.000592 0.011771 0.000000 0.000000 0.000000
# 4 0.000000 0.000000 0.000000 0.046246 0.000000 0.000000
# 5 0.000000 0.000000 0.000000 0.000000 0.030629 0.000000
# 6 0.000000 0.000000 0.000000 0.000000 0.000000 0.028886
#
#
# Mechanical properties :
#
#
# Convention : Reuss Voigt Hill
#
# Bulk Modulus (GPa) = 43.16843 44.77419 43.97131
# Shear Modulus (GPa) = 26.58036 29.44540 28.01288
#
# Velocity S-wave (km/s) = 3.59646 3.78533 3.69210
# Velocity P-wave (km/s) = 6.18487 6.39475 6.29069
#
# Compressibility (1/GPa) = 0.02316508
#
# Stress axis : x y z
#
# Youngs Moduli (GPa) = 43.12048 71.76931 84.95173
#
# Poissons Ratio (x) = 0.64188 0.28286
# Poissons Ratio (y) = 0.38565 0.05029
# Poissons Ratio (z) = 0.14358 0.04249
#
# Static dielectric constant tensor:
#      x y z
#    x 3.715670 0.000000 0.000000 
#    y 0.000000 3.573610 0.000000 
#    z 0.000000 0.000000 3.797650 
# 
# 
# High freq. dielectric constant tensor:
#      x y z
#    x 1.795140 0.000000 0.000000 
#    y 0.000000 1.788400 0.000000 
#    z 0.000000 0.000000 1.807720 
# 
# From -- ./inp_files/5940.got.cif
#   From: 2010.03.12/outbox.cif.g09.slc.cpg/sg18_3_cif.got.tgz:5940.got - 2010.04.10 18:53:55.
