data_PCOD8156533
_publ_section_title
;
Structure prediction by ZEFSAII (Michael W. Deem and Ramdas Pophale) SiO2 
 PCOD8156533
Probable space group: P 21 21 2
;
_chemical_formula_sum "Si O2"
_cell_formula_units_Z 14
_cell_length_a 13.442166
_cell_length_b 8.032735
_cell_length_c 4.884026
_cell_angle_alpha 90.000000
_cell_angle_beta 90.000000
_cell_angle_gamma 90.000000
_cell_volume 527.364220
_symmetry_space_group_name_H-M "P 21 21 2"
_symmetry_group_IT_number 18
_symmetry_cell_setting 'orthorhombic'
loop_
_space_group_symop_operation_xyz
x,y,z
-x,-y,z
1/2+x,1/2-y,-z
1/2-x,1/2+y,-z
loop_
_atom_site_type_symbol
_atom_site_label
_atom_site_fract_x
_atom_site_fract_y
_atom_site_fract_z
Si Si1 0.573297 0.281825 0.821889
Si Si2 0.377795 0.242637 0.552609
Si Si3 0.000000 0.500000 0.840647
Si Si4 0.681506 0.416611 0.316976
O O1 0.456790 0.324155 0.764711
O O2 0.631092 0.290319 0.534480
O O3 0.576442 0.098041 0.958598
O O4 0.623648 0.410088 0.030460
O O5 0.436327 0.125342 0.342256
O O6 0.322244 0.391563 0.399934
O O7 0.296083 0.136855 0.718858
#
# Coordination Sequence:
#
# PCOD8156533 Si02
#       4
#     4   4   2   4
#     4  12  29  52  82 122 168 218 276 353 409 500
#     4  12  30  55  88 125 171 220 284 352 411 511
#     4  12  28  52  86 120 170 216 274 348 418 482
#     4  12  31  51  87 124 165 224 282 340 433 490
#
# _framework density 26.547115999999999
#
# number of rings (size 3 to 8) (size 9 to 14) (size 15 to 20)
#    0.000    0.000    2.857    3.429   16.000    0.000 
#    0.000    0.000    0.000    0.000    0.000    0.000 
#    0.000    0.000    0.000    0.000    0.000    0.000 
#
# Total GULP energy -173642.630196 kJ/mol
# GULP energy per Si atom -12403.045014 kJ/mol
# Density = 2.648669 g / cm^3
# Si number density = 26.547116 Si / 1000 Ang^3
#
#
#
# Elastic Constant Matrix: (Units=GPa)
#
#
# Indices 1 2 3 4 5 6 
#
# 1 162.1097 34.5505 44.9765 0.0000 0.0000 0.0000
# 2 34.5505 52.9678 -25.7445 0.0000 0.0000 0.0000
# 3 44.9765 -25.7445 92.8428 0.0000 0.0000 0.0000
# 4 0.0000 0.0000 0.0000 37.5976 0.0000 0.0000
# 5 0.0000 0.0000 0.0000 0.0000 22.5844 0.0000
# 6 0.0000 0.0000 0.0000 0.0000 0.0000 50.0108
#
#
#
# Elastic Compliance Matrix: (Units=1/GPa)
#
#
# Indices 1 2 3 4 5 6 
#
# 1 0.010861 -0.011143 -0.008351 0.000000 0.000000 0.000000
# 2 -0.011143 0.033254 0.014619 0.000000 0.000000 0.000000
# 3 -0.008351 0.014619 0.018870 0.000000 0.000000 0.000000
# 4 0.000000 0.000000 0.000000 0.026597 0.000000 0.000000
# 5 0.000000 0.000000 0.000000 0.000000 0.044278 0.000000
# 6 0.000000 0.000000 0.000000 0.000000 0.000000 0.019996
#
#
# Mechanical properties :
#
#
# Convention : Reuss Voigt Hill
#
# Bulk Modulus (GPa) = 18.78504 46.16505 32.47505
# Shear Modulus (GPa) = 27.57073 38.98107 33.27590
#
# Velocity S-wave (km/s) = 3.22616 3.83609 3.54427
# Velocity P-wave (km/s) = 4.57919 6.08674 5.38597
#
# Compressibility (1/GPa) = 0.05323384
#
# Stress axis : x y z
#
# Youngs Moduli (GPa) = 92.07519 30.07184 52.99312
#
# Poissons Ratio (x) = 0.33510 0.44256
# Poissons Ratio (y) = 1.02603 -0.77472
# Poissons Ratio (z) = 0.76895 -0.43963
#
# Static dielectric constant tensor:
#      x y z
#    x 4.909580 0.000000 0.000000 
#    y 0.000000 4.753210 0.000000 
#    z 0.000000 0.000000 4.902100 
# 
# 
# High freq. dielectric constant tensor:
#      x y z
#    x 2.070200 0.000000 0.000000 
#    y 0.000000 2.077840 0.000000 
#    z 0.000000 0.000000 2.069970 
# 
# From -- ./inp_files/1365.got.cif
#   From: 2010.03.12/outbox.cif.g09.slc.cpg/sg18_1_cif.got.tgz:1365.got - 2010.04.10 18:53:55.
