data_PCOD8156146
_publ_section_title
;
Structure prediction by ZEFSAII (Michael W. Deem and Ramdas Pophale) SiO2 
 PCOD8156146
Probable space group: P 21 21 2
;
_chemical_formula_sum "Si O2"
_cell_formula_units_Z 24
_cell_length_a 9.130806
_cell_length_b 8.464252
_cell_length_c 14.654781
_cell_angle_alpha 90.000000
_cell_angle_beta 90.000000
_cell_angle_gamma 90.000000
_cell_volume 1132.601241
_symmetry_space_group_name_H-M "P 21 21 2"
_symmetry_group_IT_number 18
_symmetry_cell_setting 'orthorhombic'
loop_
_space_group_symop_operation_xyz
x,y,z
-x,-y,z
1/2+x,1/2-y,-z
1/2-x,1/2+y,-z
loop_
_atom_site_type_symbol
_atom_site_label
_atom_site_fract_x
_atom_site_fract_y
_atom_site_fract_z
Si Si1 0.877351 0.287722 0.253599
Si Si2 0.636863 0.599414 0.085803
Si Si3 0.626278 0.872851 0.947718
Si Si4 0.206901 0.357991 0.591489
Si Si5 0.698135 0.141835 0.731476
Si Si6 0.120578 0.716987 0.571737
O O1 0.844979 0.275906 0.145589
O O2 0.773815 0.163967 0.306848
O O3 0.837888 0.460982 0.289937
O O4 0.049327 0.254362 0.272970
O O5 0.500000 0.500000 0.123506
O O6 0.731412 0.475993 0.025029
O O7 0.731548 0.664875 0.169182
O O8 0.585716 0.749369 0.026414
O O9 0.500000 0.000000 0.929499
O O10 0.175969 0.539234 0.573414
O O11 0.328726 0.295649 0.521975
O O12 0.054543 0.264890 0.578532
O O13 0.813891 0.193833 0.657446
#
# Coordination Sequence:
#
# PCOD8156146 Si02
#       6
#     4   4   4   4   4   4
#     4  10  21  42  66  88 128 171 214 265 321 381
#     4  11  24  39  68  97 131 178 222 274 335 387
#     4  11  22  45  63  97 133 175 223 274 330 396
#     4  11  25  43  65  96 130 168 210 268 318 388
#     4  10  22  41  63  93 126 169 217 262 320 387
#     4  11  25  43  64  98 130 164 215 262 324 384
#
# _framework density 21.190158
#
# number of rings (size 3 to 8) (size 9 to 14) (size 15 to 20)
#    0.000    1.333    3.333    3.000    4.667    8.000 
#    3.000    0.000    0.000    0.000    0.000    0.000 
#    0.000    0.000    0.000    0.000    0.000    0.000 
#
# Total GULP energy -297651.562375 kJ/mol
# GULP energy per Si atom -12402.148432 kJ/mol
# Density = 2.114193 g / cm^3
# Si number density = 21.190158 Si / 1000 Ang^3
#
#
#
# Elastic Constant Matrix: (Units=GPa)
#
#
# Indices 1 2 3 4 5 6 
#
# 1 122.6164 25.5041 44.5185 0.0000 0.0000 0.0000
# 2 25.5041 41.9439 40.6224 0.0000 0.0000 0.0000
# 3 44.5185 40.6224 114.0597 0.0000 0.0000 0.0000
# 4 0.0000 0.0000 0.0000 31.4151 0.0000 0.0000
# 5 0.0000 0.0000 0.0000 0.0000 20.8803 0.0000
# 6 0.0000 0.0000 0.0000 0.0000 0.0000 29.9332
#
#
#
# Elastic Compliance Matrix: (Units=1/GPa)
#
#
# Indices 1 2 3 4 5 6 
#
# 1 0.009818 -0.003448 -0.002604 0.000000 0.000000 0.000000
# 2 -0.003448 0.037606 -0.012048 0.000000 0.000000 0.000000
# 3 -0.002604 -0.012048 0.014075 0.000000 0.000000 0.000000
# 4 0.000000 0.000000 0.000000 0.031832 0.000000 0.000000
# 5 0.000000 0.000000 0.000000 0.000000 0.047892 0.000000
# 6 0.000000 0.000000 0.000000 0.000000 0.000000 0.033408
#
#
# Mechanical properties :
#
#
# Convention : Reuss Voigt Hill
#
# Bulk Modulus (GPa) = 39.52675 55.54554 47.53614
# Shear Modulus (GPa) = 22.80372 27.64406 25.22389
#
# Velocity S-wave (km/s) = 3.28403 3.61580 3.45390
# Velocity P-wave (km/s) = 5.75097 6.61074 6.19578
#
# Compressibility (1/GPa) = 0.02529933
#
# Stress axis : x y z
#
# Youngs Moduli (GPa) = 101.85210 26.59157 71.05031
#
# Poissons Ratio (x) = 0.09168 0.18503
# Poissons Ratio (y) = 0.35117 0.85599
# Poissons Ratio (z) = 0.26524 0.32037
#
# Static dielectric constant tensor:
#      x y z
#    x 4.207060 0.000000 0.000000 
#    y 0.000000 3.724540 0.000000 
#    z 0.000000 0.000000 3.727200 
# 
# 
# High freq. dielectric constant tensor:
#      x y z
#    x 1.849420 0.000000 0.000000 
#    y 0.000000 1.818110 0.000000 
#    z 0.000000 0.000000 1.828460 
# 
# From -- ./inp_files/6660.got.cif
#   From: 2010.03.12/outbox.cif.g09.slc.cpg/sg18_4_cif.got.tgz:6660.got - 2010.04.10 18:53:55.
