data_PCOD8156315
_publ_section_title
;
Structure prediction by ZEFSAII (Michael W. Deem and Ramdas Pophale) SiO2 
 PCOD8156315
Probable space group: P 21 21 2
;
_chemical_formula_sum "Si O2"
_cell_formula_units_Z 26
_cell_length_a 11.043607
_cell_length_b 13.110806
_cell_length_c 9.427231
_cell_angle_alpha 90.000000
_cell_angle_beta 90.000000
_cell_angle_gamma 90.000000
_cell_volume 1364.974328
_symmetry_space_group_name_H-M "P 21 21 2"
_symmetry_group_IT_number 18
_symmetry_cell_setting 'orthorhombic'
loop_
_space_group_symop_operation_xyz
x,y,z
-x,-y,z
1/2+x,1/2-y,-z
1/2-x,1/2+y,-z
loop_
_atom_site_type_symbol
_atom_site_label
_atom_site_fract_x
_atom_site_fract_y
_atom_site_fract_z
Si Si1 0.368826 0.015845 0.906698
Si Si2 0.786084 0.886793 0.686858
Si Si3 0.134833 0.525788 0.568848
Si Si4 0.316707 0.352934 0.036303
Si Si5 0.500000 0.500000 0.169794
Si Si6 0.181807 0.334889 0.755901
Si Si7 0.911341 0.350489 0.834337
O O1 0.302118 0.104851 0.821687
O O2 0.500000 0.000000 0.837889
O O3 0.297984 0.909290 0.892944
O O4 0.379223 0.051187 0.070073
O O5 0.725880 0.943430 0.554467
O O6 0.806201 0.766963 0.660117
O O7 0.912290 0.940498 0.723462
O O8 0.191104 0.428572 0.648284
O O9 0.125888 0.621991 0.674690
O O10 0.000000 0.500000 0.510927
O O11 0.434679 0.421957 0.062790
O O12 0.334108 0.245493 0.113901
O O13 0.292146 0.339942 0.868672
O O14 0.055332 0.330678 0.843061
#
# Coordination Sequence:
#
# PCOD8156315 Si02
#       7
#     4   4   4   4   2   4   4
#     4  11  20  35  61  95 120 160 216 257 303 376
#     4  11  23  39  64  88 128 167 206 257 318 379
#     4  10  23  43  65  90 127 165 212 260 316 387
#     4  11  21  37  66  94 125 166 206 266 320 369
#     4  10  24  40  60  92 138 162 204 262 324 374
#     4  11  21  40  66  91 125 169 213 264 319 377
#     4  11  20  39  66  92 125 164 213 258 319 374
#
# _framework density 19.047979000000002
#
# number of rings (size 3 to 8) (size 9 to 14) (size 15 to 20)
#    0.000    1.231    6.154    0.923    0.000    2.462 
#    0.000    0.769    0.000    0.000    0.000    0.000 
#    0.000    0.000    0.000    0.000    0.000    0.000 
#
# Total GULP energy -322415.347375 kJ/mol
# GULP energy per Si atom -12400.590284 kJ/mol
# Density = 1.900462 g / cm^3
# Si number density = 19.047979 Si / 1000 Ang^3
#
#
#
# Elastic Constant Matrix: (Units=GPa)
#
#
# Indices 1 2 3 4 5 6 
#
# 1 124.2070 58.5570 57.0061 0.0000 0.0000 0.0000
# 2 58.5570 130.7824 46.8024 0.0000 0.0000 0.0000
# 3 57.0061 46.8024 99.3901 0.0000 0.0000 0.0000
# 4 0.0000 0.0000 0.0000 31.7230 0.0000 0.0000
# 5 0.0000 0.0000 0.0000 0.0000 35.9331 0.0000
# 6 0.0000 0.0000 0.0000 0.0000 0.0000 27.2953
#
#
#
# Elastic Compliance Matrix: (Units=1/GPa)
#
#
# Indices 1 2 3 4 5 6 
#
# 1 0.012156 -0.003545 -0.005303 0.000000 0.000000 0.000000
# 2 -0.003545 0.010230 -0.002784 0.000000 0.000000 0.000000
# 3 -0.005303 -0.002784 0.014414 0.000000 0.000000 0.000000
# 4 0.000000 0.000000 0.000000 0.031523 0.000000 0.000000
# 5 0.000000 0.000000 0.000000 0.000000 0.027829 0.000000
# 6 0.000000 0.000000 0.000000 0.000000 0.000000 0.036636
#
#
# Mechanical properties :
#
#
# Convention : Reuss Voigt Hill
#
# Bulk Modulus (GPa) = 73.87675 75.45673 74.66674
# Shear Modulus (GPa) = 31.14012 31.79121 31.46566
#
# Velocity S-wave (km/s) = 4.04768 4.08978 4.06879
# Velocity P-wave (km/s) = 7.79190 7.87412 7.83312
#
# Compressibility (1/GPa) = 0.01353606
#
# Stress axis : x y z
#
# Youngs Moduli (GPa) = 82.26210 97.75314 69.37785
#
# Poissons Ratio (x) = 0.34655 0.36791
# Poissons Ratio (y) = 0.29163 0.19314
# Poissons Ratio (z) = 0.43623 0.27213
#
# Static dielectric constant tensor:
#      x y z
#    x 3.580670 0.000000 0.000000 
#    y 0.000000 3.573250 0.000000 
#    z 0.000000 0.000000 3.261300 
# 
# 
# High freq. dielectric constant tensor:
#      x y z
#    x 1.741040 0.000000 0.000000 
#    y 0.000000 1.755490 0.000000 
#    z 0.000000 0.000000 1.722480 
# 
# From -- ./inp_files/3773.got.cif
#   From: 2010.03.12/outbox.cif.g09.slc.cpg/sg18_2_cif.got.tgz:3773.got - 2010.04.10 18:53:55.
