data_PCOD8156679
_publ_section_title
;
Structure prediction by ZEFSAII (Michael W. Deem and Ramdas Pophale) SiO2 
 PCOD8156679
Probable space group: P 21 21 21
;
_chemical_formula_sum "Si O2"
_cell_formula_units_Z 32
_cell_length_a 8.174691
_cell_length_b 12.182976
_cell_length_c 14.823457
_cell_angle_alpha 90.000000
_cell_angle_beta 90.000000
_cell_angle_gamma 90.000000
_cell_volume 1476.298682
_symmetry_space_group_name_H-M "P 21 21 21"
_symmetry_group_IT_number 19
_symmetry_cell_setting 'orthorhombic'
loop_
_space_group_symop_operation_xyz
x,y,z
1/2-x,-y,1/2+z
1/2+x,1/2-y,-z
-x,1/2+y,1/2-z
loop_
_atom_site_type_symbol
_atom_site_label
_atom_site_fract_x
_atom_site_fract_y
_atom_site_fract_z
Si Si1 0.540423 0.372744 0.595322
Si Si2 0.113977 0.051251 0.147712
Si Si3 0.733820 0.331685 0.311882
Si Si4 0.936905 0.069426 0.782858
Si Si5 0.987296 0.772719 0.934054
Si Si6 0.687824 0.891564 0.751180
Si Si7 0.127040 0.993626 0.952618
Si Si8 0.759730 0.270215 0.725794
O O1 0.463259 0.324071 0.503617
O O2 0.399989 0.430046 0.654774
O O3 0.692408 0.455695 0.580327
O O4 0.601050 0.270019 0.659443
O O5 0.238340 0.127531 0.205117
O O6 0.924475 0.078270 0.166224
O O7 0.130284 0.923347 0.174280
O O8 0.149808 0.068056 0.041572
O O9 0.566362 0.395924 0.292207
O O10 0.698408 0.259256 0.403716
O O11 0.784782 0.239870 0.239048
O O12 0.788570 0.159294 0.783726
O O13 0.861764 0.953179 0.751622
O O14 0.033756 0.064718 0.877274
O O15 0.009204 0.891101 0.980560
O O16 0.088115 0.785894 0.841261
#
# Coordination Sequence:
#
# PCOD8156679 Si02
#       8
#     4   4   4   4   4   4   4   4
#     4  10  21  40  67 101 131 161 228 295 331 391
#     4  11  24  44  67  98 138 181 223 281 347 412
#     4  11  22  43  69  92 134 174 219 288 354 384
#     4  11  24  43  66  91 138 183 220 282 338 418
#     4  10  19  37  68 101 121 163 225 285 338 382
#     4  11  25  41  66 104 134 172 229 281 351 401
#     4  11  22  42  64  96 135 176 226 276 336 414
#     4   9  23  40  63  93 139 174 218 268 345 408
#
# _framework density 21.675832
#
# number of rings (size 3 to 8) (size 9 to 14) (size 15 to 20)
#    0.000    1.500    2.500    3.000    8.750    0.000 
#    4.500    0.000    0.000    0.000    0.000    0.000 
#    0.000    0.000    0.000    0.000    0.000    0.000 
#
# Total GULP energy -396421.832760 kJ/mol
# GULP energy per Si atom -12388.182274 kJ/mol
# Density = 2.162650 g / cm^3
# Si number density = 21.675832 Si / 1000 Ang^3
#
#
#
# Elastic Constant Matrix: (Units=GPa)
#
#
# Indices 1 2 3 4 5 6 
#
# 1 70.6454 28.9970 20.7390 0.0000 0.0000 0.0000
# 2 28.9970 82.2368 22.9322 0.0000 0.0000 0.0000
# 3 20.7390 22.9322 94.4083 0.0000 0.0000 0.0000
# 4 0.0000 0.0000 0.0000 38.0724 0.0000 0.0000
# 5 0.0000 0.0000 0.0000 0.0000 33.8032 0.0000
# 6 0.0000 0.0000 0.0000 0.0000 0.0000 42.6952
#
#
#
# Elastic Compliance Matrix: (Units=1/GPa)
#
#
# Indices 1 2 3 4 5 6 
#
# 1 0.017064 -0.005333 -0.002453 0.000000 0.000000 0.000000
# 2 -0.005333 0.014710 -0.002402 0.000000 0.000000 0.000000
# 3 -0.002453 -0.002402 0.011715 0.000000 0.000000 0.000000
# 4 0.000000 0.000000 0.000000 0.026266 0.000000 0.000000
# 5 0.000000 0.000000 0.000000 0.000000 0.029583 0.000000
# 6 0.000000 0.000000 0.000000 0.000000 0.000000 0.023422
#
#
# Mechanical properties :
#
#
# Convention : Reuss Voigt Hill
#
# Bulk Modulus (GPa) = 43.26468 43.62521 43.44495
# Shear Modulus (GPa) = 33.14783 34.55566 33.85175
#
# Velocity S-wave (km/s) = 3.91481 3.99708 3.95616
# Velocity P-wave (km/s) = 6.35905 6.43988 6.39959
#
# Compressibility (1/GPa) = 0.02311354
#
# Stress axis : x y z
#
# Youngs Moduli (GPa) = 58.60193 67.98054 85.36383
#
# Poissons Ratio (x) = 0.36253 0.20941
# Poissons Ratio (y) = 0.31251 0.20502
# Poissons Ratio (z) = 0.14376 0.16327
#
# Static dielectric constant tensor:
#      x y z
#    x 4.100360 0.000000 0.000000 
#    y 0.000000 4.125070 0.000000 
#    z 0.000000 0.000000 3.930320 
# 
# 
# High freq. dielectric constant tensor:
#      x y z
#    x 1.856820 0.000000 0.000000 
#    y 0.000000 1.837820 0.000000 
#    z 0.000000 0.000000 1.837790 
# 
# From -- ./inp_files/5956.got.cif
#   From: 2010.03.12/outbox.cif.g09.slc.cpg/sg19_3_cif.got.tgz:5956.got - 2010.04.10 18:59:41.
