data_PCOD8156454
_publ_section_title
;
Structure prediction by ZEFSAII (Michael W. Deem and Ramdas Pophale) SiO2 
 PCOD8156454
Probable space group: P 21 21 2
;
_chemical_formula_sum "Si O2"
_cell_formula_units_Z 30
_cell_length_a 10.386393
_cell_length_b 14.817596
_cell_length_c 9.165430
_cell_angle_alpha 90.000000
_cell_angle_beta 90.000000
_cell_angle_gamma 90.000000
_cell_volume 1410.572283
_symmetry_space_group_name_H-M "P 21 21 2"
_symmetry_group_IT_number 18
_symmetry_cell_setting 'orthorhombic'
loop_
_space_group_symop_operation_xyz
x,y,z
-x,-y,z
1/2+x,1/2-y,-z
1/2-x,1/2+y,-z
loop_
_atom_site_type_symbol
_atom_site_label
_atom_site_fract_x
_atom_site_fract_y
_atom_site_fract_z
Si Si1 0.917300 0.584528 0.708973
Si Si2 0.699780 0.741597 0.097509
Si Si3 0.500716 0.259990 0.439418
Si Si4 0.267334 0.998658 0.526808
Si Si5 0.000000 0.500000 0.252535
Si Si6 0.429317 0.415104 0.255213
Si Si7 0.241786 0.194038 0.407614
Si Si8 0.954732 0.652994 0.015437
O O1 0.988781 0.675384 0.667474
O O2 0.790573 0.570405 0.609619
O O3 0.000000 0.500000 0.656472
O O4 0.906908 0.587461 0.883907
O O5 0.652607 0.639967 0.136635
O O6 0.725209 0.802924 0.237916
O O7 0.839691 0.727514 0.023493
O O8 0.591721 0.794383 0.003135
O O9 0.527312 0.346233 0.335421
O O10 0.352747 0.250572 0.496393
O O11 0.604511 0.256003 0.568526
O O12 0.380880 0.016817 0.641375
O O13 0.225491 0.092677 0.457820
O O14 0.151697 0.955124 0.613041
O O15 0.028558 0.410813 0.156166
O O16 0.500000 0.500000 0.176895
#
# Coordination Sequence:
#
# PCOD8156454 Si02
#       8
#     4   4   4   4   2   4   4   4
#     4  12  21  41  70  99 134 180 231 287 350 413
#     4  11  26  48  66 101 148 190 235 290 356 441
#     4  11  22  39  68  97 138 180 226 285 356 411
#     4  12  23  42  71 106 136 178 237 299 356 414
#     4  12  26  38  74 108 132 182 248 296 342 442
#     4  11  22  42  66 101 140 179 229 296 362 415
#     4  11  23  42  70 103 138 180 228 299 355 419
#     4  12  26  47  70 102 143 194 235 293 358 432
#
# _framework density 21.267963999999999
#
# number of rings (size 3 to 8) (size 9 to 14) (size 15 to 20)
#    0.000    0.533    8.000    1.600    1.867    2.133 
#    2.400    0.000    0.000    0.000    0.000    0.000 
#    0.000    0.000    0.000    0.000    0.000    0.000 
#
# Total GULP energy -371719.494647 kJ/mol
# GULP energy per Si atom -12390.649822 kJ/mol
# Density = 2.121956 g / cm^3
# Si number density = 21.267964 Si / 1000 Ang^3
#
#
#
# Elastic Constant Matrix: (Units=GPa)
#
#
# Indices 1 2 3 4 5 6 
#
# 1 111.2016 23.5146 31.1183 0.0000 0.0000 0.0000
# 2 23.5146 108.0212 24.1922 0.0000 0.0000 0.0000
# 3 31.1183 24.1922 77.9627 0.0000 0.0000 0.0000
# 4 0.0000 0.0000 0.0000 31.9786 0.0000 0.0000
# 5 0.0000 0.0000 0.0000 0.0000 27.0286 0.0000
# 6 0.0000 0.0000 0.0000 0.0000 0.0000 29.6143
#
#
#
# Elastic Compliance Matrix: (Units=1/GPa)
#
#
# Indices 1 2 3 4 5 6 
#
# 1 0.010323 -0.001423 -0.003679 0.000000 0.000000 0.000000
# 2 -0.001423 0.010145 -0.002580 0.000000 0.000000 0.000000
# 3 -0.003679 -0.002580 0.015096 0.000000 0.000000 0.000000
# 4 0.000000 0.000000 0.000000 0.031271 0.000000 0.000000
# 5 0.000000 0.000000 0.000000 0.000000 0.036998 0.000000
# 6 0.000000 0.000000 0.000000 0.000000 0.000000 0.033767
#
#
# Mechanical properties :
#
#
# Convention : Reuss Voigt Hill
#
# Bulk Modulus (GPa) = 49.50562 50.53730 50.02146
# Shear Modulus (GPa) = 31.30923 32.28165 31.79544
#
# Velocity S-wave (km/s) = 3.84100 3.90019 3.87071
# Velocity P-wave (km/s) = 6.55734 6.64046 6.59903
#
# Compressibility (1/GPa) = 0.02019973
#
# Stress axis : x y z
#
# Youngs Moduli (GPa) = 96.87017 98.57002 66.24459
#
# Poissons Ratio (x) = 0.14029 0.24370
# Poissons Ratio (y) = 0.13787 0.17091
# Poissons Ratio (z) = 0.35636 0.25431
#
# Static dielectric constant tensor:
#      x y z
#    x 4.157440 0.000000 0.000000 
#    y 0.000000 4.231130 0.000000 
#    z 0.000000 0.000000 3.719010 
# 
# 
# High freq. dielectric constant tensor:
#      x y z
#    x 1.836600 0.000000 0.000000 
#    y 0.000000 1.849880 0.000000 
#    z 0.000000 0.000000 1.814400 
# 
# From -- ./inp_files/3910.got.cif
#   From: 2010.03.12/outbox.cif.g09.slc.cpg/sg18_2_cif.got.tgz:3910.got - 2010.04.10 18:53:55.
