data_PCOD8156445
_publ_section_title
;
Structure prediction by ZEFSAII (Michael W. Deem and Ramdas Pophale) SiO2 
 PCOD8156445
Probable space group: P 21 21 2
;
_chemical_formula_sum "Si O2"
_cell_formula_units_Z 32
_cell_length_a 14.855911
_cell_length_b 15.914106
_cell_length_c 6.660930
_cell_angle_alpha 90.000000
_cell_angle_beta 90.000000
_cell_angle_gamma 90.000000
_cell_volume 1574.767361
_symmetry_space_group_name_H-M "P 21 21 2"
_symmetry_group_IT_number 18
_symmetry_cell_setting 'orthorhombic'
loop_
_space_group_symop_operation_xyz
x,y,z
-x,-y,z
1/2+x,1/2-y,-z
1/2-x,1/2+y,-z
loop_
_atom_site_type_symbol
_atom_site_label
_atom_site_fract_x
_atom_site_fract_y
_atom_site_fract_z
Si Si1 0.182593 0.391538 0.811816
Si Si2 0.263517 0.027985 0.502729
Si Si3 0.884929 0.702939 0.459654
Si Si4 0.351793 0.319066 0.022069
Si Si5 0.197655 0.712221 0.625071
Si Si6 0.904265 0.542398 0.200402
Si Si7 0.590574 0.546296 0.342355
Si Si8 0.444900 0.303327 0.624309
O O1 0.230368 0.453359 0.656049
O O2 0.113232 0.332210 0.688069
O O3 0.257690 0.332566 0.909808
O O4 0.129070 0.445841 0.973606
O O5 0.277179 0.114976 0.386652
O O6 0.336891 0.017738 0.677788
O O7 0.164541 0.024004 0.601221
O O8 0.784240 0.730154 0.408305
O O9 0.914681 0.632318 0.303408
O O10 0.953513 0.779763 0.435938
O O11 0.432982 0.306764 0.864648
O O12 0.343341 0.234891 0.156569
O O13 0.372675 0.399696 0.157566
O O14 0.123803 0.733336 0.457470
O O15 0.000000 0.500000 0.192821
O O16 0.500000 0.500000 0.274827
O O17 0.573632 0.605121 0.534124
#
# Coordination Sequence:
#
# PCOD8156445 Si02
#       8
#     4   4   4   4   4   4   4   4
#     4  11  21  44  68  88 129 175 213 266 330 388
#     4  11  23  41  65  94 130 171 217 270 328 388
#     4  11  23  41  66  94 129 170 214 268 331 387
#     4  11  21  45  66  90 132 176 218 273 328 389
#     4  11  23  41  64  96 131 171 220 270 330 391
#     4  11  23  40  65  95 129 167 219 271 326 391
#     4  11  23  42  66  95 130 171 221 269 328 393
#     4  11  23  42  66  92 131 172 214 273 327 389
#
# _framework density 20.320460000000001
#
# number of rings (size 3 to 8) (size 9 to 14) (size 15 to 20)
#    0.000    1.000    5.000    3.000    0.000    7.500 
#    2.250    0.000    0.000    0.000    0.000    0.000 
#    0.000    0.000    0.000    0.000    0.000    0.000 
#
# Total GULP energy -396971.329227 kJ/mol
# GULP energy per Si atom -12405.354038 kJ/mol
# Density = 2.027421 g / cm^3
# Si number density = 20.320460 Si / 1000 Ang^3
#
#
#
# Elastic Constant Matrix: (Units=GPa)
#
#
# Indices 1 2 3 4 5 6 
#
# 1 100.7260 15.4931 35.2229 0.0000 0.0000 0.0000
# 2 15.4931 74.3347 27.6003 0.0000 0.0000 0.0000
# 3 35.2229 27.6003 127.2462 0.0000 0.0000 0.0000
# 4 0.0000 0.0000 0.0000 18.9533 0.0000 0.0000
# 5 0.0000 0.0000 0.0000 0.0000 30.2267 0.0000
# 6 0.0000 0.0000 0.0000 0.0000 0.0000 43.1061
#
#
#
# Elastic Compliance Matrix: (Units=1/GPa)
#
#
# Indices 1 2 3 4 5 6 
#
# 1 0.011102 -0.001276 -0.002796 0.000000 0.000000 0.000000
# 2 -0.001276 0.014778 -0.002852 0.000000 0.000000 0.000000
# 3 -0.002796 -0.002852 0.009252 0.000000 0.000000 0.000000
# 4 0.000000 0.000000 0.000000 0.052761 0.000000 0.000000
# 5 0.000000 0.000000 0.000000 0.000000 0.033083 0.000000
# 6 0.000000 0.000000 0.000000 0.000000 0.000000 0.023199
#
#
# Mechanical properties :
#
#
# Convention : Reuss Voigt Hill
#
# Bulk Modulus (GPa) = 46.98688 50.99328 48.99008
# Shear Modulus (GPa) = 30.28156 33.38993 31.83574
#
# Velocity S-wave (km/s) = 3.86450 4.05800 3.96243
# Velocity P-wave (km/s) = 6.56396 6.86334 6.71532
#
# Compressibility (1/GPa) = 0.02128254
#
# Stress axis : x y z
#
# Youngs Moduli (GPa) = 90.07364 67.67017 108.09027
#
# Poissons Ratio (x) = 0.08632 0.30227
# Poissons Ratio (y) = 0.11490 0.30830
# Poissons Ratio (z) = 0.25189 0.19301
#
# Static dielectric constant tensor:
#      x y z
#    x 3.810760 0.000000 0.000000 
#    y 0.000000 3.616390 0.000000 
#    z 0.000000 0.000000 3.972910 
# 
# 
# High freq. dielectric constant tensor:
#      x y z
#    x 1.800840 0.000000 0.000000 
#    y 0.000000 1.787170 0.000000 
#    z 0.000000 0.000000 1.801590 
# 
# From -- ./inp_files/1631.got.cif
#   From: 2010.03.12/outbox.cif.g09.slc.cpg/sg18_1_cif.got.tgz:1631.got - 2010.04.10 18:53:55.
