data_PCOD8156975
_publ_section_title
;
Structure prediction by ZEFSAII (Michael W. Deem and Ramdas Pophale) SiO2 
 PCOD8156975
Probable space group: P 21 21 21
;
_chemical_formula_sum "Si O2"
_cell_formula_units_Z 32
_cell_length_a 7.346764
_cell_length_b 11.959374
_cell_length_c 13.827099
_cell_angle_alpha 90.000000
_cell_angle_beta 90.000000
_cell_angle_gamma 90.000000
_cell_volume 1214.886229
_symmetry_space_group_name_H-M "P 21 21 21"
_symmetry_group_IT_number 19
_symmetry_cell_setting 'orthorhombic'
loop_
_space_group_symop_operation_xyz
x,y,z
1/2-x,-y,1/2+z
1/2+x,1/2-y,-z
-x,1/2+y,1/2-z
loop_
_atom_site_type_symbol
_atom_site_label
_atom_site_fract_x
_atom_site_fract_y
_atom_site_fract_z
Si Si1 0.721125 0.965165 0.131533
Si Si2 0.369263 0.354368 0.549790
Si Si3 0.409324 0.748765 0.799419
Si Si4 0.002665 0.645495 0.394517
Si Si5 0.001096 0.276291 0.613709
Si Si6 0.734774 0.399576 0.288809
Si Si7 0.856537 0.702526 0.595028
Si Si8 0.918922 0.381917 0.805393
O O1 0.746029 0.833904 0.164374
O O2 0.920337 0.022632 0.130460
O O3 0.594106 0.035216 0.204293
O O4 0.632267 0.961627 0.022502
O O5 0.533758 0.351376 0.628171
O O6 0.174280 0.357092 0.602103
O O7 0.392069 0.238753 0.486745
O O8 0.372703 0.800192 0.691307
O O9 0.580646 0.666871 0.797282
O O10 0.175569 0.724470 0.408686
O O11 0.885979 0.642458 0.492546
O O12 0.078261 0.154834 0.644793
O O13 0.874141 0.331542 0.698070
O O14 0.665599 0.392221 0.177215
O O15 0.748036 0.529912 0.326997
O O16 0.028736 0.785097 0.618695
#
# Coordination Sequence:
#
# PCOD8156975 Si02
#       8
#     4   4   4   4   4   4   4   4
#     4  11  22  40  67  92 122 174 214 251 331 387
#     4  11  20  39  63  91 122 166 210 265 316 367
#     4  10  23  43  59  92 134 161 209 281 310 369
#     4  10  23  45  61  93 132 163 216 257 321 389
#     4  10  21  38  60  90 128 157 210 271 306 374
#     4   9  19  38  60  82 128 158 203 263 315 370
#     4   9  21  39  61  87 125 168 199 266 313 370
#     4  10  21  40  61  95 119 165 217 254 318 390
#
# _framework density 26.339912999999999
#
# number of rings (size 3 to 8) (size 9 to 14) (size 15 to 20)
#    0.000    2.000    2.500    2.250    1.750    2.000 
#    9.000    3.750    0.000    0.000    0.000    0.000 
#    0.000    0.000    0.000    0.000    0.000    0.000 
#
# Total GULP energy -396654.947701 kJ/mol
# GULP energy per Si atom -12395.467116 kJ/mol
# Density = 2.627996 g / cm^3
# Si number density = 26.339913 Si / 1000 Ang^3
#
#
#
# Elastic Constant Matrix: (Units=GPa)
#
#
# Indices 1 2 3 4 5 6 
#
# 1 82.0452 8.4933 21.7536 0.0000 0.0000 0.0000
# 2 8.4933 96.0806 19.4172 0.0000 0.0000 0.0000
# 3 21.7536 19.4172 144.2821 0.0000 0.0000 0.0000
# 4 0.0000 0.0000 0.0000 36.0405 0.0000 0.0000
# 5 0.0000 0.0000 0.0000 0.0000 52.8734 0.0000
# 6 0.0000 0.0000 0.0000 0.0000 0.0000 38.6355
#
#
#
# Elastic Compliance Matrix: (Units=1/GPa)
#
#
# Indices 1 2 3 4 5 6 
#
# 1 0.012750 -0.000759 -0.001820 0.000000 0.000000 0.000000
# 2 -0.000759 0.010744 -0.001331 0.000000 0.000000 0.000000
# 3 -0.001820 -0.001331 0.007384 0.000000 0.000000 0.000000
# 4 0.000000 0.000000 0.000000 0.027747 0.000000 0.000000
# 5 0.000000 0.000000 0.000000 0.000000 0.018913 0.000000
# 6 0.000000 0.000000 0.000000 0.000000 0.000000 0.025883
#
#
# Mechanical properties :
#
#
# Convention : Reuss Voigt Hill
#
# Bulk Modulus (GPa) = 43.37144 46.85958 45.11551
# Shear Modulus (GPa) = 42.04231 43.69281 42.86756
#
# Velocity S-wave (km/s) = 3.99951 4.07726 4.03857
# Velocity P-wave (km/s) = 6.15060 6.32411 6.23796
#
# Compressibility (1/GPa) = 0.02305665
#
# Stress axis : x y z
#
# Youngs Moduli (GPa) = 78.43396 93.07420 135.41937
#
# Poissons Ratio (x) = 0.07066 0.24648
# Poissons Ratio (y) = 0.05955 0.18030
# Poissons Ratio (z) = 0.14276 0.12392
#
# Static dielectric constant tensor:
#      x y z
#    x 5.370100 0.000000 0.000000 
#    y 0.000000 4.713320 0.000000 
#    z 0.000000 0.000000 4.808970 
# 
# 
# High freq. dielectric constant tensor:
#      x y z
#    x 2.104300 0.000000 0.000000 
#    y 0.000000 2.049630 0.000000 
#    z 0.000000 0.000000 2.047280 
# 
# From -- ./inp_files/5939.got.cif
#   From: 2010.03.12/outbox.cif.g09.slc.cpg/sg19_3_cif.got.tgz:5939.got - 2010.04.10 18:59:41.
