data_PCOD8156161
_publ_section_title
;
Structure prediction by ZEFSAII (Michael W. Deem and Ramdas Pophale) SiO2 
 PCOD8156161
Probable space group: P 21 21 2
;
_chemical_formula_sum "Si O2"
_cell_formula_units_Z 26
_cell_length_a 14.434631
_cell_length_b 12.310477
_cell_length_c 7.448895
_cell_angle_alpha 90.000000
_cell_angle_beta 90.000000
_cell_angle_gamma 90.000000
_cell_volume 1323.647732
_symmetry_space_group_name_H-M "P 21 21 2"
_symmetry_group_IT_number 18
_symmetry_cell_setting 'orthorhombic'
loop_
_space_group_symop_operation_xyz
x,y,z
-x,-y,z
1/2+x,1/2-y,-z
1/2-x,1/2+y,-z
loop_
_atom_site_type_symbol
_atom_site_label
_atom_site_fract_x
_atom_site_fract_y
_atom_site_fract_z
Si Si1 0.685468 0.779752 0.259277
Si Si2 0.392617 0.577235 0.420538
Si Si3 0.757012 0.018052 0.305818
Si Si4 0.342941 0.803100 0.512068
Si Si5 0.000000 0.000000 0.896680
Si Si6 0.963857 0.229231 0.445328
Si Si7 0.120189 0.838058 0.085933
O O1 0.770631 0.703712 0.323051
O O2 0.598738 0.769348 0.391432
O O3 0.714635 0.904669 0.247128
O O4 0.657150 0.745670 0.060210
O O5 0.337873 0.492391 0.544645
O O6 0.332845 0.688988 0.401320
O O7 0.409603 0.527251 0.224069
O O8 0.493854 0.609244 0.506384
O O9 0.677115 0.094952 0.385327
O O10 0.801251 0.072879 0.129867
O O11 0.449215 0.812258 0.581908
O O12 0.026754 0.897380 0.018459
O O13 0.903527 0.228829 0.265441
#
# Coordination Sequence:
#
# PCOD8156161 Si02
#       7
#     4   4   4   4   2   4   4
#     4  11  23  44  65  97 134 167 220 271 326 388
#     4   9  20  38  66  90 123 171 218 263 317 381
#     4  11  22  41  68  94 130 180 211 265 339 384
#     4   9  21  42  64  92 130 169 214 267 317 389
#     4  12  20  34  66 100 120 168 222 278 320 380
#     4  10  21  45  64  89 130 174 213 271 315 376
#     4  12  23  38  65 100 130 164 223 275 320 387
#
# _framework density 19.642689000000001
#
# number of rings (size 3 to 8) (size 9 to 14) (size 15 to 20)
#    0.923    0.615    3.077    2.769    0.000    1.846 
#    5.538    0.000    0.000    0.000    0.000    0.000 
#    0.000    0.000    0.000    0.000    0.000    0.000 
#
# Total GULP energy -322365.578477 kJ/mol
# GULP energy per Si atom -12398.676095 kJ/mol
# Density = 1.959798 g / cm^3
# Si number density = 19.642689 Si / 1000 Ang^3
#
#
#
# Elastic Constant Matrix: (Units=GPa)
#
#
# Indices 1 2 3 4 5 6 
#
# 1 105.5471 34.3426 45.7070 0.0000 0.0000 0.0000
# 2 34.3426 80.8794 52.4464 0.0000 0.0000 0.0000
# 3 45.7070 52.4464 115.3581 0.0000 0.0000 0.0000
# 4 0.0000 0.0000 0.0000 16.3486 0.0000 0.0000
# 5 0.0000 0.0000 0.0000 0.0000 19.9866 0.0000
# 6 0.0000 0.0000 0.0000 0.0000 0.0000 36.4890
#
#
#
# Elastic Compliance Matrix: (Units=1/GPa)
#
#
# Indices 1 2 3 4 5 6 
#
# 1 0.011875 -0.002824 -0.003421 0.000000 0.000000 0.000000
# 2 -0.002824 0.018204 -0.007158 0.000000 0.000000 0.000000
# 3 -0.003421 -0.007158 0.013278 0.000000 0.000000 0.000000
# 4 0.000000 0.000000 0.000000 0.061167 0.000000 0.000000
# 5 0.000000 0.000000 0.000000 0.000000 0.050033 0.000000
# 6 0.000000 0.000000 0.000000 0.000000 0.000000 0.027406
#
#
# Mechanical properties :
#
#
# Convention : Reuss Voigt Hill
#
# Bulk Modulus (GPa) = 60.41422 62.97520 61.69471
# Shear Modulus (GPa) = 23.33324 25.85075 24.59199
#
# Velocity S-wave (km/s) = 3.45031 3.63168 3.54215
# Velocity P-wave (km/s) = 6.83346 7.05091 6.94304
#
# Compressibility (1/GPa) = 0.01655240
#
# Stress axis : x y z
#
# Youngs Moduli (GPa) = 84.21217 54.93150 75.31033
#
# Poissons Ratio (x) = 0.15511 0.25765
# Poissons Ratio (y) = 0.23779 0.53905
# Poissons Ratio (z) = 0.28811 0.39318
#
# Static dielectric constant tensor:
#      x y z
#    x 3.600810 0.000000 0.000000 
#    y 0.000000 3.445760 0.000000 
#    z 0.000000 0.000000 3.382800 
# 
# 
# High freq. dielectric constant tensor:
#      x y z
#    x 1.767800 0.000000 0.000000 
#    y 0.000000 1.757700 0.000000 
#    z 0.000000 0.000000 1.752890 
# 
# From -- ./inp_files/1812.got.cif
#   From: 2010.03.12/outbox.cif.g09.slc.cpg/sg18_1_cif.got.tgz:1812.got - 2010.04.10 18:53:55.
