data_PCOD8156695
_publ_section_title
;
Structure prediction by ZEFSAII (Michael W. Deem and Ramdas Pophale) SiO2 
 PCOD8156695
Probable space group: P 21 21 21
;
_chemical_formula_sum "Si O2"
_cell_formula_units_Z 28
_cell_length_a 11.089096
_cell_length_b 15.118650
_cell_length_c 8.098333
_cell_angle_alpha 90.000000
_cell_angle_beta 90.000000
_cell_angle_gamma 90.000000
_cell_volume 1357.703030
_symmetry_space_group_name_H-M "P 21 21 21"
_symmetry_group_IT_number 19
_symmetry_cell_setting 'orthorhombic'
loop_
_space_group_symop_operation_xyz
x,y,z
1/2-x,-y,1/2+z
1/2+x,1/2-y,-z
-x,1/2+y,1/2-z
loop_
_atom_site_type_symbol
_atom_site_label
_atom_site_fract_x
_atom_site_fract_y
_atom_site_fract_z
Si Si1 0.541491 0.820700 0.372676
Si Si2 0.104368 0.988983 0.520432
Si Si3 0.392830 0.445400 0.690539
Si Si4 0.802409 0.602287 0.680269
Si Si5 0.145981 0.503971 0.568736
Si Si6 0.452027 0.646273 0.283164
Si Si7 0.802994 0.219194 0.177959
O O1 0.409204 0.855349 0.431377
O O2 0.518241 0.740933 0.238285
O O3 0.613886 0.773536 0.517842
O O4 0.612219 0.910102 0.315458
O O5 0.229379 0.965279 0.432176
O O6 0.035679 0.902722 0.584657
O O7 0.135549 0.055923 0.665359
O O8 0.022481 0.037193 0.385328
O O9 0.289192 0.492446 0.583297
O O10 0.371280 0.339458 0.684266
O O11 0.389265 0.476995 0.880669
O O12 0.717281 0.681980 0.746304
O O13 0.070446 0.417299 0.625552
O O14 0.322576 0.668435 0.365614
#
# Coordination Sequence:
#
# PCOD8156695 Si02
#       7
#     4   4   4   4   4   4   4
#     4  10  19  38  68  90 130 171 212 267 326 389
#     4  12  24  42  63  95 133 176 213 276 331 381
#     4  10  22  40  72  92 129 167 224 278 329 386
#     4  11  25  39  65  95 136 173 222 265 330 397
#     4  10  20  39  69  99 123 171 226 269 326 394
#     4  10  20  39  67  93 126 169 220 266 319 396
#     4   9  20  41  66  96 127 169 221 265 325 401
#
# _framework density 20.623068
#
# number of rings (size 3 to 8) (size 9 to 14) (size 15 to 20)
#    0.000    1.714    2.857    2.571    4.000    0.000 
#    0.000    7.143    6.286    0.000    0.000    0.000 
#    0.000    0.000    0.000    0.000    0.000    0.000 
#
# Total GULP energy -346902.785083 kJ/mol
# GULP energy per Si atom -12389.385182 kJ/mol
# Density = 2.057613 g / cm^3
# Si number density = 20.623068 Si / 1000 Ang^3
#
#
#
# Elastic Constant Matrix: (Units=GPa)
#
#
# Indices 1 2 3 4 5 6 
#
# 1 88.0333 45.1740 38.7652 0.0000 0.0000 0.0000
# 2 45.1740 116.5859 31.1853 0.0000 0.0000 0.0000
# 3 38.7652 31.1853 71.8465 0.0000 0.0000 0.0000
# 4 0.0000 0.0000 0.0000 23.5367 0.0000 0.0000
# 5 0.0000 0.0000 0.0000 0.0000 40.0530 0.0000
# 6 0.0000 0.0000 0.0000 0.0000 0.0000 36.1452
#
#
#
# Elastic Compliance Matrix: (Units=1/GPa)
#
#
# Indices 1 2 3 4 5 6 
#
# 1 0.016858 -0.004637 -0.007083 0.000000 0.000000 0.000000
# 2 -0.004637 0.010980 -0.002264 0.000000 0.000000 0.000000
# 3 -0.007083 -0.002264 0.018723 0.000000 0.000000 0.000000
# 4 0.000000 0.000000 0.000000 0.042487 0.000000 0.000000
# 5 0.000000 0.000000 0.000000 0.000000 0.024967 0.000000
# 6 0.000000 0.000000 0.000000 0.000000 0.000000 0.027666
#
#
# Mechanical properties :
#
#
# Convention : Reuss Voigt Hill
#
# Bulk Modulus (GPa) = 53.78527 56.30164 55.04346
# Shear Modulus (GPa) = 28.43398 30.70306 29.56852
#
# Velocity S-wave (km/s) = 3.71718 3.86265 3.79061
# Velocity P-wave (km/s) = 6.67532 6.87408 6.77543
#
# Compressibility (1/GPa) = 0.01859245
#
# Stress axis : x y z
#
# Youngs Moduli (GPa) = 59.31917 91.07675 53.41100
#
# Poissons Ratio (x) = 0.42236 0.37831
# Poissons Ratio (y) = 0.27509 0.12090
# Poissons Ratio (z) = 0.42015 0.20617
#
# Static dielectric constant tensor:
#      x y z
#    x 3.990040 0.000000 0.000000 
#    y 0.000000 4.206530 0.000000 
#    z 0.000000 0.000000 3.216870 
# 
# 
# High freq. dielectric constant tensor:
#      x y z
#    x 1.821080 0.000000 0.000000 
#    y 0.000000 1.830680 0.000000 
#    z 0.000000 0.000000 1.756420 
# 
# From -- ./inp_files/3559.got.cif
#   From: 2010.03.12/outbox.cif.g09.slc.cpg/sg19_2_cif.got.tgz:3559.got - 2010.04.10 18:59:41.
