data_PCOD8156431
_publ_section_title
;
Structure prediction by ZEFSAII (Michael W. Deem and Ramdas Pophale) SiO2 
 PCOD8156431
Probable space group: P 21 21 2
;
_chemical_formula_sum "Si O2"
_cell_formula_units_Z 26
_cell_length_a 11.683946
_cell_length_b 11.735969
_cell_length_c 9.274961
_cell_angle_alpha 90.000000
_cell_angle_beta 90.000000
_cell_angle_gamma 90.000000
_cell_volume 1271.805172
_symmetry_space_group_name_H-M "P 21 21 2"
_symmetry_group_IT_number 18
_symmetry_cell_setting 'orthorhombic'
loop_
_space_group_symop_operation_xyz
x,y,z
-x,-y,z
1/2+x,1/2-y,-z
1/2-x,1/2+y,-z
loop_
_atom_site_type_symbol
_atom_site_label
_atom_site_fract_x
_atom_site_fract_y
_atom_site_fract_z
Si Si1 0.500000 0.500000 0.764699
Si Si2 0.148588 0.612157 0.162888
Si Si3 0.104950 0.645849 0.620191
Si Si4 0.714981 0.362833 0.870393
Si Si5 0.107743 0.365495 0.219981
Si Si6 0.622209 0.094242 0.461736
Si Si7 0.852722 0.187278 0.380829
O O1 0.608131 0.452337 0.857800
O O2 0.459353 0.391072 0.670112
O O3 0.177570 0.483999 0.214587
O O4 0.181190 0.709611 0.276130
O O5 0.012692 0.623960 0.136990
O O6 0.224201 0.627702 0.022148
O O7 0.187480 0.616651 0.751443
O O8 0.112912 0.541125 0.504878
O O9 0.130254 0.765244 0.542722
O O10 0.969054 0.641166 0.658584
O O11 0.675498 0.233115 0.859632
O O12 0.095016 0.335665 0.390497
O O13 0.744507 0.106778 0.389963
#
# Coordination Sequence:
#
# PCOD8156431 Si02
#       7
#     2   4   4   4   4   4   4
#     4  12  26  46  64 104 140 178 214 292 342 398
#     4  11  25  42  67  95 132 180 220 267 334 404
#     4  11  22  40  64 103 128 172 226 270 323 407
#     4  12  26  41  70  96 141 175 220 279 344 401
#     4  11  22  44  66  93 132 176 223 275 335 392
#     4  11  21  39  71  96 131 172 227 278 327 398
#     4  12  23  43  72  96 136 176 221 278 346 389
#
# _framework density 20.443383000000001
#
# number of rings (size 3 to 8) (size 9 to 14) (size 15 to 20)
#    0.000    0.615    7.692    0.923    2.154    3.692 
#    0.000    0.000    0.000    1.846    0.000    0.000 
#    0.000    0.000    0.000    0.000    0.000    0.000 
#
# Total GULP energy -322170.570838 kJ/mol
# GULP energy per Si atom -12391.175801 kJ/mol
# Density = 2.039685 g / cm^3
# Si number density = 20.443383 Si / 1000 Ang^3
#
#
#
# Elastic Constant Matrix: (Units=GPa)
#
#
# Indices 1 2 3 4 5 6 
#
# 1 103.7058 18.1396 24.0958 0.0000 0.0000 0.0000
# 2 18.1396 92.2897 7.2954 0.0000 0.0000 0.0000
# 3 24.0958 7.2954 49.4717 0.0000 0.0000 0.0000
# 4 0.0000 0.0000 0.0000 22.9229 0.0000 0.0000
# 5 0.0000 0.0000 0.0000 0.0000 37.8570 0.0000
# 6 0.0000 0.0000 0.0000 0.0000 0.0000 29.5846
#
#
#
# Elastic Compliance Matrix: (Units=1/GPa)
#
#
# Indices 1 2 3 4 5 6 
#
# 1 0.011156 -0.001784 -0.005171 0.000000 0.000000 0.000000
# 2 -0.001784 0.011249 -0.000790 0.000000 0.000000 0.000000
# 3 -0.005171 -0.000790 0.022848 0.000000 0.000000 0.000000
# 4 0.000000 0.000000 0.000000 0.043625 0.000000 0.000000
# 5 0.000000 0.000000 0.000000 0.000000 0.026415 0.000000
# 6 0.000000 0.000000 0.000000 0.000000 0.000000 0.033801
#
#
# Mechanical properties :
#
#
# Convention : Reuss Voigt Hill
#
# Bulk Modulus (GPa) = 33.59748 38.28095 35.93921
# Shear Modulus (GPa) = 28.65254 31.13532 29.89393
#
# Velocity S-wave (km/s) = 3.74780 3.90680 3.82812
# Velocity P-wave (km/s) = 5.93280 6.25434 6.09569
#
# Compressibility (1/GPa) = 0.02976414
#
# Stress axis : x y z
#
# Youngs Moduli (GPa) = 89.63709 88.90055 43.76656
#
# Poissons Ratio (x) = 0.15860 0.22630
# Poissons Ratio (y) = 0.15991 0.03457
# Poissons Ratio (z) = 0.46348 0.07022
#
# Static dielectric constant tensor:
#      x y z
#    x 3.862180 0.000000 0.000000 
#    y 0.000000 3.912230 0.000000 
#    z 0.000000 0.000000 3.353200 
# 
# 
# High freq. dielectric constant tensor:
#      x y z
#    x 1.809140 0.000000 0.000000 
#    y 0.000000 1.816930 0.000000 
#    z 0.000000 0.000000 1.766990 
# 
# From -- ./inp_files/3786.got.cif
#   From: 2010.03.12/outbox.cif.g09.slc.cpg/sg18_2_cif.got.tgz:3786.got - 2010.04.10 18:53:55.
