data_PCOD8156069
_publ_section_title
;
Structure prediction by ZEFSAII (Michael W. Deem and Ramdas Pophale) SiO2 
 PCOD8156069
Probable space group: P 21 21 2
;
_chemical_formula_sum "Si O2"
_cell_formula_units_Z 20
_cell_length_a 13.749094
_cell_length_b 5.052184
_cell_length_c 13.747299
_cell_angle_alpha 90.000000
_cell_angle_beta 90.000000
_cell_angle_gamma 90.000000
_cell_volume 954.927980
_symmetry_space_group_name_H-M "P 21 21 2"
_symmetry_group_IT_number 18
_symmetry_cell_setting 'orthorhombic'
loop_
_space_group_symop_operation_xyz
x,y,z
-x,-y,z
1/2+x,1/2-y,-z
1/2-x,1/2+y,-z
loop_
_atom_site_type_symbol
_atom_site_label
_atom_site_fract_x
_atom_site_fract_y
_atom_site_fract_z
Si Si1 0.500000 0.500000 0.623850
Si Si2 0.000000 0.500000 0.191357
Si Si3 0.202591 0.126546 0.039389
Si Si4 0.000000 0.000000 0.060431
Si Si5 0.788597 0.363429 0.555578
Si Si6 0.335853 0.663834 0.737682
Si Si7 0.500000 0.000000 0.496545
O O1 0.406825 0.434252 0.693081
O O2 0.468909 0.749939 0.560337
O O3 0.905520 0.575709 0.256326
O O4 0.971822 0.250514 0.125748
O O5 0.204655 0.088421 0.156020
O O6 0.222911 0.429254 0.011756
O O7 0.094963 0.065666 0.996403
O O8 0.727924 0.612995 0.514845
O O9 0.753702 0.288990 0.664505
O O10 0.903971 0.425721 0.565603
#
# Coordination Sequence:
#
# PCOD8156069 Si02
#       7
#     2   2   4   2   4   4   2
#     4  12  23  38  70  91 126 162 219 288 322 361
#     4  10  21  36  66  99 128 158 225 280 328 365
#     4  11  24  41  65  98 132 170 221 271 330 394
#     4  10  21  42  64  95 132 166 215 292 318 371
#     4  12  25  41  65  93 135 176 213 270 332 394
#     4  11  23  41  67 100 131 172 216 275 334 380
#     4  12  23  44  58 101 130 168 219 266 324 391
#
# _framework density 20.943985999999999
#
# number of rings (size 3 to 8) (size 9 to 14) (size 15 to 20)
#    0.000    0.800    4.000    5.400    0.000    6.400 
#    0.000    2.000    0.000    0.000    0.000    0.000 
#    0.000    0.000    0.000    0.000    0.000    0.000 
#
# Total GULP energy -247859.869389 kJ/mol
# GULP energy per Si atom -12392.993469 kJ/mol
# Density = 2.089632 g / cm^3
# Si number density = 20.943986 Si / 1000 Ang^3
#
#
#
# Elastic Constant Matrix: (Units=GPa)
#
#
# Indices 1 2 3 4 5 6 
#
# 1 137.0409 29.5697 53.3980 0.0000 0.0000 0.0000
# 2 29.5697 106.7624 22.2094 0.0000 0.0000 0.0000
# 3 53.3980 22.2094 97.7932 0.0000 0.0000 0.0000
# 4 0.0000 0.0000 0.0000 33.9481 0.0000 0.0000
# 5 0.0000 0.0000 0.0000 0.0000 44.1187 0.0000
# 6 0.0000 0.0000 0.0000 0.0000 0.0000 42.1492
#
#
#
# Elastic Compliance Matrix: (Units=1/GPa)
#
#
# Indices 1 2 3 4 5 6 
#
# 1 0.009534 -0.001635 -0.004834 0.000000 0.000000 0.000000
# 2 -0.001635 0.010111 -0.001404 0.000000 0.000000 0.000000
# 3 -0.004834 -0.001404 0.013184 0.000000 0.000000 0.000000
# 4 0.000000 0.000000 0.000000 0.029457 0.000000 0.000000
# 5 0.000000 0.000000 0.000000 0.000000 0.022666 0.000000
# 6 0.000000 0.000000 0.000000 0.000000 0.000000 0.023725
#
#
# Mechanical properties :
#
#
# Convention : Reuss Voigt Hill
#
# Bulk Modulus (GPa) = 58.53638 61.32786 59.93212
# Shear Modulus (GPa) = 38.42689 39.80451 39.11570
#
# Velocity S-wave (km/s) = 4.28804 4.36423 4.32630
# Velocity P-wave (km/s) = 7.24749 7.39870 7.32348
#
# Compressibility (1/GPa) = 0.01708339
#
# Stress axis : x y z
#
# Youngs Moduli (GPa) = 104.89296 98.89842 75.84872
#
# Poissons Ratio (x) = 0.16168 0.36668
# Poissons Ratio (y) = 0.17148 0.10647
# Poissons Ratio (z) = 0.50709 0.13882
#
# Static dielectric constant tensor:
#      x y z
#    x 3.914490 0.000000 0.000000 
#    y 0.000000 3.161430 0.000000 
#    z 0.000000 0.000000 3.557130 
# 
# 
# High freq. dielectric constant tensor:
#      x y z
#    x 1.822910 0.000000 0.000000 
#    y 0.000000 1.838340 0.000000 
#    z 0.000000 0.000000 1.790570 
# 
# From -- ./inp_files/5076.got.cif
#   From: 2010.03.12/outbox.cif.g09.slc.cpg/sg18_3_cif.got.tgz:5076.got - 2010.04.10 18:53:55.
