data_PCOD8156891
_publ_section_title
;
Structure prediction by ZEFSAII (Michael W. Deem and Ramdas Pophale) SiO2 
 PCOD8156891
Probable space group: P 21 21 21
;
_chemical_formula_sum "Si O2"
_cell_formula_units_Z 28
_cell_length_a 9.984829
_cell_length_b 12.546334
_cell_length_c 11.154509
_cell_angle_alpha 90.000000
_cell_angle_beta 90.000000
_cell_angle_gamma 90.000000
_cell_volume 1397.358801
_symmetry_space_group_name_H-M "P 21 21 21"
_symmetry_group_IT_number 19
_symmetry_cell_setting 'orthorhombic'
loop_
_space_group_symop_operation_xyz
x,y,z
1/2-x,-y,1/2+z
1/2+x,1/2-y,-z
-x,1/2+y,1/2-z
loop_
_atom_site_type_symbol
_atom_site_label
_atom_site_fract_x
_atom_site_fract_y
_atom_site_fract_z
Si Si1 0.378740 0.090427 0.713883
Si Si2 0.126634 0.330009 0.426890
Si Si3 0.085551 0.737169 0.399032
Si Si4 0.048539 0.123107 0.308936
Si Si5 0.407089 0.441891 0.446546
Si Si6 0.887689 0.704940 0.837048
Si Si7 0.622410 0.189297 0.081198
O O1 0.503179 0.100761 0.622955
O O2 0.405303 0.146204 0.841010
O O3 0.250967 0.140263 0.647495
O O4 0.356467 0.967704 0.752302
O O5 0.142507 0.223098 0.345340
O O6 0.256231 0.403667 0.424607
O O7 0.097051 0.294816 0.562040
O O8 0.224473 0.703560 0.462038
O O9 0.058000 0.654412 0.292354
O O10 0.968585 0.737333 0.496445
O O11 0.958708 0.085161 0.420550
O O12 0.495284 0.381853 0.347113
O O13 0.420398 0.566966 0.424355
O O14 0.896765 0.766662 0.713635
#
# Coordination Sequence:
#
# PCOD8156891 Si02
#       7
#     4   4   4   4   4   4   4
#     4  10  20  41  64  85 126 169 203 251 329 372
#     4  10  21  38  65  92 120 165 208 258 312 373
#     4  10  22  40  62  92 122 164 207 262 301 376
#     4  10  21  41  65  90 125 166 211 254 322 378
#     4  11  22  41  67  92 124 164 210 262 310 375
#     4  10  23  41  59  93 129 161 207 266 306 376
#     4  11  23  42  62  90 132 159 210 259 314 368
#
# _framework density 20.037801999999999
#
# number of rings (size 3 to 8) (size 9 to 14) (size 15 to 20)
#    0.000    1.714    1.429    4.286    0.000    4.571 
#   10.286    0.000    0.000    0.000    0.000    0.000 
#    0.000    0.000    0.000    0.000    0.000    0.000 
#
# Total GULP energy -347220.227862 kJ/mol
# GULP energy per Si atom -12400.722424 kJ/mol
# Density = 1.999220 g / cm^3
# Si number density = 20.037802 Si / 1000 Ang^3
#
#
#
# Elastic Constant Matrix: (Units=GPa)
#
#
# Indices 1 2 3 4 5 6 
#
# 1 99.2002 24.4328 45.9876 0.0000 0.0000 0.0000
# 2 24.4328 100.7953 43.1337 0.0000 0.0000 0.0000
# 3 45.9876 43.1337 88.7184 0.0000 0.0000 0.0000
# 4 0.0000 0.0000 0.0000 24.9025 0.0000 0.0000
# 5 0.0000 0.0000 0.0000 0.0000 31.5498 0.0000
# 6 0.0000 0.0000 0.0000 0.0000 0.0000 21.6912
#
#
#
# Elastic Compliance Matrix: (Units=1/GPa)
#
#
# Indices 1 2 3 4 5 6 
#
# 1 0.013279 -0.000345 -0.006715 0.000000 0.000000 0.000000
# 2 -0.000345 0.012536 -0.005916 0.000000 0.000000 0.000000
# 3 -0.006715 -0.005916 0.017629 0.000000 0.000000 0.000000
# 4 0.000000 0.000000 0.000000 0.040157 0.000000 0.000000
# 5 0.000000 0.000000 0.000000 0.000000 0.031696 0.000000
# 6 0.000000 0.000000 0.000000 0.000000 0.000000 0.046102
#
#
# Mechanical properties :
#
#
# Convention : Reuss Voigt Hill
#
# Bulk Modulus (GPa) = 57.17245 57.31359 57.24302
# Shear Modulus (GPa) = 25.88235 27.30602 26.59419
#
# Velocity S-wave (km/s) = 3.59789 3.69552 3.64703
# Velocity P-wave (km/s) = 6.77156 6.84645 6.80911
#
# Compressibility (1/GPa) = 0.01749094
#
# Stress axis : x y z
#
# Youngs Moduli (GPa) = 75.30840 79.76719 56.72493
#
# Poissons Ratio (x) = 0.02752 0.38093
# Poissons Ratio (y) = 0.02599 0.33560
# Poissons Ratio (z) = 0.50572 0.47192
#
# Static dielectric constant tensor:
#      x y z
#    x 3.671070 0.000000 0.000000 
#    y 0.000000 3.753960 0.000000 
#    z 0.000000 0.000000 3.645430 
# 
# 
# High freq. dielectric constant tensor:
#      x y z
#    x 1.779310 0.000000 0.000000 
#    y 0.000000 1.789430 0.000000 
#    z 0.000000 0.000000 1.783150 
# 
# From -- ./inp_files/4608.got.cif
#   From: 2010.03.12/outbox.cif.g09.slc.cpg/sg19_3_cif.got.tgz:4608.got - 2010.04.10 18:59:41.
