data_PCOD8156244
_publ_section_title
;
Structure prediction by ZEFSAII (Michael W. Deem and Ramdas Pophale) SiO2 
 PCOD8156244
Probable space group: P 21 21 2
;
_chemical_formula_sum "Si O2"
_cell_formula_units_Z 22
_cell_length_a 13.922143
_cell_length_b 11.311889
_cell_length_c 6.128543
_cell_angle_alpha 90.000000
_cell_angle_beta 90.000000
_cell_angle_gamma 90.000000
_cell_volume 965.158107
_symmetry_space_group_name_H-M "P 21 21 2"
_symmetry_group_IT_number 18
_symmetry_cell_setting 'orthorhombic'
loop_
_space_group_symop_operation_xyz
x,y,z
-x,-y,z
1/2+x,1/2-y,-z
1/2-x,1/2+y,-z
loop_
_atom_site_type_symbol
_atom_site_label
_atom_site_fract_x
_atom_site_fract_y
_atom_site_fract_z
Si Si1 0.797579 0.781588 0.413909
Si Si2 0.000000 0.500000 0.043596
Si Si3 0.332023 0.137987 0.794900
Si Si4 0.137489 0.825374 0.866856
Si Si5 0.846896 0.921871 0.025382
Si Si6 0.554039 0.217665 0.240108
O O1 0.719294 0.846000 0.564622
O O2 0.739447 0.688468 0.260146
O O3 0.849160 0.890136 0.283274
O O4 0.881698 0.709466 0.539473
O O5 0.947549 0.592658 0.882949
O O6 0.928512 0.438617 0.215638
O O7 0.356539 0.265071 0.896858
O O8 0.264634 0.068064 0.963558
O O9 0.054466 0.765064 0.716818
O O10 0.105766 0.957376 0.938176
O O11 0.894768 0.811343 0.911863
#
# Coordination Sequence:
#
# PCOD8156244 Si02
#       6
#     4   2   4   4   4   4
#     4  10  23  44  70 106 133 184 242 276 348 420
#     4  10  22  44  70 100 154 182 218 292 344 410
#     4   9  22  40  64  99 138 181 227 279 346 404
#     4  10  22  44  67  99 143 181 230 291 349 404
#     4  10  22  42  66  95 139 180 229 292 339 398
#     4  10  23  45  68 104 141 184 231 281 347 414
#
# _framework density 22.794191999999999
#
# number of rings (size 3 to 8) (size 9 to 14) (size 15 to 20)
#    0.000    2.182    0.000    0.545    7.636    5.818 
#   13.091    8.182    0.000    0.000    0.000    0.000 
#    0.000    0.000    0.000    0.000    0.000    0.000 
#
# Total GULP energy -272630.632847 kJ/mol
# GULP energy per Si atom -12392.301493 kJ/mol
# Density = 2.274231 g / cm^3
# Si number density = 22.794192 Si / 1000 Ang^3
#
#
#
# Elastic Constant Matrix: (Units=GPa)
#
#
# Indices 1 2 3 4 5 6 
#
# 1 75.8076 23.2259 16.3275 0.0000 0.0000 0.0000
# 2 23.2259 126.1773 29.6960 0.0000 0.0000 0.0000
# 3 16.3275 29.6960 73.8795 0.0000 0.0000 0.0000
# 4 0.0000 0.0000 0.0000 23.6673 0.0000 0.0000
# 5 0.0000 0.0000 0.0000 0.0000 34.9142 0.0000
# 6 0.0000 0.0000 0.0000 0.0000 0.0000 33.2543
#
#
#
# Elastic Compliance Matrix: (Units=1/GPa)
#
#
# Indices 1 2 3 4 5 6 
#
# 1 0.014333 -0.002091 -0.002327 0.000000 0.000000 0.000000
# 2 -0.002091 0.009058 -0.003179 0.000000 0.000000 0.000000
# 3 -0.002327 -0.003179 0.015328 0.000000 0.000000 0.000000
# 4 0.000000 0.000000 0.000000 0.042252 0.000000 0.000000
# 5 0.000000 0.000000 0.000000 0.000000 0.028642 0.000000
# 6 0.000000 0.000000 0.000000 0.000000 0.000000 0.030071
#
#
# Mechanical properties :
#
#
# Convention : Reuss Voigt Hill
#
# Bulk Modulus (GPa) = 42.50742 46.04034 44.27388
# Shear Modulus (GPa) = 30.72764 32.14151 31.43457
#
# Velocity S-wave (km/s) = 3.67556 3.75917 3.71760
# Velocity P-wave (km/s) = 6.05820 6.25171 6.15572
#
# Compressibility (1/GPa) = 0.02352531
#
# Stress axis : x y z
#
# Youngs Moduli (GPa) = 69.76879 110.39525 65.24135
#
# Poissons Ratio (x) = 0.23079 0.15184
# Poissons Ratio (y) = 0.14586 0.20740
# Poissons Ratio (z) = 0.16237 0.35095
#
# Static dielectric constant tensor:
#      x y z
#    x 4.620740 0.000000 0.000000 
#    y 0.000000 3.993860 0.000000 
#    z 0.000000 0.000000 4.022260 
# 
# 
# High freq. dielectric constant tensor:
#      x y z
#    x 1.914150 0.000000 0.000000 
#    y 0.000000 1.893330 0.000000 
#    z 0.000000 0.000000 1.884740 
# 
# From -- ./inp_files/1061.got.cif
#   From: 2010.03.12/outbox.cif.g09.slc.cpg/sg18_1_cif.got.tgz:1061.got - 2010.04.10 18:53:55.
