data_PCOD8156649
_publ_section_title
;
Structure prediction by ZEFSAII (Michael W. Deem and Ramdas Pophale) SiO2 
 PCOD8156649
Probable space group: P 21 21 21
;
_chemical_formula_sum "Si O2"
_cell_formula_units_Z 32
_cell_length_a 9.507861
_cell_length_b 19.581577
_cell_length_c 9.172964
_cell_angle_alpha 90.000000
_cell_angle_beta 90.000000
_cell_angle_gamma 90.000000
_cell_volume 1707.812460
_symmetry_space_group_name_H-M "P 21 21 21"
_symmetry_group_IT_number 19
_symmetry_cell_setting 'orthorhombic'
loop_
_space_group_symop_operation_xyz
x,y,z
1/2-x,-y,1/2+z
1/2+x,1/2-y,-z
-x,1/2+y,1/2-z
loop_
_atom_site_type_symbol
_atom_site_label
_atom_site_fract_x
_atom_site_fract_y
_atom_site_fract_z
Si Si1 0.751147 0.168154 0.158966
Si Si2 0.500000 0.250000 0.277269
Si Si3 0.406346 0.853376 0.982440
Si Si4 1.000000 0.749999 0.244080
Si Si5 0.654164 0.943773 0.869782
Si Si6 0.251148 0.668157 0.658963
Si Si7 0.406345 0.146624 0.517563
Si Si8 0.654163 0.056229 0.630222
O O1 0.626379 0.222783 0.176820
O O2 0.751877 0.114366 0.291377
O O3 0.899678 0.206422 0.154555
O O4 0.749999 0.132031 0.000000
O O5 0.547372 0.315386 0.370639
O O6 0.373622 0.277216 0.176815
O O7 0.452625 0.184616 0.370643
O O8 0.250000 0.884659 0.000002
O O9 0.400708 0.797217 0.855683
O O10 0.511717 0.914408 0.940056
O O11 0.899676 0.793573 0.345452
O O12 0.099291 0.797219 0.144325
O O13 0.612817 0.000002 0.750004
O O14 0.749999 0.974370 0.000004
O O15 0.251882 0.614371 0.791377
O O16 0.511717 0.085591 0.559942
#
# Coordination Sequence:
#
# PCOD8156649 Si02
#       8
#     4   4   4   4   4   4   4   4
#     4  11  21  35  57  91 125 154 195 250 310 362
#     4  11  19  34  62  96 120 154 198 252 318 360
#     4  10  19  35  61  87 117 155 200 249 304 365
#     4   9  19  30  54  88 120 146 188 252 304 358
#     4  11  23  41  62  86 117 166 210 249 291 363
#     4  11  21  35  57  91 125 154 195 250 310 362
#     4  10  19  35  61  87 117 155 200 249 304 365
#     4  11  23  41  62  86 117 166 210 249 291 363
#
# _framework density 18.737421000000001
#
# number of rings (size 3 to 8) (size 9 to 14) (size 15 to 20)
#    0.000    1.500    5.000    1.500    0.000    0.000 
#    0.000    1.250    0.000    0.000    0.000    0.000 
#    0.000    0.000    0.000    0.000    0.000    0.000 
#
# Total GULP energy -396708.632779 kJ/mol
# GULP energy per Si atom -12397.144774 kJ/mol
# Density = 1.869477 g / cm^3
# Si number density = 18.737421 Si / 1000 Ang^3
#
#
#
# Elastic Constant Matrix: (Units=GPa)
#
#
# Indices 1 2 3 4 5 6 
#
# 1 109.9412 38.7630 48.6846 0.0000 0.0000 0.0000
# 2 38.7630 70.9775 24.6410 0.0000 0.0000 0.0000
# 3 48.6846 24.6410 101.4299 0.0000 0.0000 0.0000
# 4 0.0000 0.0000 0.0000 33.2699 0.0000 0.0000
# 5 0.0000 0.0000 0.0000 0.0000 21.5622 0.0000
# 6 0.0000 0.0000 0.0000 0.0000 0.0000 21.3624
#
#
#
# Elastic Compliance Matrix: (Units=1/GPa)
#
#
# Indices 1 2 3 4 5 6 
#
# 1 0.013261 -0.005496 -0.005030 0.000000 0.000000 0.000000
# 2 -0.005496 0.017664 -0.001653 0.000000 0.000000 0.000000
# 3 -0.005030 -0.001653 0.012675 0.000000 0.000000 0.000000
# 4 0.000000 0.000000 0.000000 0.030057 0.000000 0.000000
# 5 0.000000 0.000000 0.000000 0.000000 0.046377 0.000000
# 6 0.000000 0.000000 0.000000 0.000000 0.000000 0.046811
#
#
# Mechanical properties :
#
#
# Convention : Reuss Voigt Hill
#
# Bulk Modulus (GPa) = 51.96986 56.28068 54.12527
# Shear Modulus (GPa) = 25.30129 26.58958 25.94543
#
# Velocity S-wave (km/s) = 3.67864 3.77113 3.72517
# Velocity P-wave (km/s) = 6.77047 7.00454 6.88850
#
# Compressibility (1/GPa) = 0.01924192
#
# Stress axis : x y z
#
# Youngs Moduli (GPa) = 75.40989 56.61076 78.89604
#
# Poissons Ratio (x) = 0.31113 0.39683
# Poissons Ratio (y) = 0.41445 0.13044
# Poissons Ratio (z) = 0.37930 0.09360
#
# Static dielectric constant tensor:
#      x y z
#    x 3.356890 0.000000 0.000000 
#    y 0.000000 3.161550 0.000000 
#    z 0.000000 0.000000 3.391260 
# 
# 
# High freq. dielectric constant tensor:
#      x y z
#    x 1.730300 0.000000 0.000000 
#    y 0.000000 1.698860 0.000000 
#    z 0.000000 0.000000 1.733840 
# 
# From -- ./inp_files/3125.got.cif
#   From: 2010.03.12/outbox.cif.g09.slc.cpg/sg19_2_cif.got.tgz:3125.got - 2010.04.10 18:59:41.
