data_PCOD8156420
_publ_section_title
;
Structure prediction by ZEFSAII (Michael W. Deem and Ramdas Pophale) SiO2 
 PCOD8156420
Probable space group: P 21 21 2
;
_chemical_formula_sum "Si O2"
_cell_formula_units_Z 18
_cell_length_a 9.772797
_cell_length_b 15.508587
_cell_length_c 4.806024
_cell_angle_alpha 90.000000
_cell_angle_beta 90.000000
_cell_angle_gamma 90.000000
_cell_volume 728.411919
_symmetry_space_group_name_H-M "P 21 21 2"
_symmetry_group_IT_number 18
_symmetry_cell_setting 'orthorhombic'
loop_
_space_group_symop_operation_xyz
x,y,z
-x,-y,z
1/2+x,1/2-y,-z
1/2-x,1/2+y,-z
loop_
_atom_site_type_symbol
_atom_site_label
_atom_site_fract_x
_atom_site_fract_y
_atom_site_fract_z
Si Si1 0.500000 0.500000 0.660383
Si Si2 0.380512 0.164560 0.657681
Si Si3 0.313955 0.349344 0.491113
Si Si4 0.145450 0.391562 0.002398
Si Si5 0.264666 0.076705 0.115735
O O1 0.412729 0.431876 0.485419
O O2 0.606230 0.444279 0.838119
O O3 0.396632 0.263740 0.571746
O O4 0.503764 0.136151 0.861277
O O5 0.255076 0.149318 0.872904
O O6 0.352758 0.106826 0.384679
O O7 0.264167 0.343269 0.175812
O O8 0.177150 0.361887 0.684239
O O9 0.156391 0.494682 0.013753
#
# Coordination Sequence:
#
# PCOD8156420 Si02
#       5
#     2   4   4   4   4
#     4  10  26  48  70 104 148 198 234 292 372 446
#     4  12  26  44  76 107 144 189 247 306 356 432
#     4  11  26  44  74 105 148 193 244 300 361 435
#     4  11  25  48  67 109 143 190 243 299 364 436
#     4  11  25  46  73 105 142 195 236 301 367 437
#
# _framework density 24.711293999999999
#
# number of rings (size 3 to 8) (size 9 to 14) (size 15 to 20)
#    0.000    0.889    0.000    6.000    6.222   11.556 
#    0.000    0.000    0.000    0.000    0.000    0.000 
#    0.000    0.000    0.000    0.000    0.000    0.000 
#
# Total GULP energy -223066.096473 kJ/mol
# GULP energy per Si atom -12392.560915 kJ/mol
# Density = 2.465505 g / cm^3
# Si number density = 24.711294 Si / 1000 Ang^3
#
#
#
# Elastic Constant Matrix: (Units=GPa)
#
#
# Indices 1 2 3 4 5 6 
#
# 1 68.1803 26.1660 6.5559 0.0000 0.0000 0.0000
# 2 26.1660 95.1649 23.1778 0.0000 0.0000 0.0000
# 3 6.5559 23.1778 103.4360 0.0000 0.0000 0.0000
# 4 0.0000 0.0000 0.0000 45.4230 0.0000 0.0000
# 5 0.0000 0.0000 0.0000 0.0000 17.2344 0.0000
# 6 0.0000 0.0000 0.0000 0.0000 0.0000 26.0312
#
#
#
# Elastic Compliance Matrix: (Units=1/GPa)
#
#
# Indices 1 2 3 4 5 6 
#
# 1 0.016397 -0.004501 -0.000031 0.000000 0.000000 0.000000
# 2 -0.004501 0.012350 -0.002482 0.000000 0.000000 0.000000
# 3 -0.000031 -0.002482 0.010226 0.000000 0.000000 0.000000
# 4 0.000000 0.000000 0.000000 0.022015 0.000000 0.000000
# 5 0.000000 0.000000 0.000000 0.000000 0.058024 0.000000
# 6 0.000000 0.000000 0.000000 0.000000 0.000000 0.038415
#
#
# Mechanical properties :
#
#
# Convention : Reuss Voigt Hill
#
# Bulk Modulus (GPa) = 40.08700 42.06450 41.07575
# Shear Modulus (GPa) = 27.81321 31.79650 29.80485
#
# Velocity S-wave (km/s) = 3.35853 3.59098 3.47670
# Velocity P-wave (km/s) = 5.59437 5.85259 5.72494
#
# Compressibility (1/GPa) = 0.02494574
#
# Stress axis : x y z
#
# Youngs Moduli (GPa) = 60.98553 80.97041 97.79044
#
# Poissons Ratio (x) = 0.36445 0.00300
# Poissons Ratio (y) = 0.27450 0.24273
# Poissons Ratio (z) = 0.00187 0.20098
#
# Static dielectric constant tensor:
#      x y z
#    x 4.478360 0.000000 0.000000 
#    y 0.000000 4.562320 0.000000 
#    z 0.000000 0.000000 4.633640 
# 
# 
# High freq. dielectric constant tensor:
#      x y z
#    x 1.981410 0.000000 0.000000 
#    y 0.000000 1.986760 0.000000 
#    z 0.000000 0.000000 1.997530 
# 
# From -- ./inp_files/519.got.cif
#   From: 2010.03.12/outbox.cif.g09.slc.cpg/sg18_1_cif.got.tgz:519.got - 2010.04.10 18:53:55.
