data_PCOD8156388
_publ_section_title
;
Structure prediction by ZEFSAII (Michael W. Deem and Ramdas Pophale) SiO2 
 PCOD8156388
Probable space group: P 21 21 2
;
_chemical_formula_sum "Si O2"
_cell_formula_units_Z 16
_cell_length_a 7.230420
_cell_length_b 15.126646
_cell_length_c 5.345872
_cell_angle_alpha 90.000000
_cell_angle_beta 90.000000
_cell_angle_gamma 90.000000
_cell_volume 584.688733
_symmetry_space_group_name_H-M "P 21 21 2"
_symmetry_group_IT_number 18
_symmetry_cell_setting 'orthorhombic'
loop_
_space_group_symop_operation_xyz
x,y,z
-x,-y,z
1/2+x,1/2-y,-z
1/2-x,1/2+y,-z
loop_
_atom_site_type_symbol
_atom_site_label
_atom_site_fract_x
_atom_site_fract_y
_atom_site_fract_z
Si Si1 0.878679 0.219545 0.430097
Si Si2 0.500000 0.000000 0.105367
Si Si3 0.250743 0.357772 0.054445
Si Si4 0.000000 0.000000 0.833080
Si Si5 0.257431 0.603792 0.532065
O O1 0.772464 0.190671 0.682159
O O2 0.901996 0.326598 0.443483
O O3 0.069997 0.167639 0.390411
O O4 0.745689 0.206608 0.186241
O O5 0.674527 0.960993 0.258446
O O6 0.432352 0.918337 0.936044
O O7 0.429254 0.419707 0.999091
O O8 0.824402 0.966024 0.673737
#
# Coordination Sequence:
#
# PCOD8156388 Si02
#       5
#     4   2   4   2   4
#     4  11  26  47  71 104 146 192 241 299 362 430
#     4  12  24  44  76 112 146 192 244 300 364 434
#     4  11  25  45  71 106 147 191 241 298 363 431
#     4  10  24  48  74 106 150 196 242 302 364 434
#     4  11  25  47  75 108 147 191 243 300 363 431
#
# _framework density 27.364986999999999
#
# number of rings (size 3 to 8) (size 9 to 14) (size 15 to 20)
#    0.000    1.000    0.000    6.000    0.000   15.000 
#    0.000    0.000    0.000    0.000    0.000    0.000 
#    0.000    0.000    0.000    0.000    0.000    0.000 
#
# Total GULP energy -198247.492823 kJ/mol
# GULP energy per Si atom -12390.468301 kJ/mol
# Density = 2.730270 g / cm^3
# Si number density = 27.364987 Si / 1000 Ang^3
#
#
#
# Elastic Constant Matrix: (Units=GPa)
#
#
# Indices 1 2 3 4 5 6 
#
# 1 66.5965 22.4220 31.3154 0.0000 0.0000 0.0000
# 2 22.4220 125.7573 51.6674 0.0000 0.0000 0.0000
# 3 31.3154 51.6674 153.6837 0.0000 0.0000 0.0000
# 4 0.0000 0.0000 0.0000 25.0185 0.0000 0.0000
# 5 0.0000 0.0000 0.0000 0.0000 34.7343 0.0000
# 6 0.0000 0.0000 0.0000 0.0000 0.0000 71.3591
#
#
#
# Elastic Compliance Matrix: (Units=1/GPa)
#
#
# Indices 1 2 3 4 5 6 
#
# 1 0.016975 -0.001863 -0.002833 0.000000 0.000000 0.000000
# 2 -0.001863 0.009431 -0.002791 0.000000 0.000000 0.000000
# 3 -0.002833 -0.002791 0.008022 0.000000 0.000000 0.000000
# 4 0.000000 0.000000 0.000000 0.039970 0.000000 0.000000
# 5 0.000000 0.000000 0.000000 0.000000 0.028790 0.000000
# 6 0.000000 0.000000 0.000000 0.000000 0.000000 0.014014
#
#
# Mechanical properties :
#
#
# Convention : Reuss Voigt Hill
#
# Bulk Modulus (GPa) = 51.40014 61.87192 56.63603
# Shear Modulus (GPa) = 36.05950 42.26456 39.16203
#
# Velocity S-wave (km/s) = 3.63399 3.93425 3.78709
# Velocity P-wave (km/s) = 6.03587 6.58002 6.31381
#
# Compressibility (1/GPa) = 0.01945520
#
# Stress axis : x y z
#
# Youngs Moduli (GPa) = 58.91031 106.03771 124.65154
#
# Poissons Ratio (x) = 0.19752 0.35310
# Poissons Ratio (y) = 0.10974 0.34790
# Poissons Ratio (z) = 0.16687 0.29594
#
# Static dielectric constant tensor:
#      x y z
#    x 4.912270 0.000000 0.000000 
#    y 0.000000 5.361310 0.000000 
#    z 0.000000 0.000000 4.639900 
# 
# 
# High freq. dielectric constant tensor:
#      x y z
#    x 2.110840 0.000000 0.000000 
#    y 0.000000 2.126430 0.000000 
#    z 0.000000 0.000000 2.089790 
# 
# From -- ./inp_files/427.got.cif
#   From: 2010.03.12/outbox.cif.g09.slc.cpg/sg18_1_cif.got.tgz:427.got - 2010.04.10 18:53:55.
