data_PCOD8156145
_publ_section_title
;
Structure prediction by ZEFSAII (Michael W. Deem and Ramdas Pophale) SiO2 
 PCOD8156145
Probable space group: P 21 21 2
;
_chemical_formula_sum "Si O2"
_cell_formula_units_Z 20
_cell_length_a 12.738702
_cell_length_b 11.887304
_cell_length_c 6.910395
_cell_angle_alpha 90.000000
_cell_angle_beta 90.000000
_cell_angle_gamma 90.000000
_cell_volume 1046.432983
_symmetry_space_group_name_H-M "P 21 21 2"
_symmetry_group_IT_number 18
_symmetry_cell_setting 'orthorhombic'
loop_
_space_group_symop_operation_xyz
x,y,z
-x,-y,z
1/2+x,1/2-y,-z
1/2-x,1/2+y,-z
loop_
_atom_site_type_symbol
_atom_site_label
_atom_site_fract_x
_atom_site_fract_y
_atom_site_fract_z
Si Si1 0.252887 0.140837 0.646298
Si Si2 0.036164 0.123357 0.783047
Si Si3 0.849244 0.285835 0.747921
Si Si4 0.614344 0.978264 0.950251
Si Si5 0.685768 0.215023 0.039220
O O1 0.128400 0.109833 0.619142
O O2 0.313790 0.153823 0.447816
O O3 0.307698 0.043131 0.772271
O O4 0.259844 0.255731 0.775229
O O5 0.088558 0.194491 0.961010
O O6 0.938237 0.193722 0.699538
O O7 0.000000 0.000000 0.854905
O O8 0.892730 0.378352 0.895204
O O9 0.747929 0.225199 0.838276
O O10 0.500000 0.000000 0.859788
O O11 0.649822 0.088066 0.067675
#
# Coordination Sequence:
#
# PCOD8156145 Si02
#       5
#     4   4   4   4   4
#     4   9  23  39  58  97 122 164 214 260 316 380
#     4  10  21  42  63  90 128 168 208 262 318 380
#     4  11  22  40  64  90 130 164 215 268 312 379
#     4  11  20  39  63  92 124 168 206 265 322 371
#     4   9  22  39  60  90 124 162 214 255 319 376
#
# _framework density 19.112549000000001
#
# number of rings (size 3 to 8) (size 9 to 14) (size 15 to 20)
#    1.200    0.800    2.000    1.200    0.000    5.600 
#    0.000    1.000    0.000    0.000    0.000    0.000 
#    0.000    0.000    0.000    0.000    0.000    0.000 
#
# Total GULP energy -247789.370813 kJ/mol
# GULP energy per Si atom -12389.468541 kJ/mol
# Density = 1.906905 g / cm^3
# Si number density = 19.112549 Si / 1000 Ang^3
#
#
#
# Elastic Constant Matrix: (Units=GPa)
#
#
# Indices 1 2 3 4 5 6 
#
# 1 123.7170 48.2967 35.0830 0.0000 0.0000 0.0000
# 2 48.2967 112.4958 15.5284 0.0000 0.0000 0.0000
# 3 35.0830 15.5284 72.0832 0.0000 0.0000 0.0000
# 4 0.0000 0.0000 0.0000 18.4486 0.0000 0.0000
# 5 0.0000 0.0000 0.0000 0.0000 16.1600 0.0000
# 6 0.0000 0.0000 0.0000 0.0000 0.0000 38.6785
#
#
#
# Elastic Compliance Matrix: (Units=1/GPa)
#
#
# Indices 1 2 3 4 5 6 
#
# 1 0.010937 -0.004082 -0.004443 0.000000 0.000000 0.000000
# 2 -0.004082 0.010685 -0.000315 0.000000 0.000000 0.000000
# 3 -0.004443 -0.000315 0.016103 0.000000 0.000000 0.000000
# 4 0.000000 0.000000 0.000000 0.054205 0.000000 0.000000
# 5 0.000000 0.000000 0.000000 0.000000 0.061881 0.000000
# 6 0.000000 0.000000 0.000000 0.000000 0.000000 0.025854
#
#
# Mechanical properties :
#
#
# Convention : Reuss Voigt Hill
#
# Bulk Modulus (GPa) = 49.89028 56.23468 53.06248
# Shear Modulus (GPa) = 24.50648 28.61661 26.56155
#
# Velocity S-wave (km/s) = 3.58469 3.87365 3.73197
# Velocity P-wave (km/s) = 6.57978 7.03518 6.81128
#
# Compressibility (1/GPa) = 0.02004398
#
# Stress axis : x y z
#
# Youngs Moduli (GPa) = 91.43683 93.58772 62.09872
#
# Poissons Ratio (x) = 0.38202 0.27593
# Poissons Ratio (y) = 0.37324 0.01957
# Poissons Ratio (z) = 0.40630 0.02950
#
# Static dielectric constant tensor:
#      x y z
#    x 3.677800 0.000000 0.000000 
#    y 0.000000 3.446290 0.000000 
#    z 0.000000 0.000000 3.036190 
# 
# 
# High freq. dielectric constant tensor:
#      x y z
#    x 1.757280 0.000000 0.000000 
#    y 0.000000 1.748620 0.000000 
#    z 0.000000 0.000000 1.699010 
# 
# From -- ./inp_files/1417.got.cif
#   From: 2010.03.12/outbox.cif.g09.slc.cpg/sg18_1_cif.got.tgz:1417.got - 2010.04.10 18:53:55.
