data_PCOD8156803
_publ_section_title
;
Structure prediction by ZEFSAII (Michael W. Deem and Ramdas Pophale) SiO2 
 PCOD8156803
Probable space group: P 21 21 21
;
_chemical_formula_sum "Si O2"
_cell_formula_units_Z 32
_cell_length_a 18.381291
_cell_length_b 9.453422
_cell_length_c 9.060076
_cell_angle_alpha 90.000000
_cell_angle_beta 90.000000
_cell_angle_gamma 90.000000
_cell_volume 1574.334079
_symmetry_space_group_name_H-M "P 21 21 21"
_symmetry_group_IT_number 19
_symmetry_cell_setting 'orthorhombic'
loop_
_space_group_symop_operation_xyz
x,y,z
1/2-x,-y,1/2+z
1/2+x,1/2-y,-z
-x,1/2+y,1/2-z
loop_
_atom_site_type_symbol
_atom_site_label
_atom_site_fract_x
_atom_site_fract_y
_atom_site_fract_z
Si Si1 0.843321 0.649165 0.809258
Si Si2 0.712363 0.649246 0.368369
Si Si3 0.858350 0.560511 0.475319
Si Si4 0.988029 0.088496 0.946739
Si Si5 0.670562 0.897527 0.545569
Si Si6 0.762239 0.099090 0.356030
Si Si7 0.493620 0.716268 0.184831
Si Si8 0.145365 0.753115 0.931236
O O1 0.828014 0.500256 0.887671
O O2 0.847138 0.627976 0.635460
O O3 0.778174 0.752925 0.844548
O O4 0.918333 0.715643 0.871567
O O5 0.800809 0.632380 0.363070
O O6 0.689004 0.733554 0.515701
O O7 0.686862 0.733535 0.224389
O O8 0.841469 0.394442 0.474440
O O9 0.943720 0.587022 0.438117
O O10 0.989992 0.234787 0.853407
O O11 0.915908 0.077424 0.044825
O O12 0.993295 0.955083 0.831618
O O13 0.701873 0.948492 0.701943
O O14 0.706834 0.979868 0.408882
O O15 0.824761 0.118704 0.479143
O O16 0.559866 0.776377 0.087830
#
# Coordination Sequence:
#
# PCOD8156803 Si02
#       8
#     4   4   4   4   4   4   4   4
#     4  10  20  37  64  92 124 166 209 254 307 378
#     4  11  20  39  64  98 118 160 215 262 316 379
#     4   9  19  36  64  91 122 157 206 258 305 375
#     4  10  21  38  62  94 128 169 209 261 312 378
#     4  12  25  40  63  93 131 166 215 262 321 378
#     4  12  24  42  63  89 128 168 210 265 321 378
#     4  10  20  38  64  92 126 165 217 252 308 380
#     4  10  21  38  64  91 123 163 207 264 316 372
#
# _framework density 20.326056000000001
#
# number of rings (size 3 to 8) (size 9 to 14) (size 15 to 20)
#    0.000    1.500    5.000    1.500    0.000    0.000 
#    0.000    1.250    5.500    0.000    0.000    0.000 
#    0.000    0.000    0.000    0.000    0.000    0.000 
#
# Total GULP energy -396705.945764 kJ/mol
# GULP energy per Si atom -12397.060805 kJ/mol
# Density = 2.027979 g / cm^3
# Si number density = 20.326056 Si / 1000 Ang^3
#
#
#
# Elastic Constant Matrix: (Units=GPa)
#
#
# Indices 1 2 3 4 5 6 
#
# 1 157.2387 25.5654 47.1600 0.0000 0.0000 0.0000
# 2 25.5654 61.0155 20.9551 0.0000 0.0000 0.0000
# 3 47.1600 20.9551 46.7683 0.0000 0.0000 0.0000
# 4 0.0000 0.0000 0.0000 25.3707 0.0000 0.0000
# 5 0.0000 0.0000 0.0000 0.0000 28.6545 0.0000
# 6 0.0000 0.0000 0.0000 0.0000 0.0000 28.3840
#
#
#
# Elastic Compliance Matrix: (Units=1/GPa)
#
#
# Indices 1 2 3 4 5 6 
#
# 1 0.009149 -0.000786 -0.008873 0.000000 0.000000 0.000000
# 2 -0.000786 0.019437 -0.007917 0.000000 0.000000 0.000000
# 3 -0.008873 -0.007917 0.033877 0.000000 0.000000 0.000000
# 4 0.000000 0.000000 0.000000 0.039416 0.000000 0.000000
# 5 0.000000 0.000000 0.000000 0.000000 0.034899 0.000000
# 6 0.000000 0.000000 0.000000 0.000000 0.000000 0.035231
#
#
# Mechanical properties :
#
#
# Convention : Reuss Voigt Hill
#
# Bulk Modulus (GPa) = 36.61494 50.26483 43.43988
# Shear Modulus (GPa) = 23.11987 27.90463 25.51225
#
# Velocity S-wave (km/s) = 3.37627 3.70922 3.54665
# Velocity P-wave (km/s) = 5.76644 6.56714 6.17977
#
# Compressibility (1/GPa) = 0.02731126
#
# Stress axis : x y z
#
# Youngs Moduli (GPa) = 109.30283 51.44707 29.51869
#
# Poissons Ratio (x) = 0.04043 0.26193
# Poissons Ratio (y) = 0.08590 0.23369
# Poissons Ratio (z) = 0.96988 0.40729
#
# Static dielectric constant tensor:
#      x y z
#    x 4.045440 0.000000 0.000000 
#    y 0.000000 3.736060 0.000000 
#    z 0.000000 0.000000 3.247700 
# 
# 
# High freq. dielectric constant tensor:
#      x y z
#    x 1.816070 0.000000 0.000000 
#    y 0.000000 1.795610 0.000000 
#    z 0.000000 0.000000 1.749420 
# 
# From -- ./inp_files/4259.got.cif
#   From: 2010.03.12/outbox.cif.g09.slc.cpg/sg19_3_cif.got.tgz:4259.got - 2010.04.10 18:59:41.
