data_PCOD8156720
_publ_section_title
;
Structure prediction by ZEFSAII (Michael W. Deem and Ramdas Pophale) SiO2 
 PCOD8156720
Probable space group: P 21 21 21
;
_chemical_formula_sum "Si O2"
_cell_formula_units_Z 24
_cell_length_a 12.800136
_cell_length_b 11.847165
_cell_length_c 7.745243
_cell_angle_alpha 90.000000
_cell_angle_beta 90.000000
_cell_angle_gamma 90.000000
_cell_volume 1174.529878
_symmetry_space_group_name_H-M "P 21 21 21"
_symmetry_group_IT_number 19
_symmetry_cell_setting 'orthorhombic'
loop_
_space_group_symop_operation_xyz
x,y,z
1/2-x,-y,1/2+z
1/2+x,1/2-y,-z
-x,1/2+y,1/2-z
loop_
_atom_site_type_symbol
_atom_site_label
_atom_site_fract_x
_atom_site_fract_y
_atom_site_fract_z
Si Si1 0.592613 0.608360 0.464370
Si Si2 0.515088 0.802350 0.664429
Si Si3 0.011400 0.131541 0.530077
Si Si4 0.128158 0.576329 0.646483
Si Si5 0.098585 0.328894 0.727372
Si Si6 0.209372 0.247360 0.061410
O O1 0.560558 0.676638 0.637240
O O2 0.587846 0.475351 0.494432
O O3 0.513984 0.646130 0.312462
O O4 0.710461 0.643461 0.420188
O O5 0.555586 0.885191 0.513392
O O6 0.389891 0.794260 0.667714
O O7 0.550247 0.847533 0.850985
O O8 0.083211 0.238465 0.575676
O O9 0.925555 0.108725 0.674296
O O10 0.146163 0.441905 0.641850
O O11 0.240037 0.638258 0.638983
O O12 0.178975 0.275833 0.864295
#
# Coordination Sequence:
#
# PCOD8156720 Si02
#       6
#     4   4   4   4   4   4
#     4   9  21  41  61  88 131 162 212 274 312 382
#     4  10  22  40  63  90 128 164 214 267 322 384
#     4  11  21  40  64  90 123 178 207 257 341 373
#     4  10  22  44  62  90 136 166 210 287 310 383
#     4  10  21  40  66  90 128 171 216 266 333 375
#     4  10  19  43  62  90 130 167 211 275 316 383
#
# _framework density 20.433706999999998
#
# number of rings (size 3 to 8) (size 9 to 14) (size 15 to 20)
#    0.000    2.000    5.000    0.000    2.333    2.667 
#   21.000    0.000    0.000    0.000    0.000    0.000 
#    0.000    0.000    0.000    0.000    0.000    0.000 
#
# Total GULP energy -297569.102255 kJ/mol
# GULP energy per Si atom -12398.712594 kJ/mol
# Density = 2.038720 g / cm^3
# Si number density = 20.433707 Si / 1000 Ang^3
#
#
#
# Elastic Constant Matrix: (Units=GPa)
#
#
# Indices 1 2 3 4 5 6 
#
# 1 57.7229 -7.6572 11.1756 0.0000 0.0000 0.0000
# 2 -7.6572 116.7012 42.0647 0.0000 0.0000 0.0000
# 3 11.1756 42.0647 124.4627 0.0000 0.0000 0.0000
# 4 0.0000 0.0000 0.0000 28.9072 0.0000 0.0000
# 5 0.0000 0.0000 0.0000 0.0000 13.1502 0.0000
# 6 0.0000 0.0000 0.0000 0.0000 0.0000 26.7019
#
#
#
# Elastic Compliance Matrix: (Units=1/GPa)
#
#
# Indices 1 2 3 4 5 6 
#
# 1 0.018036 0.002012 -0.002300 0.000000 0.000000 0.000000
# 2 0.002012 0.009982 -0.003554 0.000000 0.000000 0.000000
# 3 -0.002300 -0.003554 0.009442 0.000000 0.000000 0.000000
# 4 0.000000 0.000000 0.000000 0.034593 0.000000 0.000000
# 5 0.000000 0.000000 0.000000 0.000000 0.076045 0.000000
# 6 0.000000 0.000000 0.000000 0.000000 0.000000 0.037451
#
#
# Mechanical properties :
#
#
# Convention : Reuss Voigt Hill
#
# Bulk Modulus (GPa) = 33.58247 43.33922 38.46084
# Shear Modulus (GPa) = 24.61133 30.63876 27.62505
#
# Velocity S-wave (km/s) = 3.47428 3.87644 3.68086
# Velocity P-wave (km/s) = 5.70655 6.42584 6.07685
#
# Compressibility (1/GPa) = 0.02977744
#
# Stress axis : x y z
#
# Youngs Moduli (GPa) = 55.44369 100.17957 105.90666
#
# Poissons Ratio (x) = -0.20159 0.24354
# Poissons Ratio (y) = -0.11157 0.37643
# Poissons Ratio (z) = 0.12750 0.35607
#
# Static dielectric constant tensor:
#      x y z
#    x 3.600580 0.000000 0.000000 
#    y 0.000000 4.008050 0.000000 
#    z 0.000000 0.000000 3.573410 
# 
# 
# High freq. dielectric constant tensor:
#      x y z
#    x 1.788010 0.000000 0.000000 
#    y 0.000000 1.808400 0.000000 
#    z 0.000000 0.000000 1.788920 
# 
# From -- ./inp_files/3387.got.cif
#   From: 2010.03.12/outbox.cif.g09.slc.cpg/sg19_2_cif.got.tgz:3387.got - 2010.04.10 18:59:41.
