data_PCOD8156086
_publ_section_title
;
Structure prediction by ZEFSAII (Michael W. Deem and Ramdas Pophale) SiO2 
 PCOD8156086
Probable space group: P 21 21 2
;
_chemical_formula_sum "Si O2"
_cell_formula_units_Z 18
_cell_length_a 10.218188
_cell_length_b 5.030355
_cell_length_c 15.593453
_cell_angle_alpha 90.000000
_cell_angle_beta 90.000000
_cell_angle_gamma 90.000000
_cell_volume 801.520841
_symmetry_space_group_name_H-M "P 21 21 2"
_symmetry_group_IT_number 18
_symmetry_cell_setting 'orthorhombic'
loop_
_space_group_symop_operation_xyz
x,y,z
-x,-y,z
1/2+x,1/2-y,-z
1/2-x,1/2+y,-z
loop_
_atom_site_type_symbol
_atom_site_label
_atom_site_fract_x
_atom_site_fract_y
_atom_site_fract_z
Si Si1 0.500000 0.500000 0.967532
Si Si2 0.224448 0.951690 0.168613
Si Si3 0.500000 0.000000 0.086028
Si Si4 0.000000 0.000000 0.650965
Si Si5 0.227090 0.165840 0.553312
Si Si6 0.739413 0.068687 0.723719
O O1 0.629317 0.544483 0.911914
O O2 0.473304 0.749262 0.026852
O O3 0.221380 0.657058 0.205535
O O4 0.172071 0.163303 0.240618
O O5 0.370684 0.040352 0.143343
O O6 0.920629 0.792944 0.589788
O O7 0.893479 0.145654 0.710893
O O8 0.222694 0.953176 0.475528
O O9 0.315655 0.038985 0.631314
#
# Coordination Sequence:
#
# PCOD8156086 Si02
#       6
#     2   4   2   2   4   4
#     4  12  26  43  61  98 136 162 202 276 324 385
#     4  12  23  42  67  94 130 166 217 263 318 377
#     4  12  24  42  70  92 124 174 216 250 328 388
#     4   8  22  37  65  82 128 150 230 252 310 357
#     4  10  21  38  60  91 124 159 205 265 315 362
#     4  10  22  39  64  93 120 168 219 258 312 371
#
# _framework density 22.45731
#
# number of rings (size 3 to 8) (size 9 to 14) (size 15 to 20)
#    1.333    0.000    0.000    6.667    0.000    2.667 
#    0.000    6.667    0.000    0.000    0.000    0.000 
#    0.000    0.000    0.000    0.000    0.000    0.000 
#
# Total GULP energy -223020.556580 kJ/mol
# GULP energy per Si atom -12390.030921 kJ/mol
# Density = 2.240620 g / cm^3
# Si number density = 22.457310 Si / 1000 Ang^3
#
#
#
# Elastic Constant Matrix: (Units=GPa)
#
#
# Indices 1 2 3 4 5 6 
#
# 1 46.6352 14.0578 7.5168 0.0000 0.0000 0.0000
# 2 14.0578 111.4909 25.1467 0.0000 0.0000 0.0000
# 3 7.5168 25.1467 79.1945 0.0000 0.0000 0.0000
# 4 0.0000 0.0000 0.0000 40.8129 0.0000 0.0000
# 5 0.0000 0.0000 0.0000 0.0000 34.4318 0.0000
# 6 0.0000 0.0000 0.0000 0.0000 0.0000 11.5961
#
#
#
# Elastic Compliance Matrix: (Units=1/GPa)
#
#
# Indices 1 2 3 4 5 6 
#
# 1 0.022419 -0.002528 -0.001325 0.000000 0.000000 0.000000
# 2 -0.002528 0.009946 -0.002918 0.000000 0.000000 0.000000
# 3 -0.001325 -0.002918 0.013680 0.000000 0.000000 0.000000
# 4 0.000000 0.000000 0.000000 0.024502 0.000000 0.000000
# 5 0.000000 0.000000 0.000000 0.000000 0.029043 0.000000
# 6 0.000000 0.000000 0.000000 0.000000 0.000000 0.086236
#
#
# Mechanical properties :
#
#
# Convention : Reuss Voigt Hill
#
# Bulk Modulus (GPa) = 30.76759 36.75147 33.75953
# Shear Modulus (GPa) = 23.78665 30.07478 26.93072
#
# Velocity S-wave (km/s) = 3.25806 3.66348 3.46670
# Velocity P-wave (km/s) = 5.28048 5.85622 5.57579
#
# Compressibility (1/GPa) = 0.03250173
#
# Stress axis : x y z
#
# Youngs Moduli (GPa) = 44.60579 100.53989 73.10168
#
# Poissons Ratio (x) = 0.25415 0.09688
# Poissons Ratio (y) = 0.11276 0.21333
# Poissons Ratio (z) = 0.05911 0.29341
#
# Static dielectric constant tensor:
#      x y z
#    x 3.781440 0.000000 0.000000 
#    y 0.000000 3.800820 0.000000 
#    z 0.000000 0.000000 4.196100 
# 
# 
# High freq. dielectric constant tensor:
#      x y z
#    x 1.855640 0.000000 0.000000 
#    y 0.000000 1.883620 0.000000 
#    z 0.000000 0.000000 1.903480 
# 
# From -- ./inp_files/5812.got.cif
#   From: 2010.03.12/outbox.cif.g09.slc.cpg/sg18_3_cif.got.tgz:5812.got - 2010.04.10 18:53:55.
