data_PCOD8156719
_publ_section_title
;
Structure prediction by ZEFSAII (Michael W. Deem and Ramdas Pophale) SiO2 
 PCOD8156719
Probable space group: P 21 21 21
;
_chemical_formula_sum "Si O2"
_cell_formula_units_Z 32
_cell_length_a 8.980140
_cell_length_b 11.733572
_cell_length_c 14.499482
_cell_angle_alpha 90.000000
_cell_angle_beta 90.000000
_cell_angle_gamma 90.000000
_cell_volume 1527.797648
_symmetry_space_group_name_H-M "P 21 21 21"
_symmetry_group_IT_number 19
_symmetry_cell_setting 'orthorhombic'
loop_
_space_group_symop_operation_xyz
x,y,z
1/2-x,-y,1/2+z
1/2+x,1/2-y,-z
-x,1/2+y,1/2-z
loop_
_atom_site_type_symbol
_atom_site_label
_atom_site_fract_x
_atom_site_fract_y
_atom_site_fract_z
Si Si1 0.709755 0.355328 0.705455
Si Si2 0.579661 0.743651 0.785560
Si Si3 0.758276 0.070867 0.190701
Si Si4 0.035408 0.352605 0.093084
Si Si5 0.910827 0.494750 0.366444
Si Si6 0.096494 0.240512 0.912131
Si Si7 0.327869 0.358868 0.198171
Si Si8 0.260654 0.027608 0.943792
O O1 0.554608 0.309672 0.664040
O O2 0.682874 0.432507 0.794730
O O3 0.807399 0.248744 0.734926
O O4 0.791387 0.428492 0.625930
O O5 0.711027 0.835086 0.770576
O O6 0.527398 0.700684 0.686195
O O7 0.624892 0.637667 0.848324
O O8 0.647095 0.132946 0.119131
O O9 0.912258 0.024451 0.142901
O O10 0.663903 0.968682 0.235391
O O11 0.204191 0.385824 0.119960
O O12 0.942729 0.464189 0.055207
O O13 0.034149 0.254252 0.015627
O O14 0.837244 0.516587 0.465134
O O15 0.236638 0.156513 0.907010
O O16 0.979386 0.169736 0.852511
#
# Coordination Sequence:
#
# PCOD8156719 Si02
#       8
#     4   4   4   4   4   4   4   4
#     4  10  20  41  65  93 132 169 227 273 341 409
#     4  10  19  42  72  93 128 180 230 267 353 417
#     4  11  22  43  66  96 140 183 231 282 349 422
#     4  11  20  44  65 102 124 172 234 286 336 410
#     4  11  21  41  71  99 133 180 223 291 347 415
#     4  12  25  38  66 101 135 171 239 291 332 400
#     4  11  25  42  68  94 136 190 219 286 357 401
#     4  12  24  39  71 102 130 171 233 286 343 414
#
# _framework density 20.945183
#
# number of rings (size 3 to 8) (size 9 to 14) (size 15 to 20)
#    0.000    1.000    5.000    4.500    3.500    0.000 
#    2.250    3.750    0.000    0.000    0.000    0.000 
#    0.000    0.000    0.000    0.000    0.000    0.000 
#
# Total GULP energy -396484.679435 kJ/mol
# GULP energy per Si atom -12390.146232 kJ/mol
# Density = 2.089751 g / cm^3
# Si number density = 20.945183 Si / 1000 Ang^3
#
#
#
# Elastic Constant Matrix: (Units=GPa)
#
#
# Indices 1 2 3 4 5 6 
#
# 1 62.3049 25.0579 50.5836 0.0000 0.0000 0.0000
# 2 25.0579 99.8874 74.6330 0.0000 0.0000 0.0000
# 3 50.5836 74.6330 80.1940 0.0000 0.0000 0.0000
# 4 0.0000 0.0000 0.0000 32.0360 0.0000 0.0000
# 5 0.0000 0.0000 0.0000 0.0000 27.1671 0.0000
# 6 0.0000 0.0000 0.0000 0.0000 0.0000 -3.9751
#
#
#
# Elastic Compliance Matrix: (Units=1/GPa)
#
#
# Indices 1 2 3 4 5 6 
#
# 1 0.069123 0.050015 -0.090147 0.000000 0.000000 0.000000
# 2 0.050015 0.069052 -0.095811 0.000000 0.000000 0.000000
# 3 -0.090147 -0.095811 0.158499 0.000000 0.000000 0.000000
# 4 0.000000 0.000000 0.000000 0.031215 0.000000 0.000000
# 5 0.000000 0.000000 0.000000 0.000000 0.036809 0.000000
# 6 0.000000 0.000000 0.000000 0.000000 0.000000 -0.251567
#
#
# Mechanical properties :
#
#
# Convention : Reuss Voigt Hill
#
# Bulk Modulus (GPa) = 40.34399 60.32614 50.33507
# Shear Modulus (GPa) = 12.71361 17.18640 14.95000
#
# Velocity S-wave (km/s) = 2.46640 2.86762 2.67454
# Velocity P-wave (km/s) = 5.23587 6.31100 5.79841
#
# Compressibility (1/GPa) = 0.02478684
#
# Stress axis : x y z
#
# Youngs Moduli (GPa) = 14.46700 14.48188 6.30920
#
# Poissons Ratio (x) = -0.72431 0.56876
# Poissons Ratio (y) = -0.72357 0.60449
# Poissons Ratio (z) = 1.30416 1.38753
#
# Static dielectric constant tensor:
#      x y z
#    x 3.861250 0.000000 0.000000 
#    y 0.000000 4.143290 0.000000 
#    z 0.000000 0.000000 3.743150 
# 
# 
# High freq. dielectric constant tensor:
#      x y z
#    x 1.813320 0.000000 0.000000 
#    y 0.000000 1.831540 0.000000 
#    z 0.000000 0.000000 1.800290 
# 
# From -- ./inp_files/5959.got.cif
#   From: 2010.03.12/outbox.cif.g09.slc.cpg/sg19_3_cif.got.tgz:5959.got - 2010.04.10 18:59:41.
