data_PCOD8156065
_publ_section_title
;
Structure prediction by ZEFSAII (Michael W. Deem and Ramdas Pophale) SiO2 
 PCOD8156065
Probable space group: P 21 21 2
;
_chemical_formula_sum "Si O2"
_cell_formula_units_Z 32
_cell_length_a 9.843076
_cell_length_b 15.944986
_cell_length_c 11.176870
_cell_angle_alpha 90.000000
_cell_angle_beta 90.000000
_cell_angle_gamma 90.000000
_cell_volume 1754.184140
_symmetry_space_group_name_H-M "P 21 21 2"
_symmetry_group_IT_number 18
_symmetry_cell_setting 'orthorhombic'
loop_
_space_group_symop_operation_xyz
x,y,z
-x,-y,z
1/2+x,1/2-y,-z
1/2-x,1/2+y,-z
loop_
_atom_site_type_symbol
_atom_site_label
_atom_site_fract_x
_atom_site_fract_y
_atom_site_fract_z
Si Si1 0.190469 0.803671 0.151807
Si Si2 0.012180 0.318684 0.852224
Si Si3 0.006679 0.137759 0.970168
Si Si4 0.101397 0.930046 0.730419
Si Si5 0.190535 0.624735 0.032512
Si Si6 0.358466 0.037206 0.728656
Si Si7 0.796611 0.288153 0.390865
Si Si8 0.982013 0.238672 0.609188
O O1 0.333587 0.853946 0.144937
O O2 0.196101 0.720528 0.072644
O O3 0.157773 0.777079 0.287771
O O4 0.074861 0.863687 0.095968
O O5 0.020488 0.230605 0.919534
O O6 0.965807 0.305908 0.715700
O O7 0.907052 0.382005 0.916281
O O8 0.154648 0.097436 0.996287
O O9 0.928888 0.083844 0.870632
O O10 0.083245 0.848330 0.650323
O O11 0.254440 0.960884 0.715199
O O12 0.000000 0.000000 0.679445
O O13 0.128274 0.564978 0.133548
O O14 0.309950 0.116049 0.651053
O O15 0.500000 0.000000 0.682041
O O16 0.897357 0.274292 0.499726
O O17 0.639851 0.272863 0.426342
#
# Coordination Sequence:
#
# PCOD8156065 Si02
#       8
#     4   4   4   4   4   4   4   4
#     4   8  16  30  49  73 103 132 166 214 259 314
#     4   8  16  30  47  74 104 131 166 213 264 309
#     4   9  16  28  51  75 100 134 167 205 266 328
#     4  11  19  37  56  78 110 144 178 231 290 334
#     4   9  16  30  48  75 106 130 163 212 264 322
#     4  11  23  35  54  84 112 141 184 236 286 337
#     4  10  21  38  55  82 112 145 195 237 273 333
#     4  10  21  36  58  80 109 151 193 234 278 331
#
# _framework density 18.242099
#
# number of rings (size 3 to 8) (size 9 to 14) (size 15 to 20)
#    0.000    2.500    2.500    1.500    3.500    1.000 
#    4.500    0.000    0.000    3.000    0.000    0.000 
#    0.000    0.000    0.000    0.000    0.000    0.000 
#
# Total GULP energy -396663.249088 kJ/mol
# GULP energy per Si atom -12395.726534 kJ/mol
# Density = 1.820058 g / cm^3
# Si number density = 18.242099 Si / 1000 Ang^3
#
#
#
# Elastic Constant Matrix: (Units=GPa)
#
#
# Indices 1 2 3 4 5 6 
#
# 1 110.8124 18.3112 51.0759 0.0000 0.0000 0.0000
# 2 18.3112 33.0470 14.3101 0.0000 0.0000 0.0000
# 3 51.0759 14.3101 100.9504 0.0000 0.0000 0.0000
# 4 0.0000 0.0000 0.0000 13.9994 0.0000 0.0000
# 5 0.0000 0.0000 0.0000 0.0000 32.1074 0.0000
# 6 0.0000 0.0000 0.0000 0.0000 0.0000 28.4848
#
#
#
# Elastic Compliance Matrix: (Units=1/GPa)
#
#
# Indices 1 2 3 4 5 6 
#
# 1 0.012343 -0.004405 -0.005620 0.000000 0.000000 0.000000
# 2 -0.004405 0.033811 -0.002564 0.000000 0.000000 0.000000
# 3 -0.005620 -0.002564 0.013113 0.000000 0.000000 0.000000
# 4 0.000000 0.000000 0.000000 0.071432 0.000000 0.000000
# 5 0.000000 0.000000 0.000000 0.000000 0.031145 0.000000
# 6 0.000000 0.000000 0.000000 0.000000 0.000000 0.035106
#
#
# Mechanical properties :
#
#
# Convention : Reuss Voigt Hill
#
# Bulk Modulus (GPa) = 29.33625 45.80046 37.56836
# Shear Modulus (GPa) = 21.41398 25.65917 23.53657
#
# Velocity S-wave (km/s) = 3.42991 3.75452 3.59588
# Velocity P-wave (km/s) = 5.63934 6.62999 6.15463
#
# Compressibility (1/GPa) = 0.03408752
#
# Stress axis : x y z
#
# Youngs Moduli (GPa) = 81.01914 29.57606 76.26057
#
# Poissons Ratio (x) = 0.13029 0.42861
# Poissons Ratio (y) = 0.35692 0.19553
# Poissons Ratio (z) = 0.45536 0.07583
#
# Static dielectric constant tensor:
#      x y z
#    x 3.790990 0.000000 0.000000 
#    y 0.000000 3.113310 0.000000 
#    z 0.000000 0.000000 3.253070 
# 
# 
# High freq. dielectric constant tensor:
#      x y z
#    x 1.721620 0.000000 0.000000 
#    y 0.000000 1.678230 0.000000 
#    z 0.000000 0.000000 1.685600 
# 
# From -- ./inp_files/5746.got.cif
#   From: 2010.03.12/outbox.cif.g09.slc.cpg/sg18_3_cif.got.tgz:5746.got - 2010.04.10 18:53:55.
