data_PCOD8156857
_publ_section_title
;
Structure prediction by ZEFSAII (Michael W. Deem and Ramdas Pophale) SiO2 
 PCOD8156857
Probable space group: P 21 21 21
;
_chemical_formula_sum "Si O2"
_cell_formula_units_Z 32
_cell_length_a 14.776018
_cell_length_b 8.483971
_cell_length_c 11.515235
_cell_angle_alpha 90.000000
_cell_angle_beta 90.000000
_cell_angle_gamma 90.000000
_cell_volume 1443.541893
_symmetry_space_group_name_H-M "P 21 21 21"
_symmetry_group_IT_number 19
_symmetry_cell_setting 'orthorhombic'
loop_
_space_group_symop_operation_xyz
x,y,z
1/2-x,-y,1/2+z
1/2+x,1/2-y,-z
-x,1/2+y,1/2-z
loop_
_atom_site_type_symbol
_atom_site_label
_atom_site_fract_x
_atom_site_fract_y
_atom_site_fract_z
Si Si1 0.501138 0.597229 0.857941
Si Si2 0.597257 0.433038 0.061560
Si Si3 0.638613 0.403517 0.421471
Si Si4 0.363113 0.578758 0.439073
Si Si5 0.527878 0.880320 0.236643
Si Si6 0.313768 0.141422 0.265468
Si Si7 0.699368 0.145037 0.587123
Si Si8 0.503097 0.463145 0.610588
O O1 0.396197 0.564264 0.885803
O O2 0.526963 0.548831 0.728900
O O3 0.520133 0.780259 0.875045
O O4 0.567991 0.492829 0.935864
O O5 0.646737 0.265346 0.061169
O O6 0.505742 0.436437 0.138096
O O7 0.673755 0.545261 0.115245
O O8 0.559821 0.331257 0.339465
O O9 0.701250 0.526286 0.346492
O O10 0.696688 0.258828 0.473568
O O11 0.590536 0.492034 0.529209
O O12 0.418998 0.521762 0.326552
O O13 0.265404 0.498390 0.441728
O O14 0.413577 0.537386 0.557495
O O15 0.592029 0.731256 0.256807
O O16 0.231145 0.259419 0.295552
#
# Coordination Sequence:
#
# PCOD8156857 Si02
#       8
#     4   4   4   4   4   4   4   4
#     4  11  23  42  66  91 126 171 218 260 318 378
#     4  11  20  37  67  94 116 171 219 255 303 386
#     4   9  19  38  65  89 124 167 212 255 312 381
#     4  10  21  39  60  93 132 160 211 262 321 372
#     4   9  18  37  68  93 119 159 215 263 300 376
#     4  10  20  39  65  95 124 164 208 265 316 371
#     4  10  22  43  58  96 136 164 200 270 336 369
#     4  10  21  41  63  89 121 172 217 260 304 385
#
# _framework density 22.167698999999999
#
# number of rings (size 3 to 8) (size 9 to 14) (size 15 to 20)
#    0.000    2.000    0.000    6.000    0.000    2.000 
#   20.250    3.750    0.000    0.000    0.000    0.000 
#    0.000    0.000    0.000    0.000    0.000    0.000 
#
# Total GULP energy -396768.537317 kJ/mol
# GULP energy per Si atom -12399.016791 kJ/mol
# Density = 2.211724 g / cm^3
# Si number density = 22.167699 Si / 1000 Ang^3
#
#
#
# Elastic Constant Matrix: (Units=GPa)
#
#
# Indices 1 2 3 4 5 6 
#
# 1 49.3513 17.0550 11.1853 0.0000 0.0000 0.0000
# 2 17.0550 70.2876 15.9963 0.0000 0.0000 0.0000
# 3 11.1853 15.9963 118.6914 0.0000 0.0000 0.0000
# 4 0.0000 0.0000 0.0000 35.4102 0.0000 0.0000
# 5 0.0000 0.0000 0.0000 0.0000 20.8374 0.0000
# 6 0.0000 0.0000 0.0000 0.0000 0.0000 58.9547
#
#
#
# Elastic Compliance Matrix: (Units=1/GPa)
#
#
# Indices 1 2 3 4 5 6 
#
# 1 0.022347 -0.005099 -0.001419 0.000000 0.000000 0.000000
# 2 -0.005099 0.015841 -0.001654 0.000000 0.000000 0.000000
# 3 -0.001419 -0.001654 0.008782 0.000000 0.000000 0.000000
# 4 0.000000 0.000000 0.000000 0.028240 0.000000 0.000000
# 5 0.000000 0.000000 0.000000 0.000000 0.047991 0.000000
# 6 0.000000 0.000000 0.000000 0.000000 0.000000 0.016962
#
#
# Mechanical properties :
#
#
# Convention : Reuss Voigt Hill
#
# Bulk Modulus (GPa) = 32.65339 36.31151 34.48245
# Shear Modulus (GPa) = 29.99109 35.98005 32.98557
#
# Velocity S-wave (km/s) = 3.68219 4.03312 3.86165
# Velocity P-wave (km/s) = 5.73064 6.17285 5.95585
#
# Compressibility (1/GPa) = 0.03062470
#
# Stress axis : x y z
#
# Youngs Moduli (GPa) = 44.74929 63.12680 113.87105
#
# Poissons Ratio (x) = 0.32191 0.16154
# Poissons Ratio (y) = 0.22820 0.18839
# Poissons Ratio (z) = 0.06348 0.10444
#
# Static dielectric constant tensor:
#      x y z
#    x 3.482980 0.000000 0.000000 
#    y 0.000000 3.955040 0.000000 
#    z 0.000000 0.000000 3.538680 
# 
# 
# High freq. dielectric constant tensor:
#      x y z
#    x 1.857630 0.000000 0.000000 
#    y 0.000000 1.872550 0.000000 
#    z 0.000000 0.000000 1.876130 
# 
# From -- ./inp_files/5415.got.cif
#   From: 2010.03.12/outbox.cif.g09.slc.cpg/sg19_3_cif.got.tgz:5415.got - 2010.04.10 18:59:41.
