data_PCOD8156050
_publ_section_title
;
Structure prediction by ZEFSAII (Michael W. Deem and Ramdas Pophale) SiO2 
 PCOD8156050
Probable space group: P 21 21 2
;
_chemical_formula_sum "Si O2"
_cell_formula_units_Z 24
_cell_length_a 10.737189
_cell_length_b 9.270538
_cell_length_c 11.189306
_cell_angle_alpha 90.000000
_cell_angle_beta 90.000000
_cell_angle_gamma 90.000000
_cell_volume 1113.778133
_symmetry_space_group_name_H-M "P 21 21 2"
_symmetry_group_IT_number 18
_symmetry_cell_setting 'orthorhombic'
loop_
_space_group_symop_operation_xyz
x,y,z
-x,-y,z
1/2+x,1/2-y,-z
1/2-x,1/2+y,-z
loop_
_atom_site_type_symbol
_atom_site_label
_atom_site_fract_x
_atom_site_fract_y
_atom_site_fract_z
Si Si1 0.411496 0.782455 0.679435
Si Si2 0.756527 0.383077 0.853414
Si Si3 0.000000 0.500000 0.725856
Si Si4 0.763930 0.068254 0.936565
Si Si5 0.462105 0.721464 0.417078
Si Si6 0.319774 0.472797 0.321426
Si Si7 0.500000 0.000000 0.849238
O O1 0.336171 0.652431 0.743617
O O2 0.476610 0.727063 0.560043
O O3 0.316704 0.913728 0.648554
O O4 0.513136 0.854516 0.767420
O O5 0.777637 0.240777 0.934660
O O6 0.888688 0.439763 0.806653
O O7 0.688198 0.502081 0.938078
O O8 0.056427 0.377446 0.640108
O O9 0.836916 0.005043 0.821547
O O10 0.620015 0.017256 0.932116
O O11 0.340792 0.625005 0.386553
O O12 0.583674 0.647360 0.364357
#
# Coordination Sequence:
#
# PCOD8156050 Si02
#       7
#     4   4   2   4   4   4   2
#     4  10  21  40  63  98 125 167 224 261 328 394
#     4  10  23  39  64  97 126 167 224 261 325 395
#     4  12  22  40  64 100 120 178 224 256 338 394
#     4  10  20  43  62  92 128 163 213 271 316 392
#     4  11  22  38  64  88 133 168 212 278 313 392
#     4   9  22  41  57  93 130 170 208 268 337 367
#     4   8  18  38  62  86 122 168 202 266 328 368
#
# _framework density 21.548276000000001
#
# number of rings (size 3 to 8) (size 9 to 14) (size 15 to 20)
#    0.000    2.333    3.333    1.000    4.667    2.667 
#    0.000    3.333    0.000    0.000    0.000    0.000 
#    0.000    0.000    0.000    0.000    0.000    0.000 
#
# Total GULP energy -297503.687511 kJ/mol
# GULP energy per Si atom -12395.986980 kJ/mol
# Density = 2.149923 g / cm^3
# Si number density = 21.548276 Si / 1000 Ang^3
#
#
#
# Elastic Constant Matrix: (Units=GPa)
#
#
# Indices 1 2 3 4 5 6 
#
# 1 58.4222 27.0916 20.3930 0.0000 0.0000 0.0000
# 2 27.0916 123.6178 48.1478 0.0000 0.0000 0.0000
# 3 20.3930 48.1478 118.4233 0.0000 0.0000 0.0000
# 4 0.0000 0.0000 0.0000 35.9197 0.0000 0.0000
# 5 0.0000 0.0000 0.0000 0.0000 25.5325 0.0000
# 6 0.0000 0.0000 0.0000 0.0000 0.0000 37.1539
#
#
#
# Elastic Compliance Matrix: (Units=1/GPa)
#
#
# Indices 1 2 3 4 5 6 
#
# 1 0.019412 -0.003508 -0.001917 0.000000 0.000000 0.000000
# 2 -0.003508 0.010245 -0.003561 0.000000 0.000000 0.000000
# 3 -0.001917 -0.003561 0.010222 0.000000 0.000000 0.000000
# 4 0.000000 0.000000 0.000000 0.027840 0.000000 0.000000
# 5 0.000000 0.000000 0.000000 0.000000 0.039166 0.000000
# 6 0.000000 0.000000 0.000000 0.000000 0.000000 0.026915
#
#
# Mechanical properties :
#
#
# Convention : Reuss Voigt Hill
#
# Bulk Modulus (GPa) = 45.64498 54.63646 50.14072
# Shear Modulus (GPa) = 31.43160 33.37661 32.40410
#
# Velocity S-wave (km/s) = 3.82338 3.93990 3.88208
# Velocity P-wave (km/s) = 6.38120 6.79025 6.58890
#
# Compressibility (1/GPa) = 0.02190821
#
# Stress axis : x y z
#
# Youngs Moduli (GPa) = 51.51327 97.60526 97.82502
#
# Poissons Ratio (x) = 0.34238 0.18750
# Poissons Ratio (y) = 0.18070 0.34840
# Poissons Ratio (z) = 0.09874 0.34761
#
# Static dielectric constant tensor:
#      x y z
#    x 3.666360 0.000000 0.000000 
#    y 0.000000 4.001390 0.000000 
#    z 0.000000 0.000000 3.902100 
# 
# 
# High freq. dielectric constant tensor:
#      x y z
#    x 1.825070 0.000000 0.000000 
#    y 0.000000 1.847660 0.000000 
#    z 0.000000 0.000000 1.850870 
# 
# From -- ./inp_files/5862.got.cif
#   From: 2010.03.12/outbox.cif.g09.slc.cpg/sg18_3_cif.got.tgz:5862.got - 2010.04.10 18:53:55.
