data_PCOD8156298
_publ_section_title
;
Structure prediction by ZEFSAII (Michael W. Deem and Ramdas Pophale) SiO2 
 PCOD8156298
Probable space group: P 21 21 2
;
_chemical_formula_sum "Si O2"
_cell_formula_units_Z 24
_cell_length_a 12.504155
_cell_length_b 7.479763
_cell_length_c 12.505461
_cell_angle_alpha 90.000000
_cell_angle_beta 90.000000
_cell_angle_gamma 90.000000
_cell_volume 1169.612206
_symmetry_space_group_name_H-M "P 21 21 2"
_symmetry_group_IT_number 18
_symmetry_cell_setting 'orthorhombic'
loop_
_space_group_symop_operation_xyz
x,y,z
-x,-y,z
1/2+x,1/2-y,-z
1/2-x,1/2+y,-z
loop_
_atom_site_type_symbol
_atom_site_label
_atom_site_fract_x
_atom_site_fract_y
_atom_site_fract_z
Si Si1 0.142367 0.367045 0.462060
Si Si2 0.766938 0.975045 0.355909
Si Si3 0.570182 0.777943 0.620313
Si Si4 0.257660 0.640458 0.879106
Si Si5 0.024641 0.310776 0.150552
Si Si6 0.100691 0.900078 0.982556
O O1 0.221378 0.223503 0.405784
O O2 0.176452 0.411249 0.583397
O O3 0.151028 0.554846 0.395643
O O4 0.021632 0.289532 0.471125
O O5 0.737243 0.971351 0.229969
O O6 0.876502 0.084133 0.375835
O O7 0.502926 0.808194 0.726414
O O8 0.349009 0.784391 0.856754
O O9 0.147286 0.741383 0.909299
O O10 0.298342 0.520401 0.979328
O O11 0.000000 0.500000 0.096174
O O12 0.953982 0.164580 0.091667
O O13 0.000000 0.000000 0.921832
#
# Coordination Sequence:
#
# PCOD8156298 Si02
#       6
#     4   4   4   4   4   4
#     4  11  23  36  64  96 129 162 212 273 328 386
#     4  12  22  40  66  96 130 170 214 273 335 393
#     4  11  21  39  64  96 124 166 225 272 310 399
#     4  11  22  39  67  94 129 175 223 271 342 397
#     4  11  19  36  67  97 123 164 226 280 326 391
#     4  10  23  39  64  98 132 170 221 284 333 394
#
# _framework density 20.519621999999998
#
# number of rings (size 3 to 8) (size 9 to 14) (size 15 to 20)
#    0.000    1.000    6.667    1.500    0.000    0.000 
#    0.000    0.000   25.667    0.000    0.000    0.000 
#    0.000    0.000    0.000    0.000    0.000    0.000 
#
# Total GULP energy -297454.471387 kJ/mol
# GULP energy per Si atom -12393.936308 kJ/mol
# Density = 2.047292 g / cm^3
# Si number density = 20.519622 Si / 1000 Ang^3
#
#
#
# Elastic Constant Matrix: (Units=GPa)
#
#
# Indices 1 2 3 4 5 6 
#
# 1 97.8464 35.4423 50.3890 0.0000 0.0000 0.0000
# 2 35.4423 89.5706 31.7353 0.0000 0.0000 0.0000
# 3 50.3890 31.7353 84.6226 0.0000 0.0000 0.0000
# 4 0.0000 0.0000 0.0000 24.9384 0.0000 0.0000
# 5 0.0000 0.0000 0.0000 0.0000 25.5816 0.0000
# 6 0.0000 0.0000 0.0000 0.0000 0.0000 48.1143
#
#
#
# Elastic Compliance Matrix: (Units=1/GPa)
#
#
# Indices 1 2 3 4 5 6 
#
# 1 0.015548 -0.003312 -0.008016 0.000000 0.000000 0.000000
# 2 -0.003312 0.013581 -0.003121 0.000000 0.000000 0.000000
# 3 -0.008016 -0.003121 0.017761 0.000000 0.000000 0.000000
# 4 0.000000 0.000000 0.000000 0.040099 0.000000 0.000000
# 5 0.000000 0.000000 0.000000 0.000000 0.039091 0.000000
# 6 0.000000 0.000000 0.000000 0.000000 0.000000 0.020784
#
#
# Mechanical properties :
#
#
# Convention : Reuss Voigt Hill
#
# Bulk Modulus (GPa) = 55.58189 56.35255 55.96722
# Shear Modulus (GPa) = 27.50919 30.02506 28.76713
#
# Velocity S-wave (km/s) = 3.66543 3.82938 3.74830
# Velocity P-wave (km/s) = 6.71266 6.86109 6.78728
#
# Compressibility (1/GPa) = 0.01799147
#
# Stress axis : x y z
#
# Youngs Moduli (GPa) = 64.31750 73.63411 56.30403
#
# Poissons Ratio (x) = 0.24388 0.45133
# Poissons Ratio (y) = 0.21302 0.17572
# Poissons Ratio (z) = 0.51557 0.22980
#
# Static dielectric constant tensor:
#      x y z
#    x 3.701780 0.000000 0.000000 
#    y 0.000000 4.424420 0.000000 
#    z 0.000000 0.000000 3.545900 
# 
# 
# High freq. dielectric constant tensor:
#      x y z
#    x 1.790830 0.000000 0.000000 
#    y 0.000000 1.818740 0.000000 
#    z 0.000000 0.000000 1.775630 
# 
# From -- ./inp_files/5500.got.cif
#   From: 2010.03.12/outbox.cif.g09.slc.cpg/sg18_3_cif.got.tgz:5500.got - 2010.04.10 18:53:55.
