data_PCOD8156147
_publ_section_title
;
Structure prediction by ZEFSAII (Michael W. Deem and Ramdas Pophale) SiO2 
 PCOD8156147
Probable space group: P 21 21 2
;
_chemical_formula_sum "Si O2"
_cell_formula_units_Z 24
_cell_length_a 8.243025
_cell_length_b 13.435722
_cell_length_c 8.960258
_cell_angle_alpha 90.000000
_cell_angle_beta 90.000000
_cell_angle_gamma 90.000000
_cell_volume 992.357465
_symmetry_space_group_name_H-M "P 21 21 2"
_symmetry_group_IT_number 18
_symmetry_cell_setting 'orthorhombic'
loop_
_space_group_symop_operation_xyz
x,y,z
-x,-y,z
1/2+x,1/2-y,-z
1/2-x,1/2+y,-z
loop_
_atom_site_type_symbol
_atom_site_label
_atom_site_fract_x
_atom_site_fract_y
_atom_site_fract_z
Si Si1 0.266200 0.402592 0.727812
Si Si2 0.069373 0.898119 0.811085
Si Si3 0.269135 0.627361 0.645628
Si Si4 0.412845 0.285563 0.488769
Si Si5 0.056692 0.185605 0.089711
Si Si6 0.402336 0.902897 0.978959
O O1 0.275916 0.508669 0.642518
O O2 0.262917 0.319865 0.596954
O O3 0.425941 0.382251 0.825749
O O4 0.111519 0.396363 0.838796
O O5 0.115110 0.833620 0.670915
O O6 0.224853 0.915127 0.913023
O O7 0.000000 0.000000 0.746490
O O8 0.930602 0.848938 0.917672
O O9 0.421044 0.682577 0.565524
O O10 0.112331 0.667624 0.552149
O O11 0.274249 0.664150 0.820768
O O12 0.014020 0.303501 0.087922
O O13 0.500000 0.000000 0.930512
#
# Coordination Sequence:
#
# PCOD8156147 Si02
#       6
#     4   4   4   4   4   4
#     4  10  24  43  69  98 142 191 224 296 368 426
#     4  11  23  42  70 100 136 183 231 292 361 424
#     4  11  23  46  69  98 143 186 236 291 363 432
#     4  11  24  44  67 103 133 189 235 290 352 432
#     4  10  21  42  66  98 133 178 231 284 353 414
#     4  11  25  43  70 106 139 181 237 300 356 430
#
# _framework density 24.184836000000001
#
# number of rings (size 3 to 8) (size 9 to 14) (size 15 to 20)
#    0.000    1.333    1.667    5.000    4.667    2.667 
#    9.000    0.833    0.000    0.000    0.000    0.000 
#    0.000    0.000    0.000    0.000    0.000    0.000 
#
# Total GULP energy -297358.517668 kJ/mol
# GULP energy per Si atom -12389.938236 kJ/mol
# Density = 2.412979 g / cm^3
# Si number density = 24.184836 Si / 1000 Ang^3
#
#
#
# Elastic Constant Matrix: (Units=GPa)
#
#
# Indices 1 2 3 4 5 6 
#
# 1 22.0611 -2.0075 4.3974 0.0000 0.0000 0.0000
# 2 -2.0075 125.5819 4.1877 0.0000 0.0000 0.0000
# 3 4.3974 4.1877 109.2202 0.0000 0.0000 0.0000
# 4 0.0000 0.0000 0.0000 26.7759 0.0000 0.0000
# 5 0.0000 0.0000 0.0000 0.0000 16.0767 0.0000
# 6 0.0000 0.0000 0.0000 0.0000 0.0000 37.4754
#
#
#
# Elastic Compliance Matrix: (Units=1/GPa)
#
#
# Indices 1 2 3 4 5 6 
#
# 1 0.045774 0.000794 -0.001873 0.000000 0.000000 0.000000
# 2 0.000794 0.007987 -0.000338 0.000000 0.000000 0.000000
# 3 -0.001873 -0.000338 0.009244 0.000000 0.000000 0.000000
# 4 0.000000 0.000000 0.000000 0.037347 0.000000 0.000000
# 5 0.000000 0.000000 0.000000 0.000000 0.062202 0.000000
# 6 0.000000 0.000000 0.000000 0.000000 0.000000 0.026684
#
#
# Mechanical properties :
#
#
# Convention : Reuss Voigt Hill
#
# Bulk Modulus (GPa) = 16.61942 30.00204 23.31073
# Shear Modulus (GPa) = 23.57045 32.75131 28.16088
#
# Velocity S-wave (km/s) = 3.12524 3.68395 3.41604
# Velocity P-wave (km/s) = 4.46202 5.52517 5.02181
#
# Compressibility (1/GPa) = 0.06017059
#
# Stress axis : x y z
#
# Youngs Moduli (GPa) = 21.84633 125.20492 108.17579
#
# Poissons Ratio (x) = -0.09944 0.20266
# Poissons Ratio (y) = -0.01735 0.03659
# Poissons Ratio (z) = 0.04093 0.04235
#
# Static dielectric constant tensor:
#      x y z
#    x 4.123940 0.000000 0.000000 
#    y 0.000000 4.509460 0.000000 
#    z 0.000000 0.000000 5.062230 
# 
# 
# High freq. dielectric constant tensor:
#      x y z
#    x 1.932180 0.000000 0.000000 
#    y 0.000000 1.965680 0.000000 
#    z 0.000000 0.000000 1.974510 
# 
# From -- ./inp_files/3133.got.cif
#   From: 2010.03.12/outbox.cif.g09.slc.cpg/sg18_2_cif.got.tgz:3133.got - 2010.04.10 18:53:55.
