data_PCOD8156458
_publ_section_title
;
Structure prediction by ZEFSAII (Michael W. Deem and Ramdas Pophale) SiO2 
 PCOD8156458
Probable space group: P 21 21 2
;
_chemical_formula_sum "Si O2"
_cell_formula_units_Z 22
_cell_length_a 12.649057
_cell_length_b 8.059130
_cell_length_c 9.793587
_cell_angle_alpha 90.000000
_cell_angle_beta 90.000000
_cell_angle_gamma 90.000000
_cell_volume 998.362125
_symmetry_space_group_name_H-M "P 21 21 2"
_symmetry_group_IT_number 18
_symmetry_cell_setting 'orthorhombic'
loop_
_space_group_symop_operation_xyz
x,y,z
-x,-y,z
1/2+x,1/2-y,-z
1/2-x,1/2+y,-z
loop_
_atom_site_type_symbol
_atom_site_label
_atom_site_fract_x
_atom_site_fract_y
_atom_site_fract_z
Si Si1 0.500000 0.000000 0.484434
Si Si2 0.940823 0.283147 0.750357
Si Si3 0.323191 0.745241 0.156794
Si Si4 0.648191 0.254556 0.612425
Si Si5 0.734255 0.401308 0.875006
Si Si6 0.666517 0.506804 0.382134
O O1 0.579419 0.904719 0.380518
O O2 0.447803 0.869830 0.587070
O O3 0.850420 0.318635 0.862030
O O4 0.056596 0.307924 0.815953
O O5 0.932089 0.094835 0.694564
O O6 0.282702 0.630263 0.280598
O O7 0.245044 0.901504 0.145259
O O8 0.316765 0.635655 0.020777
O O9 0.652835 0.321511 0.766597
O O10 0.630454 0.413828 0.517607
O O11 0.753209 0.152165 0.576865
#
# Coordination Sequence:
#
# PCOD8156458 Si02
#       6
#     2   4   4   4   4   4
#     4  12  22  42  68 102 136 176 228 282 346 402
#     4  11  22  43  73  97 132 186 227 276 348 424
#     4  12  23  44  70 100 138 191 225 279 346 424
#     4  11  23  40  66 102 135 175 225 288 337 395
#     4  11  24  43  67 103 140 178 233 288 341 401
#     4  11  22  41  70  95 136 176 230 272 348 411
#
# _framework density 22.036092
#
# number of rings (size 3 to 8) (size 9 to 14) (size 15 to 20)
#    0.000    0.727    3.636    6.000    0.000    0.000 
#    6.545    0.000    8.000    0.000    0.000    0.000 
#    0.000    0.000    0.000    0.000    0.000    0.000 
#
# Total GULP energy -272761.639005 kJ/mol
# GULP energy per Si atom -12398.256318 kJ/mol
# Density = 2.198594 g / cm^3
# Si number density = 22.036092 Si / 1000 Ang^3
#
#
#
# Elastic Constant Matrix: (Units=GPa)
#
#
# Indices 1 2 3 4 5 6 
#
# 1 36.7170 4.3701 25.5993 0.0000 0.0000 0.0000
# 2 4.3701 94.1874 14.8349 0.0000 0.0000 0.0000
# 3 25.5993 14.8349 88.3100 0.0000 0.0000 0.0000
# 4 0.0000 0.0000 0.0000 42.1886 0.0000 0.0000
# 5 0.0000 0.0000 0.0000 0.0000 31.2058 0.0000
# 6 0.0000 0.0000 0.0000 0.0000 0.0000 40.8990
#
#
#
# Elastic Compliance Matrix: (Units=1/GPa)
#
#
# Indices 1 2 3 4 5 6 
#
# 1 0.034134 -0.000026 -0.009890 0.000000 0.000000 0.000000
# 2 -0.000026 0.010906 -0.001824 0.000000 0.000000 0.000000
# 3 -0.009890 -0.001824 0.014497 0.000000 0.000000 0.000000
# 4 0.000000 0.000000 0.000000 0.023703 0.000000 0.000000
# 5 0.000000 0.000000 0.000000 0.000000 0.032045 0.000000
# 6 0.000000 0.000000 0.000000 0.000000 0.000000 0.024450
#
#
# Mechanical properties :
#
#
# Convention : Reuss Voigt Hill
#
# Bulk Modulus (GPa) = 27.73517 34.31367 31.02442
# Shear Modulus (GPa) = 28.53291 34.48601 31.50946
#
# Velocity S-wave (km/s) = 3.60227 3.96027 3.78551
# Velocity P-wave (km/s) = 5.46950 6.04293 5.76335
#
# Compressibility (1/GPa) = 0.03605531
#
# Stress axis : x y z
#
# Youngs Moduli (GPa) = 29.29621 91.69520 68.97844
#
# Poissons Ratio (x) = 0.00238 0.68223
# Poissons Ratio (y) = 0.00076 0.12585
# Poissons Ratio (z) = 0.28975 0.16730
#
# Static dielectric constant tensor:
#      x y z
#    x 3.782480 0.000000 0.000000 
#    y 0.000000 4.410680 0.000000 
#    z 0.000000 0.000000 3.903310 
# 
# 
# High freq. dielectric constant tensor:
#      x y z
#    x 1.842480 0.000000 0.000000 
#    y 0.000000 1.900650 0.000000 
#    z 0.000000 0.000000 1.856080 
# 
# From -- ./inp_files/3104.got.cif
#   From: 2010.03.12/outbox.cif.g09.slc.cpg/sg18_2_cif.got.tgz:3104.got - 2010.04.10 18:53:55.
