data_PCOD8156944
_publ_section_title
;
Structure prediction by ZEFSAII (Michael W. Deem and Ramdas Pophale) SiO2 
 PCOD8156944
Probable space group: P 21 21 21
;
_chemical_formula_sum "Si O2"
_cell_formula_units_Z 32
_cell_length_a 12.112748
_cell_length_b 14.189690
_cell_length_c 8.073933
_cell_angle_alpha 90.000000
_cell_angle_beta 90.000000
_cell_angle_gamma 90.000000
_cell_volume 1387.716432
_symmetry_space_group_name_H-M "P 21 21 21"
_symmetry_group_IT_number 19
_symmetry_cell_setting 'orthorhombic'
loop_
_space_group_symop_operation_xyz
x,y,z
1/2-x,-y,1/2+z
1/2+x,1/2-y,-z
-x,1/2+y,1/2-z
loop_
_atom_site_type_symbol
_atom_site_label
_atom_site_fract_x
_atom_site_fract_y
_atom_site_fract_z
Si Si1 0.875277 0.314934 0.910754
Si Si2 0.089405 0.257468 0.740162
Si Si3 0.830077 0.176036 0.185420
Si Si4 0.582596 0.489236 0.533433
Si Si5 0.944382 0.994218 0.149603
Si Si6 0.483619 0.201268 0.595051
Si Si7 0.057724 0.051017 0.815174
Si Si8 0.793341 0.391516 0.599711
O O1 0.790954 0.319109 0.754716
O O2 0.000971 0.320145 0.840160
O O3 0.840235 0.218965 0.001294
O O4 0.866653 0.404766 0.032532
O O5 0.211352 0.302205 0.735271
O O6 0.047393 0.245835 0.551749
O O7 0.090435 0.159132 0.836981
O O8 0.837508 0.061344 0.179656
O O9 0.937048 0.220258 0.280008
O O10 0.527556 0.470881 0.709179
O O11 0.506316 0.470605 0.369300
O O12 0.675282 0.407276 0.517208
O O13 0.932016 0.879962 0.169123
O O14 0.978271 0.017543 0.961395
O O15 0.376092 0.142758 0.541069
O O16 0.170035 0.991391 0.822548
#
# Coordination Sequence:
#
# PCOD8156944 Si02
#       8
#     4   4   4   4   4   4   4   4
#     4  10  22  39  63  99 137 165 224 287 337 413
#     4  11  23  43  66  95 139 180 222 288 348 412
#     4  12  23  42  71  96 133 189 225 277 359 414
#     4  11  21  38  66  97 130 173 220 284 344 393
#     4  11  24  41  65  99 132 178 231 279 338 412
#     4  10  23  44  65  98 139 172 231 293 327 410
#     4  10  21  36  62  95 134 164 215 285 331 406
#     4   9  21  35  64 101 128 169 214 283 356 390
#
# _framework density 23.059466
#
# number of rings (size 3 to 8) (size 9 to 14) (size 15 to 20)
#    0.000    1.500    2.500    3.000    8.750    0.000 
#    2.250    1.250    0.000    0.000    0.000    0.000 
#    0.000    0.000    0.000    0.000    0.000    0.000 
#
# Total GULP energy -396477.829685 kJ/mol
# GULP energy per Si atom -12389.932178 kJ/mol
# Density = 2.300698 g / cm^3
# Si number density = 23.059466 Si / 1000 Ang^3
#
#
#
# Elastic Constant Matrix: (Units=GPa)
#
#
# Indices 1 2 3 4 5 6 
#
# 1 44.0632 2.6873 17.7070 0.0000 0.0000 0.0000
# 2 2.6873 57.9084 12.8433 0.0000 0.0000 0.0000
# 3 17.7070 12.8433 106.1217 0.0000 0.0000 0.0000
# 4 0.0000 0.0000 0.0000 30.5864 0.0000 0.0000
# 5 0.0000 0.0000 0.0000 0.0000 22.5097 0.0000
# 6 0.0000 0.0000 0.0000 0.0000 0.0000 28.8346
#
#
#
# Elastic Compliance Matrix: (Units=1/GPa)
#
#
# Indices 1 2 3 4 5 6 
#
# 1 0.024329 -0.000235 -0.004031 0.000000 0.000000 0.000000
# 2 -0.000235 0.017747 -0.002109 0.000000 0.000000 0.000000
# 3 -0.004031 -0.002109 0.010351 0.000000 0.000000 0.000000
# 4 0.000000 0.000000 0.000000 0.032694 0.000000 0.000000
# 5 0.000000 0.000000 0.000000 0.000000 0.044425 0.000000
# 6 0.000000 0.000000 0.000000 0.000000 0.000000 0.034681
#
#
# Mechanical properties :
#
#
# Convention : Reuss Voigt Hill
#
# Bulk Modulus (GPa) = 25.20300 30.50762 27.85531
# Shear Modulus (GPa) = 26.28783 28.04321 27.16552
#
# Velocity S-wave (km/s) = 3.38005 3.49108 3.43602
# Velocity P-wave (km/s) = 5.11726 5.43221 5.27708
#
# Compressibility (1/GPa) = 0.03967781
#
# Stress axis : x y z
#
# Youngs Moduli (GPa) = 41.10349 56.34686 96.60976
#
# Poissons Ratio (x) = 0.01324 0.38943
# Poissons Ratio (y) = 0.00966 0.20371
# Poissons Ratio (z) = 0.16569 0.11882
#
# Static dielectric constant tensor:
#      x y z
#    x 3.711320 0.000000 0.000000 
#    y 0.000000 4.462740 0.000000 
#    z 0.000000 0.000000 4.250080 
# 
# 
# High freq. dielectric constant tensor:
#      x y z
#    x 1.860420 0.000000 0.000000 
#    y 0.000000 1.920700 0.000000 
#    z 0.000000 0.000000 1.923930 
# 
# From -- ./inp_files/3567.got.cif
#   From: 2010.03.12/outbox.cif.g09.slc.cpg/sg19_2_cif.got.tgz:3567.got - 2010.04.10 18:59:41.
