data_PCOD8156483
_publ_section_title
;
Structure prediction by ZEFSAII (Michael W. Deem and Ramdas Pophale) SiO2 
 PCOD8156483
Probable space group: P 21 21 2
;
_chemical_formula_sum "Si O2"
_cell_formula_units_Z 30
_cell_length_a 20.413505
_cell_length_b 10.447289
_cell_length_c 6.412323
_cell_angle_alpha 90.000000
_cell_angle_beta 90.000000
_cell_angle_gamma 90.000000
_cell_volume 1367.529106
_symmetry_space_group_name_H-M "P 21 21 2"
_symmetry_group_IT_number 18
_symmetry_cell_setting 'orthorhombic'
loop_
_space_group_symop_operation_xyz
x,y,z
-x,-y,z
1/2+x,1/2-y,-z
1/2-x,1/2+y,-z
loop_
_atom_site_type_symbol
_atom_site_label
_atom_site_fract_x
_atom_site_fract_y
_atom_site_fract_z
Si Si1 0.223920 0.705604 0.084166
Si Si2 0.360179 0.373059 0.211173
Si Si3 0.500000 0.000000 0.084199
Si Si4 0.052114 0.685831 0.579286
Si Si5 0.934999 0.679974 0.252710
Si Si6 0.338185 0.025870 0.616479
Si Si7 0.722050 0.573825 0.601927
Si Si8 0.853138 0.903860 0.093733
O O1 0.198938 0.569012 0.171981
O O2 0.241004 0.798324 0.275874
O O3 0.166235 0.766280 0.947452
O O4 0.290945 0.684037 0.959996
O O5 0.426700 0.322074 0.321858
O O6 0.301881 0.391478 0.372994
O O7 0.376121 0.507724 0.099424
O O8 0.454787 0.084600 0.234109
O O9 0.541332 0.093486 0.938355
O O10 0.110526 0.637918 0.432227
O O11 0.988226 0.700017 0.435290
O O12 0.872559 0.610915 0.353280
O O13 0.914505 0.817247 0.161580
O O14 0.287777 0.010783 0.424323
O O15 0.665356 0.494312 0.714255
#
# Coordination Sequence:
#
# PCOD8156483 Si02
#       8
#     4   4   2   4   4   4   4   4
#     4  11  24  42  72 108 140 182 232 297 367 437
#     4  11  24  46  70 102 140 193 233 291 364 426
#     4  12  24  48  70 104 132 188 246 294 358 402
#     4  12  25  46  73 101 140 190 243 297 357 418
#     4  12  27  46  70 106 143 186 248 301 345 440
#     4  12  22  43  73 105 140 179 235 299 361 423
#     4  11  25  43  70 104 143 181 228 292 367 427
#     4  11  27  44  69 108 146 187 237 291 369 439
#
# _framework density 21.937374999999999
#
# number of rings (size 3 to 8) (size 9 to 14) (size 15 to 20)
#    0.000    0.533    5.333    2.400    5.600    1.067 
#    0.000    4.000    0.000    0.000    0.000    0.000 
#    0.000    0.000    0.000    0.000    0.000    0.000 
#
# Total GULP energy -372133.616377 kJ/mol
# GULP energy per Si atom -12404.453879 kJ/mol
# Density = 2.188744 g / cm^3
# Si number density = 21.937375 Si / 1000 Ang^3
#
#
#
# Elastic Constant Matrix: (Units=GPa)
#
#
# Indices 1 2 3 4 5 6 
#
# 1 94.7982 47.6388 43.2565 0.0000 0.0000 0.0000
# 2 47.6388 111.6082 41.7002 0.0000 0.0000 0.0000
# 3 43.2565 41.7002 106.6741 0.0000 0.0000 0.0000
# 4 0.0000 0.0000 0.0000 46.5709 0.0000 0.0000
# 5 0.0000 0.0000 0.0000 0.0000 35.3853 0.0000
# 6 0.0000 0.0000 0.0000 0.0000 0.0000 42.0354
#
#
#
# Elastic Compliance Matrix: (Units=1/GPa)
#
#
# Indices 1 2 3 4 5 6 
#
# 1 0.014848 -0.004787 -0.004149 0.000000 0.000000 0.000000
# 2 -0.004787 0.012036 -0.002764 0.000000 0.000000 0.000000
# 3 -0.004149 -0.002764 0.012137 0.000000 0.000000 0.000000
# 4 0.000000 0.000000 0.000000 0.021473 0.000000 0.000000
# 5 0.000000 0.000000 0.000000 0.000000 0.028260 0.000000
# 6 0.000000 0.000000 0.000000 0.000000 0.000000 0.023789
#
#
# Mechanical properties :
#
#
# Convention : Reuss Voigt Hill
#
# Bulk Modulus (GPa) = 64.01963 64.25239 64.13601
# Shear Modulus (GPa) = 35.42300 36.83064 36.12682
#
# Velocity S-wave (km/s) = 4.02273 4.10188 4.06250
# Velocity P-wave (km/s) = 7.12901 7.19628 7.16273
#
# Compressibility (1/GPa) = 0.01562021
#
# Stress axis : x y z
#
# Youngs Moduli (GPa) = 67.34978 83.08446 82.39049
#
# Poissons Ratio (x) = 0.39775 0.34187
# Poissons Ratio (y) = 0.32242 0.22771
# Poissons Ratio (z) = 0.27946 0.22962
#
# Static dielectric constant tensor:
#      x y z
#    x 3.846860 0.000000 0.000000 
#    y 0.000000 4.022750 0.000000 
#    z 0.000000 0.000000 4.163120 
# 
# 
# High freq. dielectric constant tensor:
#      x y z
#    x 1.853920 0.000000 0.000000 
#    y 0.000000 1.865710 0.000000 
#    z 0.000000 0.000000 1.877690 
# 
# From -- ./inp_files/2012.got.cif
#   From: 2010.03.12/outbox.cif.g09.slc.cpg/sg18_2_cif.got.tgz:2012.got - 2010.04.10 18:53:55.
