data_PCOD8156713
_publ_section_title
;
Structure prediction by ZEFSAII (Michael W. Deem and Ramdas Pophale) SiO2 
 PCOD8156713
Probable space group: P 21 21 21
;
_chemical_formula_sum "Si O2"
_cell_formula_units_Z 28
_cell_length_a 11.657787
_cell_length_b 9.797999
_cell_length_c 12.531092
_cell_angle_alpha 90.000000
_cell_angle_beta 90.000000
_cell_angle_gamma 90.000000
_cell_volume 1431.338738
_symmetry_space_group_name_H-M "P 21 21 21"
_symmetry_group_IT_number 19
_symmetry_cell_setting 'orthorhombic'
loop_
_space_group_symop_operation_xyz
x,y,z
1/2-x,-y,1/2+z
1/2+x,1/2-y,-z
-x,1/2+y,1/2-z
loop_
_atom_site_type_symbol
_atom_site_label
_atom_site_fract_x
_atom_site_fract_y
_atom_site_fract_z
Si Si1 0.701084 0.140198 0.158026
Si Si2 0.445997 0.378795 0.337466
Si Si3 0.871703 0.990116 0.012995
Si Si4 0.459380 0.804339 0.938990
Si Si5 0.714406 0.650120 0.088146
Si Si6 0.066648 0.114815 0.880801
Si Si7 0.205052 0.685609 0.118272
O O1 0.646302 0.258082 0.082499
O O2 0.739202 0.214003 0.267730
O O3 0.601730 0.030394 0.177949
O O4 0.814153 0.073050 0.108664
O O5 0.525334 0.362949 0.441561
O O6 0.337446 0.277206 0.346395
O O7 0.524328 0.344472 0.236916
O O8 0.957573 0.095566 0.956543
O O9 0.769718 0.944178 0.933657
O O10 0.942692 0.859573 0.054434
O O11 0.348231 0.870662 0.881825
O O12 0.569401 0.845850 0.868458
O O13 0.643516 0.519160 0.119549
O O14 0.713249 0.684010 0.961035
#
# Coordination Sequence:
#
# PCOD8156713 Si02
#       7
#     4   4   4   4   4   4   4
#     4  12  24  39  64 103 131 167 226 274 332 382
#     4  11  20  39  69  96 122 176 220 265 325 402
#     4  11  21  42  63  92 133 169 215 279 319 388
#     4  10  19  41  71  87 124 176 221 254 335 403
#     4  10  21  40  66  95 126 180 219 259 332 407
#     4  12  23  39  64  97 135 167 220 278 321 396
#     4  10  20  42  69  88 127 179 217 265 328 402
#
# _framework density 19.562104000000001
#
# number of rings (size 3 to 8) (size 9 to 14) (size 15 to 20)
#    0.000    1.143    8.571    2.571    0.000    1.143 
#    2.571    2.857    0.000    0.000    0.000    0.000 
#    0.000    0.000    0.000    0.000    0.000    0.000 
#
# Total GULP energy -347124.765242 kJ/mol
# GULP energy per Si atom -12397.313044 kJ/mol
# Density = 1.951758 g / cm^3
# Si number density = 19.562104 Si / 1000 Ang^3
#
#
#
# Elastic Constant Matrix: (Units=GPa)
#
#
# Indices 1 2 3 4 5 6 
#
# 1 127.9258 40.4283 29.3570 0.0000 0.0000 0.0000
# 2 40.4283 80.7921 33.2426 0.0000 0.0000 0.0000
# 3 29.3570 33.2426 64.3108 0.0000 0.0000 0.0000
# 4 0.0000 0.0000 0.0000 23.7338 0.0000 0.0000
# 5 0.0000 0.0000 0.0000 0.0000 29.0980 0.0000
# 6 0.0000 0.0000 0.0000 0.0000 0.0000 39.0589
#
#
#
# Elastic Compliance Matrix: (Units=1/GPa)
#
#
# Indices 1 2 3 4 5 6 
#
# 1 0.009569 -0.003799 -0.002405 0.000000 0.000000 0.000000
# 2 -0.003799 0.017229 -0.007172 0.000000 0.000000 0.000000
# 3 -0.002405 -0.007172 0.020354 0.000000 0.000000 0.000000
# 4 0.000000 0.000000 0.000000 0.042134 0.000000 0.000000
# 5 0.000000 0.000000 0.000000 0.000000 0.034367 0.000000
# 6 0.000000 0.000000 0.000000 0.000000 0.000000 0.025602
#
#
# Mechanical properties :
#
#
# Convention : Reuss Voigt Hill
#
# Bulk Modulus (GPa) = 49.01411 53.23161 51.12286
# Shear Modulus (GPa) = 27.35116 29.71154 28.53135
#
# Velocity S-wave (km/s) = 3.74327 3.90145 3.82318
# Velocity P-wave (km/s) = 6.61761 6.89679 6.75864
#
# Compressibility (1/GPa) = 0.02040229
#
# Stress axis : x y z
#
# Youngs Moduli (GPa) = 104.49881 58.04026 49.12997
#
# Poissons Ratio (x) = 0.22051 0.11813
# Poissons Ratio (y) = 0.39701 0.35234
# Poissons Ratio (z) = 0.25127 0.41625
#
# Static dielectric constant tensor:
#      x y z
#    x 4.043580 0.000000 0.000000 
#    y 0.000000 3.483680 0.000000 
#    z 0.000000 0.000000 3.358880 
# 
# 
# High freq. dielectric constant tensor:
#      x y z
#    x 1.788780 0.000000 0.000000 
#    y 0.000000 1.747190 0.000000 
#    z 0.000000 0.000000 1.732730 
# 
# From -- ./inp_files/6081.got.cif
#   From: 2010.03.12/outbox.cif.g09.slc.cpg/sg19_4_cif.got.tgz:6081.got - 2010.04.10 18:59:41.
