data_PCOD8156839
_publ_section_title
;
Structure prediction by ZEFSAII (Michael W. Deem and Ramdas Pophale) SiO2 
 PCOD8156839
Probable space group: P 21 21 21
;
_chemical_formula_sum "Si O2"
_cell_formula_units_Z 32
_cell_length_a 14.864655
_cell_length_b 8.304662
_cell_length_c 11.767998
_cell_angle_alpha 90.000000
_cell_angle_beta 90.000000
_cell_angle_gamma 90.000000
_cell_volume 1452.711522
_symmetry_space_group_name_H-M "P 21 21 21"
_symmetry_group_IT_number 19
_symmetry_cell_setting 'orthorhombic'
loop_
_space_group_symop_operation_xyz
x,y,z
1/2-x,-y,1/2+z
1/2+x,1/2-y,-z
-x,1/2+y,1/2-z
loop_
_atom_site_type_symbol
_atom_site_label
_atom_site_fract_x
_atom_site_fract_y
_atom_site_fract_z
Si Si1 0.894479 0.642268 0.737490
Si Si2 0.153351 0.591745 0.475427
Si Si3 0.411782 0.485497 0.221493
Si Si4 0.670519 0.283130 0.996362
Si Si5 0.094769 0.451719 0.158985
Si Si6 0.218436 0.021006 0.219585
Si Si7 0.258948 0.651066 0.824681
Si Si8 0.572995 0.739011 0.730406
O O1 0.896364 0.825058 0.777760
O O2 0.871499 0.628954 0.604136
O O3 0.817251 0.549300 0.808169
O O4 0.988045 0.554636 0.762753
O O5 0.102775 0.579259 0.594346
O O6 0.228392 0.729388 0.479157
O O7 0.199825 0.420766 0.441196
O O8 0.080944 0.646373 0.380658
O O9 0.345400 0.397294 0.310207
O O10 0.607211 0.127336 0.965581
O O11 0.671525 0.408844 0.892585
O O12 0.191823 0.432763 0.218030
O O13 0.071572 0.642399 0.158635
O O14 0.019677 0.356566 0.230548
O O15 0.227633 0.156832 0.318216
O O16 0.156725 0.880221 0.267698
#
# Coordination Sequence:
#
# PCOD8156839 Si02
#       8
#     4   4   4   4   4   4   4   4
#     4  12  26  46  66 103 138 182 225 283 338 409
#     4  11  22  43  70  94 132 178 222 273 338 395
#     4  12  24  44  69  96 139 179 226 280 341 400
#     4  11  22  43  69  94 133 178 218 277 335 398
#     4  10  20  38  65  94 129 166 217 274 336 387
#     4  11  23  42  70  97 137 173 226 276 341 399
#     4  10  21  41  67  96 127 174 219 276 331 399
#     4  11  22  41  66 100 131 170 219 281 330 401
#
# _framework density 22.027774000000001
#
# number of rings (size 3 to 8) (size 9 to 14) (size 15 to 20)
#    0.000    1.000    5.000    3.750    0.000    2.000 
#    0.000    2.500    0.000    0.000    0.000    0.000 
#    0.000    0.000    0.000    0.000    0.000    0.000 
#
# Total GULP energy -396857.482267 kJ/mol
# GULP energy per Si atom -12401.796321 kJ/mol
# Density = 2.197764 g / cm^3
# Si number density = 22.027774 Si / 1000 Ang^3
#
#
#
# Elastic Constant Matrix: (Units=GPa)
#
#
# Indices 1 2 3 4 5 6 
#
# 1 108.0718 23.5600 4.1026 0.0000 0.0000 0.0000
# 2 23.5600 119.1387 7.9661 0.0000 0.0000 0.0000
# 3 4.1026 7.9661 41.4111 0.0000 0.0000 0.0000
# 4 0.0000 0.0000 0.0000 29.0509 0.0000 0.0000
# 5 0.0000 0.0000 0.0000 0.0000 23.1723 0.0000
# 6 0.0000 0.0000 0.0000 0.0000 0.0000 45.1635
#
#
#
# Elastic Compliance Matrix: (Units=1/GPa)
#
#
# Indices 1 2 3 4 5 6 
#
# 1 0.009685 -0.001875 -0.000599 0.000000 0.000000 0.000000
# 2 -0.001875 0.008866 -0.001520 0.000000 0.000000 0.000000
# 3 -0.000599 -0.001520 0.024500 0.000000 0.000000 0.000000
# 4 0.000000 0.000000 0.000000 0.034422 0.000000 0.000000
# 5 0.000000 0.000000 0.000000 0.000000 0.043155 0.000000
# 6 0.000000 0.000000 0.000000 0.000000 0.000000 0.022142
#
#
# Mechanical properties :
#
#
# Convention : Reuss Voigt Hill
#
# Bulk Modulus (GPa) = 28.51995 37.76433 33.14214
# Shear Modulus (GPa) = 30.77976 35.01020 32.89498
#
# Velocity S-wave (km/s) = 3.74212 3.99101 3.86857
# Velocity P-wave (km/s) = 5.62554 6.19828 5.91884
#
# Compressibility (1/GPa) = 0.03506318
#
# Stress axis : x y z
#
# Youngs Moduli (GPa) = 103.25643 112.79035 40.81668
#
# Poissons Ratio (x) = 0.21150 0.02444
# Poissons Ratio (y) = 0.19362 0.06203
# Poissons Ratio (z) = 0.06182 0.17141
#
# Static dielectric constant tensor:
#      x y z
#    x 4.078280 0.000000 0.000000 
#    y 0.000000 4.147170 0.000000 
#    z 0.000000 0.000000 3.807210 
# 
# 
# High freq. dielectric constant tensor:
#      x y z
#    x 1.876710 0.000000 0.000000 
#    y 0.000000 1.873630 0.000000 
#    z 0.000000 0.000000 1.840140 
# 
# From -- ./inp_files/5243.got.cif
#   From: 2010.03.12/outbox.cif.g09.slc.cpg/sg19_3_cif.got.tgz:5243.got - 2010.04.10 18:59:41.
