data_PCOD8156875
_publ_section_title
;
Structure prediction by ZEFSAII (Michael W. Deem and Ramdas Pophale) SiO2 
 PCOD8156875
Probable space group: P 21 21 21
;
_chemical_formula_sum "Si O2"
_cell_formula_units_Z 20
_cell_length_a 14.458241
_cell_length_b 7.453413
_cell_length_c 8.923655
_cell_angle_alpha 90.000000
_cell_angle_beta 90.000000
_cell_angle_gamma 90.000000
_cell_volume 961.641988
_symmetry_space_group_name_H-M "P 21 21 21"
_symmetry_group_IT_number 19
_symmetry_cell_setting 'orthorhombic'
loop_
_space_group_symop_operation_xyz
x,y,z
1/2-x,-y,1/2+z
1/2+x,1/2-y,-z
-x,1/2+y,1/2-z
loop_
_atom_site_type_symbol
_atom_site_label
_atom_site_fract_x
_atom_site_fract_y
_atom_site_fract_z
Si Si1 0.735499 0.285719 0.877324
Si Si2 0.226107 0.129432 0.466564
Si Si3 0.465924 0.784330 0.080958
Si Si4 0.645482 0.949650 0.003987
Si Si5 0.589289 0.918835 0.322084
O O1 0.719907 0.358924 0.711321
O O2 0.840419 0.214796 0.906547
O O3 0.660967 0.128632 0.907792
O O4 0.717236 0.450116 0.990809
O O5 0.126188 0.106948 0.543149
O O6 0.274587 0.306332 0.533868
O O7 0.499735 0.814504 0.253972
O O8 0.445707 0.571767 0.063515
O O9 0.546375 0.854271 0.967899
O O10 0.647684 0.001056 0.181136
#
# Coordination Sequence:
#
# PCOD8156875 Si02
#       5
#     4   4   4   4   4
#     4  11  23  42  64  99 135 176 220 279 329 394
#     4  11  24  41  67  95 135 178 217 274 334 392
#     4  10  20  40  65  96 125 176 225 264 334 396
#     4   9  23  40  63  97 129 168 221 277 320 394
#     4   9  20  37  69  91 126 170 229 272 321 402
#
# _framework density 20.79776
#
# number of rings (size 3 to 8) (size 9 to 14) (size 15 to 20)
#    1.200    0.800    2.000    1.200    2.800    0.000 
#    3.600    0.000    0.000    0.000    0.000    0.000 
#    0.000    0.000    0.000    0.000    0.000    0.000 
#
# Total GULP energy -247858.164254 kJ/mol
# GULP energy per Si atom -12392.908213 kJ/mol
# Density = 2.075042 g / cm^3
# Si number density = 20.797760 Si / 1000 Ang^3
#
#
#
# Elastic Constant Matrix: (Units=GPa)
#
#
# Indices 1 2 3 4 5 6 
#
# 1 108.7725 33.0916 7.2513 0.0000 0.0000 0.0000
# 2 33.0916 125.6324 39.7561 0.0000 0.0000 0.0000
# 3 7.2513 39.7561 31.3311 0.0000 0.0000 0.0000
# 4 0.0000 0.0000 0.0000 35.7253 0.0000 0.0000
# 5 0.0000 0.0000 0.0000 0.0000 28.1618 0.0000
# 6 0.0000 0.0000 0.0000 0.0000 0.0000 38.3549
#
#
#
# Elastic Compliance Matrix: (Units=1/GPa)
#
#
# Indices 1 2 3 4 5 6 
#
# 1 0.010050 -0.003193 0.001726 0.000000 0.000000 0.000000
# 2 -0.003193 0.014315 -0.017425 0.000000 0.000000 0.000000
# 3 0.001726 -0.017425 0.053629 0.000000 0.000000 0.000000
# 4 0.000000 0.000000 0.000000 0.027991 0.000000 0.000000
# 5 0.000000 0.000000 0.000000 0.000000 0.035509 0.000000
# 6 0.000000 0.000000 0.000000 0.000000 0.000000 0.026072
#
#
# Mechanical properties :
#
#
# Convention : Reuss Voigt Hill
#
# Bulk Modulus (GPa) = 24.87034 47.32600 36.09817
# Shear Modulus (GPa) = 22.85666 32.82420 27.84043
#
# Velocity S-wave (km/s) = 3.31871 3.97704 3.66269
# Velocity P-wave (km/s) = 5.16423 6.62524 5.93983
#
# Compressibility (1/GPa) = 0.04020854
#
# Stress axis : x y z
#
# Youngs Moduli (GPa) = 99.50302 69.85647 18.64671
#
# Poissons Ratio (x) = 0.22308 -0.03219
# Poissons Ratio (y) = 0.31775 0.32493
# Poissons Ratio (z) = -0.17175 1.21727
#
# Static dielectric constant tensor:
#      x y z
#    x 3.718740 0.000000 0.000000 
#    y 0.000000 3.645960 0.000000 
#    z 0.000000 0.000000 3.233680 
# 
# 
# High freq. dielectric constant tensor:
#      x y z
#    x 1.812550 0.000000 0.000000 
#    y 0.000000 1.821130 0.000000 
#    z 0.000000 0.000000 1.768610 
# 
# From -- ./inp_files/2777.got.cif
#   From: 2010.03.12/outbox.cif.g09.slc.cpg/sg19_2_cif.got.tgz:2777.got - 2010.04.10 18:59:41.
