data_PCOD8156963
_publ_section_title
;
Structure prediction by ZEFSAII (Michael W. Deem and Ramdas Pophale) SiO2 
 PCOD8156963
Probable space group: P 21 21 21
;
_chemical_formula_sum "Si O2"
_cell_formula_units_Z 32
_cell_length_a 11.739985
_cell_length_b 16.826926
_cell_length_c 7.560488
_cell_angle_alpha 90.000000
_cell_angle_beta 90.000000
_cell_angle_gamma 90.000000
_cell_volume 1493.558216
_symmetry_space_group_name_H-M "P 21 21 21"
_symmetry_group_IT_number 19
_symmetry_cell_setting 'orthorhombic'
loop_
_space_group_symop_operation_xyz
x,y,z
1/2-x,-y,1/2+z
1/2+x,1/2-y,-z
-x,1/2+y,1/2-z
loop_
_atom_site_type_symbol
_atom_site_label
_atom_site_fract_x
_atom_site_fract_y
_atom_site_fract_z
Si Si1 0.886326 0.757175 0.953127
Si Si2 0.753758 0.926562 0.576965
Si Si3 0.436675 0.213673 0.750745
Si Si4 0.472973 0.671746 0.388108
Si Si5 0.319865 0.355294 0.592471
Si Si6 0.609291 0.935157 0.226838
Si Si7 0.729976 0.602024 0.917250
Si Si8 0.612964 0.529133 0.254555
O O1 0.821352 0.672373 0.948712
O O2 0.958288 0.763544 0.128881
O O3 0.968313 0.770347 0.782110
O O4 0.806701 0.835198 0.976009
O O5 0.845042 0.855876 0.570626
O O6 0.680861 0.925642 0.760865
O O7 0.677462 0.915510 0.403565
O O8 0.818781 0.010127 0.589250
O O9 0.344035 0.279914 0.715441
O O10 0.372932 0.129699 0.712375
O O11 0.479305 0.222675 0.950305
O O12 0.558228 0.596920 0.376029
O O13 0.404050 0.363832 0.419415
O O14 0.489979 0.969328 0.295915
O O15 0.667569 0.576473 0.094644
O O16 0.789496 0.522490 0.846546
#
# Coordination Sequence:
#
# PCOD8156963 Si02
#       8
#     4   4   4   4   4   4   4   4
#     4  10  22  44  67  92 133 179 224 279 336 402
#     4  10  21  37  62  96 125 166 212 269 328 401
#     4  11  22  41  67  92 127 174 223 275 337 398
#     4  10  22  42  68  95 133 173 224 276 339 402
#     4  10  22  38  60  96 126 162 222 270 331 400
#     4  11  21  39  66  92 134 167 213 276 336 395
#     4  11  24  45  66  98 140 180 232 282 339 414
#     4  11  24  44  66  97 138 181 224 283 342 406
#
# _framework density 21.425343999999999
#
# number of rings (size 3 to 8) (size 9 to 14) (size 15 to 20)
#    0.000    1.500    2.500    2.250    0.000    3.000 
#   13.500    0.000    0.000    0.000    0.000    0.000 
#    0.000    0.000    0.000    0.000    0.000    0.000 
#
# Total GULP energy -396489.015390 kJ/mol
# GULP energy per Si atom -12390.281731 kJ/mol
# Density = 2.137658 g / cm^3
# Si number density = 21.425344 Si / 1000 Ang^3
#
#
#
# Elastic Constant Matrix: (Units=GPa)
#
#
# Indices 1 2 3 4 5 6 
#
# 1 73.0565 24.5620 48.3761 0.0000 0.0000 0.0000
# 2 24.5620 65.9938 36.3334 0.0000 0.0000 0.0000
# 3 48.3761 36.3334 118.9256 0.0000 0.0000 0.0000
# 4 0.0000 0.0000 0.0000 33.9181 0.0000 0.0000
# 5 0.0000 0.0000 0.0000 0.0000 39.3420 0.0000
# 6 0.0000 0.0000 0.0000 0.0000 0.0000 30.6696
#
#
#
# Elastic Compliance Matrix: (Units=1/GPa)
#
#
# Indices 1 2 3 4 5 6 
#
# 1 0.019367 -0.003451 -0.006824 0.000000 0.000000 0.000000
# 2 -0.003451 0.018832 -0.004350 0.000000 0.000000 0.000000
# 3 -0.006824 -0.004350 0.012513 0.000000 0.000000 0.000000
# 4 0.000000 0.000000 0.000000 0.029483 0.000000 0.000000
# 5 0.000000 0.000000 0.000000 0.000000 0.025418 0.000000
# 6 0.000000 0.000000 0.000000 0.000000 0.000000 0.032606
#
#
# Mechanical properties :
#
#
# Convention : Reuss Voigt Hill
#
# Bulk Modulus (GPa) = 46.59129 52.94655 49.76892
# Shear Modulus (GPa) = 28.63334 30.69958 29.66646
#
# Velocity S-wave (km/s) = 3.65968 3.78942 3.72512
# Velocity P-wave (km/s) = 6.29688 6.62662 6.46385
#
# Compressibility (1/GPa) = 0.02146324
#
# Stress axis : x y z
#
# Youngs Moduli (GPa) = 51.63495 53.10068 79.91612
#
# Poissons Ratio (x) = 0.18327 0.54531
# Poissons Ratio (y) = 0.17821 0.34760
# Poissons Ratio (z) = 0.35233 0.23097
#
# Static dielectric constant tensor:
#      x y z
#    x 4.219320 0.000000 0.000000 
#    y 0.000000 4.099050 0.000000 
#    z 0.000000 0.000000 3.811810 
# 
# 
# High freq. dielectric constant tensor:
#      x y z
#    x 1.845220 0.000000 0.000000 
#    y 0.000000 1.841280 0.000000 
#    z 0.000000 0.000000 1.842470 
# 
# From -- ./inp_files/1164.got.cif
#   From: 2010.03.12/outbox.cif.g09.slc.cpg/sg19_1_cif.got.tgz:1164.got - 2010.04.10 18:59:41.
