data_PCOD8156113
_publ_section_title
;
Structure prediction by ZEFSAII (Michael W. Deem and Ramdas Pophale) SiO2 
 PCOD8156113
Probable space group: P 21 21 2
;
_chemical_formula_sum "Si O2"
_cell_formula_units_Z 24
_cell_length_a 15.053589
_cell_length_b 8.967310
_cell_length_c 8.738759
_cell_angle_alpha 90.000000
_cell_angle_beta 90.000000
_cell_angle_gamma 90.000000
_cell_volume 1179.646818
_symmetry_space_group_name_H-M "P 21 21 2"
_symmetry_group_IT_number 18
_symmetry_cell_setting 'orthorhombic'
loop_
_space_group_symop_operation_xyz
x,y,z
-x,-y,z
1/2+x,1/2-y,-z
1/2-x,1/2+y,-z
loop_
_atom_site_type_symbol
_atom_site_label
_atom_site_fract_x
_atom_site_fract_y
_atom_site_fract_z
Si Si1 0.192888 0.358244 0.174369
Si Si2 0.497843 0.170872 0.852611
Si Si3 0.655265 0.831369 0.315031
Si Si4 0.497664 0.675915 0.163064
Si Si5 0.324844 0.166821 0.671016
Si Si6 0.322573 0.855129 0.179242
O O1 0.265583 0.236022 0.214193
O O2 0.210918 0.508097 0.269742
O O3 0.095552 0.289313 0.212717
O O4 0.198568 0.397313 0.995333
O O5 0.427160 0.192366 0.717954
O O6 0.500000 0.000000 0.912405
O O7 0.470099 0.273708 0.994855
O O8 0.564072 0.742348 0.289437
O O9 0.683172 0.824149 0.490344
O O10 0.640577 0.000908 0.265821
O O11 0.500000 0.500000 0.175220
O O12 0.397596 0.728846 0.193314
O O13 0.266716 0.298743 0.741401
#
# Coordination Sequence:
#
# PCOD8156113 Si02
#       6
#     4   4   4   4   4   4
#     4  10  21  40  62  88 121 162 208 248 294 361
#     4   9  20  40  64  87 115 157 205 250 300 360
#     4  12  24  39  61  91 127 160 198 253 310 361
#     4  11  23  40  63  89 118 158 208 254 298 359
#     4  11  23  39  62  93 125 158 198 251 310 360
#     4  11  23  40  64  88 120 165 207 248 298 361
#
# _framework density 20.345072999999999
#
# number of rings (size 3 to 8) (size 9 to 14) (size 15 to 20)
#    0.000    1.333    0.000    7.500    0.000    9.333 
#    0.000    0.833    0.000    0.000    0.000    0.000 
#    0.000    0.000    0.000    0.000    0.000    0.000 
#
# Total GULP energy -297751.160555 kJ/mol
# GULP energy per Si atom -12406.298356 kJ/mol
# Density = 2.029877 g / cm^3
# Si number density = 20.345073 Si / 1000 Ang^3
#
#
#
# Elastic Constant Matrix: (Units=GPa)
#
#
# Indices 1 2 3 4 5 6 
#
# 1 87.2496 28.1346 36.6574 0.0000 0.0000 0.0000
# 2 28.1346 105.5771 21.3066 0.0000 0.0000 0.0000
# 3 36.6574 21.3066 83.4069 0.0000 0.0000 0.0000
# 4 0.0000 0.0000 0.0000 26.6877 0.0000 0.0000
# 5 0.0000 0.0000 0.0000 0.0000 25.2790 0.0000
# 6 0.0000 0.0000 0.0000 0.0000 0.0000 31.8020
#
#
#
# Elastic Compliance Matrix: (Units=1/GPa)
#
#
# Indices 1 2 3 4 5 6 
#
# 1 0.014789 -0.002772 -0.005791 0.000000 0.000000 0.000000
# 2 -0.002772 0.010506 -0.001466 0.000000 0.000000 0.000000
# 3 -0.005791 -0.001466 0.014909 0.000000 0.000000 0.000000
# 4 0.000000 0.000000 0.000000 0.037470 0.000000 0.000000
# 5 0.000000 0.000000 0.000000 0.000000 0.039558 0.000000
# 6 0.000000 0.000000 0.000000 0.000000 0.000000 0.031445
#
#
# Mechanical properties :
#
#
# Convention : Reuss Voigt Hill
#
# Bulk Modulus (GPa) = 49.63823 49.82566 49.73194
# Shear Modulus (GPa) = 28.49803 29.42941 28.96372
#
# Velocity S-wave (km/s) = 3.74670 3.80743 3.77719
# Velocity P-wave (km/s) = 6.57025 6.62361 6.59698
#
# Compressibility (1/GPa) = 0.02014576
#
# Stress axis : x y z
#
# Youngs Moduli (GPa) = 67.62008 95.18155 67.07304
#
# Poissons Ratio (x) = 0.26386 0.38845
# Poissons Ratio (y) = 0.18745 0.09830
# Poissons Ratio (z) = 0.39162 0.13949
#
# Static dielectric constant tensor:
#      x y z
#    x 3.887090 0.000000 0.000000 
#    y 0.000000 3.610340 0.000000 
#    z 0.000000 0.000000 3.571030 
# 
# 
# High freq. dielectric constant tensor:
#      x y z
#    x 1.810510 0.000000 0.000000 
#    y 0.000000 1.793280 0.000000 
#    z 0.000000 0.000000 1.789510 
# 
# From -- ./inp_files/4169.got.cif
#   From: 2010.03.12/outbox.cif.g09.slc.cpg/sg18_3_cif.got.tgz:4169.got - 2010.04.10 18:53:55.
