data_PCOD8156033
_publ_section_title
;
Structure prediction by ZEFSAII (Michael W. Deem and Ramdas Pophale) SiO2 
 PCOD8156033
Probable space group: P 21 21 2
;
_chemical_formula_sum "Si O2"
_cell_formula_units_Z 30
_cell_length_a 13.209772
_cell_length_b 8.813311
_cell_length_c 12.813207
_cell_angle_alpha 90.000000
_cell_angle_beta 90.000000
_cell_angle_gamma 90.000000
_cell_volume 1491.736993
_symmetry_space_group_name_H-M "P 21 21 2"
_symmetry_group_IT_number 18
_symmetry_cell_setting 'orthorhombic'
loop_
_space_group_symop_operation_xyz
x,y,z
-x,-y,z
1/2+x,1/2-y,-z
1/2-x,1/2+y,-z
loop_
_atom_site_type_symbol
_atom_site_label
_atom_site_fract_x
_atom_site_fract_y
_atom_site_fract_z
Si Si1 0.792884 0.612773 0.084088
Si Si2 0.000000 0.500000 0.160184
Si Si3 0.135685 0.679071 0.291407
Si Si4 0.203971 0.353432 0.843885
Si Si5 0.104319 0.064025 0.819599
Si Si6 0.236630 0.148013 0.256971
Si Si7 0.612689 0.538071 0.582081
Si Si8 0.293962 0.444673 0.364411
O O1 0.702879 0.506693 0.125023
O O2 0.801563 0.766038 0.152819
O O3 0.902787 0.534191 0.088726
O O4 0.766972 0.639694 0.964612
O O5 0.029691 0.639991 0.235624
O O6 0.204142 0.767167 0.209581
O O7 0.113482 0.784921 0.389344
O O8 0.188481 0.522347 0.328997
O O9 0.187822 0.516077 0.786811
O O10 0.104097 0.247257 0.831741
O O11 0.112160 0.020443 0.697497
O O12 0.000000 0.000000 0.867734
O O13 0.291715 0.265437 0.335354
O O14 0.145570 0.069280 0.321465
O O15 0.500000 0.500000 0.545889
O O16 0.690166 0.522557 0.486078
#
# Coordination Sequence:
#
# PCOD8156033 Si02
#       8
#     4   2   4   4   4   4   4   4
#     4  11  22  39  64  90 129 167 210 263 325 382
#     4  12  20  40  64  88 122 166 208 256 326 372
#     4  10  22  39  63  87 128 160 207 262 318 386
#     4  10  21  40  61  93 125 161 216 262 316 385
#     4  10  21  41  62  85 124 173 206 259 318 383
#     4  10  21  38  62  89 126 160 215 266 310 383
#     4  11  22  36  62  94 121 160 212 263 319 383
#     4  10  20  41  61  84 124 171 204 258 322 379
#
# _framework density 20.110783000000001
#
# number of rings (size 3 to 8) (size 9 to 14) (size 15 to 20)
#    0.000    1.600    4.000    2.800    0.000    1.067 
#    2.400    3.333    2.933    0.000    0.000    0.000 
#    0.000    0.000    0.000    0.000    0.000    0.000 
#
# Total GULP energy -371814.081435 kJ/mol
# GULP energy per Si atom -12393.802714 kJ/mol
# Density = 2.006501 g / cm^3
# Si number density = 20.110783 Si / 1000 Ang^3
#
#
#
# Elastic Constant Matrix: (Units=GPa)
#
#
# Indices 1 2 3 4 5 6 
#
# 1 97.5121 37.7462 20.0536 0.0000 0.0000 0.0000
# 2 37.7462 136.5516 44.6230 0.0000 0.0000 0.0000
# 3 20.0536 44.6230 102.7462 0.0000 0.0000 0.0000
# 4 0.0000 0.0000 0.0000 26.5638 0.0000 0.0000
# 5 0.0000 0.0000 0.0000 0.0000 11.0204 0.0000
# 6 0.0000 0.0000 0.0000 0.0000 0.0000 19.5673
#
#
#
# Elastic Compliance Matrix: (Units=1/GPa)
#
#
# Indices 1 2 3 4 5 6 
#
# 1 0.011574 -0.002868 -0.001013 0.000000 0.000000 0.000000
# 2 -0.002868 0.009245 -0.003455 0.000000 0.000000 0.000000
# 3 -0.001013 -0.003455 0.011431 0.000000 0.000000 0.000000
# 4 0.000000 0.000000 0.000000 0.037645 0.000000 0.000000
# 5 0.000000 0.000000 0.000000 0.000000 0.090741 0.000000
# 6 0.000000 0.000000 0.000000 0.000000 0.000000 0.051106
#
#
# Mechanical properties :
#
#
# Convention : Reuss Voigt Hill
#
# Bulk Modulus (GPa) = 56.89423 60.18393 58.53908
# Shear Modulus (GPa) = 21.52626 27.05610 24.29118
#
# Velocity S-wave (km/s) = 3.27522 3.67188 3.47921
# Velocity P-wave (km/s) = 6.53105 6.92590 6.73137
#
# Compressibility (1/GPa) = 0.01757647
#
# Stress axis : x y z
#
# Youngs Moduli (GPa) = 86.40234 108.16366 87.47986
#
# Poissons Ratio (x) = 0.31023 0.08864
# Poissons Ratio (y) = 0.24781 0.30228
# Poissons Ratio (z) = 0.08755 0.37375
#
# Static dielectric constant tensor:
#      x y z
#    x 3.405380 0.000000 0.000000 
#    y 0.000000 4.071790 0.000000 
#    z 0.000000 0.000000 3.679070 
# 
# 
# High freq. dielectric constant tensor:
#      x y z
#    x 1.760530 0.000000 0.000000 
#    y 0.000000 1.798550 0.000000 
#    z 0.000000 0.000000 1.787310 
# 
# From -- ./inp_files/6079.got.cif
#   From: 2010.03.12/outbox.cif.g09.slc.cpg/sg18_4_cif.got.tgz:6079.got - 2010.04.10 18:53:55.
