data_PCOD8156754
_publ_section_title
;
Structure prediction by ZEFSAII (Michael W. Deem and Ramdas Pophale) SiO2 
 PCOD8156754
Probable space group: P 21 21 21
;
_chemical_formula_sum "Si O2"
_cell_formula_units_Z 32
_cell_length_a 18.787542
_cell_length_b 6.137652
_cell_length_c 12.646953
_cell_angle_alpha 90.000000
_cell_angle_beta 90.000000
_cell_angle_gamma 90.000000
_cell_volume 1458.337790
_symmetry_space_group_name_H-M "P 21 21 21"
_symmetry_group_IT_number 19
_symmetry_cell_setting 'orthorhombic'
loop_
_space_group_symop_operation_xyz
x,y,z
1/2-x,-y,1/2+z
1/2+x,1/2-y,-z
-x,1/2+y,1/2-z
loop_
_atom_site_type_symbol
_atom_site_label
_atom_site_fract_x
_atom_site_fract_y
_atom_site_fract_z
Si Si1 0.585183 0.189582 0.728441
Si Si2 0.216020 0.591479 0.255149
Si Si3 0.169088 0.752696 0.773771
Si Si4 0.309602 0.877772 0.114840
Si Si5 0.928242 0.882912 0.785197
Si Si6 0.853216 0.429285 0.097616
Si Si7 0.013844 0.648403 0.409282
Si Si8 0.932972 0.540727 0.614940
O O1 0.621826 0.410194 0.690300
O O2 0.524832 0.229112 0.814366
O O3 0.643346 0.026811 0.779598
O O4 0.548083 0.077954 0.627832
O O5 0.270032 0.417122 0.308565
O O6 0.249146 0.702994 0.149756
O O7 0.201672 0.763674 0.348094
O O8 0.104574 0.622852 0.719138
O O9 0.139545 0.897094 0.872969
O O10 0.202276 0.908042 0.684789
O O11 0.386826 0.772602 0.133378
O O12 0.307986 0.942863 0.991502
O O13 0.923532 0.775312 0.669394
O O14 0.008091 0.897683 0.825403
O O15 0.922129 0.303789 0.048522
O O16 0.954403 0.588414 0.495223
#
# Coordination Sequence:
#
# PCOD8156754 Si02
#       8
#     4   4   4   4   4   4   4   4
#     4  11  23  47  69  95 139 167 236 292 338 415
#     4  10  24  44  68  96 133 183 223 287 347 410
#     4  10  21  42  61  94 143 170 221 284 332 414
#     4  10  22  42  68  95 129 180 230 267 341 417
#     4  10  20  35  60  99 136 167 212 278 327 410
#     4  11  23  43  73  98 134 184 233 286 352 420
#     4  11  24  41  70 103 129 184 227 289 356 401
#     4  11  21  36  65 100 135 173 220 275 347 399
#
# _framework density 21.942789999999999
#
# number of rings (size 3 to 8) (size 9 to 14) (size 15 to 20)
#    0.000    1.500    2.500    2.250    1.750    4.000 
#    0.000   16.250    0.000    0.000    0.000    0.000 
#    0.000    0.000    0.000    0.000    0.000    0.000 
#
# Total GULP energy -396809.770370 kJ/mol
# GULP energy per Si atom -12400.305324 kJ/mol
# Density = 2.189285 g / cm^3
# Si number density = 21.942790 Si / 1000 Ang^3
#
#
#
# Elastic Constant Matrix: (Units=GPa)
#
#
# Indices 1 2 3 4 5 6 
#
# 1 72.1441 26.4852 23.8102 0.0000 0.0000 0.0000
# 2 26.4852 97.9699 26.1303 0.0000 0.0000 0.0000
# 3 23.8102 26.1303 75.4111 0.0000 0.0000 0.0000
# 4 0.0000 0.0000 0.0000 22.3499 0.0000 0.0000
# 5 0.0000 0.0000 0.0000 0.0000 27.8502 0.0000
# 6 0.0000 0.0000 0.0000 0.0000 0.0000 50.3616
#
#
#
# Elastic Compliance Matrix: (Units=1/GPa)
#
#
# Indices 1 2 3 4 5 6 
#
# 1 0.016424 -0.003368 -0.004019 0.000000 0.000000 0.000000
# 2 -0.003368 0.011937 -0.003073 0.000000 0.000000 0.000000
# 3 -0.004019 -0.003073 0.015594 0.000000 0.000000 0.000000
# 4 0.000000 0.000000 0.000000 0.044743 0.000000 0.000000
# 5 0.000000 0.000000 0.000000 0.000000 0.035906 0.000000
# 6 0.000000 0.000000 0.000000 0.000000 0.000000 0.019856
#
#
# Mechanical properties :
#
#
# Convention : Reuss Voigt Hill
#
# Bulk Modulus (GPa) = 43.40992 44.26405 43.83699
# Shear Modulus (GPa) = 28.89181 31.38563 30.13872
#
# Velocity S-wave (km/s) = 3.63256 3.78609 3.71011
# Velocity P-wave (km/s) = 6.11720 6.27127 6.19472
#
# Compressibility (1/GPa) = 0.02303621
#
# Stress axis : x y z
#
# Youngs Moduli (GPa) = 60.88667 83.77053 64.12624
#
# Poissons Ratio (x) = 0.28216 0.25770
# Poissons Ratio (y) = 0.20508 0.19705
# Poissons Ratio (z) = 0.24468 0.25742
#
# Static dielectric constant tensor:
#      x y z
#    x 4.088540 0.000000 0.000000 
#    y 0.000000 4.239650 0.000000 
#    z 0.000000 0.000000 3.511890 
# 
# 
# High freq. dielectric constant tensor:
#      x y z
#    x 1.870160 0.000000 0.000000 
#    y 0.000000 1.884740 0.000000 
#    z 0.000000 0.000000 1.828470 
# 
# From -- ./inp_files/1194.got.cif
#   From: 2010.03.12/outbox.cif.g09.slc.cpg/sg19_1_cif.got.tgz:1194.got - 2010.04.10 18:59:41.
