data_PCOD8156441
_publ_section_title
;
Structure prediction by ZEFSAII (Michael W. Deem and Ramdas Pophale) SiO2 
 PCOD8156441
Probable space group: P 21 21 2
;
_chemical_formula_sum "Si O2"
_cell_formula_units_Z 26
_cell_length_a 7.722417
_cell_length_b 16.600760
_cell_length_c 8.856917
_cell_angle_alpha 90.000000
_cell_angle_beta 90.000000
_cell_angle_gamma 90.000000
_cell_volume 1135.438968
_symmetry_space_group_name_H-M "P 21 21 2"
_symmetry_group_IT_number 18
_symmetry_cell_setting 'orthorhombic'
loop_
_space_group_symop_operation_xyz
x,y,z
-x,-y,z
1/2+x,1/2-y,-z
1/2-x,1/2+y,-z
loop_
_atom_site_type_symbol
_atom_site_label
_atom_site_fract_x
_atom_site_fract_y
_atom_site_fract_z
Si Si1 0.242307 0.039263 0.806310
Si Si2 0.503302 0.648341 0.617814
Si Si3 0.070430 0.376920 0.273684
Si Si4 0.000000 0.000000 0.559561
Si Si5 0.844290 0.243823 0.840292
Si Si6 0.090734 0.137839 0.043694
Si Si7 0.381824 0.195763 0.469672
O O1 0.392149 0.106257 0.813643
O O2 0.303521 0.948949 0.773071
O O3 0.122055 0.055805 0.663015
O O4 0.136243 0.051794 0.963314
O O5 0.590873 0.568613 0.543381
O O6 0.500807 0.627924 0.795678
O O7 0.622772 0.725224 0.578861
O O8 0.309178 0.659640 0.552505
O O9 0.164374 0.295723 0.221785
O O10 0.014583 0.368343 0.451665
O O11 0.774291 0.315645 0.944286
O O12 0.951691 0.277952 0.696239
O O13 0.962176 0.183593 0.931484
#
# Coordination Sequence:
#
# PCOD8156441 Si02
#       7
#     4   4   4   2   4   4   4
#     4  11  24  40  69  93 144 185 232 280 361 424
#     4  11  25  41  73 101 147 174 246 291 355 418
#     4  11  22  42  67 100 132 185 237 284 349 419
#     4  12  24  42  66 102 126 198 226 294 344 424
#     4  11  24  41  73 101 140 179 236 287 360 415
#     4  11  24  43  66 105 140 182 227 293 353 432
#     4  11  21  43  66 103 129 185 233 295 336 423
#
# _framework density 22.898631999999999
#
# number of rings (size 3 to 8) (size 9 to 14) (size 15 to 20)
#    0.000    0.923    4.615    3.692    0.000    1.846 
#    0.000    0.000   13.538    0.000    0.000    0.000 
#    0.000    0.000    0.000    0.000    0.000    0.000 
#
# Total GULP energy -322096.144989 kJ/mol
# GULP energy per Si atom -12388.313269 kJ/mol
# Density = 2.284651 g / cm^3
# Si number density = 22.898632 Si / 1000 Ang^3
#
#
#
# Elastic Constant Matrix: (Units=GPa)
#
#
# Indices 1 2 3 4 5 6 
#
# 1 39.8097 14.9370 50.4078 0.0000 0.0000 0.0000
# 2 14.9370 77.3517 51.7585 0.0000 0.0000 0.0000
# 3 50.4078 51.7585 161.1691 0.0000 0.0000 0.0000
# 4 0.0000 0.0000 0.0000 44.5125 0.0000 0.0000
# 5 0.0000 0.0000 0.0000 0.0000 34.4424 0.0000
# 6 0.0000 0.0000 0.0000 0.0000 0.0000 38.0203
#
#
#
# Elastic Compliance Matrix: (Units=1/GPa)
#
#
# Indices 1 2 3 4 5 6 
#
# 1 0.041635 0.000858 -0.013297 0.000000 0.000000 0.000000
# 2 0.000858 0.016484 -0.005562 0.000000 0.000000 0.000000
# 3 -0.013297 -0.005562 0.012150 0.000000 0.000000 0.000000
# 4 0.000000 0.000000 0.000000 0.022466 0.000000 0.000000
# 5 0.000000 0.000000 0.000000 0.000000 0.029034 0.000000
# 6 0.000000 0.000000 0.000000 0.000000 0.000000 0.026302
#
#
# Mechanical properties :
#
#
# Convention : Reuss Voigt Hill
#
# Bulk Modulus (GPa) = 29.18377 56.94855 43.06616
# Shear Modulus (GPa) = 25.57605 34.14352 29.85978
#
# Velocity S-wave (km/s) = 3.34567 3.86563 3.61501
# Velocity P-wave (km/s) = 5.26280 6.69686 6.02267
#
# Compressibility (1/GPa) = 0.03426562
#
# Stress axis : x y z
#
# Youngs Moduli (GPa) = 24.01823 60.66466 82.30586
#
# Poissons Ratio (x) = -0.05204 1.09445
# Poissons Ratio (y) = -0.02060 0.45779
# Poissons Ratio (z) = 0.31938 0.33742
#
# Static dielectric constant tensor:
#      x y z
#    x 4.115750 0.000000 0.000000 
#    y 0.000000 4.157130 0.000000 
#    z 0.000000 0.000000 4.352410 
# 
# 
# High freq. dielectric constant tensor:
#      x y z
#    x 1.893050 0.000000 0.000000 
#    y 0.000000 1.902780 0.000000 
#    z 0.000000 0.000000 1.909420 
# 
# From -- ./inp_files/3381.got.cif
#   From: 2010.03.12/outbox.cif.g09.slc.cpg/sg18_2_cif.got.tgz:3381.got - 2010.04.10 18:53:55.
