data_PCOD8156907
_publ_section_title
;
Structure prediction by ZEFSAII (Michael W. Deem and Ramdas Pophale) SiO2 
 PCOD8156907
Probable space group: P 21 21 21
;
_chemical_formula_sum "Si O2"
_cell_formula_units_Z 28
_cell_length_a 8.037318
_cell_length_b 11.489886
_cell_length_c 13.630957
_cell_angle_alpha 90.000000
_cell_angle_beta 90.000000
_cell_angle_gamma 90.000000
_cell_volume 1258.789812
_symmetry_space_group_name_H-M "P 21 21 21"
_symmetry_group_IT_number 19
_symmetry_cell_setting 'orthorhombic'
loop_
_space_group_symop_operation_xyz
x,y,z
1/2-x,-y,1/2+z
1/2+x,1/2-y,-z
-x,1/2+y,1/2-z
loop_
_atom_site_type_symbol
_atom_site_label
_atom_site_fract_x
_atom_site_fract_y
_atom_site_fract_z
Si Si1 0.667706 0.327404 0.238170
Si Si2 0.707512 0.022406 0.937050
Si Si3 0.954315 0.864459 0.618957
Si Si4 0.942748 0.906866 0.088326
Si Si5 0.697508 0.438932 0.804296
Si Si6 0.334341 0.422128 0.264444
Si Si7 0.544555 0.815720 0.837075
O O1 0.613803 0.267190 0.135288
O O2 0.742856 0.458053 0.228972
O O3 0.491974 0.342710 0.297337
O O4 0.791444 0.238520 0.289060
O O5 0.575645 0.939714 0.884810
O O6 0.809591 0.089650 0.853072
O O7 0.840755 0.945958 0.995133
O O8 0.600412 0.105269 0.008041
O O9 0.152221 0.876121 0.637451
O O10 0.863651 0.945831 0.699158
O O11 0.834426 0.882865 0.185561
O O12 0.004495 0.774168 0.073916
O O13 0.084585 0.001406 0.111635
O O14 0.599270 0.339331 0.744334
#
# Coordination Sequence:
#
# PCOD8156907 Si02
#       7
#     4   4   4   4   4   4   4
#     4  10  21  40  67  90 125 178 211 264 335 388
#     4  11  22  41  63  95 132 167 220 275 321 393
#     4  10  21  41  64  91 132 169 217 269 323 389
#     4  10  22  38  65  92 128 171 217 270 331 386
#     4  10  21  41  65  93 129 176 220 270 328 389
#     4  10  20  42  64  92 128 171 216 269 324 387
#     4  11  21  41  66  93 132 172 219 271 328 386
#
# _framework density 22.243584999999999
#
# number of rings (size 3 to 8) (size 9 to 14) (size 15 to 20)
#    0.000    1.714    2.857    1.714    0.000    4.571 
#   12.857    1.429    0.000    0.000    0.000    0.000 
#    0.000    0.000    0.000    0.000    0.000    0.000 
#
# Total GULP energy -346889.818299 kJ/mol
# GULP energy per Si atom -12388.922082 kJ/mol
# Density = 2.219296 g / cm^3
# Si number density = 22.243585 Si / 1000 Ang^3
#
#
#
# Elastic Constant Matrix: (Units=GPa)
#
#
# Indices 1 2 3 4 5 6 
#
# 1 116.5235 23.7331 37.7060 0.0000 0.0000 0.0000
# 2 23.7331 44.9208 10.3570 0.0000 0.0000 0.0000
# 3 37.7060 10.3570 92.3618 0.0000 0.0000 0.0000
# 4 0.0000 0.0000 0.0000 22.0418 0.0000 0.0000
# 5 0.0000 0.0000 0.0000 0.0000 23.0184 0.0000
# 6 0.0000 0.0000 0.0000 0.0000 0.0000 42.3644
#
#
#
# Elastic Compliance Matrix: (Units=1/GPa)
#
#
# Indices 1 2 3 4 5 6 
#
# 1 0.010818 -0.004822 -0.003876 0.000000 0.000000 0.000000
# 2 -0.004822 0.025002 -0.000835 0.000000 0.000000 0.000000
# 3 -0.003876 -0.000835 0.012503 0.000000 0.000000 0.000000
# 4 0.000000 0.000000 0.000000 0.045368 0.000000 0.000000
# 5 0.000000 0.000000 0.000000 0.000000 0.043444 0.000000
# 6 0.000000 0.000000 0.000000 0.000000 0.000000 0.023605
#
#
# Mechanical properties :
#
#
# Convention : Reuss Voigt Hill
#
# Bulk Modulus (GPa) = 34.17973 44.15537 39.16755
# Shear Modulus (GPa) = 26.37726 29.61891 27.99809
#
# Velocity S-wave (km/s) = 3.44733 3.65303 3.55167
# Velocity P-wave (km/s) = 5.58972 6.13895 5.87076
#
# Compressibility (1/GPa) = 0.02925711
#
# Stress axis : x y z
#
# Youngs Moduli (GPa) = 92.43638 39.99757 79.98163
#
# Poissons Ratio (x) = 0.19287 0.30999
# Poissons Ratio (y) = 0.44573 0.06678
# Poissons Ratio (z) = 0.35826 0.03340
#
# Static dielectric constant tensor:
#      x y z
#    x 4.285660 0.000000 0.000000 
#    y 0.000000 4.134470 0.000000 
#    z 0.000000 0.000000 3.648830 
# 
# 
# High freq. dielectric constant tensor:
#      x y z
#    x 1.896560 0.000000 0.000000 
#    y 0.000000 1.883560 0.000000 
#    z 0.000000 0.000000 1.837370 
# 
# From -- ./inp_files/3439.got.cif
#   From: 2010.03.12/outbox.cif.g09.slc.cpg/sg19_2_cif.got.tgz:3439.got - 2010.04.10 18:59:41.
