data_PCOD8156153
_publ_section_title
;
Structure prediction by ZEFSAII (Michael W. Deem and Ramdas Pophale) SiO2 
 PCOD8156153
Probable space group: P 21 21 2
;
_chemical_formula_sum "Si O2"
_cell_formula_units_Z 22
_cell_length_a 4.929331
_cell_length_b 28.289767
_cell_length_c 6.413907
_cell_angle_alpha 90.000000
_cell_angle_beta 90.000000
_cell_angle_gamma 90.000000
_cell_volume 894.416929
_symmetry_space_group_name_H-M "P 21 21 2"
_symmetry_group_IT_number 18
_symmetry_cell_setting 'orthorhombic'
loop_
_space_group_symop_operation_xyz
x,y,z
-x,-y,z
1/2+x,1/2-y,-z
1/2-x,1/2+y,-z
loop_
_atom_site_type_symbol
_atom_site_label
_atom_site_fract_x
_atom_site_fract_y
_atom_site_fract_z
Si Si1 0.000000 0.500000 0.929483
Si Si2 0.247711 0.341692 0.637336
Si Si3 0.322993 0.445708 0.589513
Si Si4 0.404662 0.253600 0.878009
Si Si5 0.743291 0.334657 0.382225
Si Si6 0.819012 0.437816 0.298918
O O1 0.167800 0.536602 0.074753
O O2 0.235590 0.478804 0.781372
O O3 0.354435 0.393929 0.694714
O O4 0.287880 0.304950 0.821919
O O5 0.433330 0.323733 0.443243
O O6 0.930133 0.344525 0.583944
O O7 0.606460 0.459632 0.470829
O O8 0.111335 0.444813 0.400641
O O9 0.366418 0.212404 0.713400
O O10 0.723121 0.259805 0.921123
O O11 0.754678 0.382755 0.245130
#
# Coordination Sequence:
#
# PCOD8156153 Si02
#       6
#     2   4   4   4   4   4
#     4  12  26  46  80 100 144 194 230 310 364 406
#     4  10  21  43  66  91 132 180 217 273 337 408
#     4  10  25  46  70 104 140 180 241 288 349 427
#     4  12  24  36  64 102 134 164 222 274 326 416
#     4  10  21  43  66  91 132 180 217 273 337 408
#     4  10  25  46  70 104 140 180 241 288 349 427
#
# _framework density 24.59703
#
# number of rings (size 3 to 8) (size 9 to 14) (size 15 to 20)
#    0.000    1.455    0.000    3.818    2.545    5.818 
#    0.000    0.000    0.000    0.000    0.000    0.000 
#    0.000    0.000    0.000    0.000    0.000    0.000 
#
# Total GULP energy -272687.150650 kJ/mol
# GULP energy per Si atom -12394.870484 kJ/mol
# Density = 2.454105 g / cm^3
# Si number density = 24.597030 Si / 1000 Ang^3
#
#
#
# Elastic Constant Matrix: (Units=GPa)
#
#
# Indices 1 2 3 4 5 6 
#
# 1 105.2871 21.6941 18.3237 0.0000 0.0000 0.0000
# 2 21.6941 90.6006 37.0165 0.0000 0.0000 0.0000
# 3 18.3237 37.0165 70.3295 0.0000 0.0000 0.0000
# 4 0.0000 0.0000 0.0000 39.6096 0.0000 0.0000
# 5 0.0000 0.0000 0.0000 0.0000 37.3946 0.0000
# 6 0.0000 0.0000 0.0000 0.0000 0.0000 35.8235
#
#
#
# Elastic Compliance Matrix: (Units=1/GPa)
#
#
# Indices 1 2 3 4 5 6 
#
# 1 0.010155 -0.001721 -0.001740 0.000000 0.000000 0.000000
# 2 -0.001721 0.014353 -0.007106 0.000000 0.000000 0.000000
# 3 -0.001740 -0.007106 0.018412 0.000000 0.000000 0.000000
# 4 0.000000 0.000000 0.000000 0.025246 0.000000 0.000000
# 5 0.000000 0.000000 0.000000 0.000000 0.026742 0.000000
# 6 0.000000 0.000000 0.000000 0.000000 0.000000 0.027915
#
#
# Mechanical properties :
#
#
# Convention : Reuss Voigt Hill
#
# Bulk Modulus (GPa) = 45.89988 46.69842 46.29915
# Shear Modulus (GPa) = 33.06463 35.17772 34.12117
#
# Velocity S-wave (km/s) = 3.67038 3.78585 3.72856
# Velocity P-wave (km/s) = 6.05504 6.17550 6.11557
#
# Compressibility (1/GPa) = 0.02178655
#
# Stress axis : x y z
#
# Youngs Moduli (GPa) = 98.47138 69.67321 54.31166
#
# Poissons Ratio (x) = 0.11988 0.09451
# Poissons Ratio (y) = 0.16943 0.38594
# Poissons Ratio (z) = 0.17136 0.49509
#
# Static dielectric constant tensor:
#      x y z
#    x 4.608700 0.000000 0.000000 
#    y 0.000000 4.901950 0.000000 
#    z 0.000000 0.000000 3.948300 
# 
# 
# High freq. dielectric constant tensor:
#      x y z
#    x 1.995990 0.000000 0.000000 
#    y 0.000000 2.007360 0.000000 
#    z 0.000000 0.000000 1.942620 
# 
# From -- ./inp_files/326.got.cif
#   From: 2010.03.12/outbox.cif.g09.slc.cpg/sg18_1_cif.got.tgz:326.got - 2010.04.10 18:53:55.
