data_PCOD8156071
_publ_section_title
;
Structure prediction by ZEFSAII (Michael W. Deem and Ramdas Pophale) SiO2 
 PCOD8156071
Probable space group: P 21 21 2
;
_chemical_formula_sum "Si O2"
_cell_formula_units_Z 32
_cell_length_a 9.183298
_cell_length_b 14.507281
_cell_length_c 12.138460
_cell_angle_alpha 90.000000
_cell_angle_beta 90.000000
_cell_angle_gamma 90.000000
_cell_volume 1617.142505
_symmetry_space_group_name_H-M "P 21 21 2"
_symmetry_group_IT_number 18
_symmetry_cell_setting 'orthorhombic'
loop_
_space_group_symop_operation_xyz
x,y,z
-x,-y,z
1/2+x,1/2-y,-z
1/2-x,1/2+y,-z
loop_
_atom_site_type_symbol
_atom_site_label
_atom_site_fract_x
_atom_site_fract_y
_atom_site_fract_z
Si Si1 0.847611 0.210797 0.098689
Si Si2 0.163624 0.991949 0.019230
Si Si3 0.134907 0.747320 0.344680
Si Si4 0.817874 0.813602 0.094634
Si Si5 0.671098 0.010412 0.804316
Si Si6 0.864160 0.113464 0.528630
Si Si7 0.190726 0.297664 0.294274
Si Si8 0.187120 0.079334 0.604747
O O1 0.796934 0.238491 0.222429
O O2 0.019518 0.227481 0.085101
O O3 0.807232 0.104069 0.080175
O O4 0.770953 0.276156 0.009694
O O5 0.182687 0.075992 0.104114
O O6 0.000000 0.000000 0.968647
O O7 0.286775 0.009966 0.928937
O O8 0.129437 0.847658 0.404509
O O9 0.222216 0.672714 0.420523
O O10 0.973025 0.710401 0.334890
O O11 0.754818 0.784157 0.214056
O O12 0.717866 0.113434 0.780129
O O13 0.500000 0.000000 0.783263
O O14 0.767338 0.941760 0.730260
O O15 0.786306 0.194455 0.596669
O O16 0.019029 0.101344 0.587357
O O17 0.778719 0.014014 0.532170
#
# Coordination Sequence:
#
# PCOD8156071 Si02
#       8
#     4   4   4   4   4   4   4   4
#     4  10  22  39  58  88 120 157 194 241 297 360
#     4  10  22  36  56  88 121 156 192 242 298 358
#     4  11  21  41  61  87 122 160 200 248 303 358
#     4  10  21  37  57  88 119 154 192 240 297 354
#     4  11  20  35  60  88 119 151 197 248 291 357
#     4  10  23  39  60  91 117 155 205 250 297 354
#     4  10  21  37  60  85 118 154 200 248 295 359
#     4  10  22  39  60  91 113 157 200 252 297 345
#
# _framework density 19.787991000000002
#
# number of rings (size 3 to 8) (size 9 to 14) (size 15 to 20)
#    0.000    1.750    2.500    1.500    5.250    1.000 
#   13.500    0.000    0.000    0.000    3.250    0.000 
#    0.000    0.000    0.000    0.000    0.000    0.000 
#
# Total GULP energy -396567.948852 kJ/mol
# GULP energy per Si atom -12392.748402 kJ/mol
# Density = 1.974295 g / cm^3
# Si number density = 19.787991 Si / 1000 Ang^3
#
#
#
# Elastic Constant Matrix: (Units=GPa)
#
#
# Indices 1 2 3 4 5 6 
#
# 1 50.7530 27.0480 31.8973 0.0000 0.0000 0.0000
# 2 27.0480 109.5790 32.4250 0.0000 0.0000 0.0000
# 3 31.8973 32.4250 69.1148 0.0000 0.0000 0.0000
# 4 0.0000 0.0000 0.0000 25.7818 0.0000 0.0000
# 5 0.0000 0.0000 0.0000 0.0000 6.9927 0.0000
# 6 0.0000 0.0000 0.0000 0.0000 0.0000 25.1925
#
#
#
# Elastic Compliance Matrix: (Units=1/GPa)
#
#
# Indices 1 2 3 4 5 6 
#
# 1 0.028998 -0.003713 -0.011641 0.000000 0.000000 0.000000
# 2 -0.003713 0.011072 -0.003481 0.000000 0.000000 0.000000
# 3 -0.011641 -0.003481 0.021474 0.000000 0.000000 0.000000
# 4 0.000000 0.000000 0.000000 0.038787 0.000000 0.000000
# 5 0.000000 0.000000 0.000000 0.000000 0.143006 0.000000
# 6 0.000000 0.000000 0.000000 0.000000 0.000000 0.039694
#
#
# Mechanical properties :
#
#
# Convention : Reuss Voigt Hill
#
# Bulk Modulus (GPa) = 41.88540 45.79863 43.84201
# Shear Modulus (GPa) = 15.21325 20.79850 18.00587
#
# Velocity S-wave (km/s) = 2.77575 3.24553 3.01979
# Velocity P-wave (km/s) = 5.61125 6.10242 5.86198
#
# Compressibility (1/GPa) = 0.02387467
#
# Stress axis : x y z
#
# Youngs Moduli (GPa) = 34.48477 90.31465 46.56744
#
# Poissons Ratio (x) = 0.33535 0.54209
# Poissons Ratio (y) = 0.12805 0.16210
# Poissons Ratio (z) = 0.40144 0.31438
#
# Static dielectric constant tensor:
#      x y z
#    x 3.512430 0.000000 0.000000 
#    y 0.000000 3.942500 0.000000 
#    z 0.000000 0.000000 3.488360 
# 
# 
# High freq. dielectric constant tensor:
#      x y z
#    x 1.759070 0.000000 0.000000 
#    y 0.000000 1.789430 0.000000 
#    z 0.000000 0.000000 1.755050 
# 
# From -- ./inp_files/5695.got.cif
#   From: 2010.03.12/outbox.cif.g09.slc.cpg/sg18_3_cif.got.tgz:5695.got - 2010.04.10 18:53:55.
