data_PCOD8156094
_publ_section_title
;
Structure prediction by ZEFSAII (Michael W. Deem and Ramdas Pophale) SiO2 
 PCOD8156094
Probable space group: P 21 21 2
;
_chemical_formula_sum "Si O2"
_cell_formula_units_Z 32
_cell_length_a 29.538529
_cell_length_b 8.536399
_cell_length_c 6.211923
_cell_angle_alpha 90.000000
_cell_angle_beta 90.000000
_cell_angle_gamma 90.000000
_cell_volume 1566.352967
_symmetry_space_group_name_H-M "P 21 21 2"
_symmetry_group_IT_number 18
_symmetry_cell_setting 'orthorhombic'
loop_
_space_group_symop_operation_xyz
x,y,z
-x,-y,z
1/2+x,1/2-y,-z
1/2-x,1/2+y,-z
loop_
_atom_site_type_symbol
_atom_site_label
_atom_site_fract_x
_atom_site_fract_y
_atom_site_fract_z
Si Si1 0.462808 0.891369 0.597566
Si Si2 0.174935 0.113462 0.868160
Si Si3 0.220694 0.942385 0.491301
Si Si4 0.995081 0.815777 0.051025
Si Si5 0.579031 0.883250 0.950385
Si Si6 0.411305 0.822622 0.202639
Si Si7 0.745858 0.809117 0.179743
Si Si8 0.332330 0.299611 0.886207
O O1 0.487321 0.741496 0.704487
O O2 0.422641 0.823103 0.454434
O O3 0.500000 0.000000 0.471254
O O4 0.441780 0.001581 0.776859
O O5 0.192533 0.069151 0.629658
O O6 0.134713 0.233989 0.842222
O O7 0.213003 0.198207 0.011754
O O8 0.157097 0.961721 0.993570
O O9 0.253401 0.032239 0.322413
O O10 0.249698 0.839644 0.659832
O O11 0.188101 0.829575 0.351561
O O12 0.041279 0.737514 0.961713
O O13 0.952820 0.764137 0.909437
O O14 0.000000 0.000000 0.045000
O O15 0.621086 0.790445 0.850020
O O16 0.595197 0.995098 0.143004
O O17 0.700443 0.803985 0.037978
#
# Coordination Sequence:
#
# PCOD8156094 Si02
#       8
#     4   4   4   4   4   4   4   4
#     4   9  20  38  58  84 116 151 193 237 287 349
#     4  10  23  39  59  87 119 156 200 243 292 355
#     4  10  22  40  62  86 120 158 196 248 301 349
#     4  10  21  39  61  85 116 152 190 239 291 342
#     4  10  22  38  59  86 117 151 192 243 291 345
#     4  11  22  38  60  86 117 154 192 237 293 350
#     4  10  22  41  62  88 119 155 199 247 297 359
#     4  10  22  41  61  86 119 155 201 244 292 355
#
# _framework density 20.429621999999998
#
# number of rings (size 3 to 8) (size 9 to 14) (size 15 to 20)
#    0.000    2.000    0.000    3.375    0.000   12.500 
#    0.000    3.750    0.000    0.000    0.000    0.000 
#    0.000    0.000    0.000    0.000    0.000    0.000 
#
# Total GULP energy -396754.354148 kJ/mol
# GULP energy per Si atom -12398.573567 kJ/mol
# Density = 2.038312 g / cm^3
# Si number density = 20.429622 Si / 1000 Ang^3
#
#
#
# Elastic Constant Matrix: (Units=GPa)
#
#
# Indices 1 2 3 4 5 6 
#
# 1 93.6248 48.4215 18.6437 0.0000 0.0000 0.0000
# 2 48.4215 117.3095 26.2839 0.0000 0.0000 0.0000
# 3 18.6437 26.2839 79.7477 0.0000 0.0000 0.0000
# 4 0.0000 0.0000 0.0000 28.9175 0.0000 0.0000
# 5 0.0000 0.0000 0.0000 0.0000 20.6601 0.0000
# 6 0.0000 0.0000 0.0000 0.0000 0.0000 44.4818
#
#
#
# Elastic Compliance Matrix: (Units=1/GPa)
#
#
# Indices 1 2 3 4 5 6 
#
# 1 0.013733 -0.005344 -0.001449 0.000000 0.000000 0.000000
# 2 -0.005344 0.011284 -0.002470 0.000000 0.000000 0.000000
# 3 -0.001449 -0.002470 0.013692 0.000000 0.000000 0.000000
# 4 0.000000 0.000000 0.000000 0.034581 0.000000 0.000000
# 5 0.000000 0.000000 0.000000 0.000000 0.048402 0.000000
# 6 0.000000 0.000000 0.000000 0.000000 0.000000 0.022481
#
#
# Mechanical properties :
#
#
# Convention : Reuss Voigt Hill
#
# Bulk Modulus (GPa) = 49.54541 53.04225 51.29383
# Shear Modulus (GPa) = 29.51113 31.96741 30.73927
#
# Velocity S-wave (km/s) = 3.80482 3.95999 3.88318
# Velocity P-wave (km/s) = 6.60353 6.85044 6.72811
#
# Compressibility (1/GPa) = 0.02018351
#
# Stress axis : x y z
#
# Youngs Moduli (GPa) = 72.81537 88.62415 73.03353
#
# Poissons Ratio (x) = 0.47360 0.10585
# Poissons Ratio (y) = 0.38912 0.18037
# Poissons Ratio (z) = 0.10553 0.21887
#
# Static dielectric constant tensor:
#      x y z
#    x 3.690240 0.000000 0.000000 
#    y 0.000000 3.848180 0.000000 
#    z 0.000000 0.000000 3.804240 
# 
# 
# High freq. dielectric constant tensor:
#      x y z
#    x 1.794080 0.000000 0.000000 
#    y 0.000000 1.805880 0.000000 
#    z 0.000000 0.000000 1.799860 
# 
# From -- ./inp_files/2311.got.cif
#   From: 2010.03.12/outbox.cif.g09.slc.cpg/sg18_2_cif.got.tgz:2311.got - 2010.04.10 18:53:55.
