data_PCOD8156551
_publ_section_title
;
Structure prediction by ZEFSAII (Michael W. Deem and Ramdas Pophale) SiO2 
 PCOD8156551
Probable space group: P 21 21 21
;
_chemical_formula_sum "Si O2"
_cell_formula_units_Z 32
_cell_length_a 17.608384
_cell_length_b 24.568346
_cell_length_c 4.992752
_cell_angle_alpha 90.000000
_cell_angle_beta 90.000000
_cell_angle_gamma 90.000000
_cell_volume 2159.908804
_symmetry_space_group_name_H-M "P 21 21 21"
_symmetry_group_IT_number 19
_symmetry_cell_setting 'orthorhombic'
loop_
_space_group_symop_operation_xyz
x,y,z
1/2-x,-y,1/2+z
1/2+x,1/2-y,-z
-x,1/2+y,1/2-z
loop_
_atom_site_type_symbol
_atom_site_label
_atom_site_fract_x
_atom_site_fract_y
_atom_site_fract_z
Si Si1 0.398850 0.349180 0.291095
Si Si2 0.337558 0.464653 0.195396
Si Si3 0.662672 0.788497 0.709329
Si Si4 0.971577 0.277773 0.313748
Si Si5 0.662344 0.212096 0.292987
Si Si6 0.399230 0.651523 0.706793
Si Si7 0.471708 0.778182 0.313651
Si Si8 0.337159 0.535698 0.695526
O O1 0.390682 0.413166 0.246780
O O2 0.368809 0.333545 0.584245
O O3 0.489568 0.336210 0.258716
O O4 0.349647 0.313553 0.083513
O O5 0.355554 0.512578 0.403520
O O6 0.250292 0.445578 0.221225
O O7 0.355846 0.487905 0.903528
O O8 0.617601 0.730690 0.744484
O O9 0.750065 0.775017 0.751319
O O10 0.009957 0.335963 0.240788
O O11 0.983934 0.266173 0.628009
O O12 0.016153 0.233580 0.127927
O O13 0.649577 0.187509 0.586392
O O14 0.617529 0.270002 0.256118
O O15 0.630596 0.167149 0.086743
O O16 0.389301 0.587601 0.753944
#
# Coordination Sequence:
#
# PCOD8156551 Si02
#       8
#     4   4   4   4   4   4   4   4
#     4  10  18  29  41  55  79 108 130 155 193 226
#     4  10  19  28  38  54  75  99 131 164 186 212
#     4  10  17  26  42  61  79 101 129 156 188 232
#     4   8  16  27  39  56  77 100 126 155 187 228
#     4  10  17  26  42  61  79 101 129 156 188 232
#     4  10  18  29  41  55  79 108 130 155 193 226
#     4   8  16  27  39  56  77 100 126 155 187 228
#     4  10  19  28  38  54  75  99 131 164 186 212
#
# _framework density 14.815441
#
# number of rings (size 3 to 8) (size 9 to 14) (size 15 to 20)
#    0.000    2.500    0.000    3.750    0.000    2.000 
#    0.000    0.000    0.000    0.000    0.000    0.000 
#    0.000    2.000    0.000    0.000    0.000    8.500 
#
# Total GULP energy -396561.198732 kJ/mol
# GULP energy per Si atom -12392.537460 kJ/mol
# Density = 1.478172 g / cm^3
# Si number density = 14.815441 Si / 1000 Ang^3
#
#
#
# Elastic Constant Matrix: (Units=GPa)
#
#
# Indices 1 2 3 4 5 6 
#
# 1 76.2654 42.6740 0.8785 0.0000 0.0000 0.0000
# 2 42.6740 74.6568 1.5093 0.0000 0.0000 0.0000
# 3 0.8785 1.5093 56.4566 0.0000 0.0000 0.0000
# 4 0.0000 0.0000 0.0000 11.5115 0.0000 0.0000
# 5 0.0000 0.0000 0.0000 0.0000 16.0215 0.0000
# 6 0.0000 0.0000 0.0000 0.0000 0.0000 26.2395
#
#
#
# Elastic Compliance Matrix: (Units=1/GPa)
#
#
# Indices 1 2 3 4 5 6 
#
# 1 0.019278 -0.011019 -0.000005 0.000000 0.000000 0.000000
# 2 -0.011019 0.019700 -0.000355 0.000000 0.000000 0.000000
# 3 -0.000005 -0.000355 0.017722 0.000000 0.000000 0.000000
# 4 0.000000 0.000000 0.000000 0.086870 0.000000 0.000000
# 5 0.000000 0.000000 0.000000 0.000000 0.062416 0.000000
# 6 0.000000 0.000000 0.000000 0.000000 0.000000 0.038110
#
#
# Mechanical properties :
#
#
# Convention : Reuss Voigt Hill
#
# Bulk Modulus (GPa) = 29.46286 33.05583 31.25935
# Shear Modulus (GPa) = 17.97463 21.57565 19.77514
#
# Velocity S-wave (km/s) = 3.48693 3.82028 3.65741
# Velocity P-wave (km/s) = 6.01177 6.46681 6.24343
#
# Compressibility (1/GPa) = 0.03394103
#
# Stress axis : x y z
#
# Youngs Moduli (GPa) = 51.87280 50.76040 56.42610
#
# Poissons Ratio (x) = 0.55934 0.00030
# Poissons Ratio (y) = 0.57160 0.02004
# Poissons Ratio (z) = 0.00028 0.01803
#
# Static dielectric constant tensor:
#      x y z
#    x 2.935140 0.000000 0.000000 
#    y 0.000000 2.628130 0.000000 
#    z 0.000000 0.000000 3.104180 
# 
# 
# High freq. dielectric constant tensor:
#      x y z
#    x 1.542650 0.000000 0.000000 
#    y 0.000000 1.527570 0.000000 
#    z 0.000000 0.000000 1.596560 
# 
# From -- ./inp_files/1335.got.cif
#   From: 2010.03.12/outbox.cif.g09.slc.cpg/sg19_1_cif.got.tgz:1335.got - 2010.04.10 18:59:41.
