data_PCOD8156537
_publ_section_title
;
Structure prediction by ZEFSAII (Michael W. Deem and Ramdas Pophale) SiO2 
 PCOD8156537
Probable space group: P 21 21 21
;
_chemical_formula_sum "Si O2"
_cell_formula_units_Z 32
_cell_length_a 8.327054
_cell_length_b 8.410761
_cell_length_c 21.348271
_cell_angle_alpha 90.000000
_cell_angle_beta 90.000000
_cell_angle_gamma 90.000000
_cell_volume 1495.165889
_symmetry_space_group_name_H-M "P 21 21 21"
_symmetry_group_IT_number 19
_symmetry_cell_setting 'orthorhombic'
loop_
_space_group_symop_operation_xyz
x,y,z
1/2-x,-y,1/2+z
1/2+x,1/2-y,-z
-x,1/2+y,1/2-z
loop_
_atom_site_type_symbol
_atom_site_label
_atom_site_fract_x
_atom_site_fract_y
_atom_site_fract_z
Si Si1 0.681793 0.824008 0.809411
Si Si2 0.511169 0.170891 0.226051
Si Si3 0.641053 0.868835 0.182032
Si Si4 0.434958 0.420738 0.858093
Si Si5 0.703361 0.667539 0.066386
Si Si6 0.219009 0.125887 0.857942
Si Si7 0.949279 0.301736 0.432731
Si Si8 0.565702 0.526523 0.742488
O O1 0.862196 0.829437 0.784280
O O2 0.675938 0.766667 0.881556
O O3 0.571678 0.708528 0.766213
O O4 0.593348 0.993445 0.799878
O O5 0.352778 0.241966 0.260010
O O6 0.563968 0.282069 0.167859
O O7 0.493029 0.992055 0.198290
O O8 0.613693 0.783346 0.115535
O O9 0.802321 0.973279 0.179791
O O10 0.360318 0.251376 0.877244
O O11 0.498763 0.514989 0.918863
O O12 0.574776 0.413027 0.804981
O O13 0.669719 0.482071 0.082871
O O14 0.894012 0.691813 0.067639
O O15 0.635943 0.707693 0.998865
O O16 0.282096 0.003856 0.804179
#
# Coordination Sequence:
#
# PCOD8156537 Si02
#       8
#     4   4   4   4   4   4   4   4
#     4  10  19  32  60  83 112 140 187 238 291 343
#     4  10  20  35  57  91 120 145 185 243 301 350
#     4  10  20  35  56  83 122 151 183 236 290 344
#     4   9  19  37  57  86 118 146 189 241 291 352
#     4  11  23  39  61  82 114 159 204 231 288 342
#     4  10  19  34  60  87 112 151 184 242 297 346
#     4  10  23  39  59  82 112 158 195 243 280 346
#     4  10  15  31  56  88 108 132 179 236 292 343
#
# _framework density 21.402308000000001
#
# number of rings (size 3 to 8) (size 9 to 14) (size 15 to 20)
#    0.000    2.000    5.000    0.750    1.750    0.000 
#    0.000    3.750    0.000    0.000    0.000    0.000 
#    0.000    0.000    0.000    0.000    0.000    0.000 
#
# Total GULP energy -396453.699673 kJ/mol
# GULP energy per Si atom -12389.178115 kJ/mol
# Density = 2.135360 g / cm^3
# Si number density = 21.402308 Si / 1000 Ang^3
#
#
#
# Elastic Constant Matrix: (Units=GPa)
#
#
# Indices 1 2 3 4 5 6 
#
# 1 18.7367 17.0072 12.1324 0.0000 0.0000 0.0000
# 2 17.0072 91.3746 41.3873 0.0000 0.0000 0.0000
# 3 12.1324 41.3873 111.6705 0.0000 0.0000 0.0000
# 4 0.0000 0.0000 0.0000 28.9332 0.0000 0.0000
# 5 0.0000 0.0000 0.0000 0.0000 30.9856 0.0000
# 6 0.0000 0.0000 0.0000 0.0000 0.0000 27.1030
#
#
#
# Elastic Compliance Matrix: (Units=1/GPa)
#
#
# Indices 1 2 3 4 5 6 
#
# 1 0.065104 -0.010712 -0.003103 0.000000 0.000000 0.000000
# 2 -0.010712 0.014914 -0.004364 0.000000 0.000000 0.000000
# 3 -0.003103 -0.004364 0.010909 0.000000 0.000000 0.000000
# 4 0.000000 0.000000 0.000000 0.034562 0.000000 0.000000
# 5 0.000000 0.000000 0.000000 0.000000 0.032273 0.000000
# 6 0.000000 0.000000 0.000000 0.000000 0.000000 0.036896
#
#
# Mechanical properties :
#
#
# Convention : Reuss Voigt Hill
#
# Bulk Modulus (GPa) = 18.32516 40.31506 29.32011
# Shear Modulus (GPa) = 20.06366 27.48800 23.77583
#
# Velocity S-wave (km/s) = 3.06511 3.58767 3.33663
# Velocity P-wave (km/s) = 4.59427 6.00329 5.34541
#
# Compressibility (1/GPa) = 0.05456979
#
# Stress axis : x y z
#
# Youngs Moduli (GPa) = 15.36008 67.04998 91.66461
#
# Poissons Ratio (x) = 0.71824 0.28444
# Poissons Ratio (y) = 0.16454 0.40000
# Poissons Ratio (z) = 0.04766 0.29259
#
# Static dielectric constant tensor:
#      x y z
#    x 3.630920 0.000000 0.000000 
#    y 0.000000 4.108110 0.000000 
#    z 0.000000 0.000000 3.732330 
# 
# 
# High freq. dielectric constant tensor:
#      x y z
#    x 1.815030 0.000000 0.000000 
#    y 0.000000 1.849090 0.000000 
#    z 0.000000 0.000000 1.814850 
# 
# From -- ./inp_files/7068.got.cif
#   From: 2010.03.12/outbox.cif.g09.slc.cpg/sg19_4_cif.got.tgz:7068.got - 2010.04.10 18:59:41.
