data_PCOD8156809
_publ_section_title
;
Structure prediction by ZEFSAII (Michael W. Deem and Ramdas Pophale) SiO2 
 PCOD8156809
Probable space group: P 21 21 21
;
_chemical_formula_sum "Si O2"
_cell_formula_units_Z 32
_cell_length_a 14.993333
_cell_length_b 17.619290
_cell_length_c 5.592993
_cell_angle_alpha 90.000000
_cell_angle_beta 90.000000
_cell_angle_gamma 90.000000
_cell_volume 1477.511488
_symmetry_space_group_name_H-M "P 21 21 21"
_symmetry_group_IT_number 19
_symmetry_cell_setting 'orthorhombic'
loop_
_space_group_symop_operation_xyz
x,y,z
1/2-x,-y,1/2+z
1/2+x,1/2-y,-z
-x,1/2+y,1/2-z
loop_
_atom_site_type_symbol
_atom_site_label
_atom_site_fract_x
_atom_site_fract_y
_atom_site_fract_z
Si Si1 0.140935 0.553051 0.383922
Si Si2 0.531385 0.055400 0.316949
Si Si3 0.586415 0.632648 0.845801
Si Si4 0.243393 0.278398 0.290040
Si Si5 0.640060 0.520163 0.449720
Si Si6 0.163481 0.414914 0.062678
Si Si7 0.851259 0.213565 0.209067
Si Si8 0.738032 0.385419 0.650108
O O1 0.093299 0.516077 0.612823
O O2 0.131491 0.493756 0.172364
O O3 0.244239 0.571562 0.426781
O O4 0.095573 0.633091 0.305699
O O5 0.507696 0.116537 0.523170
O O6 0.436001 0.018875 0.250243
O O7 0.583463 0.105265 0.119515
O O8 0.597397 0.561753 0.672962
O O9 0.580729 0.715236 0.719717
O O10 0.671610 0.636458 0.015428
O O11 0.173224 0.347786 0.259063
O O12 0.291383 0.290650 0.547432
O O13 0.194325 0.195973 0.284402
O O14 0.302210 0.278181 0.047306
O O15 0.666271 0.433120 0.500486
O O16 0.731255 0.564103 0.377053
#
# Coordination Sequence:
#
# PCOD8156809 Si02
#       8
#     4   4   4   4   4   4   4   4
#     4  11  22  41  71  97 133 179 237 283 344 418
#     4  11  25  40  68 101 136 185 232 294 351 408
#     4  10  21  41  66  98 139 175 227 284 350 420
#     4  10  22  39  70 106 132 171 238 286 339 417
#     4  11  20  39  69  97 136 178 228 285 347 423
#     4  11  22  41  71  97 134 181 233 288 346 408
#     4  10  22  40  72 103 131 179 228 284 346 418
#     4  10  20  37  71 101 129 182 227 280 349 418
#
# _framework density 21.658037
#
# number of rings (size 3 to 8) (size 9 to 14) (size 15 to 20)
#    0.000    1.500    3.750    1.500    3.500    0.000 
#    0.000    0.000   16.500    0.000    0.000    0.000 
#    0.000    0.000    0.000    0.000    0.000    0.000 
#
# Total GULP energy -396464.263799 kJ/mol
# GULP energy per Si atom -12389.508244 kJ/mol
# Density = 2.160874 g / cm^3
# Si number density = 21.658037 Si / 1000 Ang^3
#
#
#
# Elastic Constant Matrix: (Units=GPa)
#
#
# Indices 1 2 3 4 5 6 
#
# 1 49.6014 10.5405 -6.0061 0.0000 0.0000 0.0000
# 2 10.5405 163.1261 12.5687 0.0000 0.0000 0.0000
# 3 -6.0061 12.5687 77.5103 0.0000 0.0000 0.0000
# 4 0.0000 0.0000 0.0000 32.3548 0.0000 0.0000
# 5 0.0000 0.0000 0.0000 0.0000 26.5813 0.0000
# 6 0.0000 0.0000 0.0000 0.0000 0.0000 11.6895
#
#
#
# Elastic Compliance Matrix: (Units=1/GPa)
#
#
# Indices 1 2 3 4 5 6 
#
# 1 0.020698 -0.001479 0.001844 0.000000 0.000000 0.000000
# 2 -0.001479 0.006314 -0.001138 0.000000 0.000000 0.000000
# 3 0.001844 -0.001138 0.013229 0.000000 0.000000 0.000000
# 4 0.000000 0.000000 0.000000 0.030907 0.000000 0.000000
# 5 0.000000 0.000000 0.000000 0.000000 0.037621 0.000000
# 6 0.000000 0.000000 0.000000 0.000000 0.000000 0.085547
#
#
# Mechanical properties :
#
#
# Convention : Reuss Voigt Hill
#
# Bulk Modulus (GPa) = 25.84474 36.04934 30.94704
# Shear Modulus (GPa) = 23.95076 32.33409 28.14243
#
# Velocity S-wave (km/s) = 3.32906 3.86805 3.60863
# Velocity P-wave (km/s) = 5.17067 6.05227 5.62876
#
# Compressibility (1/GPa) = 0.03869260
#
# Stress axis : x y z
#
# Youngs Moduli (GPa) = 48.31301 158.38972 75.59159
#
# Poissons Ratio (x) = 0.23434 -0.13937
# Poissons Ratio (y) = 0.07148 0.08605
# Poissons Ratio (z) = -0.08908 0.18031
#
# Static dielectric constant tensor:
#      x y z
#    x 3.786340 0.000000 0.000000 
#    y 0.000000 4.532400 0.000000 
#    z 0.000000 0.000000 4.105370 
# 
# 
# High freq. dielectric constant tensor:
#      x y z
#    x 1.814070 0.000000 0.000000 
#    y 0.000000 1.864650 0.000000 
#    z 0.000000 0.000000 1.861760 
# 
# From -- ./inp_files/1592.got.cif
#   From: 2010.03.12/outbox.cif.g09.slc.cpg/sg19_1_cif.got.tgz:1592.got - 2010.04.10 18:59:41.
