data_PCOD8156846
_publ_section_title
;
Structure prediction by ZEFSAII (Michael W. Deem and Ramdas Pophale) SiO2 
 PCOD8156846
Probable space group: P 21 21 21
;
_chemical_formula_sum "Si O2"
_cell_formula_units_Z 24
_cell_length_a 14.301509
_cell_length_b 8.438888
_cell_length_c 9.375968
_cell_angle_alpha 90.000000
_cell_angle_beta 90.000000
_cell_angle_gamma 90.000000
_cell_volume 1131.574633
_symmetry_space_group_name_H-M "P 21 21 21"
_symmetry_group_IT_number 19
_symmetry_cell_setting 'orthorhombic'
loop_
_space_group_symop_operation_xyz
x,y,z
1/2-x,-y,1/2+z
1/2+x,1/2-y,-z
-x,1/2+y,1/2-z
loop_
_atom_site_type_symbol
_atom_site_label
_atom_site_fract_x
_atom_site_fract_y
_atom_site_fract_z
Si Si1 0.109416 0.755854 0.373830
Si Si2 0.961801 0.919593 0.203174
Si Si3 0.973422 0.424115 0.611611
Si Si4 0.218433 0.060217 0.937910
Si Si5 0.292628 0.804505 0.743618
Si Si6 0.895200 0.169064 0.808644
O O1 0.086592 0.592845 0.288703
O O2 0.221014 0.794974 0.369237
O O3 0.078461 0.743284 0.537866
O O4 0.051085 0.903771 0.308126
O O5 0.891414 0.781347 0.250773
O O6 0.999844 0.880837 0.048025
O O7 0.887811 0.552105 0.620136
O O8 0.946326 0.262455 0.684598
O O9 0.063678 0.492401 0.694147
O O10 0.270959 0.897744 0.890632
O O11 0.213998 0.073540 0.109939
O O12 0.215426 0.666636 0.719836
#
# Coordination Sequence:
#
# PCOD8156846 Si02
#       6
#     4   4   4   4   4   4
#     4  10  21  37  60  87 119 154 193 240 295 353
#     4  11  22  39  61  91 121 156 201 247 297 362
#     4  10  21  37  58  82 114 152 198 243 298 356
#     4  10  20  39  61  86 118 157 195 244 299 355
#     4  10  21  38  60  85 119 154 197 243 300 359
#     4   9  21  38  56  83 113 151 192 243 297 353
#
# _framework density 21.209384
#
# number of rings (size 3 to 8) (size 9 to 14) (size 15 to 20)
#    0.000    2.000    0.000    4.000    0.000    6.667 
#    0.000   15.000    0.000    0.000    0.000    0.000 
#    0.000    0.000    0.000    0.000    0.000    0.000 
#
# Total GULP energy -297470.851990 kJ/mol
# GULP energy per Si atom -12394.618833 kJ/mol
# Density = 2.116111 g / cm^3
# Si number density = 21.209384 Si / 1000 Ang^3
#
#
#
# Elastic Constant Matrix: (Units=GPa)
#
#
# Indices 1 2 3 4 5 6 
#
# 1 90.4704 21.7894 42.0363 0.0000 0.0000 0.0000
# 2 21.7894 47.5431 28.4984 0.0000 0.0000 0.0000
# 3 42.0363 28.4984 69.3293 0.0000 0.0000 0.0000
# 4 0.0000 0.0000 0.0000 21.9682 0.0000 0.0000
# 5 0.0000 0.0000 0.0000 0.0000 31.1445 0.0000
# 6 0.0000 0.0000 0.0000 0.0000 0.0000 24.3520
#
#
#
# Elastic Compliance Matrix: (Units=1/GPa)
#
#
# Indices 1 2 3 4 5 6 
#
# 1 0.015524 -0.001954 -0.008610 0.000000 0.000000 0.000000
# 2 -0.001954 0.028157 -0.010389 0.000000 0.000000 0.000000
# 3 -0.008610 -0.010389 0.023915 0.000000 0.000000 0.000000
# 4 0.000000 0.000000 0.000000 0.045520 0.000000 0.000000
# 5 0.000000 0.000000 0.000000 0.000000 0.032108 0.000000
# 6 0.000000 0.000000 0.000000 0.000000 0.000000 0.041064
#
#
# Mechanical properties :
#
#
# Convention : Reuss Voigt Hill
#
# Bulk Modulus (GPa) = 38.92583 43.55456 41.24019
# Shear Modulus (GPa) = 21.11863 23.16087 22.13975
#
# Velocity S-wave (km/s) = 3.15893 3.30814 3.23440
# Velocity P-wave (km/s) = 5.63010 5.93059 5.78230
#
# Compressibility (1/GPa) = 0.02568988
#
# Stress axis : x y z
#
# Youngs Moduli (GPa) = 64.41488 35.51558 41.81534
#
# Poissons Ratio (x) = 0.06940 0.36001
# Poissons Ratio (y) = 0.12588 0.43443
# Poissons Ratio (z) = 0.55458 0.36898
#
# Static dielectric constant tensor:
#      x y z
#    x 4.211370 0.000000 0.000000 
#    y 0.000000 3.573400 0.000000 
#    z 0.000000 0.000000 3.817440 
# 
# 
# High freq. dielectric constant tensor:
#      x y z
#    x 1.848620 0.000000 0.000000 
#    y 0.000000 1.805760 0.000000 
#    z 0.000000 0.000000 1.828400 
# 
# From -- ./inp_files/2751.got.cif
#   From: 2010.03.12/outbox.cif.g09.slc.cpg/sg19_2_cif.got.tgz:2751.got - 2010.04.10 18:59:41.
