data_PCOD8156689
_publ_section_title
;
Structure prediction by ZEFSAII (Michael W. Deem and Ramdas Pophale) SiO2 
 PCOD8156689
Probable space group: P 21 21 21
;
_chemical_formula_sum "Si O2"
_cell_formula_units_Z 32
_cell_length_a 14.071381
_cell_length_b 9.081636
_cell_length_c 12.308904
_cell_angle_alpha 90.000000
_cell_angle_beta 90.000000
_cell_angle_gamma 90.000000
_cell_volume 1572.969124
_symmetry_space_group_name_H-M "P 21 21 21"
_symmetry_group_IT_number 19
_symmetry_cell_setting 'orthorhombic'
loop_
_space_group_symop_operation_xyz
x,y,z
1/2-x,-y,1/2+z
1/2+x,1/2-y,-z
-x,1/2+y,1/2-z
loop_
_atom_site_type_symbol
_atom_site_label
_atom_site_fract_x
_atom_site_fract_y
_atom_site_fract_z
Si Si1 0.386297 0.694622 0.216801
Si Si2 0.594433 0.265891 0.036001
Si Si3 0.689035 0.901161 0.720412
Si Si4 0.391809 0.885651 0.011346
Si Si5 0.088384 0.545769 0.068535
Si Si6 0.312365 0.205365 0.987147
Si Si7 0.723749 0.136557 0.557519
Si Si8 0.078177 0.549032 0.571965
O O1 0.420771 0.729907 0.337222
O O2 0.273270 0.670406 0.210268
O O3 0.440343 0.541156 0.183722
O O4 0.403151 0.831647 0.135825
O O5 0.699842 0.321794 0.008675
O O6 0.519095 0.396280 0.013761
O O7 0.572320 0.124628 0.962604
O O8 0.603377 0.936650 0.802161
O O9 0.657712 0.788093 0.625174
O O10 0.729820 0.055963 0.673365
O O11 0.494610 0.860533 0.957042
O O12 0.306190 0.808363 0.941733
O O13 0.368239 0.056917 0.005740
O O14 0.177379 0.610427 0.002774
O O15 0.347892 0.313834 0.084227
O O16 0.629394 0.073204 0.500494
#
# Coordination Sequence:
#
# PCOD8156689 Si02
#       8
#     4   4   4   4   4   4   4   4
#     4  10  21  40  62  93 128 164 207 266 324 375
#     4  11  22  37  66  94 124 167 213 259 323 377
#     4  10  20  42  69  81 129 179 210 253 326 391
#     4  11  24  38  63  98 127 161 215 279 307 374
#     4  12  21  40  68  89 126 172 210 260 330 373
#     4  10  21  40  61  91 130 161 216 265 308 381
#     4  10  22  43  64  90 128 171 214 257 326 392
#     4  10  19  38  63  86 120 167 207 253 316 385
#
# _framework density 20.343692999999998
#
# number of rings (size 3 to 8) (size 9 to 14) (size 15 to 20)
#    0.000    1.500    7.500    0.000    1.750    3.000 
#    0.000    5.000    0.000    0.000    0.000    0.000 
#    0.000    0.000    0.000    0.000    0.000    0.000 
#
# Total GULP energy -396529.615659 kJ/mol
# GULP energy per Si atom -12391.550489 kJ/mol
# Density = 2.029739 g / cm^3
# Si number density = 20.343693 Si / 1000 Ang^3
#
#
#
# Elastic Constant Matrix: (Units=GPa)
#
#
# Indices 1 2 3 4 5 6 
#
# 1 99.5274 20.9863 16.1366 0.0000 0.0000 0.0000
# 2 20.9863 96.9150 35.3651 0.0000 0.0000 0.0000
# 3 16.1366 35.3651 50.1148 0.0000 0.0000 0.0000
# 4 0.0000 0.0000 0.0000 29.3155 0.0000 0.0000
# 5 0.0000 0.0000 0.0000 0.0000 22.4268 0.0000
# 6 0.0000 0.0000 0.0000 0.0000 0.0000 37.2161
#
#
#
# Elastic Compliance Matrix: (Units=1/GPa)
#
#
# Indices 1 2 3 4 5 6 
#
# 1 0.010747 -0.001434 -0.002449 0.000000 0.000000 0.000000
# 2 -0.001434 0.014088 -0.009480 0.000000 0.000000 0.000000
# 3 -0.002449 -0.009480 0.027433 0.000000 0.000000 0.000000
# 4 0.000000 0.000000 0.000000 0.034112 0.000000 0.000000
# 5 0.000000 0.000000 0.000000 0.000000 0.044589 0.000000
# 6 0.000000 0.000000 0.000000 0.000000 0.000000 0.026870
#
#
# Mechanical properties :
#
#
# Convention : Reuss Voigt Hill
#
# Bulk Modulus (GPa) = 39.15025 43.50369 41.32697
# Shear Modulus (GPa) = 25.89630 29.39630 27.64630
#
# Velocity S-wave (km/s) = 3.57170 3.80542 3.69041
# Velocity P-wave (km/s) = 6.02458 6.38272 6.20623
#
# Compressibility (1/GPa) = 0.02554262
#
# Stress axis : x y z
#
# Youngs Moduli (GPa) = 93.05104 70.98168 36.45296
#
# Poissons Ratio (x) = 0.10176 0.08926
# Poissons Ratio (y) = 0.13340 0.34558
# Poissons Ratio (z) = 0.22786 0.67292
#
# Static dielectric constant tensor:
#      x y z
#    x 3.784430 0.000000 0.000000 
#    y 0.000000 3.833730 0.000000 
#    z 0.000000 0.000000 3.776620 
# 
# 
# High freq. dielectric constant tensor:
#      x y z
#    x 1.798680 0.000000 0.000000 
#    y 0.000000 1.792480 0.000000 
#    z 0.000000 0.000000 1.779160 
# 
# From -- ./inp_files/5276.got.cif
#   From: 2010.03.12/outbox.cif.g09.slc.cpg/sg19_3_cif.got.tgz:5276.got - 2010.04.10 18:59:41.
