data_PCOD8156225
_publ_section_title
;
Structure prediction by ZEFSAII (Michael W. Deem and Ramdas Pophale) SiO2 
 PCOD8156225
Probable space group: P 21 21 2
;
_chemical_formula_sum "Si O2"
_cell_formula_units_Z 26
_cell_length_a 15.148897
_cell_length_b 11.563855
_cell_length_c 6.853456
_cell_angle_alpha 90.000000
_cell_angle_beta 90.000000
_cell_angle_gamma 90.000000
_cell_volume 1200.586012
_symmetry_space_group_name_H-M "P 21 21 2"
_symmetry_group_IT_number 18
_symmetry_cell_setting 'orthorhombic'
loop_
_space_group_symop_operation_xyz
x,y,z
-x,-y,z
1/2+x,1/2-y,-z
1/2-x,1/2+y,-z
loop_
_atom_site_type_symbol
_atom_site_label
_atom_site_fract_x
_atom_site_fract_y
_atom_site_fract_z
Si Si1 0.500000 0.000000 0.917107
Si Si2 0.511211 0.750945 0.781239
Si Si3 0.621605 0.369922 0.054680
Si Si4 0.730208 0.799224 0.234101
Si Si5 0.375505 0.748591 0.455277
Si Si6 0.339709 0.379082 0.960928
Si Si7 0.156015 0.462350 0.788555
O O1 0.585598 0.030144 0.040891
O O2 0.478132 0.110708 0.784309
O O3 0.461331 0.716062 0.582954
O O4 0.458248 0.705673 0.970405
O O5 0.606741 0.689821 0.792196
O O6 0.629934 0.345108 0.283976
O O7 0.606384 0.505923 0.019137
O O8 0.712495 0.334092 0.953394
O O9 0.787803 0.758138 0.415084
O O10 0.666726 0.696570 0.159614
O O11 0.673100 0.910523 0.300486
O O12 0.382579 0.880005 0.379637
O O13 0.243843 0.405068 0.875224
#
# Coordination Sequence:
#
# PCOD8156225 Si02
#       7
#     2   4   4   4   4   4   4
#     4  12  22  46  72  94 142 190 224 284 362 412
#     4  11  24  45  69 100 137 185 230 287 353 417
#     4  10  22  44  67  98 140 181 229 286 349 418
#     4  10  22  41  68 100 140 180 230 290 348 414
#     4  11  23  44  69 103 141 176 235 294 344 413
#     4  11  22  45  71  98 140 189 226 286 358 414
#     4  11  23  44  69 101 141 178 237 287 345 423
#
# _framework density 21.656091
#
# number of rings (size 3 to 8) (size 9 to 14) (size 15 to 20)
#    0.000    1.231    4.615    1.385    2.154    0.615 
#    8.308    4.615    0.000    0.000    0.000    0.000 
#    0.000    0.000    0.000    0.000    0.000    0.000 
#
# Total GULP energy -322493.986787 kJ/mol
# GULP energy per Si atom -12403.614876 kJ/mol
# Density = 2.160680 g / cm^3
# Si number density = 21.656091 Si / 1000 Ang^3
#
#
#
# Elastic Constant Matrix: (Units=GPa)
#
#
# Indices 1 2 3 4 5 6 
#
# 1 87.3567 21.3078 20.6247 0.0000 0.0000 0.0000
# 2 21.3078 145.3699 26.6912 0.0000 0.0000 0.0000
# 3 20.6247 26.6912 103.4101 0.0000 0.0000 0.0000
# 4 0.0000 0.0000 0.0000 30.6348 0.0000 0.0000
# 5 0.0000 0.0000 0.0000 0.0000 18.8046 0.0000
# 6 0.0000 0.0000 0.0000 0.0000 0.0000 34.2081
#
#
#
# Elastic Compliance Matrix: (Units=1/GPa)
#
#
# Indices 1 2 3 4 5 6 
#
# 1 0.012285 -0.001418 -0.002084 0.000000 0.000000 0.000000
# 2 -0.001418 0.007385 -0.001623 0.000000 0.000000 0.000000
# 3 -0.002084 -0.001623 0.010505 0.000000 0.000000 0.000000
# 4 0.000000 0.000000 0.000000 0.032643 0.000000 0.000000
# 5 0.000000 0.000000 0.000000 0.000000 0.053179 0.000000
# 6 0.000000 0.000000 0.000000 0.000000 0.000000 0.029233
#
#
# Mechanical properties :
#
#
# Convention : Reuss Voigt Hill
#
# Bulk Modulus (GPa) = 50.19085 52.59823 51.39454
# Shear Modulus (GPa) = 30.84106 34.56370 32.70238
#
# Velocity S-wave (km/s) = 3.77786 3.99936 3.89019
# Velocity P-wave (km/s) = 6.50048 6.75775 6.63037
#
# Compressibility (1/GPa) = 0.01992395
#
# Stress axis : x y z
#
# Youngs Moduli (GPa) = 81.39818 135.41128 95.19356
#
# Poissons Ratio (x) = 0.19202 0.19841
# Poissons Ratio (y) = 0.11543 0.15453
# Poissons Ratio (z) = 0.16965 0.21981
#
# Static dielectric constant tensor:
#      x y z
#    x 3.904320 0.000000 0.000000 
#    y 0.000000 4.353190 0.000000 
#    z 0.000000 0.000000 3.614900 
# 
# 
# High freq. dielectric constant tensor:
#      x y z
#    x 1.853110 0.000000 0.000000 
#    y 0.000000 1.869990 0.000000 
#    z 0.000000 0.000000 1.830540 
# 
# From -- ./inp_files/1137.got.cif
#   From: 2010.03.12/outbox.cif.g09.slc.cpg/sg18_1_cif.got.tgz:1137.got - 2010.04.10 18:53:55.
