data_PCOD8156751
_publ_section_title
;
Structure prediction by ZEFSAII (Michael W. Deem and Ramdas Pophale) SiO2 
 PCOD8156751
Probable space group: P 21 21 21
;
_chemical_formula_sum "Si O2"
_cell_formula_units_Z 20
_cell_length_a 5.158293
_cell_length_b 15.020604
_cell_length_c 13.311263
_cell_angle_alpha 90.000000
_cell_angle_beta 90.000000
_cell_angle_gamma 90.000000
_cell_volume 1031.365662
_symmetry_space_group_name_H-M "P 21 21 21"
_symmetry_group_IT_number 19
_symmetry_cell_setting 'orthorhombic'
loop_
_space_group_symop_operation_xyz
x,y,z
1/2-x,-y,1/2+z
1/2+x,1/2-y,-z
-x,1/2+y,1/2-z
loop_
_atom_site_type_symbol
_atom_site_label
_atom_site_fract_x
_atom_site_fract_y
_atom_site_fract_z
Si Si1 0.628650 0.754900 0.631807
Si Si2 0.063354 0.361023 0.530874
Si Si3 0.628688 0.647789 0.434946
Si Si4 0.711274 0.709823 0.852293
Si Si5 0.925628 0.556508 0.964055
O O1 0.612680 0.675179 0.551674
O O2 0.401429 0.825438 0.613428
O O3 0.596983 0.710781 0.740824
O O4 0.901983 0.804767 0.626845
O O5 0.122718 0.299479 0.626887
O O6 0.296126 0.430405 0.514472
O O7 0.026423 0.295490 0.433314
O O8 0.801222 0.419452 0.545556
O O9 0.599635 0.542868 0.424536
O O10 0.891302 0.622216 0.867756
#
# Coordination Sequence:
#
# PCOD8156751 Si02
#       5
#     4   4   4   4   4
#     4  10  23  39  64  78 123 163 193 235 300 355
#     4  10  20  35  59  84 122 149 181 251 294 339
#     4  10  22  43  57  86 118 159 199 243 284 351
#     4  10  21  38  60  90 118 156 191 238 304 348
#     4  10  20  37  60  84 121 145 196 249 284 335
#
# _framework density 19.391763999999998
#
# number of rings (size 3 to 8) (size 9 to 14) (size 15 to 20)
#    1.200    0.800    2.000    1.200    2.800    0.000 
#    7.200    0.000    0.000    0.000    0.000    0.000 
#    0.000    0.000    0.000    0.000    0.000    0.000 
#
# Total GULP energy -247929.795652 kJ/mol
# GULP energy per Si atom -12396.489783 kJ/mol
# Density = 1.934763 g / cm^3
# Si number density = 19.391764 Si / 1000 Ang^3
#
#
#
# Elastic Constant Matrix: (Units=GPa)
#
#
# Indices 1 2 3 4 5 6 
#
# 1 89.6269 -0.7208 12.0941 0.0000 0.0000 0.0000
# 2 -0.7208 87.0466 12.8259 0.0000 0.0000 0.0000
# 3 12.0941 12.8259 81.2716 0.0000 0.0000 0.0000
# 4 0.0000 0.0000 0.0000 10.6566 0.0000 0.0000
# 5 0.0000 0.0000 0.0000 0.0000 18.1094 0.0000
# 6 0.0000 0.0000 0.0000 0.0000 0.0000 22.7652
#
#
#
# Elastic Compliance Matrix: (Units=1/GPa)
#
#
# Indices 1 2 3 4 5 6 
#
# 1 0.011397 0.000352 -0.001752 0.000000 0.000000 0.000000
# 2 0.000352 0.011772 -0.001910 0.000000 0.000000 0.000000
# 3 -0.001752 -0.001910 0.012867 0.000000 0.000000 0.000000
# 4 0.000000 0.000000 0.000000 0.093839 0.000000 0.000000
# 5 0.000000 0.000000 0.000000 0.000000 0.055220 0.000000
# 6 0.000000 0.000000 0.000000 0.000000 0.000000 0.043927
#
#
# Mechanical properties :
#
#
# Convention : Reuss Voigt Hill
#
# Bulk Modulus (GPa) = 33.99426 34.03818 34.01622
# Shear Modulus (GPa) = 20.37110 25.88928 23.13019
#
# Velocity S-wave (km/s) = 3.24466 3.65782 3.45742
# Velocity P-wave (km/s) = 5.62187 5.95236 5.78947
#
# Compressibility (1/GPa) = 0.02941673
#
# Stress axis : x y z
#
# Youngs Moduli (GPa) = 87.74585 84.94377 77.72093
#
# Poissons Ratio (x) = -0.02994 0.13613
# Poissons Ratio (y) = -0.03093 0.14847
# Poissons Ratio (z) = 0.15369 0.16227
#
# Static dielectric constant tensor:
#      x y z
#    x 3.644340 0.000000 0.000000 
#    y 0.000000 3.316260 0.000000 
#    z 0.000000 0.000000 3.171240 
# 
# 
# High freq. dielectric constant tensor:
#      x y z
#    x 1.769420 0.000000 0.000000 
#    y 0.000000 1.748120 0.000000 
#    z 0.000000 0.000000 1.720900 
# 
# From -- ./inp_files/911.got.cif
#   From: 2010.03.12/outbox.cif.g09.slc.cpg/sg19_1_cif.got.tgz:911.got - 2010.04.10 18:59:41.
