data_PCOD8156260
_publ_section_title
;
Structure prediction by ZEFSAII (Michael W. Deem and Ramdas Pophale) SiO2 
 PCOD8156260
Probable space group: P 21 21 2
;
_chemical_formula_sum "Si O2"
_cell_formula_units_Z 24
_cell_length_a 8.900893
_cell_length_b 11.777705
_cell_length_c 11.074304
_cell_angle_alpha 90.000000
_cell_angle_beta 90.000000
_cell_angle_gamma 90.000000
_cell_volume 1160.942456
_symmetry_space_group_name_H-M "P 21 21 2"
_symmetry_group_IT_number 18
_symmetry_cell_setting 'orthorhombic'
loop_
_space_group_symop_operation_xyz
x,y,z
-x,-y,z
1/2+x,1/2-y,-z
1/2-x,1/2+y,-z
loop_
_atom_site_type_symbol
_atom_site_label
_atom_site_fract_x
_atom_site_fract_y
_atom_site_fract_z
Si Si1 0.860439 0.372796 0.903610
Si Si2 0.169717 0.034965 0.402003
Si Si3 0.862232 0.323655 0.175051
Si Si4 0.326753 0.496575 0.321461
Si Si5 0.820478 0.734832 0.264813
Si Si6 0.176484 0.400929 0.796920
O O1 0.741828 0.275776 0.865699
O O2 0.783280 0.496969 0.890086
O O3 0.001126 0.368614 0.810298
O O4 0.912373 0.356956 0.040377
O O5 0.201926 0.039066 0.543480
O O6 0.197364 0.162309 0.357700
O O7 0.283052 0.945402 0.337981
O O8 0.000000 0.000000 0.370888
O O9 0.764303 0.424649 0.229884
O O10 0.772193 0.207575 0.168842
O O11 0.009303 0.307053 0.255154
O O12 0.500000 0.500000 0.284273
O O13 0.277934 0.366947 0.314871
#
# Coordination Sequence:
#
# PCOD8156260 Si02
#       6
#     4   4   4   4   4   4
#     4  10  24  41  68  97 136 172 222 278 333 419
#     4  10  22  46  69  98 132 175 229 284 336 415
#     4  12  24  42  70  98 138 175 227 282 339 406
#     4  11  27  43  66  98 138 177 228 281 341 404
#     4  11  24  44  68 100 135 176 228 280 347 400
#     4  10  22  43  66  95 129 179 220 271 345 395
#
# _framework density 20.672858999999999
#
# number of rings (size 3 to 8) (size 9 to 14) (size 15 to 20)
#    0.000    1.333    1.667    2.500    9.333    0.000 
#   12.000    0.000    0.000    0.000    0.000    0.000 
#    0.000    0.000    0.000    0.000    0.000    0.000 
#
# Total GULP energy -297667.841816 kJ/mol
# GULP energy per Si atom -12402.826742 kJ/mol
# Density = 2.062581 g / cm^3
# Si number density = 20.672859 Si / 1000 Ang^3
#
#
#
# Elastic Constant Matrix: (Units=GPa)
#
#
# Indices 1 2 3 4 5 6 
#
# 1 113.5489 60.9150 43.0651 0.0000 0.0000 0.0000
# 2 60.9150 139.0295 38.7405 0.0000 0.0000 0.0000
# 3 43.0651 38.7405 90.6880 0.0000 0.0000 0.0000
# 4 0.0000 0.0000 0.0000 21.0637 0.0000 0.0000
# 5 0.0000 0.0000 0.0000 0.0000 27.4290 0.0000
# 6 0.0000 0.0000 0.0000 0.0000 0.0000 41.0769
#
#
#
# Elastic Compliance Matrix: (Units=1/GPa)
#
#
# Indices 1 2 3 4 5 6 
#
# 1 0.012765 -0.004431 -0.004169 0.000000 0.000000 0.000000
# 2 -0.004431 0.009703 -0.002041 0.000000 0.000000 0.000000
# 3 -0.004169 -0.002041 0.013878 0.000000 0.000000 0.000000
# 4 0.000000 0.000000 0.000000 0.047475 0.000000 0.000000
# 5 0.000000 0.000000 0.000000 0.000000 0.036458 0.000000
# 6 0.000000 0.000000 0.000000 0.000000 0.000000 0.024345
#
#
# Mechanical properties :
#
#
# Convention : Reuss Voigt Hill
#
# Bulk Modulus (GPa) = 66.38029 69.85639 68.11834
# Shear Modulus (GPa) = 29.25235 31.28366 30.26801
#
# Velocity S-wave (km/s) = 3.76575 3.89430 3.83056
# Velocity P-wave (km/s) = 7.14754 7.35428 7.25165
#
# Compressibility (1/GPa) = 0.01506471
#
# Stress axis : x y z
#
# Youngs Moduli (GPa) = 78.33855 103.06207 72.05564
#
# Poissons Ratio (x) = 0.45670 0.30038
# Poissons Ratio (y) = 0.34714 0.14704
# Poissons Ratio (z) = 0.32658 0.21031
#
# Static dielectric constant tensor:
#      x y z
#    x 3.909710 0.000000 0.000000 
#    y 0.000000 3.949310 0.000000 
#    z 0.000000 0.000000 3.627480 
# 
# 
# High freq. dielectric constant tensor:
#      x y z
#    x 1.815220 0.000000 0.000000 
#    y 0.000000 1.828670 0.000000 
#    z 0.000000 0.000000 1.800500 
# 
# From -- ./inp_files/5508.got.cif
#   From: 2010.03.12/outbox.cif.g09.slc.cpg/sg18_3_cif.got.tgz:5508.got - 2010.04.10 18:53:55.
