data_PCOD8156777
_publ_section_title
;
Structure prediction by ZEFSAII (Michael W. Deem and Ramdas Pophale) SiO2 
 PCOD8156777
Probable space group: P 21 21 21
;
_chemical_formula_sum "Si O2"
_cell_formula_units_Z 24
_cell_length_a 12.231556
_cell_length_b 7.272219
_cell_length_c 10.027146
_cell_angle_alpha 90.000000
_cell_angle_beta 90.000000
_cell_angle_gamma 90.000000
_cell_volume 891.920191
_symmetry_space_group_name_H-M "P 21 21 21"
_symmetry_group_IT_number 19
_symmetry_cell_setting 'orthorhombic'
loop_
_space_group_symop_operation_xyz
x,y,z
1/2-x,-y,1/2+z
1/2+x,1/2-y,-z
-x,1/2+y,1/2-z
loop_
_atom_site_type_symbol
_atom_site_label
_atom_site_fract_x
_atom_site_fract_y
_atom_site_fract_z
Si Si1 0.153976 0.421543 0.407923
Si Si2 0.666026 0.989554 0.884375
Si Si3 0.523879 0.377891 0.288804
Si Si4 0.689912 0.463491 0.490515
Si Si5 0.573068 0.627063 0.004175
Si Si6 0.503900 0.197474 0.031115
O O1 0.199214 0.501536 0.270140
O O2 0.224596 0.501291 0.529099
O O3 0.158848 0.198640 0.405083
O O4 0.027109 0.486886 0.431683
O O5 0.597284 0.805858 0.914021
O O6 0.590427 0.170164 0.912724
O O7 0.649690 0.384486 0.344782
O O8 0.459190 0.196770 0.346204
O O9 0.518081 0.382775 0.124363
O O10 0.459672 0.549325 0.354098
O O11 0.818904 0.502806 0.499361
O O12 0.620332 0.651436 0.520060
#
# Coordination Sequence:
#
# PCOD8156777 Si02
#       6
#     4   4   4   4   4   4
#     4  10  20  36  59  88 113 165 201 254 302 366
#     4  10  21  35  64  84 123 158 210 247 309 364
#     4   8  17  33  61  87 116 160 207 243 308 369
#     4   8  18  36  59  83 123 164 195 252 317 363
#     4   9  18  38  55  85 118 164 192 257 313 363
#     4   9  18  36  58  91 121 165 203 257 307 375
#
# _framework density 26.908235000000001
#
# number of rings (size 3 to 8) (size 9 to 14) (size 15 to 20)
#    1.000    2.000    1.667    0.000    7.000    0.000 
#    3.000    3.333    0.000    0.000    0.000    0.000 
#    0.000    0.000    0.000    0.000    0.000    0.000 
#
# Total GULP energy -297386.988046 kJ/mol
# GULP energy per Si atom -12391.124502 kJ/mol
# Density = 2.684699 g / cm^3
# Si number density = 26.908235 Si / 1000 Ang^3
#
#
#
# Elastic Constant Matrix: (Units=GPa)
#
#
# Indices 1 2 3 4 5 6 
#
# 1 209.7882 19.3720 56.4496 0.0000 0.0000 0.0000
# 2 19.3720 47.3317 18.6508 0.0000 0.0000 0.0000
# 3 56.4496 18.6508 155.3382 0.0000 0.0000 0.0000
# 4 0.0000 0.0000 0.0000 35.2773 0.0000 0.0000
# 5 0.0000 0.0000 0.0000 0.0000 37.5942 0.0000
# 6 0.0000 0.0000 0.0000 0.0000 0.0000 30.9758
#
#
#
# Elastic Compliance Matrix: (Units=1/GPa)
#
#
# Indices 1 2 3 4 5 6 
#
# 1 0.005383 -0.001504 -0.001776 0.000000 0.000000 0.000000
# 2 -0.001504 0.022597 -0.002167 0.000000 0.000000 0.000000
# 3 -0.001776 -0.002167 0.007343 0.000000 0.000000 0.000000
# 4 0.000000 0.000000 0.000000 0.028347 0.000000 0.000000
# 5 0.000000 0.000000 0.000000 0.000000 0.026600 0.000000
# 6 0.000000 0.000000 0.000000 0.000000 0.000000 0.032283
#
#
# Mechanical properties :
#
#
# Convention : Reuss Voigt Hill
#
# Bulk Modulus (GPa) = 40.93168 66.82254 53.87711
# Shear Modulus (GPa) = 35.31353 41.96850 38.64101
#
# Velocity S-wave (km/s) = 3.62659 3.95358 3.79361
# Velocity P-wave (km/s) = 5.72546 6.76228 6.26535
#
# Compressibility (1/GPa) = 0.02443096
#
# Stress axis : x y z
#
# Youngs Moduli (GPa) = 185.75688 44.25435 136.18364
#
# Poissons Ratio (x) = 0.06654 0.24183
# Poissons Ratio (y) = 0.27930 0.29507
# Poissons Ratio (z) = 0.32986 0.09589
#
# Static dielectric constant tensor:
#      x y z
#    x 4.846540 0.000000 0.000000 
#    y 0.000000 5.238700 0.000000 
#    z 0.000000 0.000000 4.629370 
# 
# 
# High freq. dielectric constant tensor:
#      x y z
#    x 2.074170 0.000000 0.000000 
#    y 0.000000 2.108050 0.000000 
#    z 0.000000 0.000000 2.061200 
# 
# From -- ./inp_files/3365.got.cif
#   From: 2010.03.12/outbox.cif.g09.slc.cpg/sg19_2_cif.got.tgz:3365.got - 2010.04.10 18:59:41.
