data_PCOD8156898
_publ_section_title
;
Structure prediction by ZEFSAII (Michael W. Deem and Ramdas Pophale) SiO2 
 PCOD8156898
Probable space group: P 21 21 21
;
_chemical_formula_sum "Si O2"
_cell_formula_units_Z 28
_cell_length_a 5.033691
_cell_length_b 9.624517
_cell_length_c 27.097578
_cell_angle_alpha 90.000000
_cell_angle_beta 90.000000
_cell_angle_gamma 90.000000
_cell_volume 1312.792150
_symmetry_space_group_name_H-M "P 21 21 21"
_symmetry_group_IT_number 19
_symmetry_cell_setting 'orthorhombic'
loop_
_space_group_symop_operation_xyz
x,y,z
1/2-x,-y,1/2+z
1/2+x,1/2-y,-z
-x,1/2+y,1/2-z
loop_
_atom_site_type_symbol
_atom_site_label
_atom_site_fract_x
_atom_site_fract_y
_atom_site_fract_z
Si Si1 0.603464 0.424345 0.130263
Si Si2 0.108176 0.745080 0.242902
Si Si3 0.475694 0.188308 0.561311
Si Si4 0.448335 0.646154 0.324506
Si Si5 0.056445 0.964958 0.160591
Si Si6 0.477430 0.131248 0.451045
Si Si7 0.102417 0.469079 0.190971
O O1 0.575203 0.256933 0.130465
O O2 0.558818 0.482589 0.075350
O O3 0.394168 0.492752 0.168832
O O4 0.896820 0.469118 0.146105
O O5 0.386396 0.728728 0.273148
O O6 0.139256 0.831581 0.192808
O O7 0.013840 0.590198 0.228854
O O8 0.901895 0.822975 0.279379
O O9 0.417726 0.076625 0.603592
O O10 0.449670 0.106526 0.509515
O O11 0.765202 0.255589 0.568216
O O12 0.265909 0.312783 0.563157
O O13 0.745474 0.588989 0.325396
O O14 0.241188 0.519352 0.330167
#
# Coordination Sequence:
#
# PCOD8156898 Si02
#       7
#     4   4   4   4   4   4   4
#     4  11  23  41  62  89 125 164 208 253 319 369
#     4  11  24  42  60  88 123 170 207 262 305 372
#     4  10  22  39  67  97 123 159 209 265 318 370
#     4  11  26  39  59  89 126 166 209 260 302 392
#     4  12  24  42  62  89 129 164 211 259 322 363
#     4  10  20  41  66  96 124 157 211 265 313 380
#     4  11  25  38  64  88 124 162 217 248 317 368
#
# _framework density 21.328586000000001
#
# number of rings (size 3 to 8) (size 9 to 14) (size 15 to 20)
#    0.000    1.143    1.429    5.143    4.000    3.429 
#    0.000    1.429    0.000    0.000    0.000    0.000 
#    0.000    0.000    0.000    0.000    0.000    0.000 
#
# Total GULP energy -347233.189899 kJ/mol
# GULP energy per Si atom -12401.185354 kJ/mol
# Density = 2.128004 g / cm^3
# Si number density = 21.328586 Si / 1000 Ang^3
#
#
#
# Elastic Constant Matrix: (Units=GPa)
#
#
# Indices 1 2 3 4 5 6 
#
# 1 69.8238 8.1145 13.7916 0.0000 0.0000 0.0000
# 2 8.1145 84.4751 35.7571 0.0000 0.0000 0.0000
# 3 13.7916 35.7571 104.7977 0.0000 0.0000 0.0000
# 4 0.0000 0.0000 0.0000 38.0616 0.0000 0.0000
# 5 0.0000 0.0000 0.0000 0.0000 22.5070 0.0000
# 6 0.0000 0.0000 0.0000 0.0000 0.0000 28.7477
#
#
#
# Elastic Compliance Matrix: (Units=1/GPa)
#
#
# Indices 1 2 3 4 5 6 
#
# 1 0.014739 -0.000695 -0.001702 0.000000 0.000000 0.000000
# 2 -0.000695 0.013869 -0.004641 0.000000 0.000000 0.000000
# 3 -0.001702 -0.004641 0.011350 0.000000 0.000000 0.000000
# 4 0.000000 0.000000 0.000000 0.026273 0.000000 0.000000
# 5 0.000000 0.000000 0.000000 0.000000 0.044431 0.000000
# 6 0.000000 0.000000 0.000000 0.000000 0.000000 0.034785
#
#
# Mechanical properties :
#
#
# Convention : Reuss Voigt Hill
#
# Bulk Modulus (GPa) = 38.63856 41.60256 40.12056
# Shear Modulus (GPa) = 29.73537 31.29216 30.51377
#
# Velocity S-wave (km/s) = 3.73789 3.83449 3.78650
# Velocity P-wave (km/s) = 6.06500 6.25718 6.16184
#
# Compressibility (1/GPa) = 0.02588088
#
# Stress axis : x y z
#
# Youngs Moduli (GPa) = 67.84803 72.10388 88.10867
#
# Poissons Ratio (x) = 0.05012 0.15000
# Poissons Ratio (y) = 0.04716 0.40888
# Poissons Ratio (z) = 0.11551 0.33460
#
# Static dielectric constant tensor:
#      x y z
#    x 3.807410 0.000000 0.000000 
#    y 0.000000 3.829310 0.000000 
#    z 0.000000 0.000000 3.869870 
# 
# 
# High freq. dielectric constant tensor:
#      x y z
#    x 1.846470 0.000000 0.000000 
#    y 0.000000 1.832110 0.000000 
#    z 0.000000 0.000000 1.827310 
# 
# From -- ./inp_files/7445.got.cif
#   From: 2010.03.12/outbox.cif.g09.slc.cpg/sg19_4_cif.got.tgz:7445.got - 2010.04.10 18:59:41.
