data_PCOD8156210
_publ_section_title
;
Structure prediction by ZEFSAII (Michael W. Deem and Ramdas Pophale) SiO2 
 PCOD8156210
Probable space group: P 21 21 2
;
_chemical_formula_sum "Si O2"
_cell_formula_units_Z 18
_cell_length_a 17.318122
_cell_length_b 5.120175
_cell_length_c 9.946719
_cell_angle_alpha 90.000000
_cell_angle_beta 90.000000
_cell_angle_gamma 90.000000
_cell_volume 881.993630
_symmetry_space_group_name_H-M "P 21 21 2"
_symmetry_group_IT_number 18
_symmetry_cell_setting 'orthorhombic'
loop_
_space_group_symop_operation_xyz
x,y,z
-x,-y,z
1/2+x,1/2-y,-z
1/2-x,1/2+y,-z
loop_
_atom_site_type_symbol
_atom_site_label
_atom_site_fract_x
_atom_site_fract_y
_atom_site_fract_z
Si Si1 0.647931 0.671113 0.499274
Si Si2 0.205170 0.340325 0.961805
Si Si3 0.697995 0.170545 0.349192
Si Si4 0.544282 0.255499 0.909604
Si Si5 0.500000 0.500000 0.650595
O O1 0.664844 0.452833 0.387312
O O2 0.710920 0.649469 0.618372
O O3 0.562960 0.640442 0.558647
O O4 0.650646 0.953669 0.430883
O O5 0.184194 0.378673 0.806986
O O6 0.230416 0.617452 0.022791
O O7 0.132158 0.245922 0.046076
O O8 0.500000 0.500000 0.978138
O O9 0.541464 0.284357 0.746644
O O10 0.500000 0.000000 0.959003
#
# Coordination Sequence:
#
# PCOD8156210 Si02
#       5
#     4   4   4   4   2
#     4  10  22  40  64  89 129 163 211 263 313 385
#     4  12  24  42  71  97 127 175 218 268 329 391
#     4  10  23  41  61  95 126 165 210 263 318 378
#     4  10  24  41  63  98 130 167 214 274 319 388
#     4  10  24  40  70  92 124 172 218 258 330 382
#
# _framework density 20.408311000000001
#
# number of rings (size 3 to 8) (size 9 to 14) (size 15 to 20)
#    0.667    0.889    0.000    4.000    6.222    1.778 
#    6.000    0.000    0.000    0.000    0.000    0.000 
#    0.000    0.000    0.000    0.000    0.000    0.000 
#
# Total GULP energy -223261.385386 kJ/mol
# GULP energy per Si atom -12403.410299 kJ/mol
# Density = 2.036186 g / cm^3
# Si number density = 20.408311 Si / 1000 Ang^3
#
#
#
# Elastic Constant Matrix: (Units=GPa)
#
#
# Indices 1 2 3 4 5 6 
#
# 1 99.6817 2.6638 43.8204 0.0000 0.0000 0.0000
# 2 2.6638 90.7876 6.1764 0.0000 0.0000 0.0000
# 3 43.8204 6.1764 97.8643 0.0000 0.0000 0.0000
# 4 0.0000 0.0000 0.0000 19.7711 0.0000 0.0000
# 5 0.0000 0.0000 0.0000 0.0000 31.1672 0.0000
# 6 0.0000 0.0000 0.0000 0.0000 0.0000 32.7666
#
#
#
# Elastic Compliance Matrix: (Units=1/GPa)
#
#
# Indices 1 2 3 4 5 6 
#
# 1 0.012491 0.000014 -0.005594 0.000000 0.000000 0.000000
# 2 0.000014 0.011062 -0.000704 0.000000 0.000000 0.000000
# 3 -0.005594 -0.000704 0.012767 0.000000 0.000000 0.000000
# 4 0.000000 0.000000 0.000000 0.050579 0.000000 0.000000
# 5 0.000000 0.000000 0.000000 0.000000 0.032085 0.000000
# 6 0.000000 0.000000 0.000000 0.000000 0.000000 0.030519
#
#
# Mechanical properties :
#
#
# Convention : Reuss Voigt Hill
#
# Bulk Modulus (GPa) = 42.10189 43.73943 42.92066
# Shear Modulus (GPa) = 29.41372 32.45250 30.93311
#
# Velocity S-wave (km/s) = 3.80051 3.99201 3.89744
# Velocity P-wave (km/s) = 6.31926 6.53658 6.42884
#
# Compressibility (1/GPa) = 0.02375190
#
# Stress axis : x y z
#
# Youngs Moduli (GPa) = 80.06025 90.39766 78.32455
#
# Poissons Ratio (x) = -0.00127 0.43813
# Poissons Ratio (y) = -0.00113 0.05518
# Poissons Ratio (z) = 0.44784 0.06368
#
# Static dielectric constant tensor:
#      x y z
#    x 3.555850 0.000000 0.000000 
#    y 0.000000 3.835880 0.000000 
#    z 0.000000 0.000000 3.471420 
# 
# 
# High freq. dielectric constant tensor:
#      x y z
#    x 1.794140 0.000000 0.000000 
#    y 0.000000 1.814610 0.000000 
#    z 0.000000 0.000000 1.787140 
# 
# From -- ./inp_files/4410.got.cif
#   From: 2010.03.12/outbox.cif.g09.slc.cpg/sg18_3_cif.got.tgz:4410.got - 2010.04.10 18:53:55.
