data_PCOD8156227
_publ_section_title
;
Structure prediction by ZEFSAII (Michael W. Deem and Ramdas Pophale) SiO2 
 PCOD8156227
Probable space group: P 21 21 2
;
_chemical_formula_sum "Si O2"
_cell_formula_units_Z 18
_cell_length_a 9.222958
_cell_length_b 11.044999
_cell_length_c 8.327477
_cell_angle_alpha 90.000000
_cell_angle_beta 90.000000
_cell_angle_gamma 90.000000
_cell_volume 848.299779
_symmetry_space_group_name_H-M "P 21 21 2"
_symmetry_group_IT_number 18
_symmetry_cell_setting 'orthorhombic'
loop_
_space_group_symop_operation_xyz
x,y,z
-x,-y,z
1/2+x,1/2-y,-z
1/2-x,1/2+y,-z
loop_
_atom_site_type_symbol
_atom_site_label
_atom_site_fract_x
_atom_site_fract_y
_atom_site_fract_z
Si Si1 0.149196 0.700284 0.166035
Si Si2 0.019027 0.866249 0.612703
Si Si3 0.500000 0.000000 0.607155
Si Si4 0.057082 0.129640 0.976900
Si Si5 0.202320 0.319558 0.550880
O O1 0.266621 0.643773 0.038273
O O2 0.231596 0.805084 0.269485
O O3 0.087460 0.594357 0.280666
O O4 0.011597 0.761285 0.079842
O O5 0.174376 0.809986 0.581008
O O6 0.005553 0.857523 0.800779
O O7 0.901113 0.792556 0.513306
O O8 0.000000 0.000000 0.543953
O O9 0.613960 0.057837 0.482157
O O10 0.000000 0.000000 0.046268
#
# Coordination Sequence:
#
# PCOD8156227 Si02
#       5
#     4   4   2   4   4
#     4  11  26  45  73 102 134 188 223 289 348 406
#     4  10  22  41  68  94 138 170 224 277 336 404
#     4  12  24  46  74  98 142 176 236 288 340 406
#     4  10  24  46  66 102 136 179 229 277 350 406
#     4  11  22  43  69 101 127 185 220 278 344 397
#
# _framework density 21.218914000000002
#
# number of rings (size 3 to 8) (size 9 to 14) (size 15 to 20)
#    0.000    1.333    2.222    4.000    6.222    0.889 
#   12.000    0.000    0.000    0.000    0.000    0.000 
#    0.000    0.000    0.000    0.000    0.000    0.000 
#
# Total GULP energy -223056.344086 kJ/mol
# GULP energy per Si atom -12392.019116 kJ/mol
# Density = 2.117062 g / cm^3
# Si number density = 21.218914 Si / 1000 Ang^3
#
#
#
# Elastic Constant Matrix: (Units=GPa)
#
#
# Indices 1 2 3 4 5 6 
#
# 1 130.5049 53.9646 43.7112 0.0000 0.0000 0.0000
# 2 53.9646 124.3477 54.9411 0.0000 0.0000 0.0000
# 3 43.7112 54.9411 35.0336 0.0000 0.0000 0.0000
# 4 0.0000 0.0000 0.0000 38.1997 0.0000 0.0000
# 5 0.0000 0.0000 0.0000 0.0000 60.8778 0.0000
# 6 0.0000 0.0000 0.0000 0.0000 0.0000 43.7612
#
#
#
# Elastic Compliance Matrix: (Units=1/GPa)
#
#
# Indices 1 2 3 4 5 6 
#
# 1 0.014205 0.005426 -0.026232 0.000000 0.000000 0.000000
# 2 0.005426 0.028259 -0.051087 0.000000 0.000000 0.000000
# 3 -0.026232 -0.051087 0.141390 0.000000 0.000000 0.000000
# 4 0.000000 0.000000 0.000000 0.026178 0.000000 0.000000
# 5 0.000000 0.000000 0.000000 0.000000 0.016426 0.000000
# 6 0.000000 0.000000 0.000000 0.000000 0.000000 0.022851
#
#
# Mechanical properties :
#
#
# Convention : Reuss Voigt Hill
#
# Bulk Modulus (GPa) = 24.95785 66.12445 45.54115
# Shear Modulus (GPa) = 12.30155 37.71901 25.01028
#
# Velocity S-wave (km/s) = 2.41040 4.22075 3.43691
# Velocity P-wave (km/s) = 4.41976 7.41509 6.10401
#
# Compressibility (1/GPa) = 0.04006755
#
# Stress axis : x y z
#
# Youngs Moduli (GPa) = 70.39618 35.38675 7.07264
#
# Poissons Ratio (x) = -0.19199 0.18553
# Poissons Ratio (y) = -0.38194 0.36132
# Poissons Ratio (z) = 1.84666 1.80779
#
# Static dielectric constant tensor:
#      x y z
#    x 4.624820 0.000000 0.000000 
#    y 0.000000 4.156860 0.000000 
#    z 0.000000 0.000000 3.663440 
# 
# 
# High freq. dielectric constant tensor:
#      x y z
#    x 1.855710 0.000000 0.000000 
#    y 0.000000 1.834780 0.000000 
#    z 0.000000 0.000000 1.811160 
# 
# From -- ./inp_files/2886.got.cif
#   From: 2010.03.12/outbox.cif.g09.slc.cpg/sg18_2_cif.got.tgz:2886.got - 2010.04.10 18:53:55.
