data_PCOD8156900
_publ_section_title
;
Structure prediction by ZEFSAII (Michael W. Deem and Ramdas Pophale) SiO2 
 PCOD8156900
Probable space group: P 21 21 21
;
_chemical_formula_sum "Si O2"
_cell_formula_units_Z 32
_cell_length_a 11.311067
_cell_length_b 9.911547
_cell_length_c 12.978932
_cell_angle_alpha 90.000000
_cell_angle_beta 90.000000
_cell_angle_gamma 90.000000
_cell_volume 1455.070301
_symmetry_space_group_name_H-M "P 21 21 21"
_symmetry_group_IT_number 19
_symmetry_cell_setting 'orthorhombic'
loop_
_space_group_symop_operation_xyz
x,y,z
1/2-x,-y,1/2+z
1/2+x,1/2-y,-z
-x,1/2+y,1/2-z
loop_
_atom_site_type_symbol
_atom_site_label
_atom_site_fract_x
_atom_site_fract_y
_atom_site_fract_z
Si Si1 0.382643 0.849390 0.655910
Si Si2 0.979372 0.368004 0.032332
Si Si3 0.013786 0.631889 0.148543
Si Si4 0.726530 0.134112 0.336340
Si Si5 0.280492 0.962463 0.461326
Si Si6 0.808722 0.155828 0.758835
Si Si7 0.436730 0.774222 0.330104
Si Si8 0.196367 0.265923 0.438971
O O1 0.476155 0.740418 0.614484
O O2 0.446809 0.926510 0.750139
O O3 0.349365 0.957851 0.569667
O O4 0.261353 0.781974 0.694271
O O5 0.836873 0.369918 0.032203
O O6 0.028049 0.515011 0.063244
O O7 0.029733 0.330892 0.919919
O O8 0.141325 0.691893 0.177031
O O9 0.937179 0.755932 0.103942
O O10 0.642027 0.199276 0.253114
O O11 0.682893 0.165428 0.451008
O O12 0.731869 0.974318 0.321788
O O13 0.365599 0.903375 0.372802
O O14 0.252655 0.116921 0.439540
O O15 0.776121 0.142493 0.637316
O O16 0.948318 0.173138 0.771137
#
# Coordination Sequence:
#
# PCOD8156900 Si02
#       8
#     4   4   4   4   4   4   4   4
#     4  10  20  41  68  99 137 185 230 286 343 407
#     4  10  20  42  67  96 138 178 235 280 348 406
#     4  10  23  43  67  99 138 183 230 292 337 414
#     4  12  27  45  73 101 136 188 235 281 359 420
#     4  10  22  43  70 102 137 183 231 286 344 415
#     4  11  25  46  66 100 145 178 227 291 349 414
#     4  11  26  41  73 105 138 189 230 287 350 423
#     4  10  27  45  70 102 139 178 232 299 346 413
#
# _framework density 21.992063999999999
#
# number of rings (size 3 to 8) (size 9 to 14) (size 15 to 20)
#    0.000    1.500    2.500    0.750    5.250    5.000 
#    4.500    0.000    0.000    0.000    0.000    0.000 
#    0.000    0.000    0.000    0.000    0.000    0.000 
#
# Total GULP energy -396887.378038 kJ/mol
# GULP energy per Si atom -12402.730564 kJ/mol
# Density = 2.194201 g / cm^3
# Si number density = 21.992064 Si / 1000 Ang^3
#
#
#
# Elastic Constant Matrix: (Units=GPa)
#
#
# Indices 1 2 3 4 5 6 
#
# 1 155.8662 30.4112 60.9973 0.0000 0.0000 0.0000
# 2 30.4112 58.9784 38.9757 0.0000 0.0000 0.0000
# 3 60.9973 38.9757 141.4199 0.0000 0.0000 0.0000
# 4 0.0000 0.0000 0.0000 30.5128 0.0000 0.0000
# 5 0.0000 0.0000 0.0000 0.0000 35.4366 0.0000
# 6 0.0000 0.0000 0.0000 0.0000 0.0000 20.3215
#
#
#
# Elastic Compliance Matrix: (Units=1/GPa)
#
#
# Indices 1 2 3 4 5 6 
#
# 1 0.007954 -0.002243 -0.002813 0.000000 0.000000 0.000000
# 2 -0.002243 0.021363 -0.004921 0.000000 0.000000 0.000000
# 3 -0.002813 -0.004921 0.009640 0.000000 0.000000 0.000000
# 4 0.000000 0.000000 0.000000 0.032773 0.000000 0.000000
# 5 0.000000 0.000000 0.000000 0.000000 0.028219 0.000000
# 6 0.000000 0.000000 0.000000 0.000000 0.000000 0.049209
#
#
# Mechanical properties :
#
#
# Convention : Reuss Voigt Hill
#
# Bulk Modulus (GPa) = 52.61426 68.55920 60.58673
# Shear Modulus (GPa) = 28.49872 32.31286 30.40579
#
# Velocity S-wave (km/s) = 3.60372 3.83730 3.72234
# Velocity P-wave (km/s) = 6.42587 7.13270 6.78849
#
# Compressibility (1/GPa) = 0.01900626
#
# Stress axis : x y z
#
# Youngs Moduli (GPa) = 125.72233 46.80891 103.72993
#
# Poissons Ratio (x) = 0.10497 0.29176
# Poissons Ratio (y) = 0.28195 0.51041
# Poissons Ratio (z) = 0.35361 0.23033
#
# Static dielectric constant tensor:
#      x y z
#    x 4.216370 0.000000 0.000000 
#    y 0.000000 3.658680 0.000000 
#    z 0.000000 0.000000 4.178400 
# 
# 
# High freq. dielectric constant tensor:
#      x y z
#    x 1.882520 0.000000 0.000000 
#    y 0.000000 1.842580 0.000000 
#    z 0.000000 0.000000 1.879680 
# 
# From -- ./inp_files/6124.got.cif
#   From: 2010.03.12/outbox.cif.g09.slc.cpg/sg19_4_cif.got.tgz:6124.got - 2010.04.10 18:59:41.
