data_PCOD8156781
_publ_section_title
;
Structure prediction by ZEFSAII (Michael W. Deem and Ramdas Pophale) SiO2 
 PCOD8156781
Probable space group: P 21 21 21
;
_chemical_formula_sum "Si O2"
_cell_formula_units_Z 32
_cell_length_a 9.262058
_cell_length_b 16.338158
_cell_length_c 10.951000
_cell_angle_alpha 90.000000
_cell_angle_beta 90.000000
_cell_angle_gamma 90.000000
_cell_volume 1657.159714
_symmetry_space_group_name_H-M "P 21 21 21"
_symmetry_group_IT_number 19
_symmetry_cell_setting 'orthorhombic'
loop_
_space_group_symop_operation_xyz
x,y,z
1/2-x,-y,1/2+z
1/2+x,1/2-y,-z
-x,1/2+y,1/2-z
loop_
_atom_site_type_symbol
_atom_site_label
_atom_site_fract_x
_atom_site_fract_y
_atom_site_fract_z
Si Si1 0.382948 0.383633 0.324380
Si Si2 0.144919 0.094476 0.501150
Si Si3 0.977370 0.955798 0.369326
Si Si4 0.591677 0.224962 0.919468
Si Si5 0.536058 0.594966 0.907104
Si Si6 0.109470 0.660999 0.552947
Si Si7 0.214195 0.501156 0.482114
Si Si8 0.870320 0.755896 0.150372
O O1 0.533536 0.377387 0.395171
O O2 0.417392 0.385639 0.181002
O O3 0.302308 0.466885 0.365252
O O4 0.279228 0.306751 0.353224
O O5 0.298852 0.077250 0.562414
O O6 0.158027 0.168880 0.408203
O O7 0.101210 0.012079 0.428982
O O8 0.978205 0.865735 0.431753
O O9 0.998010 0.945434 0.224723
O O10 0.820976 0.996951 0.399542
O O11 0.761827 0.225642 0.942309
O O12 0.568782 0.260925 0.785085
O O13 0.530571 0.288342 0.017186
O O14 0.498936 0.691628 0.912620
O O15 0.428294 0.553958 0.006436
O O16 0.153732 0.592096 0.453771
#
# Coordination Sequence:
#
# PCOD8156781 Si02
#       8
#     4   4   4   4   4   4   4   4
#     4   9  20  38  56  83 123 153 193 253 299 355
#     4  11  21  35  62  87 121 158 193 250 301 351
#     4   9  21  40  55  84 123 153 197 249 293 357
#     4   9  20  37  56  84 114 153 199 250 295 356
#     4  10  21  36  60  90 120 152 201 251 295 354
#     4  10  20  36  62  82 116 157 199 245 302 357
#     4   9  18  36  61  79 110 160 193 234 301 354
#     4   9  19  38  58  81 117 156 199 242 300 366
#
# _framework density 19.310148000000002
#
# number of rings (size 3 to 8) (size 9 to 14) (size 15 to 20)
#    0.000    2.500    0.000    3.000    1.750    4.000 
#    2.250    0.000   33.000    0.000    0.000    0.000 
#    0.000    0.000    0.000    0.000    0.000    0.000 
#
# Total GULP energy -396550.936048 kJ/mol
# GULP energy per Si atom -12392.216751 kJ/mol
# Density = 1.926620 g / cm^3
# Si number density = 19.310148 Si / 1000 Ang^3
#
#
#
# Elastic Constant Matrix: (Units=GPa)
#
#
# Indices 1 2 3 4 5 6 
#
# 1 100.6708 31.3348 42.3513 0.0000 0.0000 0.0000
# 2 31.3348 73.5381 58.7762 0.0000 0.0000 0.0000
# 3 42.3513 58.7762 85.7823 0.0000 0.0000 0.0000
# 4 0.0000 0.0000 0.0000 30.1620 0.0000 0.0000
# 5 0.0000 0.0000 0.0000 0.0000 26.6938 0.0000
# 6 0.0000 0.0000 0.0000 0.0000 0.0000 28.8513
#
#
#
# Elastic Compliance Matrix: (Units=1/GPa)
#
#
# Indices 1 2 3 4 5 6 
#
# 1 0.012563 -0.000875 -0.005603 0.000000 0.000000 0.000000
# 2 -0.000875 0.030122 -0.020207 0.000000 0.000000 0.000000
# 3 -0.005603 -0.020207 0.028269 0.000000 0.000000 0.000000
# 4 0.000000 0.000000 0.000000 0.033154 0.000000 0.000000
# 5 0.000000 0.000000 0.000000 0.000000 0.037462 0.000000
# 6 0.000000 0.000000 0.000000 0.000000 0.000000 0.034660
#
#
# Mechanical properties :
#
#
# Convention : Reuss Voigt Hill
#
# Bulk Modulus (GPa) = 56.86919 58.32397 57.59658
# Shear Modulus (GPa) = 21.23494 25.64334 23.43914
#
# Velocity S-wave (km/s) = 3.31974 3.64809 3.48778
# Velocity P-wave (km/s) = 6.64895 6.92922 6.79053
#
# Compressibility (1/GPa) = 0.01758422
#
# Stress axis : x y z
#
# Youngs Moduli (GPa) = 79.60035 33.19855 35.37447
#
# Poissons Ratio (x) = 0.02904 0.19820
# Poissons Ratio (y) = 0.06964 0.71481
# Poissons Ratio (z) = 0.44599 0.67084
#
# Static dielectric constant tensor:
#      x y z
#    x 3.571390 0.000000 0.000000 
#    y 0.000000 3.528740 0.000000 
#    z 0.000000 0.000000 3.463560 
# 
# 
# High freq. dielectric constant tensor:
#      x y z
#    x 1.754490 0.000000 0.000000 
#    y 0.000000 1.748980 0.000000 
#    z 0.000000 0.000000 1.736110 
# 
# From -- ./inp_files/4233.got.cif
#   From: 2010.03.12/outbox.cif.g09.slc.cpg/sg19_3_cif.got.tgz:4233.got - 2010.04.10 18:59:41.
