data_PCOD8156990
_publ_section_title
;
Structure prediction by ZEFSAII (Michael W. Deem and Ramdas Pophale) SiO2 
 PCOD8156990
Probable space group: P 21 21 21
;
_chemical_formula_sum "Si O2"
_cell_formula_units_Z 32
_cell_length_a 11.947417
_cell_length_b 11.293503
_cell_length_c 10.319502
_cell_angle_alpha 90.000000
_cell_angle_beta 90.000000
_cell_angle_gamma 90.000000
_cell_volume 1392.391724
_symmetry_space_group_name_H-M "P 21 21 21"
_symmetry_group_IT_number 19
_symmetry_cell_setting 'orthorhombic'
loop_
_space_group_symop_operation_xyz
x,y,z
1/2-x,-y,1/2+z
1/2+x,1/2-y,-z
-x,1/2+y,1/2-z
loop_
_atom_site_type_symbol
_atom_site_label
_atom_site_fract_x
_atom_site_fract_y
_atom_site_fract_z
Si Si1 0.478134 0.420753 0.370120
Si Si2 0.811901 0.512431 0.362352
Si Si3 0.486358 0.580910 0.761106
Si Si4 0.312540 0.774444 0.815607
Si Si5 0.188656 0.214829 0.608763
Si Si6 0.189022 0.555427 0.098762
Si Si7 0.353117 0.358182 0.132708
Si Si8 0.117252 0.877634 0.497833
O O1 0.554779 0.302214 0.382501
O O2 0.373703 0.405918 0.467925
O O3 0.444330 0.429461 0.218397
O O4 0.544188 0.540723 0.405838
O O5 0.942502 0.471370 0.384640
O O6 0.828292 0.594560 0.237474
O O7 0.744436 0.395790 0.317820
O O8 0.748693 0.582909 0.479684
O O9 0.428472 0.701559 0.806954
O O10 0.395248 0.486755 0.710878
O O11 0.576663 0.608609 0.648309
O O12 0.215230 0.710966 0.740454
O O13 0.272962 0.791393 0.960753
O O14 0.236654 0.338984 0.662464
O O15 0.273908 0.450317 0.056549
O O16 0.402514 0.260777 0.033925
#
# Coordination Sequence:
#
# PCOD8156990 Si02
#       8
#     4   4   4   4   4   4   4   4
#     4  10  21  40  64  89 135 171 213 284 332 390
#     4  10  21  38  66  91 127 173 218 276 325 393
#     4  10  22  41  67  95 136 179 220 275 337 395
#     4  10  21  41  64  94 129 176 222 269 330 401
#     4  11  23  40  66 101 129 168 228 275 332 403
#     4  10  22  42  63  95 132 171 223 272 323 414
#     4  10  21  40  63  90 131 172 216 275 335 394
#     4   9  21  42  59  93 135 170 220 276 330 402
#
# _framework density 22.982036999999998
#
# number of rings (size 3 to 8) (size 9 to 14) (size 15 to 20)
#    0.000    2.000    1.250    2.250    5.250    0.000 
#    4.500   10.000    0.000    0.000    0.000    0.000 
#    0.000    0.000    0.000    0.000    0.000    0.000 
#
# Total GULP energy -396525.584895 kJ/mol
# GULP energy per Si atom -12391.424528 kJ/mol
# Density = 2.292973 g / cm^3
# Si number density = 22.982037 Si / 1000 Ang^3
#
#
#
# Elastic Constant Matrix: (Units=GPa)
#
#
# Indices 1 2 3 4 5 6 
#
# 1 92.2818 53.3915 27.6578 0.0000 0.0000 0.0000
# 2 53.3915 125.9984 23.3565 0.0000 0.0000 0.0000
# 3 27.6578 23.3565 38.4584 0.0000 0.0000 0.0000
# 4 0.0000 0.0000 0.0000 9.9075 0.0000 0.0000
# 5 0.0000 0.0000 0.0000 0.0000 25.1677 0.0000
# 6 0.0000 0.0000 0.0000 0.0000 0.0000 43.8782
#
#
#
# Elastic Compliance Matrix: (Units=1/GPa)
#
#
# Indices 1 2 3 4 5 6 
#
# 1 0.016552 -0.005417 -0.008614 0.000000 0.000000 0.000000
# 2 -0.005417 0.010716 -0.002612 0.000000 0.000000 0.000000
# 3 -0.008614 -0.002612 0.033783 0.000000 0.000000 0.000000
# 4 0.000000 0.000000 0.000000 0.100934 0.000000 0.000000
# 5 0.000000 0.000000 0.000000 0.000000 0.039734 0.000000
# 6 0.000000 0.000000 0.000000 0.000000 0.000000 0.022790
#
#
# Mechanical properties :
#
#
# Convention : Reuss Voigt Hill
#
# Bulk Modulus (GPa) = 36.01626 51.72780 43.87203
# Shear Modulus (GPa) = 18.72299 25.94619 22.33459
#
# Velocity S-wave (km/s) = 2.85736 3.36367 3.12080
# Velocity P-wave (km/s) = 5.15669 6.13535 5.66718
#
# Compressibility (1/GPa) = 0.02776524
#
# Stress axis : x y z
#
# Youngs Moduli (GPa) = 60.41470 93.31486 29.60034
#
# Poissons Ratio (x) = 0.50551 0.25497
# Poissons Ratio (y) = 0.32728 0.07733
# Poissons Ratio (z) = 0.52040 0.24378
#
# Static dielectric constant tensor:
#      x y z
#    x 4.448630 0.000000 0.000000 
#    y 0.000000 4.549480 0.000000 
#    z 0.000000 0.000000 3.740130 
# 
# 
# High freq. dielectric constant tensor:
#      x y z
#    x 1.913700 0.000000 0.000000 
#    y 0.000000 1.918980 0.000000 
#    z 0.000000 0.000000 1.872800 
# 
# From -- ./inp_files/5066.got.cif
#   From: 2010.03.12/outbox.cif.g09.slc.cpg/sg19_3_cif.got.tgz:5066.got - 2010.04.10 18:59:41.
