data_PCOD8156989
_publ_section_title
;
Structure prediction by ZEFSAII (Michael W. Deem and Ramdas Pophale) SiO2 
 PCOD8156989
Probable space group: P 21 21 21
;
_chemical_formula_sum "Si O2"
_cell_formula_units_Z 32
_cell_length_a 8.758466
_cell_length_b 20.918307
_cell_length_c 8.625044
_cell_angle_alpha 90.000000
_cell_angle_beta 90.000000
_cell_angle_gamma 90.000000
_cell_volume 1580.213982
_symmetry_space_group_name_H-M "P 21 21 21"
_symmetry_group_IT_number 19
_symmetry_cell_setting 'orthorhombic'
loop_
_space_group_symop_operation_xyz
x,y,z
1/2-x,-y,1/2+z
1/2+x,1/2-y,-z
-x,1/2+y,1/2-z
loop_
_atom_site_type_symbol
_atom_site_label
_atom_site_fract_x
_atom_site_fract_y
_atom_site_fract_z
Si Si1 0.983198 0.179418 0.304852
Si Si2 0.229052 0.380618 0.485722
Si Si3 0.444042 0.320102 0.033006
Si Si4 0.768431 0.621217 0.010062
Si Si5 0.917706 0.819994 0.534754
Si Si6 0.483674 0.428663 0.291752
Si Si7 0.490054 0.074294 0.291826
Si Si8 0.982992 0.322267 0.295709
O O1 0.842941 0.144038 0.383984
O O2 0.925452 0.250709 0.287141
O O3 0.136724 0.178082 0.407665
O O4 0.014543 0.154326 0.129886
O O5 0.315171 0.424200 0.361895
O O6 0.101625 0.423915 0.562471
O O7 0.142169 0.324673 0.391161
O O8 0.515028 0.250459 0.081642
O O9 0.494884 0.373549 0.159231
O O10 0.261881 0.313729 0.005335
O O11 0.682233 0.587105 0.152085
O O12 0.891957 0.577493 0.926846
O O13 0.651903 0.640692 0.877924
O O14 0.955121 0.872949 0.665717
O O15 0.997665 0.847385 0.379615
O O16 0.505401 0.500963 0.247871
#
# Coordination Sequence:
#
# PCOD8156989 Si02
#       8
#     4   4   4   4   4   4   4   4
#     4  10  21  38  65  95 132 170 217 272 339 394
#     4  10  21  40  62  94 131 172 226 270 332 394
#     4  11  25  43  68 102 133 178 223 280 339 394
#     4  10  25  42  60  98 129 178 218 272 336 402
#     4  11  25  43  68 102 133 178 223 280 339 394
#     4  11  26  44  68  95 136 179 227 277 334 404
#     4  11  26  44  68  95 136 179 227 277 334 404
#     4  10  21  38  65  95 132 170 217 272 339 394
#
# _framework density 20.250422
#
# number of rings (size 3 to 8) (size 9 to 14) (size 15 to 20)
#    0.000    1.500    2.500    0.750    8.750    6.000 
#    0.000    5.000    0.000    0.000    0.000    0.000 
#    0.000    0.000    0.000    0.000    0.000    0.000 
#
# Total GULP energy -396426.142940 kJ/mol
# GULP energy per Si atom -12388.316967 kJ/mol
# Density = 2.020433 g / cm^3
# Si number density = 20.250422 Si / 1000 Ang^3
#
#
#
# Elastic Constant Matrix: (Units=GPa)
#
#
# Indices 1 2 3 4 5 6 
#
# 1 100.5985 35.3893 29.1472 0.0000 0.0000 0.0000
# 2 35.3893 103.1787 45.4477 0.0000 0.0000 0.0000
# 3 29.1472 45.4477 101.9423 0.0000 0.0000 0.0000
# 4 0.0000 0.0000 0.0000 26.2526 0.0000 0.0000
# 5 0.0000 0.0000 0.0000 0.0000 35.0324 0.0000
# 6 0.0000 0.0000 0.0000 0.0000 0.0000 12.4623
#
#
#
# Elastic Compliance Matrix: (Units=1/GPa)
#
#
# Indices 1 2 3 4 5 6 
#
# 1 0.011599 -0.003133 -0.001920 0.000000 0.000000 0.000000
# 2 -0.003133 0.012906 -0.004858 0.000000 0.000000 0.000000
# 3 -0.001920 -0.004858 0.012524 0.000000 0.000000 0.000000
# 4 0.000000 0.000000 0.000000 0.038091 0.000000 0.000000
# 5 0.000000 0.000000 0.000000 0.000000 0.028545 0.000000
# 6 0.000000 0.000000 0.000000 0.000000 0.000000 0.080242
#
#
# Mechanical properties :
#
#
# Convention : Reuss Voigt Hill
#
# Bulk Modulus (GPa) = 58.11191 58.40976 58.26084
# Shear Modulus (GPa) = 23.87032 27.79848 25.83440
#
# Velocity S-wave (km/s) = 3.43703 3.70906 3.57563
# Velocity P-wave (km/s) = 6.67157 6.87381 6.77344
#
# Compressibility (1/GPa) = 0.01720818
#
# Stress axis : x y z
#
# Youngs Moduli (GPa) = 86.21616 77.48153 79.84543
#
# Poissons Ratio (x) = 0.24272 0.15328
# Poissons Ratio (y) = 0.27009 0.38790
# Poissons Ratio (z) = 0.16551 0.37642
#
# Static dielectric constant tensor:
#      x y z
#    x 4.063000 0.000000 0.000000 
#    y 0.000000 3.450640 0.000000 
#    z 0.000000 0.000000 4.334510 
# 
# 
# High freq. dielectric constant tensor:
#      x y z
#    x 1.809010 0.000000 0.000000 
#    y 0.000000 1.767730 0.000000 
#    z 0.000000 0.000000 1.811730 
# 
# From -- ./inp_files/3160.got.cif
#   From: 2010.03.12/outbox.cif.g09.slc.cpg/sg19_2_cif.got.tgz:3160.got - 2010.04.10 18:59:41.
