data_PCOD8156220
_publ_section_title
;
Structure prediction by ZEFSAII (Michael W. Deem and Ramdas Pophale) SiO2 
 PCOD8156220
Probable space group: P 21 21 2
;
_chemical_formula_sum "Si O2"
_cell_formula_units_Z 30
_cell_length_a 7.257210
_cell_length_b 19.281563
_cell_length_c 9.776863
_cell_angle_alpha 90.000000
_cell_angle_beta 90.000000
_cell_angle_gamma 90.000000
_cell_volume 1368.079879
_symmetry_space_group_name_H-M "P 21 21 2"
_symmetry_group_IT_number 18
_symmetry_cell_setting 'orthorhombic'
loop_
_space_group_symop_operation_xyz
x,y,z
-x,-y,z
1/2+x,1/2-y,-z
1/2-x,1/2+y,-z
loop_
_atom_site_type_symbol
_atom_site_label
_atom_site_fract_x
_atom_site_fract_y
_atom_site_fract_z
Si Si1 0.365393 0.558639 0.943304
Si Si2 0.289160 0.190255 0.412523
Si Si3 0.000000 0.500000 0.040188
Si Si4 0.991833 0.920579 0.364026
Si Si5 0.400192 0.872131 0.784807
Si Si6 0.140762 0.758323 0.860108
Si Si7 0.809370 0.661512 0.512801
Si Si8 0.236776 0.183176 0.881261
O O1 0.500000 0.500000 0.002488
O O2 0.431796 0.580362 0.793329
O O3 0.378271 0.621750 0.047982
O O4 0.153257 0.532616 0.940209
O O5 0.261964 0.210584 0.253739
O O6 0.260793 0.258694 0.505704
O O7 0.488090 0.158209 0.428815
O O8 0.147746 0.128253 0.450615
O O9 0.905049 0.554377 0.141786
O O10 0.189407 0.884187 0.382663
O O11 0.000000 0.000000 0.419311
O O12 0.264830 0.826433 0.877794
O O13 0.309197 0.875570 0.635138
O O14 0.611027 0.841825 0.771014
O O15 0.926617 0.771229 0.814181
O O16 0.139309 0.721798 0.006235
#
# Coordination Sequence:
#
# PCOD8156220 Si02
#       8
#     4   4   2   4   4   4   4   4
#     4  10  22  41  65  96 137 172 220 277 352 405
#     4  11  24  42  66  97 133 182 230 286 350 410
#     4  10  22  44  66  96 134 182 220 282 342 428
#     4  11  25  44  67 103 136 179 236 291 344 420
#     4  10  24  41  62  95 129 173 227 266 347 407
#     4  11  22  36  60  94 128 167 217 277 340 403
#     4  11  25  44  70  95 136 186 230 284 343 418
#     4  11  21  37  62  94 130 166 213 280 334 415
#
# _framework density 21.928546000000001
#
# number of rings (size 3 to 8) (size 9 to 14) (size 15 to 20)
#    0.000    1.333    4.000    0.800    1.867    4.800 
#    0.000    3.333    0.000    0.000    0.000    0.000 
#    0.000    0.000    0.000    0.000    0.000    0.000 
#
# Total GULP energy -371985.640831 kJ/mol
# GULP energy per Si atom -12399.521361 kJ/mol
# Density = 2.187864 g / cm^3
# Si number density = 21.928546 Si / 1000 Ang^3
#
#
#
# Elastic Constant Matrix: (Units=GPa)
#
#
# Indices 1 2 3 4 5 6 
#
# 1 119.1548 36.8120 14.8995 0.0000 0.0000 0.0000
# 2 36.8120 99.7157 24.5177 0.0000 0.0000 0.0000
# 3 14.8995 24.5177 48.2829 0.0000 0.0000 0.0000
# 4 0.0000 0.0000 0.0000 13.3302 0.0000 0.0000
# 5 0.0000 0.0000 0.0000 0.0000 36.9940 0.0000
# 6 0.0000 0.0000 0.0000 0.0000 0.0000 47.5026
#
#
#
# Elastic Compliance Matrix: (Units=1/GPa)
#
#
# Indices 1 2 3 4 5 6 
#
# 1 0.009546 -0.003199 -0.001321 0.000000 0.000000 0.000000
# 2 -0.003199 0.012531 -0.005376 0.000000 0.000000 0.000000
# 3 -0.001321 -0.005376 0.023849 0.000000 0.000000 0.000000
# 4 0.000000 0.000000 0.000000 0.075018 0.000000 0.000000
# 5 0.000000 0.000000 0.000000 0.000000 0.027031 0.000000
# 6 0.000000 0.000000 0.000000 0.000000 0.000000 0.021051
#
#
# Mechanical properties :
#
#
# Convention : Reuss Voigt Hill
#
# Bulk Modulus (GPa) = 38.26551 46.62355 42.44453
# Shear Modulus (GPa) = 25.31245 32.29363 28.80304
#
# Velocity S-wave (km/s) = 3.40121 3.84171 3.62815
# Velocity P-wave (km/s) = 5.73692 6.40203 6.07858
#
# Compressibility (1/GPa) = 0.02613319
#
# Stress axis : x y z
#
# Youngs Moduli (GPa) = 104.75549 79.79928 41.93060
#
# Poissons Ratio (x) = 0.25530 0.05540
# Poissons Ratio (y) = 0.33514 0.22542
# Poissons Ratio (z) = 0.13841 0.42901
#
# Static dielectric constant tensor:
#      x y z
#    x 4.007500 0.000000 0.000000 
#    y 0.000000 4.138930 0.000000 
#    z 0.000000 0.000000 3.578630 
# 
# 
# High freq. dielectric constant tensor:
#      x y z
#    x 1.878660 0.000000 0.000000 
#    y 0.000000 1.865400 0.000000 
#    z 0.000000 0.000000 1.839570 
# 
# From -- ./inp_files/5240.got.cif
#   From: 2010.03.12/outbox.cif.g09.slc.cpg/sg18_3_cif.got.tgz:5240.got - 2010.04.10 18:53:55.
