data_PCOD8156542
_publ_section_title
;
Structure prediction by ZEFSAII (Michael W. Deem and Ramdas Pophale) SiO2 
 PCOD8156542
Probable space group: P 21 21 21
;
_chemical_formula_sum "Si O2"
_cell_formula_units_Z 32
_cell_length_a 21.936763
_cell_length_b 5.311780
_cell_length_c 16.353059
_cell_angle_alpha 90.000000
_cell_angle_beta 90.000000
_cell_angle_gamma 90.000000
_cell_volume 1905.511729
_symmetry_space_group_name_H-M "P 21 21 21"
_symmetry_group_IT_number 19
_symmetry_cell_setting 'orthorhombic'
loop_
_space_group_symop_operation_xyz
x,y,z
1/2-x,-y,1/2+z
1/2+x,1/2-y,-z
-x,1/2+y,1/2-z
loop_
_atom_site_type_symbol
_atom_site_label
_atom_site_fract_x
_atom_site_fract_y
_atom_site_fract_z
Si Si1 0.232890 0.249998 0.156658
Si Si2 0.342516 0.250002 0.520342
Si Si3 0.780232 0.749998 0.522343
Si Si4 0.213287 0.749998 0.202827
Si Si5 0.089035 0.249997 0.187585
Si Si6 0.905947 0.749999 0.119530
Si Si7 0.458005 0.250002 0.606605
Si Si8 0.337135 0.250001 0.875231
O O1 0.255075 0.498253 0.205892
O O2 0.158425 0.249997 0.154538
O O3 0.255075 0.001743 0.205891
O O4 0.256908 0.249998 0.063848
O O5 0.320696 0.497639 0.471850
O O6 0.320421 0.250003 0.614995
O O7 0.415990 0.250001 0.524938
O O8 0.320696 0.002367 0.471850
O O9 0.732692 0.750000 0.595987
O O10 0.163958 0.749999 0.275732
O O11 0.086611 0.249999 0.284196
O O12 0.053908 0.497923 0.158340
O O13 0.053908 0.002070 0.158341
O O14 0.869857 0.499990 0.091072
O O15 0.971965 0.749999 0.077087
O O16 0.869857 0.000008 0.091072
#
# Coordination Sequence:
#
# PCOD8156542 Si02
#       8
#     4   4   4   4   4   4   4   4
#     4  10  16  30  48  62  82 120 158 189 214 255
#     4  10  17  33  47  66  81 120 162 186 220 253
#     4  10  20  30  49  61  85 120 161 192 220 269
#     4  10  16  29  46  60  89 114 150 186 218 257
#     4  12  17  32  46  68  91 122 167 183 218 251
#     4  12  23  30  43  67  99 127 150 189 226 267
#     4  12  20  30  47  66  92 122 163 195 207 262
#     4  12  21  34  42  66  95 127 151 186 239 268
#
# _framework density 16.793389999999999
#
# number of rings (size 3 to 8) (size 9 to 14) (size 15 to 20)
#    0.000    1.000    7.500    3.000    0.000    0.000 
#    0.000    0.000    0.000    0.000    0.000    0.000 
#    0.000    0.000    0.000   90.000    0.000    0.000 
#
# Total GULP energy -396579.156804 kJ/mol
# GULP energy per Si atom -12393.098650 kJ/mol
# Density = 1.675517 g / cm^3
# Si number density = 16.793390 Si / 1000 Ang^3
#
#
#
# Elastic Constant Matrix: (Units=GPa)
#
#
# Indices 1 2 3 4 5 6 
#
# 1 17.0542 12.4269 10.3482 0.0000 0.0000 0.0000
# 2 12.4269 179.1382 9.7279 0.0000 0.0000 0.0000
# 3 10.3482 9.7279 16.3897 0.0000 0.0000 0.0000
# 4 0.0000 0.0000 0.0000 9.9927 0.0000 0.0000
# 5 0.0000 0.0000 0.0000 0.0000 15.4071 0.0000
# 6 0.0000 0.0000 0.0000 0.0000 0.0000 20.1458
#
#
#
# Elastic Compliance Matrix: (Units=1/GPa)
#
#
# Indices 1 2 3 4 5 6 
#
# 1 0.097156 -0.003522 -0.059252 0.000000 0.000000 0.000000
# 2 -0.003522 0.005896 -0.001276 0.000000 0.000000 0.000000
# 3 -0.059252 -0.001276 0.099182 0.000000 0.000000 0.000000
# 4 0.000000 0.000000 0.000000 0.100073 0.000000 0.000000
# 5 0.000000 0.000000 0.000000 0.000000 0.064905 0.000000
# 6 0.000000 0.000000 0.000000 0.000000 0.000000 0.049638
#
#
# Mechanical properties :
#
#
# Convention : Reuss Voigt Hill
#
# Bulk Modulus (GPa) = 13.48906 30.84309 22.16608
# Shear Modulus (GPa) = 8.77714 21.11440 14.94577
#
# Velocity S-wave (km/s) = 2.28864 3.54970 2.98649
# Velocity P-wave (km/s) = 3.87733 5.93351 5.01199
#
# Compressibility (1/GPa) = 0.07413413
#
# Stress axis : x y z
#
# Youngs Moduli (GPa) = 10.29268 169.60976 10.08250
#
# Poissons Ratio (x) = 0.59739 0.59741
# Poissons Ratio (y) = 0.03625 0.01286
# Poissons Ratio (z) = 0.60986 0.21635
#
# Static dielectric constant tensor:
#      x y z
#    x 2.938600 0.000000 0.000000 
#    y 0.000000 4.736610 0.000000 
#    z 0.000000 0.000000 2.713290 
# 
# 
# High freq. dielectric constant tensor:
#      x y z
#    x 1.599190 0.000000 0.000000 
#    y 0.000000 1.695940 0.000000 
#    z 0.000000 0.000000 1.591170 
# 
# From -- ./inp_files/6358.got.cif
#   From: 2010.03.12/outbox.cif.g09.slc.cpg/sg19_4_cif.got.tgz:6358.got - 2010.04.10 18:59:41.
