data_PCOD8156674
_publ_section_title
;
Structure prediction by ZEFSAII (Michael W. Deem and Ramdas Pophale) SiO2 
 PCOD8156674
Probable space group: P 21 21 21
;
_chemical_formula_sum "Si O2"
_cell_formula_units_Z 32
_cell_length_a 10.560408
_cell_length_b 10.146848
_cell_length_c 15.640037
_cell_angle_alpha 90.000000
_cell_angle_beta 90.000000
_cell_angle_gamma 90.000000
_cell_volume 1675.905894
_symmetry_space_group_name_H-M "P 21 21 21"
_symmetry_group_IT_number 19
_symmetry_cell_setting 'orthorhombic'
loop_
_space_group_symop_operation_xyz
x,y,z
1/2-x,-y,1/2+z
1/2+x,1/2-y,-z
-x,1/2+y,1/2-z
loop_
_atom_site_type_symbol
_atom_site_label
_atom_site_fract_x
_atom_site_fract_y
_atom_site_fract_z
Si Si1 0.951821 0.934910 0.049630
Si Si2 0.349226 0.815968 0.282225
Si Si3 0.258497 0.450351 0.826890
Si Si4 0.402358 0.124846 0.709364
Si Si5 0.651530 0.549550 0.085233
Si Si6 0.585454 0.359617 0.521994
Si Si7 0.968938 0.095992 0.302619
Si Si8 0.059673 0.673169 0.852110
O O1 0.883071 0.796448 0.028711
O O2 0.067704 0.915904 0.114053
O O3 0.850795 0.036202 0.090360
O O4 0.026632 0.992855 0.968535
O O5 0.318186 0.685510 0.337516
O O6 0.243128 0.832733 0.209353
O O7 0.479663 0.798704 0.232986
O O8 0.342943 0.942058 0.341786
O O9 0.336829 0.458069 0.737128
O O10 0.163648 0.570137 0.823131
O O11 0.487688 0.254536 0.734021
O O12 0.420957 0.002854 0.773428
O O13 0.784711 0.557044 0.033255
O O14 0.630256 0.693499 0.123728
O O15 0.479759 0.399922 0.593977
O O16 0.523392 0.387398 0.429722
#
# Coordination Sequence:
#
# PCOD8156674 Si02
#       8
#     4   4   4   4   4   4   4   4
#     4   9  19  36  61  85 112 155 193 248 290 347
#     4  11  22  37  58  86 122 155 188 245 300 353
#     4  10  21  41  56  85 127 151 191 241 307 354
#     4   9  17  33  56  83 114 143 195 235 291 344
#     4  11  21  38  62  85 114 153 207 238 293 356
#     4  10  19  37  63  91 111 151 209 247 283 341
#     4   9  18  33  60  84 113 153 188 239 290 352
#     4  11  23  39  60  87 121 153 201 249 290 347
#
# _framework density 19.094149999999999
#
# number of rings (size 3 to 8) (size 9 to 14) (size 15 to 20)
#    0.000    2.000    2.500    1.500    0.000    1.000 
#    4.500    0.000    0.000    0.000    0.000    0.000 
#    0.000    0.000    0.000    0.000    0.000    0.000 
#
# Total GULP energy -396549.058003 kJ/mol
# GULP energy per Si atom -12392.158063 kJ/mol
# Density = 1.905069 g / cm^3
# Si number density = 19.094150 Si / 1000 Ang^3
#
#
#
# Elastic Constant Matrix: (Units=GPa)
#
#
# Indices 1 2 3 4 5 6 
#
# 1 89.3870 32.1483 33.8049 0.0000 0.0000 0.0000
# 2 32.1483 63.3924 24.9267 0.0000 0.0000 0.0000
# 3 33.8049 24.9267 64.2367 0.0000 0.0000 0.0000
# 4 0.0000 0.0000 0.0000 23.3412 0.0000 0.0000
# 5 0.0000 0.0000 0.0000 0.0000 29.7521 0.0000
# 6 0.0000 0.0000 0.0000 0.0000 0.0000 25.8995
#
#
#
# Elastic Compliance Matrix: (Units=1/GPa)
#
#
# Indices 1 2 3 4 5 6 
#
# 1 0.015419 -0.005462 -0.005995 0.000000 0.000000 0.000000
# 2 -0.005462 0.020550 -0.005100 0.000000 0.000000 0.000000
# 3 -0.005995 -0.005100 0.020701 0.000000 0.000000 0.000000
# 4 0.000000 0.000000 0.000000 0.042843 0.000000 0.000000
# 5 0.000000 0.000000 0.000000 0.000000 0.033611 0.000000
# 6 0.000000 0.000000 0.000000 0.000000 0.000000 0.038611
#
#
# Mechanical properties :
#
#
# Convention : Reuss Voigt Hill
#
# Bulk Modulus (GPa) = 42.45085 44.30844 43.37965
# Shear Modulus (GPa) = 23.50721 24.20763 23.85742
#
# Velocity S-wave (km/s) = 3.51254 3.56449 3.53861
# Velocity P-wave (km/s) = 6.22344 6.34006 6.28202
#
# Compressibility (1/GPa) = 0.02355665
#
# Stress axis : x y z
#
# Youngs Moduli (GPa) = 64.85526 48.66140 48.30648
#
# Poissons Ratio (x) = 0.26580 0.28958
# Poissons Ratio (y) = 0.35426 0.24636
# Poissons Ratio (z) = 0.38879 0.24817
#
# Static dielectric constant tensor:
#      x y z
#    x 3.587150 0.000000 0.000000 
#    y 0.000000 3.620120 0.000000 
#    z 0.000000 0.000000 3.424720 
# 
# 
# High freq. dielectric constant tensor:
#      x y z
#    x 1.743910 0.000000 0.000000 
#    y 0.000000 1.736790 0.000000 
#    z 0.000000 0.000000 1.730270 
# 
# From -- ./inp_files/6146.got.cif
#   From: 2010.03.12/outbox.cif.g09.slc.cpg/sg19_4_cif.got.tgz:6146.got - 2010.04.10 18:59:41.
