data_PCOD8156270
_publ_section_title
;
Structure prediction by ZEFSAII (Michael W. Deem and Ramdas Pophale) SiO2 
 PCOD8156270
Probable space group: P 21 21 2
;
_chemical_formula_sum "Si O2"
_cell_formula_units_Z 26
_cell_length_a 8.477504
_cell_length_b 7.791616
_cell_length_c 16.579415
_cell_angle_alpha 90.000000
_cell_angle_beta 90.000000
_cell_angle_gamma 90.000000
_cell_volume 1095.127656
_symmetry_space_group_name_H-M "P 21 21 2"
_symmetry_group_IT_number 18
_symmetry_cell_setting 'orthorhombic'
loop_
_space_group_symop_operation_xyz
x,y,z
-x,-y,z
1/2+x,1/2-y,-z
1/2-x,1/2+y,-z
loop_
_atom_site_type_symbol
_atom_site_label
_atom_site_fract_x
_atom_site_fract_y
_atom_site_fract_z
Si Si1 0.903553 0.827691 0.960669
Si Si2 0.173763 0.515703 0.673542
Si Si3 0.657277 0.064457 0.897369
Si Si4 0.591208 0.762714 0.192068
Si Si5 0.762959 0.314030 0.402603
Si Si6 0.915655 0.817280 0.437289
Si Si7 0.000000 0.000000 0.680038
O O1 0.983932 0.720483 0.887590
O O2 0.731356 0.893455 0.936453
O O3 0.884289 0.704971 0.035689
O O4 0.000000 0.000000 0.982712
O O5 0.151280 0.556755 0.770304
O O6 0.256914 0.333249 0.665544
O O7 0.283627 0.661790 0.632903
O O8 0.000000 0.500000 0.632417
O O9 0.762086 0.141850 0.827530
O O10 0.500000 0.000000 0.853975
O O11 0.501936 0.671318 0.266151
O O12 0.679357 0.250435 0.484776
O O13 0.663179 0.481461 0.372493
O O14 0.952829 0.330647 0.416807
O O15 0.000000 0.000000 0.454305
#
# Coordination Sequence:
#
# PCOD8156270 Si02
#       7
#     4   4   4   4   4   4   2
#     4  10  22  44  65  99 134 178 227 283 355 443
#     4  11  23  41  67  99 139 181 238 292 355 420
#     4  11  22  41  70  98 136 176 230 289 353 433
#     4  11  24  43  64  96 137 180 230 283 362 417
#     4  11  23  42  70 100 141 187 243 291 364 430
#     4  10  23  43  69 106 141 187 244 298 357 430
#     4  12  22  44  68  88 138 190 232 290 364 422
#
# _framework density 23.741526
#
# number of rings (size 3 to 8) (size 9 to 14) (size 15 to 20)
#    0.000    1.231    4.615    2.769    0.000    3.077 
#    0.000    5.385    0.000    0.000    0.000    0.000 
#    0.000    0.000    0.000    0.000    0.000    0.000 
#
# Total GULP energy -322144.618039 kJ/mol
# GULP energy per Si atom -12390.177617 kJ/mol
# Density = 2.368749 g / cm^3
# Si number density = 23.741526 Si / 1000 Ang^3
#
#
#
# Elastic Constant Matrix: (Units=GPa)
#
#
# Indices 1 2 3 4 5 6 
#
# 1 150.1959 5.6684 21.4871 0.0000 0.0000 0.0000
# 2 5.6684 56.2550 22.6509 0.0000 0.0000 0.0000
# 3 21.4871 22.6509 86.9530 0.0000 0.0000 0.0000
# 4 0.0000 0.0000 0.0000 39.6833 0.0000 0.0000
# 5 0.0000 0.0000 0.0000 0.0000 -5.4804 0.0000
# 6 0.0000 0.0000 0.0000 0.0000 0.0000 37.4233
#
#
#
# Elastic Compliance Matrix: (Units=1/GPa)
#
#
# Indices 1 2 3 4 5 6 
#
# 1 0.006902 -0.000010 -0.001703 0.000000 0.000000 0.000000
# 2 -0.000010 0.019859 -0.005171 0.000000 0.000000 0.000000
# 3 -0.001703 -0.005171 0.013268 0.000000 0.000000 0.000000
# 4 0.000000 0.000000 0.000000 0.025200 0.000000 0.000000
# 5 0.000000 0.000000 0.000000 0.000000 -0.182470 0.000000
# 6 0.000000 0.000000 0.000000 0.000000 0.000000 0.026721
#
#
# Mechanical properties :
#
#
# Convention : Reuss Voigt Hill
#
# Bulk Modulus (GPa) = 38.07744 43.66851 40.87298
# Shear Modulus (GPa) = -73.53106 30.56508 -21.48299
#
# Velocity S-wave (km/s) = -5.57124 3.59194 -3.01137
# Velocity P-wave (km/s) = 5.03109 5.96959 2.27202
#
# Compressibility (1/GPa) = 0.02626227
#
# Stress axis : x y z
#
# Youngs Moduli (GPa) = 144.88608 50.35453 75.36776
#
# Poissons Ratio (x) = 0.00049 0.12835
# Poissons Ratio (y) = 0.00141 0.38971
# Poissons Ratio (z) = 0.24674 0.26037
#
# Static dielectric constant tensor:
#      x y z
#    x 4.852380 0.000000 0.000000 
#    y 0.000000 4.432370 0.000000 
#    z 0.000000 0.000000 4.143010 
# 
# 
# High freq. dielectric constant tensor:
#      x y z
#    x 1.956960 0.000000 0.000000 
#    y 0.000000 1.932940 0.000000 
#    z 0.000000 0.000000 1.923280 
# 
# From -- ./inp_files/7316.got.cif
#   From: 2010.03.12/outbox.cif.g09.slc.cpg/sg18_4_cif.got.tgz:7316.got - 2010.04.10 18:53:55.
