data_PCOD8156334
_publ_section_title
;
Structure prediction by ZEFSAII (Michael W. Deem and Ramdas Pophale) SiO2 
 PCOD8156334
Probable space group: P 21 21 2
;
_chemical_formula_sum "Si O2"
_cell_formula_units_Z 32
_cell_length_a 8.631994
_cell_length_b 30.516840
_cell_length_c 5.259091
_cell_angle_alpha 90.000000
_cell_angle_beta 90.000000
_cell_angle_gamma 90.000000
_cell_volume 1385.355956
_symmetry_space_group_name_H-M "P 21 21 2"
_symmetry_group_IT_number 18
_symmetry_cell_setting 'orthorhombic'
loop_
_space_group_symop_operation_xyz
x,y,z
-x,-y,z
1/2+x,1/2-y,-z
1/2-x,1/2+y,-z
loop_
_atom_site_type_symbol
_atom_site_label
_atom_site_fract_x
_atom_site_fract_y
_atom_site_fract_z
Si Si1 0.724435 0.608424 0.162348
Si Si2 0.367069 0.814183 0.610731
Si Si3 0.145981 0.232377 0.096229
Si Si4 0.675870 0.011691 0.902079
Si Si5 0.279711 0.193075 0.605966
Si Si6 0.128579 0.821662 0.213572
Si Si7 0.836154 0.978050 0.402582
Si Si8 0.922887 0.884193 0.545868
O O1 0.805947 0.563934 0.080177
O O2 0.731394 0.644688 0.944838
O O3 0.827386 0.633761 0.373607
O O4 0.547368 0.599018 0.245831
O O5 0.347790 0.785517 0.872769
O O6 0.542314 0.808805 0.519427
O O7 0.243678 0.795301 0.404047
O O8 0.189924 0.214311 0.373114
O O9 0.971209 0.213487 0.045802
O O10 0.259066 0.220120 0.866948
O O11 0.500000 0.000000 0.958437
O O12 0.778780 0.990411 0.122448
O O13 0.721200 0.994388 0.623518
O O14 0.216158 0.144084 0.670062
O O15 0.005041 0.852487 0.350769
O O16 0.849387 0.925779 0.405434
O O17 0.000000 0.000000 0.456277
#
# Coordination Sequence:
#
# PCOD8156334 Si02
#       8
#     4   4   4   4   4   4   4   4
#     4  11  24  46  70  99 145 189 236 286 377 424
#     4  11  27  40  70 102 138 189 233 295 354 423
#     4  11  25  45  69  98 145 181 242 284 356 417
#     4  12  29  47  71 108 149 185 233 306 371 430
#     4  11  26  44  70 106 138 184 239 299 341 430
#     4  10  23  45  69  97 143 190 227 297 356 432
#     4  12  25  46  78 104 135 188 242 292 349 443
#     4  10  23  44  71 102 137 183 238 291 356 429
#
# _framework density 23.098756000000002
#
# number of rings (size 3 to 8) (size 9 to 14) (size 15 to 20)
#    0.000    1.000    2.500    2.250   10.500    1.000 
#    0.000    0.000    0.000    0.000    0.000    0.000 
#    0.000    0.000    0.000    0.000    0.000    0.000 
#
# Total GULP energy -396735.850688 kJ/mol
# GULP energy per Si atom -12397.995334 kJ/mol
# Density = 2.304618 g / cm^3
# Si number density = 23.098756 Si / 1000 Ang^3
#
#
#
# Elastic Constant Matrix: (Units=GPa)
#
#
# Indices 1 2 3 4 5 6 
#
# 1 91.8229 59.3189 7.4121 0.0000 0.0000 0.0000
# 2 59.3189 126.1603 24.8785 0.0000 0.0000 0.0000
# 3 7.4121 24.8785 82.8000 0.0000 0.0000 0.0000
# 4 0.0000 0.0000 0.0000 27.1060 0.0000 0.0000
# 5 0.0000 0.0000 0.0000 0.0000 19.5153 0.0000
# 6 0.0000 0.0000 0.0000 0.0000 0.0000 30.3916
#
#
#
# Elastic Compliance Matrix: (Units=1/GPa)
#
#
# Indices 1 2 3 4 5 6 
#
# 1 0.015700 -0.007552 0.000864 0.000000 0.000000 0.000000
# 2 -0.007552 0.012058 -0.002947 0.000000 0.000000 0.000000
# 3 0.000864 -0.002947 0.012885 0.000000 0.000000 0.000000
# 4 0.000000 0.000000 0.000000 0.036892 0.000000 0.000000
# 5 0.000000 0.000000 0.000000 0.000000 0.051242 0.000000
# 6 0.000000 0.000000 0.000000 0.000000 0.000000 0.032904
#
#
# Mechanical properties :
#
#
# Convention : Reuss Voigt Hill
#
# Bulk Modulus (GPa) = 46.78880 53.77803 50.28341
# Shear Modulus (GPa) = 26.58494 29.34748 27.96621
#
# Velocity S-wave (km/s) = 3.39621 3.56831 3.48332
# Velocity P-wave (km/s) = 5.97318 6.34897 6.16394
#
# Compressibility (1/GPa) = 0.02137264
#
# Stress axis : x y z
#
# Youngs Moduli (GPa) = 63.69620 82.92936 77.60674
#
# Poissons Ratio (x) = 0.62629 -0.06703
# Poissons Ratio (y) = 0.48104 0.22871
# Poissons Ratio (z) = -0.05502 0.24440
#
# Static dielectric constant tensor:
#      x y z
#    x 4.300240 0.000000 0.000000 
#    y 0.000000 4.292790 0.000000 
#    z 0.000000 0.000000 4.064590 
# 
# 
# High freq. dielectric constant tensor:
#      x y z
#    x 1.915190 0.000000 0.000000 
#    y 0.000000 1.927280 0.000000 
#    z 0.000000 0.000000 1.908450 
# 
# From -- ./inp_files/797.got.cif
#   From: 2010.03.12/outbox.cif.g09.slc.cpg/sg18_1_cif.got.tgz:797.got - 2010.04.10 18:53:55.
