data_PCOD8156525
_publ_section_title
;
Structure prediction by ZEFSAII (Michael W. Deem and Ramdas Pophale) SiO2 
 PCOD8156525
Probable space group: P 21 21 2
;
_chemical_formula_sum "Si O2"
_cell_formula_units_Z 16
_cell_length_a 4.896706
_cell_length_b 25.913917
_cell_length_c 5.153395
_cell_angle_alpha 90.000000
_cell_angle_beta 90.000000
_cell_angle_gamma 90.000000
_cell_volume 653.928890
_symmetry_space_group_name_H-M "P 21 21 2"
_symmetry_group_IT_number 18
_symmetry_cell_setting 'orthorhombic'
loop_
_space_group_symop_operation_xyz
x,y,z
-x,-y,z
1/2+x,1/2-y,-z
1/2-x,1/2+y,-z
loop_
_atom_site_type_symbol
_atom_site_label
_atom_site_fract_x
_atom_site_fract_y
_atom_site_fract_z
Si Si1 0.266167 0.898915 0.581560
Si Si2 0.247575 0.464748 0.920082
Si Si3 0.747974 0.331188 0.474588
Si Si4 0.998450 0.741177 0.851312
O O1 0.345836 0.934909 0.339047
O O2 0.534581 0.867306 0.672323
O O3 0.028012 0.861999 0.472846
O O4 0.165527 0.928934 0.837271
O O5 0.500000 0.500000 0.838926
O O6 0.000000 0.500000 0.017889
O O7 0.899570 0.313436 0.738772
O O8 0.683402 0.277887 0.330468
O O9 0.271433 0.773012 0.931175
#
# Coordination Sequence:
#
# PCOD8156525 Si02
#       4
#     4   4   4   4
#     4  12  27  45  80 106 148 190 252 309 361 466
#     4  12  26  50  74 108 144 190 240 314 392 442
#     4  12  27  47  66 116 140 200 252 299 369 432
#     4  12  26  46  74 100 158 204 246 310 368 438
#
# _framework density 24.467490000000002
#
# number of rings (size 3 to 8) (size 9 to 14) (size 15 to 20)
#    0.000    0.000    0.000   10.500   10.500    0.000 
#    0.000    0.000    0.000    0.000    0.000    0.000 
#    0.000    0.000    0.000    0.000    0.000    0.000 
#
# Total GULP energy -198431.800786 kJ/mol
# GULP energy per Si atom -12401.987549 kJ/mol
# Density = 2.441180 g / cm^3
# Si number density = 24.467490 Si / 1000 Ang^3
#
#
#
# Elastic Constant Matrix: (Units=GPa)
#
#
# Indices 1 2 3 4 5 6 
#
# 1 165.9877 41.1516 9.4519 0.0000 0.0000 0.0000
# 2 41.1516 87.2979 28.4133 0.0000 0.0000 0.0000
# 3 9.4519 28.4133 100.7375 0.0000 0.0000 0.0000
# 4 0.0000 0.0000 0.0000 67.1926 0.0000 0.0000
# 5 0.0000 0.0000 0.0000 0.0000 43.2630 0.0000
# 6 0.0000 0.0000 0.0000 0.0000 0.0000 50.3986
#
#
#
# Elastic Compliance Matrix: (Units=1/GPa)
#
#
# Indices 1 2 3 4 5 6 
#
# 1 0.006830 -0.003315 0.000294 0.000000 0.000000 0.000000
# 2 -0.003315 0.014222 -0.003700 0.000000 0.000000 0.000000
# 3 0.000294 -0.003700 0.010943 0.000000 0.000000 0.000000
# 4 0.000000 0.000000 0.000000 0.014883 0.000000 0.000000
# 5 0.000000 0.000000 0.000000 0.000000 0.023114 0.000000
# 6 0.000000 0.000000 0.000000 0.000000 0.000000 0.019842
#
#
# Mechanical properties :
#
#
# Convention : Reuss Voigt Hill
#
# Bulk Modulus (GPa) = 53.90226 56.89518 55.39872
# Shear Modulus (GPa) = 45.67864 50.50458 48.09161
#
# Velocity S-wave (km/s) = 4.32546 4.54822 4.43824
# Velocity P-wave (km/s) = 6.85742 7.13342 6.99678
#
# Compressibility (1/GPa) = 0.01855210
#
# Stress axis : x y z
#
# Youngs Moduli (GPa) = 146.41923 70.31264 91.38362
#
# Poissons Ratio (x) = 0.23310 -0.02689
# Poissons Ratio (y) = 0.48542 0.33815
# Poissons Ratio (z) = -0.04309 0.26018
#
# Static dielectric constant tensor:
#      x y z
#    x 3.937220 0.000000 0.000000 
#    y 0.000000 4.344670 0.000000 
#    z 0.000000 0.000000 4.253590 
# 
# 
# High freq. dielectric constant tensor:
#      x y z
#    x 1.998560 0.000000 0.000000 
#    y 0.000000 1.974490 0.000000 
#    z 0.000000 0.000000 1.966100 
# 
# From -- ./inp_files/154.got.cif
#   From: 2010.03.12/outbox.cif.g09.slc.cpg/sg18_1_cif.got.tgz:154.got - 2010.04.10 18:53:55.
