data_PCOD8156131
_publ_section_title
;
Structure prediction by ZEFSAII (Michael W. Deem and Ramdas Pophale) SiO2 
 PCOD8156131
Probable space group: P 21 21 2
;
_chemical_formula_sum "Si O2"
_cell_formula_units_Z 20
_cell_length_a 4.860453
_cell_length_b 12.738659
_cell_length_c 14.443567
_cell_angle_alpha 90.000000
_cell_angle_beta 90.000000
_cell_angle_gamma 90.000000
_cell_volume 894.282888
_symmetry_space_group_name_H-M "P 21 21 2"
_symmetry_group_IT_number 18
_symmetry_cell_setting 'orthorhombic'
loop_
_space_group_symop_operation_xyz
x,y,z
-x,-y,z
1/2+x,1/2-y,-z
1/2-x,1/2+y,-z
loop_
_atom_site_type_symbol
_atom_site_label
_atom_site_fract_x
_atom_site_fract_y
_atom_site_fract_z
Si Si1 0.273899 0.927648 0.945288
Si Si2 0.940671 0.115925 0.514925
Si Si3 0.943859 0.304109 0.385669
Si Si4 0.654200 0.258683 0.805800
Si Si5 0.136004 0.392535 0.843813
O O1 0.276808 0.819150 0.890125
O O2 0.500000 0.000000 0.895890
O O3 0.386745 0.894491 0.045730
O O4 0.000000 0.000000 0.948578
O O5 0.981516 0.186162 0.423772
O O6 0.135140 0.154288 0.599753
O O7 0.633124 0.119138 0.553597
O O8 0.000000 0.000000 0.480427
O O9 0.036006 0.307818 0.279488
O O10 0.453749 0.359301 0.825326
O O11 0.956835 0.305315 0.790009
O O12 0.000000 0.500000 0.804359
#
# Coordination Sequence:
#
# PCOD8156131 Si02
#       5
#     4   4   4   4   4
#     4  11  23  40  61  89 124 165 209 247 301 371
#     4  10  21  41  63  84 122 163 194 250 317 371
#     4  10  23  39  60  94 119 151 211 251 302 388
#     4  12  23  40  63  91 125 159 203 265 312 356
#     4  11  23  40  61  88 124 166 209 251 308 372
#
# _framework density 22.364286
#
# number of rings (size 3 to 8) (size 9 to 14) (size 15 to 20)
#    0.000    1.200    0.000    7.200    0.000    4.000 
#    0.000    0.000    0.000    0.000    0.000    0.000 
#    0.000    0.000    0.000    0.000    0.000    0.000 
#
# Total GULP energy -247793.510041 kJ/mol
# GULP energy per Si atom -12389.675502 kJ/mol
# Density = 2.231338 g / cm^3
# Si number density = 22.364286 Si / 1000 Ang^3
#
#
#
# Elastic Constant Matrix: (Units=GPa)
#
#
# Indices 1 2 3 4 5 6 
#
# 1 94.7202 17.1158 -4.1993 0.0000 0.0000 0.0000
# 2 17.1158 88.4143 -9.6838 0.0000 0.0000 0.0000
# 3 -4.1993 -9.6838 46.2128 0.0000 0.0000 0.0000
# 4 0.0000 0.0000 0.0000 14.4925 0.0000 0.0000
# 5 0.0000 0.0000 0.0000 0.0000 14.9173 0.0000
# 6 0.0000 0.0000 0.0000 0.0000 0.0000 35.7778
#
#
#
# Elastic Compliance Matrix: (Units=1/GPa)
#
#
# Indices 1 2 3 4 5 6 
#
# 1 0.010954 -0.002059 0.000564 0.000000 0.000000 0.000000
# 2 -0.002059 0.011963 0.002320 0.000000 0.000000 0.000000
# 3 0.000564 0.002320 0.022176 0.000000 0.000000 0.000000
# 4 0.000000 0.000000 0.000000 0.069001 0.000000 0.000000
# 5 0.000000 0.000000 0.000000 0.000000 0.067036 0.000000
# 6 0.000000 0.000000 0.000000 0.000000 0.000000 0.027950
#
#
# Mechanical properties :
#
#
# Convention : Reuss Voigt Hill
#
# Bulk Modulus (GPa) = 21.39329 26.20140 23.79734
# Shear Modulus (GPa) = 22.42022 28.11184 25.26603
#
# Velocity S-wave (km/s) = 3.16966 3.54926 3.36482
# Velocity P-wave (km/s) = 4.79399 5.34205 5.07542
#
# Compressibility (1/GPa) = 0.04674362
#
# Stress axis : x y z
#
# Youngs Moduli (GPa) = 91.28719 83.59084 45.09304
#
# Poissons Ratio (x) = 0.17210 -0.02543
# Poissons Ratio (y) = 0.18795 -0.10460
# Poissons Ratio (z) = -0.05148 -0.19391
#
# Static dielectric constant tensor:
#      x y z
#    x 4.275560 0.000000 0.000000 
#    y 0.000000 4.163650 0.000000 
#    z 0.000000 0.000000 3.618190 
# 
# 
# High freq. dielectric constant tensor:
#      x y z
#    x 1.901320 0.000000 0.000000 
#    y 0.000000 1.888240 0.000000 
#    z 0.000000 0.000000 1.855200 
# 
# From -- ./inp_files/6400.got.cif
#   From: 2010.03.12/outbox.cif.g09.slc.cpg/sg18_4_cif.got.tgz:6400.got - 2010.04.10 18:53:55.
