data_PCOD8156133
_publ_section_title
;
Structure prediction by ZEFSAII (Michael W. Deem and Ramdas Pophale) SiO2 
 PCOD8156133
Probable space group: P 21 21 2
;
_chemical_formula_sum "Si O2"
_cell_formula_units_Z 32
_cell_length_a 9.649962
_cell_length_b 28.716534
_cell_length_c 5.099504
_cell_angle_alpha 90.000000
_cell_angle_beta 90.000000
_cell_angle_gamma 90.000000
_cell_volume 1413.141207
_symmetry_space_group_name_H-M "P 21 21 2"
_symmetry_group_IT_number 18
_symmetry_cell_setting 'orthorhombic'
loop_
_space_group_symop_operation_xyz
x,y,z
-x,-y,z
1/2+x,1/2-y,-z
1/2-x,1/2+y,-z
loop_
_atom_site_type_symbol
_atom_site_label
_atom_site_fract_x
_atom_site_fract_y
_atom_site_fract_z
Si Si1 0.578086 0.272292 0.251404
Si Si2 0.909472 0.584358 0.697241
Si Si3 0.803337 0.629005 0.205142
Si Si4 0.216024 0.589651 0.774568
Si Si5 0.321062 0.489482 0.714164
Si Si6 0.334565 0.625706 0.271670
Si Si7 0.251446 0.763248 0.751410
Si Si8 0.931035 0.056707 0.778417
O O1 0.570333 0.328438 0.254103
O O2 0.668927 0.256460 0.499308
O O3 0.417375 0.253019 0.249074
O O4 0.668679 0.257057 0.001865
O O5 0.913793 0.609738 0.415698
O O6 0.826713 0.536005 0.705427
O O7 0.063123 0.569293 0.765347
O O8 0.853009 0.621358 0.908657
O O9 0.771386 0.682106 0.251946
O O10 0.665142 0.600995 0.265117
O O11 0.312189 0.544114 0.772189
O O12 0.247957 0.625219 0.538813
O O13 0.230687 0.622709 0.026822
O O14 0.396630 0.482752 0.435722
O O15 0.416207 0.466119 0.936509
O O16 0.417598 0.577375 0.258438
#
# Coordination Sequence:
#
# PCOD8156133 Si02
#       8
#     4   4   4   4   4   4   4   4
#     4  12  28  47  72 104 140 178 230 286 354 410
#     4  10  22  39  64  94 131 169 215 267 319 400
#     4  10  21  41  68  91 119 174 214 253 329 395
#     4  12  25  39  62  95 133 170 213 272 326 375
#     4  10  22  39  64  93 124 172 220 269 314 378
#     4  12  26  43  63  90 134 171 208 273 331 391
#     4  12  26  47  74 103 137 178 228 290 340 425
#     4  10  21  41  64  88 125 167 219 256 315 389
#
# _framework density 22.644587999999999
#
# number of rings (size 3 to 8) (size 9 to 14) (size 15 to 20)
#    0.000    1.000    1.250    4.875    0.000    9.000 
#    0.000    5.000    0.000    0.000    0.000    0.000 
#    0.000    0.000    0.000    0.000    0.000    0.000 
#
# Total GULP energy -396711.101529 kJ/mol
# GULP energy per Si atom -12397.221923 kJ/mol
# Density = 2.259305 g / cm^3
# Si number density = 22.644588 Si / 1000 Ang^3
#
#
#
# Elastic Constant Matrix: (Units=GPa)
#
#
# Indices 1 2 3 4 5 6 
#
# 1 128.6261 16.7580 24.8651 0.0000 0.0000 0.0000
# 2 16.7580 103.8617 19.3032 0.0000 0.0000 0.0000
# 3 24.8651 19.3032 137.8190 0.0000 0.0000 0.0000
# 4 0.0000 0.0000 0.0000 46.2988 0.0000 0.0000
# 5 0.0000 0.0000 0.0000 0.0000 32.3790 0.0000
# 6 0.0000 0.0000 0.0000 0.0000 0.0000 24.2383
#
#
#
# Elastic Compliance Matrix: (Units=1/GPa)
#
#
# Indices 1 2 3 4 5 6 
#
# 1 0.008170 -0.001072 -0.001324 0.000000 0.000000 0.000000
# 2 -0.001072 0.010026 -0.001211 0.000000 0.000000 0.000000
# 3 -0.001324 -0.001211 0.007664 0.000000 0.000000 0.000000
# 4 0.000000 0.000000 0.000000 0.021599 0.000000 0.000000
# 5 0.000000 0.000000 0.000000 0.000000 0.030884 0.000000
# 6 0.000000 0.000000 0.000000 0.000000 0.000000 0.041257
#
#
# Mechanical properties :
#
#
# Convention : Reuss Voigt Hill
#
# Bulk Modulus (GPa) = 53.62839 54.68439 54.15639
# Shear Modulus (GPa) = 37.58550 41.20860 39.39705
#
# Velocity S-wave (km/s) = 4.07848 4.27054 4.17562
# Velocity P-wave (km/s) = 6.77590 6.96549 6.87135
#
# Compressibility (1/GPa) = 0.01864684
#
# Stress axis : x y z
#
# Youngs Moduli (GPa) = 122.39785 99.73835 130.47442
#
# Poissons Ratio (x) = 0.10694 0.17273
# Poissons Ratio (y) = 0.13123 0.15799
# Poissons Ratio (z) = 0.16204 0.12077
#
# Static dielectric constant tensor:
#      x y z
#    x 4.174630 0.000000 0.000000 
#    y 0.000000 4.058910 0.000000 
#    z 0.000000 0.000000 4.420030 
# 
# 
# High freq. dielectric constant tensor:
#      x y z
#    x 1.903040 0.000000 0.000000 
#    y 0.000000 1.898580 0.000000 
#    z 0.000000 0.000000 1.908790 
# 
# From -- ./inp_files/794.got.cif
#   From: 2010.03.12/outbox.cif.g09.slc.cpg/sg18_1_cif.got.tgz:794.got - 2010.04.10 18:53:55.
