data_PCOD8156930
_publ_section_title
;
Structure prediction by ZEFSAII (Michael W. Deem and Ramdas Pophale) SiO2 
 PCOD8156930
Probable space group: P 21 21 21
;
_chemical_formula_sum "Si O2"
_cell_formula_units_Z 32
_cell_length_a 5.090260
_cell_length_b 19.076472
_cell_length_c 16.179569
_cell_angle_alpha 90.000000
_cell_angle_beta 90.000000
_cell_angle_gamma 90.000000
_cell_volume 1571.104142
_symmetry_space_group_name_H-M "P 21 21 21"
_symmetry_group_IT_number 19
_symmetry_cell_setting 'orthorhombic'
loop_
_space_group_symop_operation_xyz
x,y,z
1/2-x,-y,1/2+z
1/2+x,1/2-y,-z
-x,1/2+y,1/2-z
loop_
_atom_site_type_symbol
_atom_site_label
_atom_site_fract_x
_atom_site_fract_y
_atom_site_fract_z
Si Si1 0.068282 0.392142 0.872750
Si Si2 0.882481 0.720258 0.200328
Si Si3 0.233019 0.438525 0.528061
Si Si4 0.741798 0.213923 0.536230
Si Si5 0.262682 0.022368 0.015395
Si Si6 0.625321 0.128601 0.306005
Si Si7 0.736304 0.256485 0.880489
Si Si8 0.042354 0.649474 0.505809
O O1 0.192989 0.407493 0.782736
O O2 0.269330 0.398815 0.949092
O O3 0.844317 0.450625 0.892064
O O4 0.969527 0.312031 0.870284
O O5 0.813907 0.780190 0.134108
O O6 0.669976 0.657995 0.196508
O O7 0.902425 0.753874 0.291703
O O8 0.165291 0.689625 0.174901
O O9 0.310268 0.365897 0.484447
O O10 0.493013 0.485876 0.529597
O O11 0.143733 0.429652 0.622974
O O12 0.987640 0.471375 0.478497
O O13 0.488508 0.236766 0.483872
O O14 0.189297 0.095619 0.967497
O O15 0.536965 0.283967 0.949972
O O16 0.835731 0.180286 0.910187
#
# Coordination Sequence:
#
# PCOD8156930 Si02
#       8
#     4   4   4   4   4   4   4   4
#     4  10  21  40  64  93 125 162 213 263 309 378
#     4  11  21  39  60 104 126 156 207 280 323 373
#     4  12  23  42  65  92 125 174 213 258 324 386
#     4  12  22  40  68  96 125 160 213 274 328 377
#     4  11  25  41  62  89 128 174 212 255 309 401
#     4  11  22  38  68  94 123 160 219 265 310 374
#     4  10  21  33  68  94 128 158 211 264 328 370
#     4  11  19  39  63  96 122 174 206 263 323 385
#
# _framework density 20.367840000000001
#
# number of rings (size 3 to 8) (size 9 to 14) (size 15 to 20)
#    0.000    1.000    6.250    1.500    0.000    0.000 
#    0.000    1.250    2.750    0.000    0.000    0.000 
#    0.000    0.000    0.000    0.000    0.000    0.000 
#
# Total GULP energy -396730.539330 kJ/mol
# GULP energy per Si atom -12397.829354 kJ/mol
# Density = 2.032148 g / cm^3
# Si number density = 20.367840 Si / 1000 Ang^3
#
#
#
# Elastic Constant Matrix: (Units=GPa)
#
#
# Indices 1 2 3 4 5 6 
#
# 1 88.7306 24.2292 19.7334 0.0000 0.0000 0.0000
# 2 24.2292 86.7305 50.8258 0.0000 0.0000 0.0000
# 3 19.7334 50.8258 95.8776 0.0000 0.0000 0.0000
# 4 0.0000 0.0000 0.0000 18.9654 0.0000 0.0000
# 5 0.0000 0.0000 0.0000 0.0000 27.6531 0.0000
# 6 0.0000 0.0000 0.0000 0.0000 0.0000 36.9255
#
#
#
# Elastic Compliance Matrix: (Units=1/GPa)
#
#
# Indices 1 2 3 4 5 6 
#
# 1 0.012270 -0.002826 -0.001028 0.000000 0.000000 0.000000
# 2 -0.002826 0.017377 -0.008630 0.000000 0.000000 0.000000
# 3 -0.001028 -0.008630 0.015216 0.000000 0.000000 0.000000
# 4 0.000000 0.000000 0.000000 0.052728 0.000000 0.000000
# 5 0.000000 0.000000 0.000000 0.000000 0.036162 0.000000
# 6 0.000000 0.000000 0.000000 0.000000 0.000000 0.027082
#
#
# Mechanical properties :
#
#
# Convention : Reuss Voigt Hill
#
# Bulk Modulus (GPa) = 50.25933 51.21283 50.73608
# Shear Modulus (GPa) = 25.98300 28.47880 27.23090
#
# Velocity S-wave (km/s) = 3.57555 3.74334 3.66041
# Velocity P-wave (km/s) = 6.46340 6.62435 6.54437
#
# Compressibility (1/GPa) = 0.01989680
#
# Stress axis : x y z
#
# Youngs Moduli (GPa) = 81.49840 57.54824 65.71885
#
# Poissons Ratio (x) = 0.16261 0.06753
# Poissons Ratio (y) = 0.23029 0.56716
# Poissons Ratio (z) = 0.08374 0.49664
#
# Static dielectric constant tensor:
#      x y z
#    x 3.849480 0.000000 0.000000 
#    y 0.000000 3.503960 0.000000 
#    z 0.000000 0.000000 3.842690 
# 
# 
# High freq. dielectric constant tensor:
#      x y z
#    x 1.811500 0.000000 0.000000 
#    y 0.000000 1.770310 0.000000 
#    z 0.000000 0.000000 1.787950 
# 
# From -- ./inp_files/6505.got.cif
#   From: 2010.03.12/outbox.cif.g09.slc.cpg/sg19_4_cif.got.tgz:6505.got - 2010.04.10 18:59:41.
