data_PCOD8156706
_publ_section_title
;
Structure prediction by ZEFSAII (Michael W. Deem and Ramdas Pophale) SiO2 
 PCOD8156706
Probable space group: P 21 21 21
;
_chemical_formula_sum "Si O2"
_cell_formula_units_Z 20
_cell_length_a 7.251737
_cell_length_b 13.688555
_cell_length_c 8.643960
_cell_angle_alpha 90.000000
_cell_angle_beta 90.000000
_cell_angle_gamma 90.000000
_cell_volume 858.049611
_symmetry_space_group_name_H-M "P 21 21 21"
_symmetry_group_IT_number 19
_symmetry_cell_setting 'orthorhombic'
loop_
_space_group_symop_operation_xyz
x,y,z
1/2-x,-y,1/2+z
1/2+x,1/2-y,-z
-x,1/2+y,1/2-z
loop_
_atom_site_type_symbol
_atom_site_label
_atom_site_fract_x
_atom_site_fract_y
_atom_site_fract_z
Si Si1 0.897277 0.330985 0.519504
Si Si2 0.063841 0.044403 0.557209
Si Si3 0.293473 0.350481 0.647202
Si Si4 0.601997 0.155065 0.046703
Si Si5 0.619373 0.811728 0.293761
O O1 0.772226 0.425498 0.485193
O O2 0.876832 0.258267 0.373771
O O3 0.825738 0.270042 0.668227
O O4 0.106675 0.363320 0.545461
O O5 0.935130 0.069285 0.411582
O O6 0.989378 0.099035 0.711626
O O7 0.055940 0.927456 0.571101
O O8 0.260583 0.367415 0.827616
O O9 0.512665 0.260955 0.078256
O O10 0.695535 0.150420 0.877686
#
# Coordination Sequence:
#
# PCOD8156706 Si02
#       5
#     4   4   4   4   4
#     4  10  19  40  66  87 122 173 214 250 315 387
#     4  11  22  43  67  92 125 177 218 245 326 395
#     4  10  20  39  66  88 126 172 206 260 314 372
#     4  11  23  42  62  99 132 157 213 277 313 377
#     4  10  24  42  63  98 129 165 211 266 330 359
#
# _framework density 23.308675999999998
#
# number of rings (size 3 to 8) (size 9 to 14) (size 15 to 20)
#    0.000    1.600    6.000    1.200    2.800    0.000 
#   10.800    0.000    0.000    0.000    0.000    0.000 
#    0.000    0.000    0.000    0.000    0.000    0.000 
#
# Total GULP energy -247962.064622 kJ/mol
# GULP energy per Si atom -12398.103231 kJ/mol
# Density = 2.325562 g / cm^3
# Si number density = 23.308676 Si / 1000 Ang^3
#
#
#
# Elastic Constant Matrix: (Units=GPa)
#
#
# Indices 1 2 3 4 5 6 
#
# 1 46.8739 0.5638 -16.2140 0.0000 0.0000 0.0000
# 2 0.5638 54.6555 -14.0433 0.0000 0.0000 0.0000
# 3 -16.2140 -14.0433 20.8829 0.0000 0.0000 0.0000
# 4 0.0000 0.0000 0.0000 21.7529 0.0000 0.0000
# 5 0.0000 0.0000 0.0000 0.0000 30.3509 0.0000
# 6 0.0000 0.0000 0.0000 0.0000 0.0000 27.0239
#
#
#
# Elastic Compliance Matrix: (Units=1/GPa)
#
#
# Indices 1 2 3 4 5 6 
#
# 1 0.031328 0.007165 0.029142 0.000000 0.000000 0.000000
# 2 0.007165 0.023757 0.021539 0.000000 0.000000 0.000000
# 3 0.029142 0.021539 0.084997 0.000000 0.000000 0.000000
# 4 0.000000 0.000000 0.000000 0.045971 0.000000 0.000000
# 5 0.000000 0.000000 0.000000 0.000000 0.032948 0.000000
# 6 0.000000 0.000000 0.000000 0.000000 0.000000 0.037004
#
#
# Mechanical properties :
#
#
# Convention : Reuss Voigt Hill
#
# Bulk Modulus (GPa) = 3.90973 7.00281 5.45627
# Shear Modulus (GPa) = 22.16591 25.96593 24.06592
#
# Velocity S-wave (km/s) = 3.08713 3.34129 3.21672
# Velocity P-wave (km/s) = 3.79317 4.23043 4.01775
#
# Compressibility (1/GPa) = 0.25577231
#
# Stress axis : x y z
#
# Youngs Moduli (GPa) = 31.92023 42.09335 11.76513
#
# Poissons Ratio (x) = -0.30158 -0.34286
# Poissons Ratio (y) = -0.22870 -0.25341
# Poissons Ratio (z) = -0.93022 -0.90663
#
# Static dielectric constant tensor:
#      x y z
#    x 4.056610 0.000000 0.000000 
#    y 0.000000 4.042360 0.000000 
#    z 0.000000 0.000000 4.221030 
# 
# 
# High freq. dielectric constant tensor:
#      x y z
#    x 1.911480 0.000000 0.000000 
#    y 0.000000 1.905780 0.000000 
#    z 0.000000 0.000000 1.918480 
# 
# From -- ./inp_files/2633.got.cif
#   From: 2010.03.12/outbox.cif.g09.slc.cpg/sg19_2_cif.got.tgz:2633.got - 2010.04.10 18:59:41.
