data_PCOD8156984
_publ_section_title
;
Structure prediction by ZEFSAII (Michael W. Deem and Ramdas Pophale) SiO2 
 PCOD8156984
Probable space group: P 21 21 21
;
_chemical_formula_sum "Si O2"
_cell_formula_units_Z 24
_cell_length_a 11.689054
_cell_length_b 5.023487
_cell_length_c 16.431775
_cell_angle_alpha 90.000000
_cell_angle_beta 90.000000
_cell_angle_gamma 90.000000
_cell_volume 964.870719
_symmetry_space_group_name_H-M "P 21 21 21"
_symmetry_group_IT_number 19
_symmetry_cell_setting 'orthorhombic'
loop_
_space_group_symop_operation_xyz
x,y,z
1/2-x,-y,1/2+z
1/2+x,1/2-y,-z
-x,1/2+y,1/2-z
loop_
_atom_site_type_symbol
_atom_site_label
_atom_site_fract_x
_atom_site_fract_y
_atom_site_fract_z
Si Si1 0.010963 0.573542 0.063005
Si Si2 0.771484 0.834533 0.349387
Si Si3 0.297491 0.207007 0.983038
Si Si4 0.167690 0.713699 0.927652
Si Si5 0.075335 0.520358 0.756914
Si Si6 0.939231 0.770896 0.222578
O O1 0.123304 0.496107 0.112639
O O2 0.932521 0.323840 0.035731
O O3 0.931077 0.747660 0.124483
O O4 0.051736 0.728069 0.982326
O O5 0.723812 0.641803 0.420677
O O6 0.667821 0.016156 0.315708
O O7 0.822352 0.681279 0.269523
O O8 0.259403 0.507472 0.965290
O O9 0.222584 0.006098 0.928451
O O10 0.136631 0.626154 0.837536
O O11 0.018678 0.234893 0.772373
O O12 0.037915 0.580218 0.258368
#
# Coordination Sequence:
#
# PCOD8156984 Si02
#       6
#     4   4   4   4   4   4
#     4  10  23  42  69  97 131 175 225 280 337 405
#     4  10  24  44  67  98 134 174 224 277 338 407
#     4  11  24  42  66  97 133 173 221 282 341 402
#     4  11  25  44  66  98 135 175 225 282 344 408
#     4  12  27  46  69  97 136 184 227 278 346 421
#     4  10  21  38  63  95 127 165 214 273 330 387
#
# _framework density 24.873799000000002
#
# number of rings (size 3 to 8) (size 9 to 14) (size 15 to 20)
#    0.000    1.333    0.000    4.000    0.000   20.000 
#    0.000    0.000    0.000    0.000    0.000    0.000 
#    0.000    0.000    0.000    0.000    0.000    0.000 
#
# Total GULP energy -297435.701652 kJ/mol
# GULP energy per Si atom -12393.154235 kJ/mol
# Density = 2.481719 g / cm^3
# Si number density = 24.873799 Si / 1000 Ang^3
#
#
#
# Elastic Constant Matrix: (Units=GPa)
#
#
# Indices 1 2 3 4 5 6 
#
# 1 103.8120 6.6624 47.2289 0.0000 0.0000 0.0000
# 2 6.6624 55.7922 -7.2655 0.0000 0.0000 0.0000
# 3 47.2289 -7.2655 97.8784 0.0000 0.0000 0.0000
# 4 0.0000 0.0000 0.0000 29.4351 0.0000 0.0000
# 5 0.0000 0.0000 0.0000 0.0000 61.5362 0.0000
# 6 0.0000 0.0000 0.0000 0.0000 0.0000 31.0983
#
#
#
# Elastic Compliance Matrix: (Units=1/GPa)
#
#
# Indices 1 2 3 4 5 6 
#
# 1 0.012634 -0.002325 -0.006269 0.000000 0.000000 0.000000
# 2 -0.002325 0.018526 0.002497 0.000000 0.000000 0.000000
# 3 -0.006269 0.002497 0.013427 0.000000 0.000000 0.000000
# 4 0.000000 0.000000 0.000000 0.033973 0.000000 0.000000
# 5 0.000000 0.000000 0.000000 0.000000 0.016251 0.000000
# 6 0.000000 0.000000 0.000000 0.000000 0.000000 0.032156
#
#
# Mechanical properties :
#
#
# Convention : Reuss Voigt Hill
#
# Bulk Modulus (GPa) = 30.86998 38.97049 34.92024
# Shear Modulus (GPa) = 33.34254 38.47105 35.90680
#
# Velocity S-wave (km/s) = 3.66521 3.93701 3.80354
# Velocity P-wave (km/s) = 5.50902 6.03059 5.77570
#
# Compressibility (1/GPa) = 0.03239393
#
# Stress axis : x y z
#
# Youngs Moduli (GPa) = 79.15162 53.97685 74.47693
#
# Poissons Ratio (x) = 0.12550 0.46688
# Poissons Ratio (y) = 0.18403 -0.18598
# Poissons Ratio (z) = 0.49619 -0.13479
#
# Static dielectric constant tensor:
#      x y z
#    x 4.751040 0.000000 0.000000 
#    y 0.000000 3.951960 0.000000 
#    z 0.000000 0.000000 5.330470 
# 
# 
# High freq. dielectric constant tensor:
#      x y z
#    x 2.000580 0.000000 0.000000 
#    y 0.000000 1.952670 0.000000 
#    z 0.000000 0.000000 2.015880 
# 
# From -- ./inp_files/1720.got.cif
#   From: 2010.03.12/outbox.cif.g09.slc.cpg/sg19_1_cif.got.tgz:1720.got - 2010.04.10 18:59:41.
