data_PCOD8156328
_publ_section_title
;
Structure prediction by ZEFSAII (Michael W. Deem and Ramdas Pophale) SiO2 
 PCOD8156328
Probable space group: P 21 21 2
;
_chemical_formula_sum "Si O2"
_cell_formula_units_Z 24
_cell_length_a 25.816786
_cell_length_b 4.841567
_cell_length_c 8.417096
_cell_angle_alpha 90.000000
_cell_angle_beta 90.000000
_cell_angle_gamma 90.000000
_cell_volume 1052.083965
_symmetry_space_group_name_H-M "P 21 21 2"
_symmetry_group_IT_number 18
_symmetry_cell_setting 'orthorhombic'
loop_
_space_group_symop_operation_xyz
x,y,z
-x,-y,z
1/2+x,1/2-y,-z
1/2-x,1/2+y,-z
loop_
_atom_site_type_symbol
_atom_site_label
_atom_site_fract_x
_atom_site_fract_y
_atom_site_fract_z
Si Si1 0.036878 0.237145 0.500835
Si Si2 0.773855 0.334590 0.080438
Si Si3 0.877402 0.477890 0.933059
Si Si4 0.374563 0.538237 0.275790
Si Si5 0.964373 0.749313 0.148423
Si Si6 0.733309 0.543026 0.408209
O O1 0.084932 0.215052 0.620530
O O2 0.059518 0.177833 0.322134
O O3 0.000000 0.500000 0.522675
O O4 0.000000 0.000000 0.557770
O O5 0.763180 0.418133 0.259245
O O6 0.742606 0.520833 0.953734
O O7 0.835816 0.356114 0.055619
O O8 0.849578 0.721820 0.833978
O O9 0.898212 0.220280 0.825323
O O10 0.923747 0.641592 0.019893
O O11 0.327907 0.415905 0.380198
O O12 0.000000 0.500000 0.196006
O O13 0.000000 0.000000 0.080185
O O14 0.757345 0.841899 0.442979
#
# Coordination Sequence:
#
# PCOD8156328 Si02
#       6
#     4   4   4   4   4   4
#     4  10  23  45  68  97 135 178 223 287 348 404
#     4  12  23  46  68  97 144 181 223 279 348 404
#     4  12  24  43  70 101 135 184 226 286 345 410
#     4  12  25  44  68 103 139 178 236 280 347 411
#     4  10  23  44  67  99 134 172 229 283 342 412
#     4  12  26  44  67 103 141 182 230 287 336 413
#
# _framework density 22.811866999999999
#
# number of rings (size 3 to 8) (size 9 to 14) (size 15 to 20)
#    0.000    0.667    3.333    4.000    2.333    2.667 
#    6.000    0.000    0.000    0.000    0.000    0.000 
#    0.000    0.000    0.000    0.000    0.000    0.000 
#
# Total GULP energy -297474.945041 kJ/mol
# GULP energy per Si atom -12394.789377 kJ/mol
# Density = 2.275995 g / cm^3
# Si number density = 22.811867 Si / 1000 Ang^3
#
#
#
# Elastic Constant Matrix: (Units=GPa)
#
#
# Indices 1 2 3 4 5 6 
#
# 1 110.6302 32.0337 48.9015 0.0000 0.0000 0.0000
# 2 32.0337 112.8308 20.0280 0.0000 0.0000 0.0000
# 3 48.9015 20.0280 86.9180 0.0000 0.0000 0.0000
# 4 0.0000 0.0000 0.0000 41.0793 0.0000 0.0000
# 5 0.0000 0.0000 0.0000 0.0000 32.8218 0.0000
# 6 0.0000 0.0000 0.0000 0.0000 0.0000 38.5365
#
#
#
# Elastic Compliance Matrix: (Units=1/GPa)
#
#
# Indices 1 2 3 4 5 6 
#
# 1 0.012637 -0.002425 -0.006551 0.000000 0.000000 0.000000
# 2 -0.002425 0.009706 -0.000872 0.000000 0.000000 0.000000
# 3 -0.006551 -0.000872 0.015392 0.000000 0.000000 0.000000
# 4 0.000000 0.000000 0.000000 0.024343 0.000000 0.000000
# 5 0.000000 0.000000 0.000000 0.000000 0.030468 0.000000
# 6 0.000000 0.000000 0.000000 0.000000 0.000000 0.025949
#
#
# Mechanical properties :
#
#
# Convention : Reuss Voigt Hill
#
# Bulk Modulus (GPa) = 55.43677 56.92282 56.17979
# Shear Modulus (GPa) = 34.67303 36.44857 35.56080
#
# Velocity S-wave (km/s) = 3.90289 4.00157 3.95254
# Velocity P-wave (km/s) = 6.68315 6.80863 6.74618
#
# Compressibility (1/GPa) = 0.01803857
#
# Stress axis : x y z
#
# Youngs Moduli (GPa) = 79.13260 103.02795 64.96965
#
# Poissons Ratio (x) = 0.24984 0.42562
# Poissons Ratio (y) = 0.19189 0.05667
# Poissons Ratio (z) = 0.51840 0.08986
#
# Static dielectric constant tensor:
#      x y z
#    x 3.819520 0.000000 0.000000 
#    y 0.000000 4.336590 0.000000 
#    z 0.000000 0.000000 4.101660 
# 
# 
# High freq. dielectric constant tensor:
#      x y z
#    x 1.887770 0.000000 0.000000 
#    y 0.000000 1.924280 0.000000 
#    z 0.000000 0.000000 1.901820 
# 
# From -- ./inp_files/4730.got.cif
#   From: 2010.03.12/outbox.cif.g09.slc.cpg/sg18_3_cif.got.tgz:4730.got - 2010.04.10 18:53:55.
