data_PCOD8156945
_publ_section_title
;
Structure prediction by ZEFSAII (Michael W. Deem and Ramdas Pophale) SiO2 
 PCOD8156945
Probable space group: P 21 21 21
;
_chemical_formula_sum "Si O2"
_cell_formula_units_Z 28
_cell_length_a 11.328165
_cell_length_b 20.415578
_cell_length_c 5.161499
_cell_angle_alpha 90.000000
_cell_angle_beta 90.000000
_cell_angle_gamma 90.000000
_cell_volume 1193.705222
_symmetry_space_group_name_H-M "P 21 21 21"
_symmetry_group_IT_number 19
_symmetry_cell_setting 'orthorhombic'
loop_
_space_group_symop_operation_xyz
x,y,z
1/2-x,-y,1/2+z
1/2+x,1/2-y,-z
-x,1/2+y,1/2-z
loop_
_atom_site_type_symbol
_atom_site_label
_atom_site_fract_x
_atom_site_fract_y
_atom_site_fract_z
Si Si1 0.728642 0.959315 0.248672
Si Si2 0.680180 0.512678 0.967281
Si Si3 0.023766 0.091658 0.814255
Si Si4 0.213070 0.325149 0.073030
Si Si5 0.562950 0.291707 0.846547
Si Si6 0.832675 0.222167 0.416870
Si Si7 0.262331 0.856065 0.994331
O O1 0.598826 0.930162 0.183259
O O2 0.814501 0.900074 0.344214
O O3 0.720800 0.011214 0.483316
O O4 0.718571 0.511348 0.667195
O O5 0.658772 0.589765 0.044200
O O6 0.563729 0.467871 0.995517
O O7 0.127590 0.104085 0.612592
O O8 0.996938 0.160997 0.952670
O O9 0.094257 0.281048 0.047347
O O10 0.297764 0.294256 0.292096
O O11 0.275169 0.326807 0.792415
O O12 0.475046 0.281776 0.602048
O O13 0.686149 0.327640 0.774160
O O14 0.787720 0.295441 0.339079
#
# Coordination Sequence:
#
# PCOD8156945 Si02
#       7
#     4   4   4   4   4   4   4
#     4  12  28  46  68  96 136 181 227 273 329 409
#     4  10  21  36  62  96 129 164 217 268 316 396
#     4  11  22  41  70  90 132 179 219 265 346 380
#     4  11  24  44  66 100 131 171 225 273 326 404
#     4  11  22  40  69  97 130 177 212 277 341 393
#     4  11  23  39  69  99 130 166 223 272 332 398
#     4  10  22  40  64 100 130 172 219 274 328 402
#
# _framework density 23.456378999999998
#
# number of rings (size 3 to 8) (size 9 to 14) (size 15 to 20)
#    0.000    1.143    4.286    1.714    2.000    1.143 
#    0.000    5.714    0.000    0.000    0.000    0.000 
#    0.000    0.000    0.000    0.000    0.000    0.000 
#
# Total GULP energy -346972.943401 kJ/mol
# GULP energy per Si atom -12391.890836 kJ/mol
# Density = 2.340299 g / cm^3
# Si number density = 23.456379 Si / 1000 Ang^3
#
#
#
# Elastic Constant Matrix: (Units=GPa)
#
#
# Indices 1 2 3 4 5 6 
#
# 1 52.7171 18.5138 -0.6103 0.0000 0.0000 0.0000
# 2 18.5138 126.4808 2.2516 0.0000 0.0000 0.0000
# 3 -0.6103 2.2516 60.8291 0.0000 0.0000 0.0000
# 4 0.0000 0.0000 0.0000 32.5214 0.0000 0.0000
# 5 0.0000 0.0000 0.0000 0.0000 27.9588 0.0000
# 6 0.0000 0.0000 0.0000 0.0000 0.0000 36.7606
#
#
#
# Elastic Compliance Matrix: (Units=1/GPa)
#
#
# Indices 1 2 3 4 5 6 
#
# 1 0.020003 -0.002933 0.000309 0.000000 0.000000 0.000000
# 2 -0.002933 0.008342 -0.000338 0.000000 0.000000 0.000000
# 3 0.000309 -0.000338 0.016455 0.000000 0.000000 0.000000
# 4 0.000000 0.000000 0.000000 0.030749 0.000000 0.000000
# 5 0.000000 0.000000 0.000000 0.000000 0.035767 0.000000
# 6 0.000000 0.000000 0.000000 0.000000 0.000000 0.027203
#
#
# Mechanical properties :
#
#
# Convention : Reuss Voigt Hill
#
# Bulk Modulus (GPa) = 25.72345 31.14859 28.43602
# Shear Modulus (GPa) = 31.76582 34.10628 32.93605
#
# Velocity S-wave (km/s) = 3.68401 3.81731 3.75125
# Velocity P-wave (km/s) = 5.39316 5.72166 5.55984
#
# Compressibility (1/GPa) = 0.03887503
#
# Stress axis : x y z
#
# Youngs Moduli (GPa) = 49.99256 119.87891 60.77139
#
# Poissons Ratio (x) = 0.35166 -0.01880
# Poissons Ratio (y) = 0.14665 0.02055
# Poissons Ratio (z) = -0.01546 0.04054
#
# Static dielectric constant tensor:
#      x y z
#    x 4.023790 0.000000 0.000000 
#    y 0.000000 5.098480 0.000000 
#    z 0.000000 0.000000 3.912970 
# 
# 
# High freq. dielectric constant tensor:
#      x y z
#    x 1.894470 0.000000 0.000000 
#    y 0.000000 1.950620 0.000000 
#    z 0.000000 0.000000 1.919070 
# 
# From -- ./inp_files/1050.got.cif
#   From: 2010.03.12/outbox.cif.g09.slc.cpg/sg19_1_cif.got.tgz:1050.got - 2010.04.10 18:59:41.
