data_PCOD8156382
_publ_section_title
;
Structure prediction by ZEFSAII (Michael W. Deem and Ramdas Pophale) SiO2 
 PCOD8156382
Probable space group: P 21 21 2
;
_chemical_formula_sum "Si O2"
_cell_formula_units_Z 14
_cell_length_a 9.845078
_cell_length_b 9.614265
_cell_length_c 5.990385
_cell_angle_alpha 90.000000
_cell_angle_beta 90.000000
_cell_angle_gamma 90.000000
_cell_volume 567.009043
_symmetry_space_group_name_H-M "P 21 21 2"
_symmetry_group_IT_number 18
_symmetry_cell_setting 'orthorhombic'
loop_
_space_group_symop_operation_xyz
x,y,z
-x,-y,z
1/2+x,1/2-y,-z
1/2-x,1/2+y,-z
loop_
_atom_site_type_symbol
_atom_site_label
_atom_site_fract_x
_atom_site_fract_y
_atom_site_fract_z
Si Si1 0.775059 0.067255 0.601146
Si Si2 0.000000 0.500000 0.502621
Si Si3 0.731402 0.276604 0.232101
Si Si4 0.434880 0.216239 0.141760
O O1 0.795344 0.144488 0.363089
O O2 0.863049 0.138563 0.793449
O O3 0.611592 0.079135 0.648094
O O4 0.813374 0.902832 0.601217
O O5 0.915276 0.392848 0.657448
O O6 0.595968 0.233777 0.094789
O O7 0.852205 0.335888 0.075251
#
# Coordination Sequence:
#
# PCOD8156382 Si02
#       4
#     4   2   4   4
#     4  11  24  48  71 109 145 193 242 304 370 439
#     4  10  24  46  74 108 144 196 238 306 380 422
#     4  11  27  46  77 108 148 195 247 306 371 445
#     4  11  26  46  74 109 146 192 251 298 376 435
#
# _framework density 24.690961999999999
#
# number of rings (size 3 to 8) (size 9 to 14) (size 15 to 20)
#    0.000    1.143    2.857    0.857   12.000    0.000 
#    5.143    0.000    0.000    0.000    0.000    0.000 
#    0.000    0.000    0.000    0.000    0.000    0.000 
#
# Total GULP energy -173470.482875 kJ/mol
# GULP energy per Si atom -12390.748777 kJ/mol
# Density = 2.463476 g / cm^3
# Si number density = 24.690962 Si / 1000 Ang^3
#
#
#
# Elastic Constant Matrix: (Units=GPa)
#
#
# Indices 1 2 3 4 5 6 
#
# 1 113.8237 28.2726 37.6098 0.0000 0.0000 0.0000
# 2 28.2726 116.5757 31.9355 0.0000 0.0000 0.0000
# 3 37.6098 31.9355 53.1242 0.0000 0.0000 0.0000
# 4 0.0000 0.0000 0.0000 31.6392 0.0000 0.0000
# 5 0.0000 0.0000 0.0000 0.0000 50.9963 0.0000
# 6 0.0000 0.0000 0.0000 0.0000 0.0000 46.0475
#
#
#
# Elastic Compliance Matrix: (Units=1/GPa)
#
#
# Indices 1 2 3 4 5 6 
#
# 1 0.011512 -0.000670 -0.007747 0.000000 0.000000 0.000000
# 2 -0.000670 0.010308 -0.005723 0.000000 0.000000 0.000000
# 3 -0.007747 -0.005723 0.027749 0.000000 0.000000 0.000000
# 4 0.000000 0.000000 0.000000 0.031606 0.000000 0.000000
# 5 0.000000 0.000000 0.000000 0.000000 0.019609 0.000000
# 6 0.000000 0.000000 0.000000 0.000000 0.000000 0.021717
#
#
# Mechanical properties :
#
#
# Convention : Reuss Voigt Hill
#
# Bulk Modulus (GPa) = 46.97150 53.23992 50.10571
# Shear Modulus (GPa) = 31.67026 38.11699 34.89363
#
# Velocity S-wave (km/s) = 3.58532 3.93334 3.76335
# Velocity P-wave (km/s) = 6.01701 6.49904 6.26266
#
# Compressibility (1/GPa) = 0.02128950
#
# Stress axis : x y z
#
# Youngs Moduli (GPa) = 86.86814 97.00991 36.03759
#
# Poissons Ratio (x) = 0.06495 0.27920
# Poissons Ratio (y) = 0.05816 0.20623
# Poissons Ratio (z) = 0.67300 0.55516
#
# Static dielectric constant tensor:
#      x y z
#    x 4.541120 0.000000 0.000000 
#    y 0.000000 4.517500 0.000000 
#    z 0.000000 0.000000 3.971950 
# 
# 
# High freq. dielectric constant tensor:
#      x y z
#    x 1.994580 0.000000 0.000000 
#    y 0.000000 1.990810 0.000000 
#    z 0.000000 0.000000 1.946920 
# 
# From -- ./inp_files/376.got.cif
#   From: 2010.03.12/outbox.cif.g09.slc.cpg/sg18_1_cif.got.tgz:376.got - 2010.04.10 18:53:55.
