data_PCOD8156602
_publ_section_title
;
Structure prediction by ZEFSAII (Michael W. Deem and Ramdas Pophale) SiO2 
 PCOD8156602
Probable space group: P 21 21 21
;
_chemical_formula_sum "Si O2"
_cell_formula_units_Z 28
_cell_length_a 8.747988
_cell_length_b 17.275681
_cell_length_c 9.078056
_cell_angle_alpha 90.000000
_cell_angle_beta 90.000000
_cell_angle_gamma 90.000000
_cell_volume 1371.943455
_symmetry_space_group_name_H-M "P 21 21 21"
_symmetry_group_IT_number 19
_symmetry_cell_setting 'orthorhombic'
loop_
_space_group_symop_operation_xyz
x,y,z
1/2-x,-y,1/2+z
1/2+x,1/2-y,-z
-x,1/2+y,1/2-z
loop_
_atom_site_type_symbol
_atom_site_label
_atom_site_fract_x
_atom_site_fract_y
_atom_site_fract_z
Si Si1 0.852407 0.874616 0.094596
Si Si2 0.678703 0.580339 0.803902
Si Si3 0.674141 0.858867 0.829512
Si Si4 0.078478 0.032950 0.451976
Si Si5 0.651067 0.716503 0.617643
Si Si6 0.702389 0.039445 0.087792
Si Si7 0.308489 0.680489 0.599873
O O1 0.772087 0.828200 0.228058
O O2 0.032604 0.879056 0.119450
O O3 0.796946 0.961845 0.072333
O O4 0.794902 0.827564 0.951585
O O5 0.638934 0.507681 0.698106
O O6 0.748291 0.648530 0.699505
O O7 0.785988 0.557204 0.938847
O O8 0.518984 0.892213 0.902135
O O9 0.626877 0.789378 0.724468
O O10 0.768817 0.927653 0.750446
O O11 0.975186 0.975346 0.550006
O O12 0.489179 0.682090 0.568858
O O13 0.736634 0.741664 0.468238
O O14 0.764308 0.104278 0.974878
#
# Coordination Sequence:
#
# PCOD8156602 Si02
#       7
#     4   4   4   4   4   4   4
#     4  10  19  39  63  90 121 162 214 264 303 384
#     4  11  24  41  60  96 135 157 211 268 327 373
#     4  10  22  38  64  92 120 170 217 252 313 381
#     4  11  23  41  62  96 125 167 208 269 320 368
#     4  10  23  43  60  91 127 167 210 257 321 383
#     4  10  18  40  64  85 122 162 220 254 302 381
#     4  10  21  40  63  86 126 165 206 262 312 386
#
# _framework density 20.409006000000002
#
# number of rings (size 3 to 8) (size 9 to 14) (size 15 to 20)
#    0.000    1.714    4.286    0.857    2.000    5.714 
#    0.000    2.857    0.000    0.000    0.000    0.000 
#    0.000    0.000    0.000    0.000    0.000    0.000 
#
# Total GULP energy -347012.581935 kJ/mol
# GULP energy per Si atom -12393.306498 kJ/mol
# Density = 2.036255 g / cm^3
# Si number density = 20.409006 Si / 1000 Ang^3
#
#
#
# Elastic Constant Matrix: (Units=GPa)
#
#
# Indices 1 2 3 4 5 6 
#
# 1 54.4440 10.8313 35.9864 0.0000 0.0000 0.0000
# 2 10.8313 56.9168 7.9135 0.0000 0.0000 0.0000
# 3 35.9864 7.9135 90.4665 0.0000 0.0000 0.0000
# 4 0.0000 0.0000 0.0000 30.3319 0.0000 0.0000
# 5 0.0000 0.0000 0.0000 0.0000 36.7014 0.0000
# 6 0.0000 0.0000 0.0000 0.0000 0.0000 29.5475
#
#
#
# Elastic Compliance Matrix: (Units=1/GPa)
#
#
# Indices 1 2 3 4 5 6 
#
# 1 0.025589 -0.003497 -0.009873 0.000000 0.000000 0.000000
# 2 -0.003497 0.018264 -0.000207 0.000000 0.000000 0.000000
# 3 -0.009873 -0.000207 0.014999 0.000000 0.000000 0.000000
# 4 0.000000 0.000000 0.000000 0.032969 0.000000 0.000000
# 5 0.000000 0.000000 0.000000 0.000000 0.027247 0.000000
# 6 0.000000 0.000000 0.000000 0.000000 0.000000 0.033844
#
#
# Mechanical properties :
#
#
# Convention : Reuss Voigt Hill
#
# Bulk Modulus (GPa) = 31.54687 34.58775 33.06731
# Shear Modulus (GPa) = 26.22868 29.12256 27.67562
#
# Velocity S-wave (km/s) = 3.58879 3.78159 3.68645
# Velocity P-wave (km/s) = 5.71519 6.00428 5.86152
#
# Compressibility (1/GPa) = 0.03169887
#
# Stress axis : x y z
#
# Youngs Moduli (GPa) = 39.07909 54.75344 66.66973
#
# Poissons Ratio (x) = 0.19147 0.65824
# Poissons Ratio (y) = 0.13666 0.01377
# Poissons Ratio (z) = 0.38583 0.01131
#
# Static dielectric constant tensor:
#      x y z
#    x 3.604300 0.000000 0.000000 
#    y 0.000000 3.814340 0.000000 
#    z 0.000000 0.000000 4.111060 
# 
# 
# High freq. dielectric constant tensor:
#      x y z
#    x 1.774620 0.000000 0.000000 
#    y 0.000000 1.799280 0.000000 
#    z 0.000000 0.000000 1.811540 
# 
# From -- ./inp_files/2975.got.cif
#   From: 2010.03.12/outbox.cif.g09.slc.cpg/sg19_2_cif.got.tgz:2975.got - 2010.04.10 18:59:41.
