data_PCOD8156099
_publ_section_title
;
Structure prediction by ZEFSAII (Michael W. Deem and Ramdas Pophale) SiO2 
 PCOD8156099
Probable space group: P 21 21 2
;
_chemical_formula_sum "Si O2"
_cell_formula_units_Z 24
_cell_length_a 8.475127
_cell_length_b 14.966778
_cell_length_c 9.369456
_cell_angle_alpha 90.000000
_cell_angle_beta 90.000000
_cell_angle_gamma 90.000000
_cell_volume 1188.471873
_symmetry_space_group_name_H-M "P 21 21 2"
_symmetry_group_IT_number 18
_symmetry_cell_setting 'orthorhombic'
loop_
_space_group_symop_operation_xyz
x,y,z
-x,-y,z
1/2+x,1/2-y,-z
1/2-x,1/2+y,-z
loop_
_atom_site_type_symbol
_atom_site_label
_atom_site_fract_x
_atom_site_fract_y
_atom_site_fract_z
Si Si1 0.683448 0.000000 0.838882
Si Si2 0.816055 0.149382 0.645279
Si Si3 0.180770 1.000000 0.144271
Si Si4 0.682249 0.854204 0.342389
Si Si5 0.317751 0.854204 0.342389
Si Si6 0.816055 0.850618 0.645279
O O1 0.764172 0.088412 0.776295
O O2 0.500000 0.000000 0.801667
O O3 0.764173 0.911589 0.776295
O O4 0.706884 0.000000 0.007703
O O5 0.775838 0.251050 0.686683
O O6 0.721406 0.119631 0.504913
O O7 1.000000 0.137607 0.612571
O O8 0.212492 0.911739 0.236183
O O9 0.212493 0.088261 0.236184
O O10 0.000000 0.000000 0.094180
O O11 0.500000 0.875729 0.313528
O O12 0.721406 0.880369 0.504914
O O13 0.275838 0.751050 0.313317
#
# Coordination Sequence:
#
# PCOD8156099 Si02
#       6
#     4   4   4   4   4   4
#     4  12  25  40  59  84 118 156 194 238 289 346
#     4  10  21  39  63  89 117 151 193 239 286 339
#     4  12  25  40  59  84 118 156 194 238 289 346
#     4  10  21  39  63  89 117 151 193 239 286 339
#     4  10  21  39  63  89 117 151 193 239 286 339
#     4  10  21  39  63  89 117 151 193 239 286 339
#
# _framework density 20.193999000000002
#
# number of rings (size 3 to 8) (size 9 to 14) (size 15 to 20)
#    0.000    1.333    0.000    6.000    0.000    5.333 
#    0.000    0.000    0.000    0.000    0.000    0.000 
#    0.000    0.000    0.000    0.000    0.000    0.000 
#
# Total GULP energy -297794.341782 kJ/mol
# GULP energy per Si atom -12408.097574 kJ/mol
# Density = 2.014804 g / cm^3
# Si number density = 20.193999 Si / 1000 Ang^3
#
#
#
# Elastic Constant Matrix: (Units=GPa)
#
#
# Indices 1 2 3 4 5 6 
#
# 1 72.6634 32.6942 9.4055 0.0000 0.0000 0.0000
# 2 32.6942 114.5944 60.8116 0.0000 0.0000 0.0000
# 3 9.4055 60.8116 97.9995 0.0000 0.0000 0.0000
# 4 0.0000 0.0000 0.0000 0.1922 0.0000 0.0000
# 5 0.0000 0.0000 0.0000 0.0000 37.4466 0.0000
# 6 0.0000 0.0000 0.0000 0.0000 0.0000 20.9922
#
#
#
# Elastic Compliance Matrix: (Units=1/GPa)
#
#
# Indices 1 2 3 4 5 6 
#
# 1 0.016032 -0.005602 0.001938 0.000000 0.000000 0.000000
# 2 -0.005602 0.014969 -0.008751 0.000000 0.000000 0.000000
# 3 0.001938 -0.008751 0.015448 0.000000 0.000000 0.000000
# 4 0.000000 0.000000 0.000000 5.203942 0.000000 0.000000
# 5 0.000000 0.000000 0.000000 0.000000 0.026705 0.000000
# 6 0.000000 0.000000 0.000000 0.000000 0.000000 0.047637
#
#
# Mechanical properties :
#
#
# Convention : Reuss Voigt Hill
#
# Bulk Modulus (GPa) = 46.25742 54.56442 50.41092
# Shear Modulus (GPa) = 0.93340 23.88259 12.40800
#
# Velocity S-wave (km/s) = 0.68060 3.44271 2.48148
# Velocity P-wave (km/s) = 4.85529 6.54842 5.76436
#
# Compressibility (1/GPa) = 0.02161815
#
# Stress axis : x y z
#
# Youngs Moduli (GPa) = 62.37546 66.80693 64.73224
#
# Poissons Ratio (x) = 0.37427 -0.12543
# Poissons Ratio (y) = 0.34944 0.56645
# Poissons Ratio (z) = -0.12086 0.58461
#
# Static dielectric constant tensor:
#      x y z
#    x 3.711440 0.000000 0.000000 
#    y 0.000000 3.866670 0.000000 
#    z 0.000000 0.000000 3.470570 
# 
# 
# High freq. dielectric constant tensor:
#      x y z
#    x 1.802680 0.000000 0.000000 
#    y 0.000000 1.801980 0.000000 
#    z 0.000000 0.000000 1.781240 
# 
# From -- ./inp_files/3157.got.cif
#   From: 2010.03.12/outbox.cif.g09.slc.cpg/sg18_2_cif.got.tgz:3157.got - 2010.04.10 18:53:55.
