data_PCOD8156666
_publ_section_title
;
Structure prediction by ZEFSAII (Michael W. Deem and Ramdas Pophale) SiO2 
 PCOD8156666
Probable space group: P 21 21 21
;
_chemical_formula_sum "Si O2"
_cell_formula_units_Z 32
_cell_length_a 9.906829
_cell_length_b 8.407729
_cell_length_c 18.940688
_cell_angle_alpha 90.000000
_cell_angle_beta 90.000000
_cell_angle_gamma 90.000000
_cell_volume 1577.644406
_symmetry_space_group_name_H-M "P 21 21 21"
_symmetry_group_IT_number 19
_symmetry_cell_setting 'orthorhombic'
loop_
_space_group_symop_operation_xyz
x,y,z
1/2-x,-y,1/2+z
1/2+x,1/2-y,-z
-x,1/2+y,1/2-z
loop_
_atom_site_type_symbol
_atom_site_label
_atom_site_fract_x
_atom_site_fract_y
_atom_site_fract_z
Si Si1 0.344045 0.580935 0.728873
Si Si2 0.023781 0.321972 0.423371
Si Si3 0.287425 0.134290 0.890552
Si Si4 0.996875 0.083982 0.540772
Si Si5 0.281318 0.962299 0.539143
Si Si6 0.773483 0.986318 0.633953
Si Si7 0.098675 0.367873 0.078431
Si Si8 0.596462 0.399451 0.704176
O O1 0.234158 0.503478 0.780820
O O2 0.320962 0.555404 0.645483
O O3 0.487922 0.500943 0.748703
O O4 0.344791 0.769782 0.743157
O O5 0.041249 0.247929 0.502309
O O6 0.881128 0.412354 0.424645
O O7 0.141419 0.446611 0.405811
O O8 0.025528 0.180683 0.365309
O O9 0.206382 0.298660 0.880897
O O10 0.445047 0.177141 0.902271
O O11 0.283963 0.018174 0.822049
O O12 0.222147 0.030526 0.953623
O O13 0.900747 0.094137 0.609335
O O14 0.900532 0.988221 0.486460
O O15 0.130575 0.994452 0.566897
O O16 0.317335 0.784814 0.558473
#
# Coordination Sequence:
#
# PCOD8156666 Si02
#       8
#     4   4   4   4   4   4   4   4
#     4  10  20  34  56  87 115 152 191 251 285 343
#     4  11  21  35  59  90 113 151 189 242 293 345
#     4  10  19  37  54  90 113 149 191 243 285 351
#     4  11  22  38  58  88 121 148 193 242 289 355
#     4  11  21  35  59  84 118 151 190 238 293 351
#     4  11  22  36  63  84 117 156 194 241 297 335
#     4  10  19  37  58  81 116 153 191 233 290 342
#     4  10  20  34  57  86 121 144 195 246 292 336
#
# _framework density 20.283404999999998
#
# number of rings (size 3 to 8) (size 9 to 14) (size 15 to 20)
#    0.000    1.500    6.250    2.250    3.500    0.000 
#    0.000    0.000    2.750    0.000    0.000    0.000 
#    0.000    0.000    0.000    0.000    0.000    0.000 
#
# Total GULP energy -396569.445680 kJ/mol
# GULP energy per Si atom -12392.795177 kJ/mol
# Density = 2.023724 g / cm^3
# Si number density = 20.283405 Si / 1000 Ang^3
#
#
#
# Elastic Constant Matrix: (Units=GPa)
#
#
# Indices 1 2 3 4 5 6 
#
# 1 65.0185 15.4847 19.0434 0.0000 0.0000 0.0000
# 2 15.4847 76.3901 2.8081 0.0000 0.0000 0.0000
# 3 19.0434 2.8081 34.4855 0.0000 0.0000 0.0000
# 4 0.0000 0.0000 0.0000 33.3163 0.0000 0.0000
# 5 0.0000 0.0000 0.0000 0.0000 26.4106 0.0000
# 6 0.0000 0.0000 0.0000 0.0000 0.0000 20.5016
#
#
#
# Elastic Compliance Matrix: (Units=1/GPa)
#
#
# Indices 1 2 3 4 5 6 
#
# 1 0.019248 -0.003522 -0.010342 0.000000 0.000000 0.000000
# 2 -0.003522 0.013774 0.000823 0.000000 0.000000 0.000000
# 3 -0.010342 0.000823 0.034642 0.000000 0.000000 0.000000
# 4 0.000000 0.000000 0.000000 0.030015 0.000000 0.000000
# 5 0.000000 0.000000 0.000000 0.000000 0.037864 0.000000
# 6 0.000000 0.000000 0.000000 0.000000 0.000000 0.048777
#
#
# Mechanical properties :
#
#
# Convention : Reuss Voigt Hill
#
# Bulk Modulus (GPa) = 24.04856 27.84075 25.94465
# Shear Modulus (GPa) = 22.29531 25.28290 23.78911
#
# Velocity S-wave (km/s) = 3.31900 3.53439 3.42838
# Velocity P-wave (km/s) = 5.15458 5.51466 5.33766
#
# Compressibility (1/GPa) = 0.04158254
#
# Stress axis : x y z
#
# Youngs Moduli (GPa) = 51.95320 72.59910 28.86682
#
# Poissons Ratio (x) = 0.25566 0.29855
# Poissons Ratio (y) = 0.18295 -0.02376
# Poissons Ratio (z) = 0.53732 -0.05975
#
# Static dielectric constant tensor:
#      x y z
#    x 3.360960 0.000000 0.000000 
#    y 0.000000 3.822220 0.000000 
#    z 0.000000 0.000000 3.774200 
# 
# 
# High freq. dielectric constant tensor:
#      x y z
#    x 1.748680 0.000000 0.000000 
#    y 0.000000 1.803960 0.000000 
#    z 0.000000 0.000000 1.785340 
# 
# From -- ./inp_files/6738.got.cif
#   From: 2010.03.12/outbox.cif.g09.slc.cpg/sg19_4_cif.got.tgz:6738.got - 2010.04.10 18:59:41.
