data_PCOD8156106
_publ_section_title
;
Structure prediction by ZEFSAII (Michael W. Deem and Ramdas Pophale) SiO2 
 PCOD8156106
Probable space group: P 21 21 2
;
_chemical_formula_sum "Si O2"
_cell_formula_units_Z 32
_cell_length_a 8.887453
_cell_length_b 14.954686
_cell_length_c 11.744634
_cell_angle_alpha 90.000000
_cell_angle_beta 90.000000
_cell_angle_gamma 90.000000
_cell_volume 1560.968370
_symmetry_space_group_name_H-M "P 21 21 2"
_symmetry_group_IT_number 18
_symmetry_cell_setting 'orthorhombic'
loop_
_space_group_symop_operation_xyz
x,y,z
-x,-y,z
1/2+x,1/2-y,-z
1/2-x,1/2+y,-z
loop_
_atom_site_type_symbol
_atom_site_label
_atom_site_fract_x
_atom_site_fract_y
_atom_site_fract_z
Si Si1 0.923692 0.904076 0.670575
Si Si2 0.586541 0.589179 0.926596
Si Si3 0.338509 0.335129 0.165493
Si Si4 0.658402 0.332763 0.764632
Si Si5 0.329847 0.985331 0.238204
Si Si6 0.314309 0.871483 0.465769
Si Si7 0.329501 0.977726 0.695251
Si Si8 0.496217 0.713784 0.533382
O O1 0.922877 0.860361 0.547199
O O2 0.007391 0.840825 0.761562
O O3 0.753549 0.926122 0.709235
O O4 0.000000 0.000000 0.663332
O O5 0.500000 0.500000 0.967303
O O6 0.479057 0.647753 0.847980
O O7 0.739695 0.566270 0.859984
O O8 0.627352 0.649022 0.034102
O O9 0.272952 0.236112 0.177488
O O10 0.218968 0.408365 0.207663
O O11 0.748182 0.422032 0.733400
O O12 0.588744 0.289455 0.652652
O O13 0.500000 0.000000 0.194952
O O14 0.331767 0.928255 0.352779
O O15 0.290520 0.937325 0.571642
O O16 0.465680 0.812724 0.482477
O O17 0.174121 0.803001 0.455423
O O18 0.500000 0.000000 0.713733
#
# Coordination Sequence:
#
# PCOD8156106 Si02
#       8
#     4   4   4   4   4   4   4   4
#     4  10  21  39  66  91 129 176 215 268 335 405
#     4  10  23  46  71  93 129 184 230 277 344 395
#     4  11  23  45  67  99 129 172 233 278 329 405
#     4  11  24  44  69  95 137 178 222 280 336 409
#     4  11  26  42  68  99 136 178 224 276 338 408
#     4  12  25  41  64  99 137 171 223 274 339 413
#     4  11  23  40  62  97 133 173 216 275 339 400
#     4  12  23  40  65  96 133 173 216 273 335 405
#
# _framework density 20.500095000000002
#
# number of rings (size 3 to 8) (size 9 to 14) (size 15 to 20)
#    0.000    1.000    5.000    2.250    5.250    1.500 
#    0.000    1.250    0.000    0.000    0.000    0.000 
#    0.000    0.000    0.000    0.000    0.000    0.000 
#
# Total GULP energy -396914.979360 kJ/mol
# GULP energy per Si atom -12403.593105 kJ/mol
# Density = 2.045344 g / cm^3
# Si number density = 20.500095 Si / 1000 Ang^3
#
#
#
# Elastic Constant Matrix: (Units=GPa)
#
#
# Indices 1 2 3 4 5 6 
#
# 1 148.3787 45.7754 47.8349 0.0000 0.0000 0.0000
# 2 45.7754 88.3263 50.3166 0.0000 0.0000 0.0000
# 3 47.8349 50.3166 122.1466 0.0000 0.0000 0.0000
# 4 0.0000 0.0000 0.0000 30.8790 0.0000 0.0000
# 5 0.0000 0.0000 0.0000 0.0000 13.5318 0.0000
# 6 0.0000 0.0000 0.0000 0.0000 0.0000 30.2306
#
#
#
# Elastic Compliance Matrix: (Units=1/GPa)
#
#
# Indices 1 2 3 4 5 6 
#
# 1 0.008362 -0.003225 -0.001946 0.000000 0.000000 0.000000
# 2 -0.003225 0.016037 -0.005343 0.000000 0.000000 0.000000
# 3 -0.001946 -0.005343 0.011150 0.000000 0.000000 0.000000
# 4 0.000000 0.000000 0.000000 0.032384 0.000000 0.000000
# 5 0.000000 0.000000 0.000000 0.000000 0.073900 0.000000
# 6 0.000000 0.000000 0.000000 0.000000 0.000000 0.033079
#
#
# Mechanical properties :
#
#
# Convention : Reuss Voigt Hill
#
# Bulk Modulus (GPa) = 68.86970 71.85614 70.36292
# Shear Modulus (GPa) = 24.90275 29.25658 27.07966
#
# Velocity S-wave (km/s) = 3.48913 3.78185 3.63843
# Velocity P-wave (km/s) = 7.06398 7.36190 7.21448
#
# Compressibility (1/GPa) = 0.01452017
#
# Stress axis : x y z
#
# Youngs Moduli (GPa) = 119.59122 62.35651 89.68503
#
# Poissons Ratio (x) = 0.20109 0.17455
# Poissons Ratio (y) = 0.38566 0.47921
# Poissons Ratio (z) = 0.23275 0.33319
#
# Static dielectric constant tensor:
#      x y z
#    x 4.442900 0.000000 0.000000 
#    y 0.000000 3.878820 0.000000 
#    z 0.000000 0.000000 3.599570 
# 
# 
# High freq. dielectric constant tensor:
#      x y z
#    x 1.813130 0.000000 0.000000 
#    y 0.000000 1.804970 0.000000 
#    z 0.000000 0.000000 1.796860 
# 
# From -- ./inp_files/5686.got.cif
#   From: 2010.03.12/outbox.cif.g09.slc.cpg/sg18_3_cif.got.tgz:5686.got - 2010.04.10 18:53:55.
