data_PCOD8156016
_publ_section_title
;
Structure prediction by ZEFSAII (Michael W. Deem and Ramdas Pophale) SiO2 
 PCOD8156016
Probable space group: P 21 21 2
;
_chemical_formula_sum "Si O2"
_cell_formula_units_Z 16
_cell_length_a 17.599884
_cell_length_b 5.085411
_cell_length_c 8.031918
_cell_angle_alpha 90.000000
_cell_angle_beta 90.000000
_cell_angle_gamma 90.000000
_cell_volume 718.877895
_symmetry_space_group_name_H-M "P 21 21 2"
_symmetry_group_IT_number 18
_symmetry_cell_setting 'orthorhombic'
loop_
_space_group_symop_operation_xyz
x,y,z
-x,-y,z
1/2+x,1/2-y,-z
1/2-x,1/2+y,-z
loop_
_atom_site_type_symbol
_atom_site_label
_atom_site_fract_x
_atom_site_fract_y
_atom_site_fract_z
Si Si1 0.138765 0.288095 0.931160
Si Si2 0.500000 0.500000 0.492987
Si Si3 0.861012 0.942401 0.270676
Si Si4 0.222856 0.544927 0.205572
Si Si5 0.000000 0.500000 0.725109
O O1 0.187679 0.115365 0.798564
O O2 0.070443 0.428914 0.840683
O O3 0.107759 0.103733 0.081780
O O4 0.195126 0.509171 0.011873
O O5 0.430098 0.594511 0.604251
O O6 0.475576 0.251513 0.382486
O O7 0.795780 0.721250 0.309103
O O8 0.825116 0.227041 0.294098
#
# Coordination Sequence:
#
# PCOD8156016 Si02
#       5
#     4   2   4   4   2
#     4  10  23  42  73 107 128 175 241 295 339 393
#     4  12  28  46  58 106 152 186 220 278 354 444
#     4  10  22  40  73  92 134 182 232 274 341 414
#     4  10  20  39  75 101 125 171 249 295 320 408
#     4  12  30  40  68 104 156 172 226 298 358 392
#
# _framework density 22.256909
#
# number of rings (size 3 to 8) (size 9 to 14) (size 15 to 20)
#    1.500    0.000    2.500    1.500    7.000    0.000 
#    0.000    5.000    0.000    0.000    0.000    0.000 
#    0.000    0.000    0.000    0.000    0.000    0.000 
#
# Total GULP energy -198327.208939 kJ/mol
# GULP energy per Si atom -12395.450559 kJ/mol
# Density = 2.220625 g / cm^3
# Si number density = 22.256909 Si / 1000 Ang^3
#
#
#
# Elastic Constant Matrix: (Units=GPa)
#
#
# Indices 1 2 3 4 5 6 
#
# 1 111.5915 23.8553 30.9271 0.0000 0.0000 0.0000
# 2 23.8553 129.6293 14.4309 0.0000 0.0000 0.0000
# 3 30.9271 14.4309 48.0522 0.0000 0.0000 0.0000
# 4 0.0000 0.0000 0.0000 29.2144 0.0000 0.0000
# 5 0.0000 0.0000 0.0000 0.0000 27.9852 0.0000
# 6 0.0000 0.0000 0.0000 0.0000 0.0000 43.7476
#
#
#
# Elastic Compliance Matrix: (Units=1/GPa)
#
#
# Indices 1 2 3 4 5 6 
#
# 1 0.011112 -0.001292 -0.006764 0.000000 0.000000 0.000000
# 2 -0.001292 0.008131 -0.001610 0.000000 0.000000 0.000000
# 3 -0.006764 -0.001610 0.025648 0.000000 0.000000 0.000000
# 4 0.000000 0.000000 0.000000 0.034230 0.000000 0.000000
# 5 0.000000 0.000000 0.000000 0.000000 0.035733 0.000000
# 6 0.000000 0.000000 0.000000 0.000000 0.000000 0.022858
#
#
# Mechanical properties :
#
#
# Convention : Reuss Voigt Hill
#
# Bulk Modulus (GPa) = 39.12595 47.52220 43.32408
# Shear Modulus (GPa) = 30.19973 34.86008 32.52990
#
# Velocity S-wave (km/s) = 3.68757 3.96189 3.82719
# Velocity P-wave (km/s) = 5.97899 6.50591 6.24800
#
# Compressibility (1/GPa) = 0.02555848
#
# Stress axis : x y z
#
# Youngs Moduli (GPa) = 89.99267 122.98088 38.98984
#
# Poissons Ratio (x) = 0.15888 0.26372
# Poissons Ratio (y) = 0.11626 0.06279
# Poissons Ratio (z) = 0.60870 0.19806
#
# Static dielectric constant tensor:
#      x y z
#    x 3.692470 0.000000 0.000000 
#    y 0.000000 4.101850 0.000000 
#    z 0.000000 0.000000 3.745960 
# 
# 
# High freq. dielectric constant tensor:
#      x y z
#    x 1.866500 0.000000 0.000000 
#    y 0.000000 1.889920 0.000000 
#    z 0.000000 0.000000 1.852640 
# 
# From -- ./inp_files/4384.got.cif
#   From: 2010.03.12/outbox.cif.g09.slc.cpg/sg18_3_cif.got.tgz:4384.got - 2010.04.10 18:53:55.
