data_PCOD8156520
_publ_section_title
;
Structure prediction by ZEFSAII (Michael W. Deem and Ramdas Pophale) SiO2 
 PCOD8156520
Probable space group: P 21 21 2
;
_chemical_formula_sum "Si O2"
_cell_formula_units_Z 10
_cell_length_a 10.797697
_cell_length_b 8.529486
_cell_length_c 4.635830
_cell_angle_alpha 90.000000
_cell_angle_beta 90.000000
_cell_angle_gamma 90.000000
_cell_volume 426.954405
_symmetry_space_group_name_H-M "P 21 21 2"
_symmetry_group_IT_number 18
_symmetry_cell_setting 'orthorhombic'
loop_
_space_group_symop_operation_xyz
x,y,z
-x,-y,z
1/2+x,1/2-y,-z
1/2-x,1/2+y,-z
loop_
_atom_site_type_symbol
_atom_site_label
_atom_site_fract_x
_atom_site_fract_y
_atom_site_fract_z
Si Si1 0.786969 0.152660 0.595628
Si Si2 0.213030 0.152663 0.904371
Si Si3 0.000000 0.000000 0.249998
O O1 0.695954 0.215069 0.343645
O O2 0.727107 0.999999 0.749998
O O3 0.918997 0.111113 0.455939
O O4 0.804045 0.284928 0.843645
O O5 0.081002 0.111113 0.044056
#
# Coordination Sequence:
#
# PCOD8156520 Si02
#       3
#     4   4   2
#     4  12  25  46  80 109 146 197 247 300 368 441
#     4  12  25  46  80 109 146 197 247 300 368 441
#     4  12  26  48  84 102 154 196 236 316 374 410
#
# _framework density 23.421704999999999
#
# number of rings (size 3 to 8) (size 9 to 14) (size 15 to 20)
#    0.000    0.000    8.000    1.200    0.000    0.000 
#    0.000    2.000   35.200    0.000    0.000    0.000 
#    0.000    0.000    0.000    0.000    0.000    0.000 
#
# Total GULP energy -123924.787453 kJ/mol
# GULP energy per Si atom -12392.478745 kJ/mol
# Density = 2.336840 g / cm^3
# Si number density = 23.421705 Si / 1000 Ang^3
#
#
#
# Elastic Constant Matrix: (Units=GPa)
#
#
# Indices 1 2 3 4 5 6 
#
# 1 81.6517 90.2860 81.3395 0.0000 0.0000 0.0000
# 2 90.2860 156.2898 123.7308 0.0000 0.0000 0.0000
# 3 81.3395 123.7308 240.6241 0.0000 0.0000 0.0000
# 4 0.0000 0.0000 0.0000 102.5153 0.0000 0.0000
# 5 0.0000 0.0000 0.0000 0.0000 52.5712 0.0000
# 6 0.0000 0.0000 0.0000 0.0000 0.0000 26.2539
#
#
#
# Elastic Compliance Matrix: (Units=1/GPa)
#
#
# Indices 1 2 3 4 5 6 
#
# 1 0.034706 -0.018150 -0.002399 0.000000 0.000000 0.000000
# 2 -0.018150 0.020283 -0.004294 0.000000 0.000000 0.000000
# 3 -0.002399 -0.004294 0.007175 0.000000 0.000000 0.000000
# 4 0.000000 0.000000 0.000000 0.009755 0.000000 0.000000
# 5 0.000000 0.000000 0.000000 0.000000 0.019022 0.000000
# 6 0.000000 0.000000 0.000000 0.000000 0.000000 0.038090
#
#
# Mechanical properties :
#
#
# Convention : Reuss Voigt Hill
#
# Bulk Modulus (GPa) = 80.14410 118.80868 99.47639
# Shear Modulus (GPa) = 27.34090 48.48202 37.91146
#
# Velocity S-wave (km/s) = 3.42033 4.55462 4.02761
# Velocity P-wave (km/s) = 7.06331 8.85976 8.01205
#
# Compressibility (1/GPa) = 0.01247752
#
# Stress axis : x y z
#
# Youngs Moduli (GPa) = 28.81328 49.30239 139.37181
#
# Poissons Ratio (x) = 0.89483 0.33437
# Poissons Ratio (y) = 0.52296 0.59851
# Poissons Ratio (z) = 0.06913 0.21172
#
# Static dielectric constant tensor:
#      x y z
#    x 3.672290 0.000000 0.000000 
#    y 0.000000 4.809430 0.000000 
#    z 0.000000 0.000000 5.163350 
# 
# 
# High freq. dielectric constant tensor:
#      x y z
#    x 1.862010 0.000000 0.000000 
#    y 0.000000 1.933990 0.000000 
#    z 0.000000 0.000000 1.984380 
# 
# From -- ./inp_files/350.got.cif
#   From: 2010.03.12/outbox.cif.g09.slc.cpg/sg18_1_cif.got.tgz:350.got - 2010.04.10 18:53:55.
