data_PCOD8156482
_publ_section_title
;
Structure prediction by ZEFSAII (Michael W. Deem and Ramdas Pophale) SiO2 
 PCOD8156482
Probable space group: P 21 21 2
;
_chemical_formula_sum "Si O2"
_cell_formula_units_Z 16
_cell_length_a 8.054982
_cell_length_b 4.795182
_cell_length_c 17.332886
_cell_angle_alpha 90.000000
_cell_angle_beta 90.000000
_cell_angle_gamma 90.000000
_cell_volume 669.484536
_symmetry_space_group_name_H-M "P 21 21 2"
_symmetry_group_IT_number 18
_symmetry_cell_setting 'orthorhombic'
loop_
_space_group_symop_operation_xyz
x,y,z
-x,-y,z
1/2+x,1/2-y,-z
1/2-x,1/2+y,-z
loop_
_atom_site_type_symbol
_atom_site_label
_atom_site_fract_x
_atom_site_fract_y
_atom_site_fract_z
Si Si1 0.314014 0.891924 0.957683
Si Si2 0.685514 0.895197 0.716917
Si Si3 0.320441 0.131971 0.540517
Si Si4 0.182823 0.616166 0.802702
O O1 0.254559 0.742682 0.880691
O O2 0.500000 0.000000 0.950222
O O3 0.302654 0.660176 0.025530
O O4 0.721613 0.805165 0.629443
O O5 0.701502 0.633617 0.773603
O O6 0.500000 0.000000 0.728216
O O7 0.815650 0.138728 0.738960
O O8 0.315456 0.423276 0.495319
O O9 0.500000 0.000000 0.529597
O O10 0.000000 0.500000 0.816085
#
# Coordination Sequence:
#
# PCOD8156482 Si02
#       4
#     4   4   4   4
#     4  12  27  49  74 104 141 182 227 281 342 410
#     4  11  25  45  68  99 139 185 231 284 347 412
#     4  11  24  42  67  99 138 181 232 288 347 411
#     4  12  26  46  71 102 138 180 230 285 342 409
#
# _framework density 23.898985
#
# number of rings (size 3 to 8) (size 9 to 14) (size 15 to 20)
#    0.000    0.500    0.000    7.500    0.000   14.000 
#    0.000    1.250    0.000    0.000    0.000    0.000 
#    0.000    0.000    0.000    0.000    0.000    0.000 
#
# Total GULP energy -198503.536492 kJ/mol
# GULP energy per Si atom -12406.471031 kJ/mol
# Density = 2.384459 g / cm^3
# Si number density = 23.898985 Si / 1000 Ang^3
#
#
#
# Elastic Constant Matrix: (Units=GPa)
#
#
# Indices 1 2 3 4 5 6 
#
# 1 116.3076 56.1540 90.3949 0.0000 0.0000 0.0000
# 2 56.1540 154.6790 61.0264 0.0000 0.0000 0.0000
# 3 90.3949 61.0264 137.6622 0.0000 0.0000 0.0000
# 4 0.0000 0.0000 0.0000 63.9977 0.0000 0.0000
# 5 0.0000 0.0000 0.0000 0.0000 -1.9789 0.0000
# 6 0.0000 0.0000 0.0000 0.0000 0.0000 51.1329
#
#
#
# Elastic Compliance Matrix: (Units=1/GPa)
#
#
# Indices 1 2 3 4 5 6 
#
# 1 0.018207 -0.002294 -0.010938 0.000000 0.000000 0.000000
# 2 -0.002294 0.008124 -0.002095 0.000000 0.000000 0.000000
# 3 -0.010938 -0.002095 0.015376 0.000000 0.000000 0.000000
# 4 0.000000 0.000000 0.000000 0.015626 0.000000 0.000000
# 5 0.000000 0.000000 0.000000 0.000000 -0.505343 0.000000
# 6 0.000000 0.000000 0.000000 0.000000 0.000000 0.019557
#
#
# Mechanical properties :
#
#
# Convention : Reuss Voigt Hill
#
# Bulk Modulus (GPa) = 90.48574 91.53326 91.00950
# Shear Modulus (GPa) = -12.68668 36.03526 11.67429
#
# Velocity S-wave (km/s) = -2.30651 3.88727 2.21257
# Velocity P-wave (km/s) = 5.55433 7.65056 6.68512
#
# Compressibility (1/GPa) = 0.01105147
#
# Stress axis : x y z
#
# Youngs Moduli (GPa) = 54.92408 123.08471 65.03801
#
# Poissons Ratio (x) = 0.28238 0.71142
# Poissons Ratio (y) = 0.12600 0.13627
# Poissons Ratio (z) = 0.60078 0.25788
#
# Static dielectric constant tensor:
#      x y z
#    x 4.238560 0.000000 0.000000 
#    y 0.000000 5.050480 0.000000 
#    z 0.000000 0.000000 4.515570 
# 
# 
# High freq. dielectric constant tensor:
#      x y z
#    x 1.948230 0.000000 0.000000 
#    y 0.000000 1.975080 0.000000 
#    z 0.000000 0.000000 1.958070 
# 
# From -- ./inp_files/7248.got.cif
#   From: 2010.03.12/outbox.cif.g09.slc.cpg/sg18_4_cif.got.tgz:7248.got - 2010.04.10 18:53:55.
