data_PCOD8156932
_publ_section_title
;
Structure prediction by ZEFSAII (Michael W. Deem and Ramdas Pophale) SiO2 
 PCOD8156932
Probable space group: P 21 21 21
;
_chemical_formula_sum "Si O2"
_cell_formula_units_Z 32
_cell_length_a 5.136314
_cell_length_b 17.897863
_cell_length_c 17.261671
_cell_angle_alpha 90.000000
_cell_angle_beta 90.000000
_cell_angle_gamma 90.000000
_cell_volume 1586.848918
_symmetry_space_group_name_H-M "P 21 21 21"
_symmetry_group_IT_number 19
_symmetry_cell_setting 'orthorhombic'
loop_
_space_group_symop_operation_xyz
x,y,z
1/2-x,-y,1/2+z
1/2+x,1/2-y,-z
-x,1/2+y,1/2-z
loop_
_atom_site_type_symbol
_atom_site_label
_atom_site_fract_x
_atom_site_fract_y
_atom_site_fract_z
Si Si1 0.840380 0.202164 0.984400
Si Si2 0.685705 0.222099 0.391201
Si Si3 0.733910 0.785261 0.313588
Si Si4 0.723747 0.808407 0.722480
Si Si5 0.165453 0.025026 0.596138
Si Si6 0.033528 0.853438 0.030660
Si Si7 0.329056 0.428304 0.897647
Si Si8 0.145352 0.643650 0.837701
O O1 0.789020 0.174710 0.896587
O O2 0.586737 0.242898 0.017940
O O3 0.904276 0.130658 0.036237
O O4 0.820250 0.185589 0.315338
O O5 0.586590 0.154251 0.445167
O O6 0.451663 0.274897 0.363920
O O7 0.886736 0.270506 0.441600
O O8 0.476527 0.739217 0.295520
O O9 0.776938 0.847949 0.246862
O O10 0.977527 0.730118 0.317638
O O11 0.750662 0.889840 0.683798
O O12 0.414581 0.976633 0.619738
O O13 0.920620 0.974286 0.571641
O O14 0.237195 0.084085 0.526495
O O15 0.081439 0.080518 0.667372
O O16 0.841774 0.886176 0.096609
#
# Coordination Sequence:
#
# PCOD8156932 Si02
#       8
#     4   4   4   4   4   4   4   4
#     4  12  22  40  67  99 123 158 217 280 324 360
#     4  10  21  34  66 101 119 159 207 283 312 357
#     4  11  21  39  64  98 121 152 206 276 325 359
#     4  11  22  38  64  95 125 153 209 267 326 370
#     4  11  25  41  63  86 128 182 206 239 322 409
#     4  11  19  39  64  92 127 162 211 258 320 383
#     4  12  23  42  65  89 128 173 210 256 321 394
#     4  10  21  39  65  90 127 161 210 255 320 380
#
# _framework density 20.165752000000001
#
# number of rings (size 3 to 8) (size 9 to 14) (size 15 to 20)
#    0.000    1.000    6.250    1.500    0.000    0.000 
#    0.000    1.250    5.500    0.000    0.000    0.000 
#    0.000    0.000    0.000    0.000    0.000    0.000 
#
# Total GULP energy -396694.489193 kJ/mol
# GULP energy per Si atom -12396.702787 kJ/mol
# Density = 2.011985 g / cm^3
# Si number density = 20.165752 Si / 1000 Ang^3
#
#
#
# Elastic Constant Matrix: (Units=GPa)
#
#
# Indices 1 2 3 4 5 6 
#
# 1 107.4959 31.5687 16.2643 0.0000 0.0000 0.0000
# 2 31.5687 90.4528 45.4527 0.0000 0.0000 0.0000
# 3 16.2643 45.4527 125.2786 0.0000 0.0000 0.0000
# 4 0.0000 0.0000 0.0000 14.2461 0.0000 0.0000
# 5 0.0000 0.0000 0.0000 0.0000 27.7322 0.0000
# 6 0.0000 0.0000 0.0000 0.0000 0.0000 41.7393
#
#
#
# Elastic Compliance Matrix: (Units=1/GPa)
#
#
# Indices 1 2 3 4 5 6 
#
# 1 0.010365 -0.003597 -0.000041 0.000000 0.000000 0.000000
# 2 -0.003597 0.014769 -0.004891 0.000000 0.000000 0.000000
# 3 -0.000041 -0.004891 0.009762 0.000000 0.000000 0.000000
# 4 0.000000 0.000000 0.000000 0.070195 0.000000 0.000000
# 5 0.000000 0.000000 0.000000 0.000000 0.036059 0.000000
# 6 0.000000 0.000000 0.000000 0.000000 0.000000 0.023958
#
#
# Mechanical properties :
#
#
# Convention : Reuss Voigt Hill
#
# Bulk Modulus (GPa) = 56.05990 56.64429 56.35209
# Shear Modulus (GPa) = 26.57984 32.07295 29.32640
#
# Velocity S-wave (km/s) = 3.63446 3.99239 3.81762
# Velocity P-wave (km/s) = 6.74332 7.02870 6.88748
#
# Compressibility (1/GPa) = 0.01783806
#
# Stress axis : x y z
#
# Youngs Moduli (GPa) = 96.47664 67.71021 102.43685
#
# Poissons Ratio (x) = 0.24356 0.00416
# Poissons Ratio (y) = 0.34704 0.50105
# Poissons Ratio (z) = 0.00391 0.33119
#
# Static dielectric constant tensor:
#      x y z
#    x 3.806930 0.000000 0.000000 
#    y 0.000000 3.567770 0.000000 
#    z 0.000000 0.000000 3.865790 
# 
# 
# High freq. dielectric constant tensor:
#      x y z
#    x 1.804430 0.000000 0.000000 
#    y 0.000000 1.766430 0.000000 
#    z 0.000000 0.000000 1.776910 
# 
# From -- ./inp_files/1876.got.cif
#   From: 2010.03.12/outbox.cif.g09.slc.cpg/sg19_1_cif.got.tgz:1876.got - 2010.04.10 18:59:41.
