data_PCOD8156189
_publ_section_title
;
Structure prediction by ZEFSAII (Michael W. Deem and Ramdas Pophale) SiO2 
 PCOD8156189
Probable space group: P 21 21 2
;
_chemical_formula_sum "Si O2"
_cell_formula_units_Z 20
_cell_length_a 14.534623
_cell_length_b 12.803609
_cell_length_c 5.027406
_cell_angle_alpha 90.000000
_cell_angle_beta 90.000000
_cell_angle_gamma 90.000000
_cell_volume 935.578286
_symmetry_space_group_name_H-M "P 21 21 2"
_symmetry_group_IT_number 18
_symmetry_cell_setting 'orthorhombic'
loop_
_space_group_symop_operation_xyz
x,y,z
-x,-y,z
1/2+x,1/2-y,-z
1/2-x,1/2+y,-z
loop_
_atom_site_type_symbol
_atom_site_label
_atom_site_fract_x
_atom_site_fract_y
_atom_site_fract_z
Si Si1 0.938781 0.640286 0.518687
Si Si2 0.294207 0.708821 0.622106
Si Si3 0.206050 0.799077 0.121458
Si Si4 0.708761 0.996468 0.250323
Si Si5 0.561774 0.857037 0.972561
O O1 0.897752 0.755626 0.454735
O O2 0.854889 0.557183 0.534218
O O3 0.014093 0.606960 0.301440
O O4 0.984701 0.641848 0.804944
O O5 0.221844 0.762962 0.424241
O O6 0.276165 0.584796 0.599353
O O7 0.279020 0.745358 0.924545
O O8 0.103135 0.760711 0.047159
O O9 0.222412 0.923360 0.099982
O O10 0.644126 0.937491 0.036161
#
# Coordination Sequence:
#
# PCOD8156189 Si02
#       5
#     4   4   4   4   4
#     4  11  23  39  61  92 121 150 196 254 293 335
#     4  10  22  39  59  88 122 156 194 240 294 355
#     4  10  22  39  59  88 122 156 194 240 294 355
#     4  10  23  40  65  86 116 164 200 232 293 362
#     4  11  23  39  61  92 121 150 196 254 293 335
#
# _framework density 21.377153
#
# number of rings (size 3 to 8) (size 9 to 14) (size 15 to 20)
#    0.000    1.600    0.000    5.400    0.000   19.200 
#    0.000    1.000    0.000   12.000    0.000    0.000 
#    0.000    0.000    0.000    0.000    0.000    0.000 
#
# Total GULP energy -247912.652120 kJ/mol
# GULP energy per Si atom -12395.632606 kJ/mol
# Density = 2.132850 g / cm^3
# Si number density = 21.377153 Si / 1000 Ang^3
#
#
#
# Elastic Constant Matrix: (Units=GPa)
#
#
# Indices 1 2 3 4 5 6 
#
# 1 48.3295 69.2730 15.8126 0.0000 0.0000 0.0000
# 2 69.2730 160.8673 24.5672 0.0000 0.0000 0.0000
# 3 15.8126 24.5672 70.1215 0.0000 0.0000 0.0000
# 4 0.0000 0.0000 0.0000 25.4044 0.0000 0.0000
# 5 0.0000 0.0000 0.0000 0.0000 13.6304 0.0000
# 6 0.0000 0.0000 0.0000 0.0000 0.0000 46.6229
#
#
#
# Elastic Compliance Matrix: (Units=1/GPa)
#
#
# Indices 1 2 3 4 5 6 
#
# 1 0.055290 -0.023143 -0.004360 0.000000 0.000000 0.000000
# 2 -0.023143 0.016255 -0.000476 0.000000 0.000000 0.000000
# 3 -0.004360 -0.000476 0.015411 0.000000 0.000000 0.000000
# 4 0.000000 0.000000 0.000000 0.039363 0.000000 0.000000
# 5 0.000000 0.000000 0.000000 0.000000 0.073366 0.000000
# 6 0.000000 0.000000 0.000000 0.000000 0.000000 0.021449
#
#
# Mechanical properties :
#
#
# Convention : Reuss Voigt Hill
#
# Bulk Modulus (GPa) = 32.26043 55.40266 43.83155
# Shear Modulus (GPa) = 17.39585 28.44257 22.91921
#
# Velocity S-wave (km/s) = 2.85574 3.65158 3.27790
# Velocity P-wave (km/s) = 5.09878 6.61451 5.90547
#
# Compressibility (1/GPa) = 0.03099773
#
# Stress axis : x y z
#
# Youngs Moduli (GPa) = 18.08638 61.51929 64.88909
#
# Poissons Ratio (x) = 1.42376 0.28290
# Poissons Ratio (y) = 0.41858 0.03089
# Poissons Ratio (z) = 0.07885 0.02929
#
# Static dielectric constant tensor:
#      x y z
#    x 3.920110 0.000000 0.000000 
#    y 0.000000 4.224200 0.000000 
#    z 0.000000 0.000000 3.865400 
# 
# 
# High freq. dielectric constant tensor:
#      x y z
#    x 1.817950 0.000000 0.000000 
#    y 0.000000 1.832790 0.000000 
#    z 0.000000 0.000000 1.850000 
# 
# From -- ./inp_files/1443.got.cif
#   From: 2010.03.12/outbox.cif.g09.slc.cpg/sg18_1_cif.got.tgz:1443.got - 2010.04.10 18:53:55.
