data_PCOD8156933
_publ_section_title
;
Structure prediction by ZEFSAII (Michael W. Deem and Ramdas Pophale) SiO2 
 PCOD8156933
Probable space group: P 21 21 21
;
_chemical_formula_sum "Si O2"
_cell_formula_units_Z 32
_cell_length_a 5.397136
_cell_length_b 17.386780
_cell_length_c 16.395259
_cell_angle_alpha 90.000000
_cell_angle_beta 90.000000
_cell_angle_gamma 90.000000
_cell_volume 1538.511697
_symmetry_space_group_name_H-M "P 21 21 21"
_symmetry_group_IT_number 19
_symmetry_cell_setting 'orthorhombic'
loop_
_space_group_symop_operation_xyz
x,y,z
1/2-x,-y,1/2+z
1/2+x,1/2-y,-z
-x,1/2+y,1/2-z
loop_
_atom_site_type_symbol
_atom_site_label
_atom_site_fract_x
_atom_site_fract_y
_atom_site_fract_z
Si Si1 0.588448 0.160071 0.838680
Si Si2 0.513557 0.863245 0.456284
Si Si3 0.958333 0.877423 0.724560
Si Si4 0.023158 0.526690 0.884250
Si Si5 0.241728 0.721200 0.407004
Si Si6 0.627981 0.522001 0.557685
Si Si7 0.953383 0.579783 0.207118
Si Si8 0.019944 0.929247 0.183427
O O1 0.874854 0.149367 0.864764
O O2 0.497079 0.246554 0.857737
O O3 0.462759 0.098815 0.898877
O O4 0.523826 0.141411 0.745485
O O5 0.329199 0.790577 0.465205
O O6 0.689145 0.852556 0.535154
O O7 0.409629 0.950665 0.463401
O O8 0.939433 0.808649 0.659310
O O9 0.717079 0.875901 0.784976
O O10 0.218563 0.865311 0.771907
O O11 0.972655 0.959293 0.681229
O O12 0.778747 0.579983 0.866477
O O13 0.280701 0.573526 0.875993
O O14 0.018348 0.494955 0.975626
O O15 0.599552 0.448129 0.615062
O O16 0.966485 0.508539 0.268015
#
# Coordination Sequence:
#
# PCOD8156933 Si02
#       8
#     4   4   4   4   4   4   4   4
#     4  10  22  37  55  77 122 157 192 229 278 347
#     4  11  23  35  52  83 121 157 193 221 278 351
#     4  10  22  36  56  80 115 151 193 232 274 342
#     4  10  21  35  57  84 111 148 190 238 287 335
#     4  11  23  35  53  83 117 160 192 225 276 343
#     4  10  23  35  58  83 115 154 187 241 293 337
#     4   9  21  37  55  80 111 150 191 235 285 334
#     4   9  21  36  54  80 112 151 192 231 281 335
#
# _framework density 20.799323000000001
#
# number of rings (size 3 to 8) (size 9 to 14) (size 15 to 20)
#    0.000    2.000    1.250    0.750   21.000    0.000 
#    0.000    0.000    0.000    0.000    0.000    3.500 
#    0.000    0.000    0.000    0.000    0.000    0.000 
#
# Total GULP energy -396449.284253 kJ/mol
# GULP energy per Si atom -12389.040133 kJ/mol
# Density = 2.075198 g / cm^3
# Si number density = 20.799323 Si / 1000 Ang^3
#
#
#
# Elastic Constant Matrix: (Units=GPa)
#
#
# Indices 1 2 3 4 5 6 
#
# 1 125.3749 18.7443 41.2221 0.0000 0.0000 0.0000
# 2 18.7443 30.9843 25.8536 0.0000 0.0000 0.0000
# 3 41.2221 25.8536 75.0424 0.0000 0.0000 0.0000
# 4 0.0000 0.0000 0.0000 20.5303 0.0000 0.0000
# 5 0.0000 0.0000 0.0000 0.0000 27.0493 0.0000
# 6 0.0000 0.0000 0.0000 0.0000 0.0000 23.3030
#
#
#
# Elastic Compliance Matrix: (Units=1/GPa)
#
#
# Indices 1 2 3 4 5 6 
#
# 1 0.009824 -0.002021 -0.004700 0.000000 0.000000 0.000000
# 2 -0.002021 0.045711 -0.014638 0.000000 0.000000 0.000000
# 3 -0.004700 -0.014638 0.020951 0.000000 0.000000 0.000000
# 4 0.000000 0.000000 0.000000 0.048708 0.000000 0.000000
# 5 0.000000 0.000000 0.000000 0.000000 0.036970 0.000000
# 6 0.000000 0.000000 0.000000 0.000000 0.000000 0.042913
#
#
# Mechanical properties :
#
#
# Convention : Reuss Voigt Hill
#
# Bulk Modulus (GPa) = 29.61473 44.78241 37.19857
# Shear Modulus (GPa) = 19.30123 23.88194 21.59159
#
# Velocity S-wave (km/s) = 3.04957 3.39220 3.22544
# Velocity P-wave (km/s) = 5.16421 6.07619 5.63867
#
# Compressibility (1/GPa) = 0.03376698
#
# Stress axis : x y z
#
# Youngs Moduli (GPa) = 101.79625 21.87641 47.73115
#
# Poissons Ratio (x) = 0.04422 0.22433
# Poissons Ratio (y) = 0.20575 0.69870
# Poissons Ratio (z) = 0.47843 0.32023
#
# Static dielectric constant tensor:
#      x y z
#    x 4.948820 0.000000 0.000000 
#    y 0.000000 3.319470 0.000000 
#    z 0.000000 0.000000 3.593160 
# 
# 
# High freq. dielectric constant tensor:
#      x y z
#    x 1.833810 0.000000 0.000000 
#    y 0.000000 1.760600 0.000000 
#    z 0.000000 0.000000 1.790960 
# 
# From -- ./inp_files/1827.got.cif
#   From: 2010.03.12/outbox.cif.g09.slc.cpg/sg19_1_cif.got.tgz:1827.got - 2010.04.10 18:59:41.
