data_PCOD8156717
_publ_section_title
;
Structure prediction by ZEFSAII (Michael W. Deem and Ramdas Pophale) SiO2 
 PCOD8156717
Probable space group: P 21 21 21
;
_chemical_formula_sum "Si O2"
_cell_formula_units_Z 20
_cell_length_a 8.567173
_cell_length_b 6.946118
_cell_length_c 12.621916
_cell_angle_alpha 90.000000
_cell_angle_beta 90.000000
_cell_angle_gamma 90.000000
_cell_volume 751.112482
_symmetry_space_group_name_H-M "P 21 21 21"
_symmetry_group_IT_number 19
_symmetry_cell_setting 'orthorhombic'
loop_
_space_group_symop_operation_xyz
x,y,z
1/2-x,-y,1/2+z
1/2+x,1/2-y,-z
-x,1/2+y,1/2-z
loop_
_atom_site_type_symbol
_atom_site_label
_atom_site_fract_x
_atom_site_fract_y
_atom_site_fract_z
Si Si1 0.331564 0.343749 0.694977
Si Si2 0.312069 0.776854 0.754525
Si Si3 0.322398 0.749316 0.399076
Si Si4 0.867279 0.433114 0.927892
Si Si5 0.842705 0.161142 0.543533
O O1 0.288372 0.569511 0.698877
O O2 0.508618 0.323020 0.730460
O O3 0.222061 0.223788 0.775427
O O4 0.307081 0.259680 0.575283
O O5 0.242892 0.937287 0.675103
O O6 0.218440 0.803543 0.865070
O O7 0.509990 0.747075 0.414945
O O8 0.239516 0.913544 0.467884
O O9 0.254084 0.542583 0.438918
O O10 0.969531 0.629022 0.942265
#
# Coordination Sequence:
#
# PCOD8156717 Si02
#       5
#     4   4   4   4   4
#     4  11  21  44  65  97 133 168 223 265 335 381
#     4  11  23  43  68  95 133 173 218 273 321 396
#     4   9  19  34  68  89 126 171 208 267 312 396
#     4  10  19  42  64  94 132 170 219 253 333 394
#     4   9  22  39  61  97 130 166 214 268 321 381
#
# _framework density 26.627168000000001
#
# number of rings (size 3 to 8) (size 9 to 14) (size 15 to 20)
#    1.200    0.800    2.000    2.400    0.000    1.600 
#   10.800    0.000    0.000    0.000    0.000    0.000 
#    0.000    0.000    0.000    0.000    0.000    0.000 
#
# Total GULP energy -247950.620437 kJ/mol
# GULP energy per Si atom -12397.531022 kJ/mol
# Density = 2.656656 g / cm^3
# Si number density = 26.627168 Si / 1000 Ang^3
#
#
#
# Elastic Constant Matrix: (Units=GPa)
#
#
# Indices 1 2 3 4 5 6 
#
# 1 33.8408 -15.3823 -14.6159 0.0000 0.0000 0.0000
# 2 -15.3823 28.1316 36.2456 0.0000 0.0000 0.0000
# 3 -14.6159 36.2456 183.1161 0.0000 0.0000 0.0000
# 4 0.0000 0.0000 0.0000 46.2016 0.0000 0.0000
# 5 0.0000 0.0000 0.0000 0.0000 50.9176 0.0000
# 6 0.0000 0.0000 0.0000 0.0000 0.0000 31.5088
#
#
#
# Elastic Compliance Matrix: (Units=1/GPa)
#
#
# Indices 1 2 3 4 5 6 
#
# 1 0.039633 0.023619 -0.001512 0.000000 0.000000 0.000000
# 2 0.023619 0.061792 -0.010346 0.000000 0.000000 0.000000
# 3 -0.001512 -0.010346 0.007388 0.000000 0.000000 0.000000
# 4 0.000000 0.000000 0.000000 0.021644 0.000000 0.000000
# 5 0.000000 0.000000 0.000000 0.000000 0.019640 0.000000
# 6 0.000000 0.000000 0.000000 0.000000 0.000000 0.031737
#
#
# Mechanical properties :
#
#
# Convention : Reuss Voigt Hill
#
# Bulk Modulus (GPa) = 7.55649 28.62036 18.08842
# Shear Modulus (GPa) = 24.70072 41.64834 33.17453
#
# Velocity S-wave (km/s) = 3.04904 3.95920 3.53355
# Velocity P-wave (km/s) = 3.90379 5.62781 4.84313
#
# Compressibility (1/GPa) = 0.13233665
#
# Stress axis : x y z
#
# Youngs Moduli (GPa) = 25.23136 16.18334 135.35144
#
# Poissons Ratio (x) = -0.38224 0.20461
# Poissons Ratio (y) = -0.59594 1.40031
# Poissons Ratio (z) = 0.03814 0.16743
#
# Static dielectric constant tensor:
#      x y z
#    x 4.506900 0.000000 0.000000 
#    y 0.000000 4.451390 0.000000 
#    z 0.000000 0.000000 4.786590 
# 
# 
# High freq. dielectric constant tensor:
#      x y z
#    x 2.061260 0.000000 0.000000 
#    y 0.000000 2.064080 0.000000 
#    z 0.000000 0.000000 2.081420 
# 
# From -- ./inp_files/2594.got.cif
#   From: 2010.03.12/outbox.cif.g09.slc.cpg/sg19_2_cif.got.tgz:2594.got - 2010.04.10 18:59:41.
