data_PCOD8156350
_publ_section_title
;
Structure prediction by ZEFSAII (Michael W. Deem and Ramdas Pophale) SiO2 
 PCOD8156350
Probable space group: P 21 21 2
;
_chemical_formula_sum "Si O2"
_cell_formula_units_Z 12
_cell_length_a 10.049278
_cell_length_b 10.064888
_cell_length_c 5.266788
_cell_angle_alpha 90.000000
_cell_angle_beta 90.000000
_cell_angle_gamma 90.000000
_cell_volume 532.708522
_symmetry_space_group_name_H-M "P 21 21 2"
_symmetry_group_IT_number 18
_symmetry_cell_setting 'orthorhombic'
loop_
_space_group_symop_operation_xyz
x,y,z
-x,-y,z
1/2+x,1/2-y,-z
1/2-x,1/2+y,-z
loop_
_atom_site_type_symbol
_atom_site_label
_atom_site_fract_x
_atom_site_fract_y
_atom_site_fract_z
Si Si1 0.395523 0.884250 0.979537
Si Si2 0.983508 0.846929 0.313806
Si Si3 0.265032 0.816105 0.489877
O O1 0.473086 0.742868 0.942179
O O2 0.303068 0.909944 0.730420
O O3 0.500000 0.000000 0.008907
O O4 0.303992 0.886651 0.226959
O O5 0.107065 0.792305 0.482102
O O6 0.848060 0.822567 0.478307
O O7 0.000000 0.000000 0.240038
#
# Coordination Sequence:
#
# PCOD8156350 Si02
#       3
#     4   4   4
#     4  10  24  41  69  95 137 174 223 267 340 389
#     4  10  26  44  70 101 136 175 227 277 333 398
#     4  10  25  41  69  98 135 175 221 274 334 394
#
# _framework density 22.526387
#
# number of rings (size 3 to 8) (size 9 to 14) (size 15 to 20)
#    2.000    0.000    0.000    1.000    9.333    4.000 
#    0.000    0.000    0.000    0.000    0.000    0.000 
#    0.000    0.000    0.000    0.000    0.000    0.000 
#
# Total GULP energy -148663.563070 kJ/mol
# GULP energy per Si atom -12388.630256 kJ/mol
# Density = 2.247512 g / cm^3
# Si number density = 22.526387 Si / 1000 Ang^3
#
#
#
# Elastic Constant Matrix: (Units=GPa)
#
#
# Indices 1 2 3 4 5 6 
#
# 1 84.3803 37.8991 -4.7897 0.0000 0.0000 0.0000
# 2 37.8991 113.4968 15.7372 0.0000 0.0000 0.0000
# 3 -4.7897 15.7372 130.6399 0.0000 0.0000 0.0000
# 4 0.0000 0.0000 0.0000 11.5224 0.0000 0.0000
# 5 0.0000 0.0000 0.0000 0.0000 18.7425 0.0000
# 6 0.0000 0.0000 0.0000 0.0000 0.0000 30.5856
#
#
#
# Elastic Compliance Matrix: (Units=1/GPa)
#
#
# Indices 1 2 3 4 5 6 
#
# 1 0.014097 -0.004860 0.001102 0.000000 0.000000 0.000000
# 2 -0.004860 0.010636 -0.001459 0.000000 0.000000 0.000000
# 3 0.001102 -0.001459 0.007871 0.000000 0.000000 0.000000
# 4 0.000000 0.000000 0.000000 0.086788 0.000000 0.000000
# 5 0.000000 0.000000 0.000000 0.000000 0.053355 0.000000
# 6 0.000000 0.000000 0.000000 0.000000 0.000000 0.032695
#
#
# Mechanical properties :
#
#
# Convention : Reuss Voigt Hill
#
# Bulk Modulus (GPa) = 45.10778 47.35670 46.23224
# Shear Modulus (GPa) = 22.39492 30.81479 26.60485
#
# Velocity S-wave (km/s) = 3.15646 3.70258 3.44037
# Velocity P-wave (km/s) = 5.77513 6.27274 6.02907
#
# Compressibility (1/GPa) = 0.02216913
#
# Stress axis : x y z
#
# Youngs Moduli (GPa) = 70.93958 94.02008 127.05111
#
# Poissons Ratio (x) = 0.45693 -0.14004
# Poissons Ratio (y) = 0.34476 0.18542
# Poissons Ratio (z) = -0.07819 0.13722
#
# Static dielectric constant tensor:
#      x y z
#    x 4.153250 0.000000 0.000000 
#    y 0.000000 3.584680 0.000000 
#    z 0.000000 0.000000 3.902320 
# 
# 
# High freq. dielectric constant tensor:
#      x y z
#    x 1.895880 0.000000 0.000000 
#    y 0.000000 1.861800 0.000000 
#    z 0.000000 0.000000 1.881590 
# 
# From -- ./inp_files/42.got.cif
#   From: 2010.03.12/outbox.cif.g09.slc.cpg/sg18_1_cif.got.tgz:42.got - 2010.04.10 18:53:55.
