data_PCOD8156437
_publ_section_title
;
Structure prediction by ZEFSAII (Michael W. Deem and Ramdas Pophale) SiO2 
 PCOD8156437
Probable space group: P 21 21 2
;
_chemical_formula_sum "Si O2"
_cell_formula_units_Z 20
_cell_length_a 17.030065
_cell_length_b 7.074380
_cell_length_c 7.660893
_cell_angle_alpha 90.000000
_cell_angle_beta 90.000000
_cell_angle_gamma 90.000000
_cell_volume 922.962565
_symmetry_space_group_name_H-M "P 21 21 2"
_symmetry_group_IT_number 18
_symmetry_cell_setting 'orthorhombic'
loop_
_space_group_symop_operation_xyz
x,y,z
-x,-y,z
1/2+x,1/2-y,-z
1/2-x,1/2+y,-z
loop_
_atom_site_type_symbol
_atom_site_label
_atom_site_fract_x
_atom_site_fract_y
_atom_site_fract_z
Si Si1 0.533958 0.205799 0.796673
Si Si2 0.422790 0.314605 0.506342
Si Si3 0.829657 0.852177 0.626405
Si Si4 0.676384 0.039606 0.634031
Si Si5 0.979251 0.719263 0.816438
O O1 0.494480 0.333605 0.645286
O O2 0.500000 0.000000 0.781548
O O3 0.627406 0.170226 0.769535
O O4 0.513062 0.295112 0.985030
O O5 0.368581 0.499541 0.510304
O O6 0.376171 0.123331 0.545558
O O7 0.459242 0.320959 0.310849
O O8 0.754792 0.951288 0.722712
O O9 0.794353 0.678085 0.518221
O O10 0.890067 0.765118 0.764127
O O11 0.000000 0.500000 0.805760
#
# Coordination Sequence:
#
# PCOD8156437 Si02
#       5
#     4   4   4   4   4
#     4   9  21  41  67  94 126 167 216 266 315 377
#     4  11  21  42  69  93 124 173 218 263 322 378
#     4  12  23  40  67  95 129 173 213 262 329 382
#     4  11  22  42  65  93 132 172 211 263 325 386
#     4  11  21  41  69  96 128 167 217 272 316 379
#
# _framework density 21.669352
#
# number of rings (size 3 to 8) (size 9 to 14) (size 15 to 20)
#    0.000    1.200    6.000    1.200    0.000    0.000 
#    7.200    8.000    0.000    0.000    0.000    0.000 
#    0.000    0.000    0.000    0.000    0.000    0.000 
#
# Total GULP energy -247810.130815 kJ/mol
# GULP energy per Si atom -12390.506541 kJ/mol
# Density = 2.162003 g / cm^3
# Si number density = 21.669352 Si / 1000 Ang^3
#
#
#
# Elastic Constant Matrix: (Units=GPa)
#
#
# Indices 1 2 3 4 5 6 
#
# 1 147.9509 42.0675 44.6900 0.0000 0.0000 0.0000
# 2 42.0675 83.7619 31.1019 0.0000 0.0000 0.0000
# 3 44.6900 31.1019 117.3883 0.0000 0.0000 0.0000
# 4 0.0000 0.0000 0.0000 -12.6026 0.0000 0.0000
# 5 0.0000 0.0000 0.0000 0.0000 15.8731 0.0000
# 6 0.0000 0.0000 0.0000 0.0000 0.0000 44.7141
#
#
#
# Elastic Compliance Matrix: (Units=1/GPa)
#
#
# Indices 1 2 3 4 5 6 
#
# 1 0.008415 -0.003368 -0.002311 0.000000 0.000000 0.000000
# 2 -0.003368 0.014589 -0.002583 0.000000 0.000000 0.000000
# 3 -0.002311 -0.002583 0.010083 0.000000 0.000000 0.000000
# 4 0.000000 0.000000 0.000000 -0.079349 0.000000 0.000000
# 5 0.000000 0.000000 0.000000 0.000000 0.063000 0.000000
# 6 0.000000 0.000000 0.000000 0.000000 0.000000 0.022364
#
#
# Mechanical properties :
#
#
# Convention : Reuss Voigt Hill
#
# Bulk Modulus (GPa) = 60.37794 64.97999 62.67897
# Shear Modulus (GPa) = 81.76910 25.01303 53.39106
#
# Velocity S-wave (km/s) = 6.14954 3.40119 4.96915
# Velocity P-wave (km/s) = 8.85134 6.74361 7.86837
#
# Compressibility (1/GPa) = 0.01656234
#
# Stress axis : x y z
#
# Youngs Moduli (GPa) = 118.83917 68.54359 99.17654
#
# Poissons Ratio (x) = 0.23085 0.22921
# Poissons Ratio (y) = 0.40024 0.25619
# Poissons Ratio (z) = 0.27466 0.17706
#
# Static dielectric constant tensor:
#      x y z
#    x 4.148630 0.000000 0.000000 
#    y 0.000000 4.039450 0.000000 
#    z 0.000000 0.000000 3.933880 
# 
# 
# High freq. dielectric constant tensor:
#      x y z
#    x 1.853750 0.000000 0.000000 
#    y 0.000000 1.875590 0.000000 
#    z 0.000000 0.000000 1.814240 
# 
# From -- ./inp_files/4444.got.cif
#   From: 2010.03.12/outbox.cif.g09.slc.cpg/sg18_3_cif.got.tgz:4444.got - 2010.04.10 18:53:55.
