data_PCOD8156632
_publ_section_title
;
Structure prediction by ZEFSAII (Michael W. Deem and Ramdas Pophale) SiO2 
 PCOD8156632
Probable space group: P 21 21 21
;
_chemical_formula_sum "Si O2"
_cell_formula_units_Z 24
_cell_length_a 9.278873
_cell_length_b 8.566076
_cell_length_c 15.672585
_cell_angle_alpha 90.000000
_cell_angle_beta 90.000000
_cell_angle_gamma 90.000000
_cell_volume 1245.712401
_symmetry_space_group_name_H-M "P 21 21 21"
_symmetry_group_IT_number 19
_symmetry_cell_setting 'orthorhombic'
loop_
_space_group_symop_operation_xyz
x,y,z
1/2-x,-y,1/2+z
1/2+x,1/2-y,-z
-x,1/2+y,1/2-z
loop_
_atom_site_type_symbol
_atom_site_label
_atom_site_fract_x
_atom_site_fract_y
_atom_site_fract_z
Si Si1 0.936916 0.623512 0.661735
Si Si2 0.346462 0.813119 0.079232
Si Si3 0.040607 0.009381 0.187501
Si Si4 0.431351 0.079907 0.498402
Si Si5 0.693294 0.781443 0.756197
Si Si6 0.642055 0.601793 0.306750
O O1 0.932496 0.567399 0.564630
O O2 0.801952 0.736819 0.680098
O O3 0.930244 0.469294 0.721105
O O4 0.081466 0.725368 0.676624
O O5 0.475333 0.723857 0.035161
O O6 0.279481 0.703962 0.154436
O O7 0.398719 0.978480 0.118488
O O8 0.228391 0.850264 0.007290
O O9 0.183959 0.116684 0.200097
O O10 0.893681 0.065249 0.231301
O O11 0.070636 0.848354 0.234804
O O12 0.008605 0.983962 0.087720
#
# Coordination Sequence:
#
# PCOD8156632 Si02
#       6
#     4   4   4   4   4   4
#     4  10  19  34  57  82 108 140 182 225 265 319
#     4   9  21  39  54  77 111 143 180 224 271 322
#     4   9  21  37  53  77 110 143 178 221 271 325
#     4  10  21  37  56  82 110 138 180 231 272 314
#     4   9  20  37  54  77 108 144 181 216 266 330
#     4   9  20  36  54  79 111 144 179 221 269 328
#
# _framework density 19.266086000000001
#
# number of rings (size 3 to 8) (size 9 to 14) (size 15 to 20)
#    0.000    3.333    0.000    2.000    0.000   12.000 
#    0.000    0.000    0.000    0.000    0.000    0.000 
#    0.000    0.000    0.000    0.000    0.000    0.000 
#
# Total GULP energy -297461.141950 kJ/mol
# GULP energy per Si atom -12394.214248 kJ/mol
# Density = 1.922224 g / cm^3
# Si number density = 19.266086 Si / 1000 Ang^3
#
#
#
# Elastic Constant Matrix: (Units=GPa)
#
#
# Indices 1 2 3 4 5 6 
#
# 1 40.6383 16.9415 20.5605 0.0000 0.0000 0.0000
# 2 16.9415 24.1090 16.2288 0.0000 0.0000 0.0000
# 3 20.5605 16.2288 47.1655 0.0000 0.0000 0.0000
# 4 0.0000 0.0000 0.0000 23.1042 0.0000 0.0000
# 5 0.0000 0.0000 0.0000 0.0000 25.0902 0.0000
# 6 0.0000 0.0000 0.0000 0.0000 0.0000 38.3301
#
#
#
# Elastic Compliance Matrix: (Units=1/GPa)
#
#
# Indices 1 2 3 4 5 6 
#
# 1 0.037850 -0.020160 -0.009563 0.000000 0.000000 0.000000
# 2 -0.020160 0.064719 -0.013480 0.000000 0.000000 0.000000
# 3 -0.009563 -0.013480 0.030009 0.000000 0.000000 0.000000
# 4 0.000000 0.000000 0.000000 0.043282 0.000000 0.000000
# 5 0.000000 0.000000 0.000000 0.000000 0.039856 0.000000
# 6 0.000000 0.000000 0.000000 0.000000 0.000000 0.026089
#
#
# Mechanical properties :
#
#
# Convention : Reuss Voigt Hill
#
# Bulk Modulus (GPa) = 21.65851 24.37493 23.01672
# Shear Modulus (GPa) = 14.55167 21.18369 17.86768
#
# Velocity S-wave (km/s) = 2.75125 3.31952 3.04865
# Velocity P-wave (km/s) = 4.62155 5.23177 4.93610
#
# Compressibility (1/GPa) = 0.04617122
#
# Stress axis : x y z
#
# Youngs Moduli (GPa) = 26.42009 15.45136 33.32333
#
# Poissons Ratio (x) = 0.31150 0.31867
# Poissons Ratio (y) = 0.53263 0.44921
# Poissons Ratio (z) = 0.25265 0.20829
#
# Static dielectric constant tensor:
#      x y z
#    x 3.454530 0.000000 0.000000 
#    y 0.000000 3.272170 0.000000 
#    z 0.000000 0.000000 3.483000 
# 
# 
# High freq. dielectric constant tensor:
#      x y z
#    x 1.750390 0.000000 0.000000 
#    y 0.000000 1.735850 0.000000 
#    z 0.000000 0.000000 1.746430 
# 
# From -- ./inp_files/2794.got.cif
#   From: 2010.03.12/outbox.cif.g09.slc.cpg/sg19_2_cif.got.tgz:2794.got - 2010.04.10 18:59:41.
