data_PCOD8156004
_publ_section_title
;
Structure prediction by ZEFSAII (Michael W. Deem and Ramdas Pophale) SiO2 
 PCOD8156004
Probable space group: P 21 21 2
;
_chemical_formula_sum "Si O2"
_cell_formula_units_Z 30
_cell_length_a 18.443947
_cell_length_b 13.077113
_cell_length_c 6.310471
_cell_angle_alpha 90.000000
_cell_angle_beta 90.000000
_cell_angle_gamma 90.000000
_cell_volume 1522.045086
_symmetry_space_group_name_H-M "P 21 21 2"
_symmetry_group_IT_number 18
_symmetry_cell_setting 'orthorhombic'
loop_
_space_group_symop_operation_xyz
x,y,z
-x,-y,z
1/2+x,1/2-y,-z
1/2-x,1/2+y,-z
loop_
_atom_site_type_symbol
_atom_site_label
_atom_site_fract_x
_atom_site_fract_y
_atom_site_fract_z
Si Si1 0.612850 0.999315 0.687278
Si Si2 0.500000 0.000000 0.330246
Si Si3 0.793365 0.718469 0.790207
Si Si4 0.051195 0.660988 0.975999
Si Si5 0.411736 0.778520 0.858504
Si Si6 0.192202 0.761450 0.831147
Si Si7 0.188944 0.142947 0.409736
Si Si8 0.240229 0.940334 0.536467
O O1 0.590427 0.113295 0.744678
O O2 0.699816 0.992938 0.663510
O O3 0.572082 0.980785 0.466714
O O4 0.590247 0.915929 0.861168
O O5 0.497479 0.900626 0.180167
O O6 0.803596 0.819073 0.649839
O O7 0.785733 0.621256 0.637966
O O8 0.864156 0.710334 0.932045
O O9 0.720876 0.721977 0.931257
O O10 0.109376 0.726051 0.843919
O O11 0.996752 0.741538 0.091386
O O12 0.382185 0.688544 0.705799
O O13 0.239539 0.673659 0.720791
O O14 0.196907 0.865694 0.694523
O O15 0.184538 0.019398 0.424273
#
# Coordination Sequence:
#
# PCOD8156004 Si02
#       8
#     4   2   4   4   4   4   4   4
#     4  12  21  37  58  95 125 153 211 246 312 383
#     4  12  22  34  62  90 128 160 188 246 326 368
#     4  10  20  39  64  84 124 159 199 261 303 361
#     4  12  24  37  60  93 128 165 191 258 315 373
#     4  11  21  39  56  92 125 161 204 245 318 378
#     4  10  23  38  58  94 122 157 210 246 311 372
#     4  10  22  38  61  89 119 165 206 255 305 363
#     4  11  22  39  62  90 122 162 212 256 300 365
#
# _framework density 19.710322999999999
#
# number of rings (size 3 to 8) (size 9 to 14) (size 15 to 20)
#    0.000    1.067    6.667    2.400    1.867    3.200 
#    0.000    0.000    0.000    4.800    0.000    0.000 
#    0.000    0.000    0.000    0.000    0.000    0.000 
#
# Total GULP energy -371938.395527 kJ/mol
# GULP energy per Si atom -12397.946518 kJ/mol
# Density = 1.966546 g / cm^3
# Si number density = 19.710323 Si / 1000 Ang^3
#
#
#
# Elastic Constant Matrix: (Units=GPa)
#
#
# Indices 1 2 3 4 5 6 
#
# 1 101.7152 46.8687 27.0932 0.0000 0.0000 0.0000
# 2 46.8687 86.3453 39.6415 0.0000 0.0000 0.0000
# 3 27.0932 39.6415 97.6814 0.0000 0.0000 0.0000
# 4 0.0000 0.0000 0.0000 18.3192 0.0000 0.0000
# 5 0.0000 0.0000 0.0000 0.0000 22.1657 0.0000
# 6 0.0000 0.0000 0.0000 0.0000 0.0000 32.5129
#
#
#
# Elastic Compliance Matrix: (Units=1/GPa)
#
#
# Indices 1 2 3 4 5 6 
#
# 1 0.013178 -0.006729 -0.000924 0.000000 0.000000 0.000000
# 2 -0.006729 0.017669 -0.005304 0.000000 0.000000 0.000000
# 3 -0.000924 -0.005304 0.012646 0.000000 0.000000 0.000000
# 4 0.000000 0.000000 0.000000 0.054587 0.000000 0.000000
# 5 0.000000 0.000000 0.000000 0.000000 0.045115 0.000000
# 6 0.000000 0.000000 0.000000 0.000000 0.000000 0.030757
#
#
# Mechanical properties :
#
#
# Convention : Reuss Voigt Hill
#
# Bulk Modulus (GPa) = 56.88708 56.99430 56.94069
# Shear Modulus (GPa) = 24.30407 26.07546 25.18976
#
# Velocity S-wave (km/s) = 3.51531 3.64116 3.57879
# Velocity P-wave (km/s) = 6.73801 6.83053 6.78443
#
# Compressibility (1/GPa) = 0.01757868
#
# Stress axis : x y z
#
# Youngs Moduli (GPa) = 75.88354 56.59644 79.07424
#
# Poissons Ratio (x) = 0.38082 0.07310
# Poissons Ratio (y) = 0.51060 0.41943
# Poissons Ratio (z) = 0.07015 0.30020
#
# Static dielectric constant tensor:
#      x y z
#    x 3.777050 0.000000 0.000000 
#    y 0.000000 3.423230 0.000000 
#    z 0.000000 0.000000 3.957130 
# 
# 
# High freq. dielectric constant tensor:
#      x y z
#    x 1.754920 0.000000 0.000000 
#    y 0.000000 1.747070 0.000000 
#    z 0.000000 0.000000 1.786490 
# 
# From -- ./inp_files/1287.got.cif
#   From: 2010.03.12/outbox.cif.g09.slc.cpg/sg18_1_cif.got.tgz:1287.got - 2010.04.10 18:53:55.
