data_PCOD8156302
_publ_section_title
;
Structure prediction by ZEFSAII (Michael W. Deem and Ramdas Pophale) SiO2 
 PCOD8156302
Probable space group: P 21 21 2
;
_chemical_formula_sum "Si O2"
_cell_formula_units_Z 18
_cell_length_a 7.658490
_cell_length_b 10.854883
_cell_length_c 9.408813
_cell_angle_alpha 90.000000
_cell_angle_beta 90.000000
_cell_angle_gamma 90.000000
_cell_volume 782.173564
_symmetry_space_group_name_H-M "P 21 21 2"
_symmetry_group_IT_number 18
_symmetry_cell_setting 'orthorhombic'
loop_
_space_group_symop_operation_xyz
x,y,z
-x,-y,z
1/2+x,1/2-y,-z
1/2-x,1/2+y,-z
loop_
_atom_site_type_symbol
_atom_site_label
_atom_site_fract_x
_atom_site_fract_y
_atom_site_fract_z
Si Si1 0.155922 0.095166 0.410409
Si Si2 0.942588 0.731694 0.900640
Si Si3 0.681741 0.440644 0.265343
Si Si4 0.000000 0.500000 0.732936
Si Si5 0.178746 0.308925 0.202293
O O1 0.170160 0.117806 0.578078
O O2 0.114817 0.225854 0.334924
O O3 0.345552 0.050236 0.364047
O O4 0.000000 0.000000 0.373878
O O5 0.792620 0.827875 0.845946
O O6 0.905431 0.599374 0.832908
O O7 0.128180 0.776614 0.846048
O O8 0.947095 0.720072 0.070417
O O9 0.500000 0.500000 0.223211
O O10 0.830215 0.546701 0.249147
#
# Coordination Sequence:
#
# PCOD8156302 Si02
#       5
#     4   4   4   2   4
#     4  10  23  43  68  95 132 179 220 274 341 392
#     4  10  23  41  63  95 136 169 224 280 328 405
#     4   9  21  43  66  92 134 173 224 281 332 399
#     4  10  24  42  64  98 134 168 228 274 322 406
#     4  10  23  41  67  98 130 179 222 274 347 394
#
# _framework density 23.012796000000002
#
# number of rings (size 3 to 8) (size 9 to 14) (size 15 to 20)
#    0.000    2.222    0.000    0.000   12.444    0.889 
#    4.000    0.000    0.000    0.000    0.000    0.000 
#    0.000    0.000    0.000    0.000    0.000    0.000 
#
# Total GULP energy -223118.214391 kJ/mol
# GULP energy per Si atom -12395.456355 kJ/mol
# Density = 2.296042 g / cm^3
# Si number density = 23.012796 Si / 1000 Ang^3
#
#
#
# Elastic Constant Matrix: (Units=GPa)
#
#
# Indices 1 2 3 4 5 6 
#
# 1 49.5589 33.2704 14.8808 0.0000 0.0000 0.0000
# 2 33.2704 146.5028 70.9356 0.0000 0.0000 0.0000
# 3 14.8808 70.9356 123.1990 0.0000 0.0000 0.0000
# 4 0.0000 0.0000 0.0000 8.2626 0.0000 0.0000
# 5 0.0000 0.0000 0.0000 0.0000 26.0793 0.0000
# 6 0.0000 0.0000 0.0000 0.0000 0.0000 28.5917
#
#
#
# Elastic Compliance Matrix: (Units=1/GPa)
#
#
# Indices 1 2 3 4 5 6 
#
# 1 0.023817 -0.005568 0.000329 0.000000 0.000000 0.000000
# 2 -0.005568 0.010766 -0.005526 0.000000 0.000000 0.000000
# 3 0.000329 -0.005526 0.011259 0.000000 0.000000 0.000000
# 4 0.000000 0.000000 0.000000 0.121027 0.000000 0.000000
# 5 0.000000 0.000000 0.000000 0.000000 0.038345 0.000000
# 6 0.000000 0.000000 0.000000 0.000000 0.000000 0.034975
#
#
# Mechanical properties :
#
#
# Convention : Reuss Voigt Hill
#
# Bulk Modulus (GPa) = 41.13212 61.93715 51.53464
# Shear Modulus (GPa) = 18.53062 25.93167 22.23115
#
# Velocity S-wave (km/s) = 2.84074 3.36048 3.11148
# Velocity P-wave (km/s) = 5.35464 6.48304 5.94567
#
# Compressibility (1/GPa) = 0.02431190
#
# Stress axis : x y z
#
# Youngs Moduli (GPa) = 41.98629 92.88333 88.81653
#
# Poissons Ratio (x) = 0.51720 -0.02925
# Poissons Ratio (y) = 0.23379 0.49084
# Poissons Ratio (z) = -0.01383 0.51331
#
# Static dielectric constant tensor:
#      x y z
#    x 3.924300 0.000000 0.000000 
#    y 0.000000 4.817140 0.000000 
#    z 0.000000 0.000000 4.164710 
# 
# 
# High freq. dielectric constant tensor:
#      x y z
#    x 1.901290 0.000000 0.000000 
#    y 0.000000 1.919380 0.000000 
#    z 0.000000 0.000000 1.910420 
# 
# From -- ./inp_files/2881.got.cif
#   From: 2010.03.12/outbox.cif.g09.slc.cpg/sg18_2_cif.got.tgz:2881.got - 2010.04.10 18:53:55.
