data_PCOD8156634
_publ_section_title
;
Structure prediction by ZEFSAII (Michael W. Deem and Ramdas Pophale) SiO2 
 PCOD8156634
Probable space group: P 21 21 21
;
_chemical_formula_sum "Si O2"
_cell_formula_units_Z 32
_cell_length_a 9.480102
_cell_length_b 10.969143
_cell_length_c 16.466747
_cell_angle_alpha 90.000000
_cell_angle_beta 90.000000
_cell_angle_gamma 90.000000
_cell_volume 1712.353876
_symmetry_space_group_name_H-M "P 21 21 21"
_symmetry_group_IT_number 19
_symmetry_cell_setting 'orthorhombic'
loop_
_space_group_symop_operation_xyz
x,y,z
1/2-x,-y,1/2+z
1/2+x,1/2-y,-z
-x,1/2+y,1/2-z
loop_
_atom_site_type_symbol
_atom_site_label
_atom_site_fract_x
_atom_site_fract_y
_atom_site_fract_z
Si Si1 0.219610 0.788517 0.434073
Si Si2 0.035986 0.296693 0.653796
Si Si3 0.037513 0.591691 0.133965
Si Si4 0.778281 0.438763 0.592170
Si Si5 0.765089 0.125004 0.220043
Si Si6 0.932820 0.885048 0.486945
Si Si7 0.870123 0.071167 0.616784
Si Si8 0.268704 0.269243 0.523752
O O1 0.199330 0.725902 0.346874
O O2 0.069521 0.803166 0.475973
O O3 0.303095 0.704103 0.496981
O O4 0.297268 0.917783 0.422542
O O5 0.128984 0.328974 0.730995
O O6 0.126372 0.301483 0.571244
O O7 0.907887 0.392623 0.646978
O O8 0.977422 0.159601 0.664405
O O9 0.098014 0.605155 0.224296
O O10 0.093610 0.704419 0.079263
O O11 0.868481 0.590134 0.138652
O O12 0.095874 0.466597 0.093173
O O13 0.774443 0.371647 0.504354
O O14 0.730382 0.994611 0.181170
O O15 0.958217 0.972370 0.564735
O O16 0.769912 0.149116 0.557406
#
# Coordination Sequence:
#
# PCOD8156634 Si02
#       8
#     4   4   4   4   4   4   4   4
#     4  10  21  37  57  84 113 142 186 228 282 322
#     4  10  20  34  60  83 109 147 187 227 276 324
#     4   9  19  38  57  77 116 149 183 226 282 323
#     4  10  19  34  57  84 110 140 192 238 258 326
#     4  10  22  37  54  79 120 152 174 227 282 340
#     4   9  19  38  60  78 110 149 185 235 265 329
#     4   9  19  37  58  82 111 144 192 227 273 322
#     4   9  17  35  61  83 103 147 189 228 274 320
#
# _framework density 18.687726000000001
#
# number of rings (size 3 to 8) (size 9 to 14) (size 15 to 20)
#    0.000    2.500    0.000    3.000    1.750    4.000 
#   11.250    0.000    5.500    0.000    0.000    0.000 
#    0.000    0.000    0.000    0.000    0.000    0.000 
#
# Total GULP energy -396786.018974 kJ/mol
# GULP energy per Si atom -12399.563093 kJ/mol
# Density = 1.864519 g / cm^3
# Si number density = 18.687726 Si / 1000 Ang^3
#
#
#
# Elastic Constant Matrix: (Units=GPa)
#
#
# Indices 1 2 3 4 5 6 
#
# 1 68.2937 18.8993 9.9388 0.0000 0.0000 0.0000
# 2 18.8993 86.1181 15.8693 0.0000 0.0000 0.0000
# 3 9.9388 15.8693 48.3889 0.0000 0.0000 0.0000
# 4 0.0000 0.0000 0.0000 21.3047 0.0000 0.0000
# 5 0.0000 0.0000 0.0000 0.0000 24.9089 0.0000
# 6 0.0000 0.0000 0.0000 0.0000 0.0000 30.0436
#
#
#
# Elastic Compliance Matrix: (Units=1/GPa)
#
#
# Indices 1 2 3 4 5 6 
#
# 1 0.015815 -0.003057 -0.002246 0.000000 0.000000 0.000000
# 2 -0.003057 0.012950 -0.003619 0.000000 0.000000 0.000000
# 3 -0.002246 -0.003619 0.022314 0.000000 0.000000 0.000000
# 4 0.000000 0.000000 0.000000 0.046938 0.000000 0.000000
# 5 0.000000 0.000000 0.000000 0.000000 0.040146 0.000000
# 6 0.000000 0.000000 0.000000 0.000000 0.000000 0.033285
#
#
# Mechanical properties :
#
#
# Convention : Reuss Voigt Hill
#
# Bulk Modulus (GPa) = 30.08829 32.46840 31.27835
# Shear Modulus (GPa) = 24.95375 25.79100 25.37237
#
# Velocity S-wave (km/s) = 3.65814 3.71900 3.68870
# Velocity P-wave (km/s) = 5.82908 5.98776 5.90895
#
# Compressibility (1/GPa) = 0.03323552
#
# Stress axis : x y z
#
# Youngs Moduli (GPa) = 63.22933 77.22168 44.81478
#
# Poissons Ratio (x) = 0.23606 0.10065
# Poissons Ratio (y) = 0.19329 0.16219
# Poissons Ratio (z) = 0.14200 0.27947
#
# Static dielectric constant tensor:
#      x y z
#    x 3.405260 0.000000 0.000000 
#    y 0.000000 3.626580 0.000000 
#    z 0.000000 0.000000 3.329050 
# 
# 
# High freq. dielectric constant tensor:
#      x y z
#    x 1.723870 0.000000 0.000000 
#    y 0.000000 1.732740 0.000000 
#    z 0.000000 0.000000 1.712610 
# 
# From -- ./inp_files/4235.got.cif
#   From: 2010.03.12/outbox.cif.g09.slc.cpg/sg19_3_cif.got.tgz:4235.got - 2010.04.10 18:59:41.
