data_PCOD8156949
_publ_section_title
;
Structure prediction by ZEFSAII (Michael W. Deem and Ramdas Pophale) SiO2 
 PCOD8156949
Probable space group: P 21 21 21
;
_chemical_formula_sum "Si O2"
_cell_formula_units_Z 24
_cell_length_a 5.049647
_cell_length_b 22.477908
_cell_length_c 9.661931
_cell_angle_alpha 90.000000
_cell_angle_beta 90.000000
_cell_angle_gamma 90.000000
_cell_volume 1096.682316
_symmetry_space_group_name_H-M "P 21 21 21"
_symmetry_group_IT_number 19
_symmetry_cell_setting 'orthorhombic'
loop_
_space_group_symop_operation_xyz
x,y,z
1/2-x,-y,1/2+z
1/2+x,1/2-y,-z
-x,1/2+y,1/2-z
loop_
_atom_site_type_symbol
_atom_site_label
_atom_site_fract_x
_atom_site_fract_y
_atom_site_fract_z
Si Si1 0.566716 0.259383 0.580169
Si Si2 0.169338 0.829444 0.481573
Si Si3 0.111687 0.612326 0.147171
Si Si4 0.341631 0.946171 0.620070
Si Si5 0.876578 0.452296 0.594509
Si Si6 0.675150 0.784436 0.341416
O O1 0.801792 0.275035 0.471399
O O2 0.445979 0.317884 0.651947
O O3 0.728597 0.215845 0.683227
O O4 0.188494 0.896631 0.532721
O O5 0.873767 0.826510 0.424363
O O6 0.198345 0.783816 0.608587
O O7 0.382264 0.811688 0.362090
O O8 0.090191 0.586351 0.304341
O O9 0.397957 0.598108 0.085778
O O10 0.895792 0.579592 0.048826
O O11 0.156230 0.973862 0.743797
O O12 0.444134 0.995225 0.511921
#
# Coordination Sequence:
#
# PCOD8156949 Si02
#       6
#     4   4   4   4   4   4
#     4  12  24  43  65  94 137 173 211 263 336 407
#     4  10  21  36  68  85 131 154 218 266 320 371
#     4  10  24  43  65  92 132 172 211 273 334 376
#     4  10  24  44  68  95 130 177 218 279 325 386
#     4  10  24  41  71  93 129 175 226 264 333 384
#     4  10  21  39  59 101 115 169 210 261 318 398
#
# _framework density 21.884187000000001
#
# number of rings (size 3 to 8) (size 9 to 14) (size 15 to 20)
#    1.000    0.667    1.667    2.000    4.667    1.333 
#    9.000    0.000    0.000    0.000    0.000    0.000 
#    0.000    0.000    0.000    0.000    0.000    0.000 
#
# Total GULP energy -297361.027524 kJ/mol
# GULP energy per Si atom -12390.042814 kJ/mol
# Density = 2.183438 g / cm^3
# Si number density = 21.884187 Si / 1000 Ang^3
#
#
#
# Elastic Constant Matrix: (Units=GPa)
#
#
# Indices 1 2 3 4 5 6 
#
# 1 71.4932 4.5326 9.1406 0.0000 0.0000 0.0000
# 2 4.5326 58.8315 35.9189 0.0000 0.0000 0.0000
# 3 9.1406 35.9189 79.5848 0.0000 0.0000 0.0000
# 4 0.0000 0.0000 0.0000 28.3258 0.0000 0.0000
# 5 0.0000 0.0000 0.0000 0.0000 16.1798 0.0000
# 6 0.0000 0.0000 0.0000 0.0000 0.0000 20.9850
#
#
#
# Elastic Compliance Matrix: (Units=1/GPa)
#
#
# Indices 1 2 3 4 5 6 
#
# 1 0.014197 -0.000136 -0.001569 0.000000 0.000000 0.000000
# 2 -0.000136 0.023464 -0.010575 0.000000 0.000000 0.000000
# 3 -0.001569 -0.010575 0.017518 0.000000 0.000000 0.000000
# 4 0.000000 0.000000 0.000000 0.035303 0.000000 0.000000
# 5 0.000000 0.000000 0.000000 0.000000 0.061805 0.000000
# 6 0.000000 0.000000 0.000000 0.000000 0.000000 0.047653
#
#
# Mechanical properties :
#
#
# Convention : Reuss Voigt Hill
#
# Bulk Modulus (GPa) = 32.65843 34.34375 33.50109
# Shear Modulus (GPa) = 21.30321 23.78595 22.54458
#
# Velocity S-wave (km/s) = 3.12340 3.30040 3.21312
# Velocity P-wave (km/s) = 5.28803 5.50009 5.39510
#
# Compressibility (1/GPa) = 0.03061996
#
# Stress axis : x y z
#
# Youngs Moduli (GPa) = 70.43943 42.61797 57.08400
#
# Poissons Ratio (x) = 0.00578 0.08958
# Poissons Ratio (y) = 0.00955 0.60364
# Poissons Ratio (z) = 0.11054 0.45066
#
# Static dielectric constant tensor:
#      x y z
#    x 3.953420 0.000000 0.000000 
#    y 0.000000 3.531920 0.000000 
#    z 0.000000 0.000000 3.925470 
# 
# 
# High freq. dielectric constant tensor:
#      x y z
#    x 1.870150 0.000000 0.000000 
#    y 0.000000 1.833780 0.000000 
#    z 0.000000 0.000000 1.847260 
# 
# From -- ./inp_files/492.got.cif
#   From: 2010.03.12/outbox.cif.g09.slc.cpg/sg19_1_cif.got.tgz:492.got - 2010.04.10 18:59:41.
