data_PCOD8156883
_publ_section_title
;
Structure prediction by ZEFSAII (Michael W. Deem and Ramdas Pophale) SiO2 
 PCOD8156883
Probable space group: P 21 21 21
;
_chemical_formula_sum "Si O2"
_cell_formula_units_Z 32
_cell_length_a 15.072315
_cell_length_b 8.843957
_cell_length_c 11.020020
_cell_angle_alpha 90.000000
_cell_angle_beta 90.000000
_cell_angle_gamma 90.000000
_cell_volume 1468.956607
_symmetry_space_group_name_H-M "P 21 21 21"
_symmetry_group_IT_number 19
_symmetry_cell_setting 'orthorhombic'
loop_
_space_group_symop_operation_xyz
x,y,z
1/2-x,-y,1/2+z
1/2+x,1/2-y,-z
-x,1/2+y,1/2-z
loop_
_atom_site_type_symbol
_atom_site_label
_atom_site_fract_x
_atom_site_fract_y
_atom_site_fract_z
Si Si1 0.260945 0.223271 0.109262
Si Si2 0.969150 0.241495 0.884873
Si Si3 0.558441 0.296146 0.505462
Si Si4 0.024153 0.901856 0.375903
Si Si5 0.182249 0.066880 0.696872
Si Si6 0.363244 0.605778 0.794807
Si Si7 0.035664 0.919383 0.840442
Si Si8 0.702539 0.770423 0.654483
O O1 0.365207 0.236835 0.127568
O O2 0.208729 0.326489 0.203485
O O3 0.243766 0.044559 0.136465
O O4 0.240416 0.269423 0.970618
O O5 0.011893 0.336146 0.774163
O O6 0.010459 0.302507 0.010315
O O7 0.979795 0.064103 0.876462
O O8 0.518298 0.420223 0.595750
O O9 0.606997 0.387422 0.398568
O O10 0.630820 0.193738 0.577139
O O11 0.475689 0.197302 0.453181
O O12 0.124353 0.853271 0.346595
O O13 0.960833 0.876133 0.261946
O O14 0.229493 0.219488 0.741438
O O15 0.135789 0.975330 0.809948
O O16 0.337329 0.433825 0.819704
#
# Coordination Sequence:
#
# PCOD8156883 Si02
#       8
#     4   4   4   4   4   4   4   4
#     4  10  24  46  64  98 141 178 228 284 343 412
#     4  10  20  40  68  98 140 173 230 286 330 411
#     4  12  23  45  72 101 140 178 232 291 343 424
#     4  11  23  49  65 100 145 180 232 285 349 418
#     4  11  24  45  72  99 137 185 228 287 347 416
#     4  12  28  43  72 104 136 189 227 292 354 419
#     4  11  21  39  70 102 128 185 223 283 348 399
#     4  11  25  47  69 104 141 184 234 292 350 419
#
# _framework density 21.784168999999999
#
# number of rings (size 3 to 8) (size 9 to 14) (size 15 to 20)
#    0.000    1.000    5.000    3.000    5.250    0.000 
#    9.000    0.000    0.000    0.000    0.000    0.000 
#    0.000    0.000    0.000    0.000    0.000    0.000 
#
# Total GULP energy -396699.997476 kJ/mol
# GULP energy per Si atom -12396.874921 kJ/mol
# Density = 2.173459 g / cm^3
# Si number density = 21.784169 Si / 1000 Ang^3
#
#
#
# Elastic Constant Matrix: (Units=GPa)
#
#
# Indices 1 2 3 4 5 6 
#
# 1 36.7348 23.9009 30.6792 0.0000 0.0000 0.0000
# 2 23.9009 130.3165 36.2857 0.0000 0.0000 0.0000
# 3 30.6792 36.2857 85.2960 0.0000 0.0000 0.0000
# 4 0.0000 0.0000 0.0000 38.8594 0.0000 0.0000
# 5 0.0000 0.0000 0.0000 0.0000 32.8460 0.0000
# 6 0.0000 0.0000 0.0000 0.0000 0.0000 39.7181
#
#
#
# Elastic Compliance Matrix: (Units=1/GPa)
#
#
# Indices 1 2 3 4 5 6 
#
# 1 0.040526 -0.003827 -0.012948 0.000000 0.000000 0.000000
# 2 -0.003827 0.009066 -0.002480 0.000000 0.000000 0.000000
# 3 -0.012948 -0.002480 0.017436 0.000000 0.000000 0.000000
# 4 0.000000 0.000000 0.000000 0.025734 0.000000 0.000000
# 5 0.000000 0.000000 0.000000 0.000000 0.030445 0.000000
# 6 0.000000 0.000000 0.000000 0.000000 0.000000 0.025177
#
#
# Mechanical properties :
#
#
# Convention : Reuss Voigt Hill
#
# Bulk Modulus (GPa) = 35.06698 48.23100 41.64899
# Shear Modulus (GPa) = 25.45801 33.05013 29.25407
#
# Velocity S-wave (km/s) = 3.42226 3.89930 3.66854
# Velocity P-wave (km/s) = 5.63455 6.51623 6.09136
#
# Compressibility (1/GPa) = 0.02851685
#
# Stress axis : x y z
#
# Youngs Moduli (GPa) = 24.67550 110.29983 57.35212
#
# Poissons Ratio (x) = 0.42217 0.74260
# Poissons Ratio (y) = 0.09444 0.14224
# Poissons Ratio (z) = 0.31950 0.27357
#
# Static dielectric constant tensor:
#      x y z
#    x 3.572970 0.000000 0.000000 
#    y 0.000000 4.230090 0.000000 
#    z 0.000000 0.000000 4.227900 
# 
# 
# High freq. dielectric constant tensor:
#      x y z
#    x 1.827320 0.000000 0.000000 
#    y 0.000000 1.877140 0.000000 
#    z 0.000000 0.000000 1.863740 
# 
# From -- ./inp_files/5274.got.cif
#   From: 2010.03.12/outbox.cif.g09.slc.cpg/sg19_3_cif.got.tgz:5274.got - 2010.04.10 18:59:41.
