data_PCOD8156306
_publ_section_title
;
Structure prediction by ZEFSAII (Michael W. Deem and Ramdas Pophale) SiO2 
 PCOD8156306
Probable space group: P 21 21 2
;
_chemical_formula_sum "Si O2"
_cell_formula_units_Z 32
_cell_length_a 16.226196
_cell_length_b 8.589305
_cell_length_c 10.275431
_cell_angle_alpha 90.000000
_cell_angle_beta 90.000000
_cell_angle_gamma 90.000000
_cell_volume 1432.104764
_symmetry_space_group_name_H-M "P 21 21 2"
_symmetry_group_IT_number 18
_symmetry_cell_setting 'orthorhombic'
loop_
_space_group_symop_operation_xyz
x,y,z
-x,-y,z
1/2+x,1/2-y,-z
1/2-x,1/2+y,-z
loop_
_atom_site_type_symbol
_atom_site_label
_atom_site_fract_x
_atom_site_fract_y
_atom_site_fract_z
Si Si1 0.274494 0.740233 0.180691
Si Si2 0.364248 0.710734 0.540140
Si Si3 0.409843 0.530929 0.294947
Si Si4 0.832520 0.269464 0.795571
Si Si5 0.110050 0.637320 0.076629
Si Si6 0.030338 0.169469 0.209828
Si Si7 0.163306 0.314285 0.080239
Si Si8 0.717941 0.022149 0.389074
O O1 0.356059 0.639243 0.201692
O O2 0.201099 0.630439 0.138438
O O3 0.242352 0.840273 0.302218
O O4 0.297053 0.849523 0.059234
O O5 0.418327 0.621190 0.431991
O O6 0.422625 0.739157 0.663950
O O7 0.334065 0.885460 0.499709
O O8 0.286287 0.594640 0.556225
O O9 0.500000 0.500000 0.235893
O O10 0.368459 0.361756 0.299845
O O11 0.737532 0.216934 0.818435
O O12 0.840464 0.426191 0.709739
O O13 0.884743 0.294722 0.929076
O O14 0.094734 0.453168 0.094033
O O15 0.048766 0.732878 0.166643
O O16 0.100830 0.166876 0.096679
O O17 0.000000 0.000000 0.244721
#
# Coordination Sequence:
#
# PCOD8156306 Si02
#       8
#     4   4   4   4   4   4   4   4
#     4  10  23  41  69 104 140 188 243 289 368 432
#     4  11  25  46  73 107 144 190 250 297 368 427
#     4  11  25  44  70 101 140 190 243 306 355 435
#     4  11  23  43  73 107 142 188 249 296 368 438
#     4  11  24  41  69 108 151 188 230 307 374 442
#     4  12  27  43  71 107 150 190 241 307 371 441
#     4  11  23  43  66 104 149 181 239 302 364 443
#     4  11  22  45  75 102 139 193 239 301 344 442
#
# _framework density 22.344736000000001
#
# number of rings (size 3 to 8) (size 9 to 14) (size 15 to 20)
#    0.000    1.000    3.750    2.250    3.500    0.000 
#    0.000    8.750    0.000    0.000    0.000    0.000 
#    0.000    0.000    0.000    0.000    0.000    0.000 
#
# Total GULP energy -396422.507029 kJ/mol
# GULP energy per Si atom -12388.203345 kJ/mol
# Density = 2.229388 g / cm^3
# Si number density = 22.344736 Si / 1000 Ang^3
#
#
#
# Elastic Constant Matrix: (Units=GPa)
#
#
# Indices 1 2 3 4 5 6 
#
# 1 117.2834 39.8002 45.5661 0.0000 0.0000 0.0000
# 2 39.8002 107.6859 42.0129 0.0000 0.0000 0.0000
# 3 45.5661 42.0129 87.8238 0.0000 0.0000 0.0000
# 4 0.0000 0.0000 0.0000 35.1570 0.0000 0.0000
# 5 0.0000 0.0000 0.0000 0.0000 35.8209 0.0000
# 6 0.0000 0.0000 0.0000 0.0000 0.0000 38.1416
#
#
#
# Elastic Compliance Matrix: (Units=1/GPa)
#
#
# Indices 1 2 3 4 5 6 
#
# 1 0.011118 -0.002285 -0.004675 0.000000 0.000000 0.000000
# 2 -0.002285 0.011887 -0.004501 0.000000 0.000000 0.000000
# 3 -0.004675 -0.004501 0.015965 0.000000 0.000000 0.000000
# 4 0.000000 0.000000 0.000000 0.028444 0.000000 0.000000
# 5 0.000000 0.000000 0.000000 0.000000 0.027917 0.000000
# 6 0.000000 0.000000 0.000000 0.000000 0.000000 0.026218
#
#
# Mechanical properties :
#
#
# Convention : Reuss Voigt Hill
#
# Bulk Modulus (GPa) = 62.31418 63.06126 62.68772
# Shear Modulus (GPa) = 33.37323 34.18484 33.77904
#
# Velocity S-wave (km/s) = 3.86885 3.91562 3.89231
# Velocity P-wave (km/s) = 6.92138 6.98040 6.95095
#
# Compressibility (1/GPa) = 0.01604771
#
# Stress axis : x y z
#
# Youngs Moduli (GPa) = 89.94201 84.12700 62.63614
#
# Poissons Ratio (x) = 0.19225 0.29285
# Poissons Ratio (y) = 0.20554 0.28191
# Poissons Ratio (z) = 0.42051 0.37863
#
# Static dielectric constant tensor:
#      x y z
#    x 4.009450 0.000000 0.000000 
#    y 0.000000 4.180950 0.000000 
#    z 0.000000 0.000000 4.092130 
# 
# 
# High freq. dielectric constant tensor:
#      x y z
#    x 1.875090 0.000000 0.000000 
#    y 0.000000 1.889900 0.000000 
#    z 0.000000 0.000000 1.881450 
# 
# From -- ./inp_files/6109.got.cif
#   From: 2010.03.12/outbox.cif.g09.slc.cpg/sg18_4_cif.got.tgz:6109.got - 2010.04.10 18:53:55.
