data_PCOD8156814
_publ_section_title
;
Structure prediction by ZEFSAII (Michael W. Deem and Ramdas Pophale) SiO2 
 PCOD8156814
Probable space group: P 21 21 21
;
_chemical_formula_sum "Si O2"
_cell_formula_units_Z 32
_cell_length_a 8.293694
_cell_length_b 13.325079
_cell_length_c 14.002766
_cell_angle_alpha 90.000000
_cell_angle_beta 90.000000
_cell_angle_gamma 90.000000
_cell_volume 1547.503471
_symmetry_space_group_name_H-M "P 21 21 21"
_symmetry_group_IT_number 19
_symmetry_cell_setting 'orthorhombic'
loop_
_space_group_symop_operation_xyz
x,y,z
1/2-x,-y,1/2+z
1/2+x,1/2-y,-z
-x,1/2+y,1/2-z
loop_
_atom_site_type_symbol
_atom_site_label
_atom_site_fract_x
_atom_site_fract_y
_atom_site_fract_z
Si Si1 0.137155 0.634564 0.140607
Si Si2 0.938756 0.825633 0.750720
Si Si3 0.930016 0.826573 0.183588
Si Si4 0.075180 0.998065 0.850494
Si Si5 0.438274 0.561064 0.434691
Si Si6 0.934044 0.438665 0.140260
Si Si7 0.361629 0.539430 0.985622
Si Si8 0.069774 0.624598 0.801762
O O1 0.257319 0.637935 0.229876
O O2 0.247714 0.619446 0.044799
O O3 0.020277 0.731228 0.137037
O O4 0.023335 0.541455 0.161843
O O5 0.074832 0.883526 0.812826
O O6 0.936788 0.709949 0.783359
O O7 0.973825 0.848729 0.639135
O O8 0.737146 0.814275 0.193229
O O9 0.947064 0.915768 0.107591
O O10 0.002918 0.853173 0.287534
O O11 0.245803 0.050074 0.838599
O O12 0.016280 0.001305 0.958626
O O13 0.934476 0.053204 0.790255
O O14 0.542035 0.587945 0.528469
O O15 0.248441 0.556995 0.460204
O O16 0.474214 0.447479 0.392317
#
# Coordination Sequence:
#
# PCOD8156814 Si02
#       8
#     4   4   4   4   4   4   4   4
#     4  10  21  36  58  86 116 150 193 240 288 344
#     4  10  20  38  60  84 115 152 192 241 293 345
#     4  11  22  38  61  87 118 153 193 242 290 345
#     4  10  21  36  57  84 116 151 194 240 288 346
#     4   9  20  39  60  82 114 153 191 238 289 347
#     4  11  22  38  58  87 119 153 195 238 290 349
#     4   9  20  37  58  82 115 154 191 240 291 338
#     4  10  20  38  60  84 115 152 191 237 291 344
#
# _framework density 20.678467000000001
#
# number of rings (size 3 to 8) (size 9 to 14) (size 15 to 20)
#    0.000    2.000    0.000    5.250    0.000   10.000 
#    0.000    7.500    0.000    0.000    0.000    0.000 
#    0.000    0.000    0.000    0.000    0.000    0.000 
#
# Total GULP energy -396487.457953 kJ/mol
# GULP energy per Si atom -12390.233061 kJ/mol
# Density = 2.063140 g / cm^3
# Si number density = 20.678467 Si / 1000 Ang^3
#
#
#
# Elastic Constant Matrix: (Units=GPa)
#
#
# Indices 1 2 3 4 5 6 
#
# 1 67.9465 1.4716 14.9845 0.0000 0.0000 0.0000
# 2 1.4716 40.1269 11.8041 0.0000 0.0000 0.0000
# 3 14.9845 11.8041 101.9521 0.0000 0.0000 0.0000
# 4 0.0000 0.0000 0.0000 23.1060 0.0000 0.0000
# 5 0.0000 0.0000 0.0000 0.0000 24.7154 0.0000
# 6 0.0000 0.0000 0.0000 0.0000 0.0000 31.1329
#
#
#
# Elastic Compliance Matrix: (Units=1/GPa)
#
#
# Indices 1 2 3 4 5 6 
#
# 1 0.015211 0.000103 -0.002248 0.000000 0.000000 0.000000
# 2 0.000103 0.025800 -0.003002 0.000000 0.000000 0.000000
# 3 -0.002248 -0.003002 0.010486 0.000000 0.000000 0.000000
# 4 0.000000 0.000000 0.000000 0.043279 0.000000 0.000000
# 5 0.000000 0.000000 0.000000 0.000000 0.040461 0.000000
# 6 0.000000 0.000000 0.000000 0.000000 0.000000 0.032120
#
#
# Mechanical properties :
#
#
# Convention : Reuss Voigt Hill
#
# Bulk Modulus (GPa) = 24.26920 29.61620 26.94270
# Shear Modulus (GPa) = 26.12527 27.90855 27.01691
#
# Velocity S-wave (km/s) = 3.55830 3.67773 3.61851
# Velocity P-wave (km/s) = 5.35200 5.69101 5.52411
#
# Compressibility (1/GPa) = 0.04120448
#
# Stress axis : x y z
#
# Youngs Moduli (GPa) = 65.74233 38.75918 95.36081
#
# Poissons Ratio (x) = -0.00401 0.21433
# Poissons Ratio (y) = -0.00679 0.28631
# Poissons Ratio (z) = 0.14776 0.11637
#
# Static dielectric constant tensor:
#      x y z
#    x 3.634280 0.000000 0.000000 
#    y 0.000000 3.604940 0.000000 
#    z 0.000000 0.000000 3.867490 
# 
# 
# High freq. dielectric constant tensor:
#      x y z
#    x 1.805290 0.000000 0.000000 
#    y 0.000000 1.788340 0.000000 
#    z 0.000000 0.000000 1.815790 
# 
# From -- ./inp_files/5985.got.cif
#   From: 2010.03.12/outbox.cif.g09.slc.cpg/sg19_3_cif.got.tgz:5985.got - 2010.04.10 18:59:41.
