data_PCOD8156812
_publ_section_title
;
Structure prediction by ZEFSAII (Michael W. Deem and Ramdas Pophale) SiO2 
 PCOD8156812
Probable space group: P 21 21 21
;
_chemical_formula_sum "Si O2"
_cell_formula_units_Z 20
_cell_length_a 16.126371
_cell_length_b 7.151084
_cell_length_c 9.441979
_cell_angle_alpha 90.000000
_cell_angle_beta 90.000000
_cell_angle_gamma 90.000000
_cell_volume 1088.858778
_symmetry_space_group_name_H-M "P 21 21 21"
_symmetry_group_IT_number 19
_symmetry_cell_setting 'orthorhombic'
loop_
_space_group_symop_operation_xyz
x,y,z
1/2-x,-y,1/2+z
1/2+x,1/2-y,-z
-x,1/2+y,1/2-z
loop_
_atom_site_type_symbol
_atom_site_label
_atom_site_fract_x
_atom_site_fract_y
_atom_site_fract_z
Si Si1 0.342889 0.500000 0.200019
Si Si2 0.846206 0.000000 0.245040
Si Si3 0.395362 0.793311 0.976062
Si Si4 0.552745 1.000000 0.021095
Si Si5 0.395362 0.206689 0.976062
O O1 0.252443 0.500000 0.267894
O O2 0.354038 0.684683 0.106053
O O3 0.409907 0.500000 0.323438
O O4 0.354038 0.315317 0.106053
O O5 0.873313 0.000000 0.407925
O O6 0.881883 0.184713 0.170210
O O7 0.881883 0.815287 0.170209
O O8 0.494625 0.815894 0.001434
O O9 0.353703 1.000000 0.965941
O O10 0.494625 0.184105 0.001433
#
# Coordination Sequence:
#
# PCOD8156812 Si02
#       5
#     4   4   4   4   4
#     4  11  21  39  59  85 116 146 186 239 281 323
#     4  11  21  39  59  85 116 146 186 239 281 323
#     4   9  22  37  59  82 114 149 195 219 281 340
#     4  10  20  38  60  82 116 152 186 228 276 340
#     4   9  22  37  59  82 114 149 195 219 281 340
#
# _framework density 18.367856
#
# number of rings (size 3 to 8) (size 9 to 14) (size 15 to 20)
#    1.200    0.800    0.000    4.800    0.000    1.600 
#    0.000    0.000    0.000    0.000    0.000    0.000 
#    0.000    0.000    0.000    0.000    0.000    0.000 
#
# Total GULP energy -247948.104343 kJ/mol
# GULP energy per Si atom -12397.405217 kJ/mol
# Density = 1.832605 g / cm^3
# Si number density = 18.367856 Si / 1000 Ang^3
#
#
#
# Elastic Constant Matrix: (Units=GPa)
#
#
# Indices 1 2 3 4 5 6 
#
# 1 78.7600 18.4438 1.9975 0.0000 0.0000 0.0000
# 2 18.4438 139.7808 38.6442 0.0000 0.0000 0.0000
# 3 1.9975 38.6442 85.0976 0.0000 0.0000 0.0000
# 4 0.0000 0.0000 0.0000 -24.9555 0.0000 0.0000
# 5 0.0000 0.0000 0.0000 0.0000 37.8613 0.0000
# 6 0.0000 0.0000 0.0000 0.0000 0.0000 -237.3171
#
#
#
# Elastic Compliance Matrix: (Units=1/GPa)
#
#
# Indices 1 2 3 4 5 6 
#
# 1 0.013124 -0.001883 0.000547 0.000000 0.000000 0.000000
# 2 -0.001883 0.008451 -0.003794 0.000000 0.000000 0.000000
# 3 0.000547 -0.003794 0.013461 0.000000 0.000000 0.000000
# 4 0.000000 0.000000 0.000000 -0.040071 0.000000 0.000000
# 5 0.000000 0.000000 0.000000 0.000000 0.026412 0.000000
# 6 0.000000 0.000000 0.000000 0.000000 0.000000 -0.004214
#
#
# Mechanical properties :
#
#
# Convention : Reuss Voigt Hill
#
# Bulk Modulus (GPa) = 40.35975 46.86772 43.61374
# Shear Modulus (GPa) = 140.12842 -28.57873 55.77485
#
# Velocity S-wave (km/s) = 8.74389 -3.94878 5.51646
# Velocity P-wave (km/s) = 11.13380 2.18656 8.02317
#
# Compressibility (1/GPa) = 0.02477716
#
# Stress axis : x y z
#
# Youngs Moduli (GPa) = 76.19712 118.32481 74.28789
#
# Poissons Ratio (x) = 0.22279 -0.04064
# Poissons Ratio (y) = 0.14347 0.28182
# Poissons Ratio (z) = -0.04168 0.44889
#
# Static dielectric constant tensor:
#      x y z
#    x 3.236450 0.000000 0.000000 
#    y 0.000000 3.345780 0.000000 
#    z 0.000000 0.000000 3.249910 
# 
# 
# High freq. dielectric constant tensor:
#      x y z
#    x 1.706480 0.000000 0.000000 
#    y 0.000000 1.708300 0.000000 
#    z 0.000000 0.000000 1.721530 
# 
# From -- ./inp_files/4101.got.cif
#   From: 2010.03.12/outbox.cif.g09.slc.cpg/sg19_3_cif.got.tgz:4101.got - 2010.04.10 18:59:41.
