data_PCOD8156272
_publ_section_title
;
Structure prediction by ZEFSAII (Michael W. Deem and Ramdas Pophale) SiO2 
 PCOD8156272
Probable space group: P 21 21 2
;
_chemical_formula_sum "Si O2"
_cell_formula_units_Z 24
_cell_length_a 8.429099
_cell_length_b 22.190750
_cell_length_c 5.411342
_cell_angle_alpha 90.000000
_cell_angle_beta 90.000000
_cell_angle_gamma 90.000000
_cell_volume 1012.180853
_symmetry_space_group_name_H-M "P 21 21 2"
_symmetry_group_IT_number 18
_symmetry_cell_setting 'orthorhombic'
loop_
_space_group_symop_operation_xyz
x,y,z
-x,-y,z
1/2+x,1/2-y,-z
1/2-x,1/2+y,-z
loop_
_atom_site_type_symbol
_atom_site_label
_atom_site_fract_x
_atom_site_fract_y
_atom_site_fract_z
Si Si1 0.511397 0.777020 0.896274
Si Si2 0.615881 0.171498 0.386510
Si Si3 0.525310 0.664273 0.614843
Si Si4 0.784457 0.853783 0.771920
Si Si5 0.896366 0.943048 0.147201
Si Si6 0.084626 0.560746 0.567164
O O1 0.474871 0.800066 0.617820
O O2 0.509427 0.704302 0.867095
O O3 0.685086 0.806823 0.944289
O O4 0.398991 0.792222 0.126992
O O5 0.796313 0.170371 0.480646
O O6 0.549769 0.104869 0.319853
O O7 0.391818 0.686110 0.417012
O O8 0.489742 0.592946 0.639190
O O9 0.665755 0.902637 0.651888
O O10 0.901937 0.894943 0.928638
O O11 0.716006 0.958278 0.227254
O O12 0.000000 0.000000 0.068572
O O13 0.000000 0.500000 0.469130
#
# Coordination Sequence:
#
# PCOD8156272 Si02
#       6
#     4   4   4   4   4   4
#     4  11  25  45  71 101 146 184 238 294 363 428
#     4  11  25  44  69 107 137 187 238 297 356 429
#     4  11  26  41  72  98 141 183 240 291 365 426
#     4  10  24  45  65 103 140 189 233 308 360 431
#     4  11  24  43  68  99 139 184 240 296 361 432
#     4  10  22  44  68  94 140 183 239 296 362 430
#
# _framework density 23.711178
#
# number of rings (size 3 to 8) (size 9 to 14) (size 15 to 20)
#    0.000    1.333    1.667    2.000    7.000    4.667 
#    3.000    0.000    0.000    0.000    0.000    0.000 
#    0.000    0.000    0.000    0.000    0.000    0.000 
#
# Total GULP energy -297419.167527 kJ/mol
# GULP energy per Si atom -12392.465314 kJ/mol
# Density = 2.365721 g / cm^3
# Si number density = 23.711178 Si / 1000 Ang^3
#
#
#
# Elastic Constant Matrix: (Units=GPa)
#
#
# Indices 1 2 3 4 5 6 
#
# 1 120.6735 40.3819 13.6089 0.0000 0.0000 0.0000
# 2 40.3819 116.9828 15.5840 0.0000 0.0000 0.0000
# 3 13.6089 15.5840 77.5626 0.0000 0.0000 0.0000
# 4 0.0000 0.0000 0.0000 26.9208 0.0000 0.0000
# 5 0.0000 0.0000 0.0000 0.0000 16.5203 0.0000
# 6 0.0000 0.0000 0.0000 0.0000 0.0000 40.6931
#
#
#
# Elastic Compliance Matrix: (Units=1/GPa)
#
#
# Indices 1 2 3 4 5 6 
#
# 1 0.009449 -0.003124 -0.001030 0.000000 0.000000 0.000000
# 2 -0.003124 0.009817 -0.001424 0.000000 0.000000 0.000000
# 3 -0.001030 -0.001424 0.013360 0.000000 0.000000 0.000000
# 4 0.000000 0.000000 0.000000 0.037146 0.000000 0.000000
# 5 0.000000 0.000000 0.000000 0.000000 0.060531 0.000000
# 6 0.000000 0.000000 0.000000 0.000000 0.000000 0.024574
#
#
# Mechanical properties :
#
#
# Convention : Reuss Voigt Hill
#
# Bulk Modulus (GPa) = 46.58193 50.48538 48.53366
# Shear Modulus (GPa) = 28.87014 33.20312 31.03663
#
# Velocity S-wave (km/s) = 3.49316 3.74614 3.62186
# Velocity P-wave (km/s) = 5.99648 6.32846 6.16471
#
# Compressibility (1/GPa) = 0.02146755
#
# Stress axis : x y z
#
# Youngs Moduli (GPa) = 105.83669 101.86930 74.85208
#
# Poissons Ratio (x) = 0.31828 0.07710
# Poissons Ratio (y) = 0.33067 0.10660
# Poissons Ratio (z) = 0.10902 0.14508
#
# Static dielectric constant tensor:
#      x y z
#    x 4.351600 0.000000 0.000000 
#    y 0.000000 4.292570 0.000000 
#    z 0.000000 0.000000 3.931520 
# 
# 
# High freq. dielectric constant tensor:
#      x y z
#    x 1.946840 0.000000 0.000000 
#    y 0.000000 1.948680 0.000000 
#    z 0.000000 0.000000 1.921000 
# 
# From -- ./inp_files/605.got.cif
#   From: 2010.03.12/outbox.cif.g09.slc.cpg/sg18_1_cif.got.tgz:605.got - 2010.04.10 18:53:55.
