data_PCOD8156880
_publ_section_title
;
Structure prediction by ZEFSAII (Michael W. Deem and Ramdas Pophale) SiO2 
 PCOD8156880
Probable space group: P 21 21 21
;
_chemical_formula_sum "Si O2"
_cell_formula_units_Z 28
_cell_length_a 7.214073
_cell_length_b 17.225035
_cell_length_c 9.212976
_cell_angle_alpha 90.000000
_cell_angle_beta 90.000000
_cell_angle_gamma 90.000000
_cell_volume 1144.828904
_symmetry_space_group_name_H-M "P 21 21 21"
_symmetry_group_IT_number 19
_symmetry_cell_setting 'orthorhombic'
loop_
_space_group_symop_operation_xyz
x,y,z
1/2-x,-y,1/2+z
1/2+x,1/2-y,-z
-x,1/2+y,1/2-z
loop_
_atom_site_type_symbol
_atom_site_label
_atom_site_fract_x
_atom_site_fract_y
_atom_site_fract_z
Si Si1 0.703916 0.980327 0.476915
Si Si2 0.798483 0.405238 0.120799
Si Si3 0.371479 0.340861 0.831641
Si Si4 0.021055 0.611707 0.024512
Si Si5 0.157897 0.958644 0.061192
Si Si6 0.484759 0.727439 0.469794
Si Si7 0.911476 0.152526 0.780577
O O1 0.667335 0.929626 0.622038
O O2 0.699056 0.922993 0.338311
O O3 0.901992 0.022758 0.473964
O O4 0.541999 0.046756 0.479256
O O5 0.740278 0.457907 0.984268
O O6 0.866441 0.453683 0.263741
O O7 0.958697 0.349311 0.058200
O O8 0.627099 0.355509 0.177733
O O9 0.420060 0.339096 0.662893
O O10 0.543083 0.299271 0.915234
O O11 0.192006 0.288906 0.869310
O O12 0.798672 0.606547 0.002631
O O13 0.116046 0.657482 0.891143
O O14 0.645130 0.766190 0.360871
#
# Coordination Sequence:
#
# PCOD8156880 Si02
#       7
#     4   4   4   4   4   4   4
#     4  10  21  40  67 103 133 178 226 281 352 408
#     4  10  20  40  67  95 138 177 223 278 350 400
#     4  11  24  42  70  98 138 186 238 274 350 419
#     4  11  22  42  66 104 136 173 231 297 335 405
#     4  10  22  39  68 102 137 170 221 287 343 410
#     4  11  22  43  66  93 137 195 227 280 342 423
#     4   9  21  40  64  95 139 179 230 277 340 413
#
# _framework density 24.457802999999998
#
# number of rings (size 3 to 8) (size 9 to 14) (size 15 to 20)
#    0.000    1.714    1.429    2.571    0.000    4.571 
#    2.571    5.714    0.000    0.000    0.000    0.000 
#    0.000    0.000    0.000    0.000    0.000    0.000 
#
# Total GULP energy -346889.985562 kJ/mol
# GULP energy per Si atom -12388.928056 kJ/mol
# Density = 2.440214 g / cm^3
# Si number density = 24.457803 Si / 1000 Ang^3
#
#
#
# Elastic Constant Matrix: (Units=GPa)
#
#
# Indices 1 2 3 4 5 6 
#
# 1 69.2870 17.5211 25.2508 0.0000 0.0000 0.0000
# 2 17.5211 88.7984 61.9418 0.0000 0.0000 0.0000
# 3 25.2508 61.9418 205.0905 0.0000 0.0000 0.0000
# 4 0.0000 0.0000 0.0000 34.3781 0.0000 0.0000
# 5 0.0000 0.0000 0.0000 0.0000 22.4840 0.0000
# 6 0.0000 0.0000 0.0000 0.0000 0.0000 33.7385
#
#
#
# Elastic Compliance Matrix: (Units=1/GPa)
#
#
# Indices 1 2 3 4 5 6 
#
# 1 0.015437 -0.002179 -0.001242 0.000000 0.000000 0.000000
# 2 -0.002179 0.014575 -0.004134 0.000000 0.000000 0.000000
# 3 -0.001242 -0.004134 0.006277 0.000000 0.000000 0.000000
# 4 0.000000 0.000000 0.000000 0.029088 0.000000 0.000000
# 5 0.000000 0.000000 0.000000 0.000000 0.044476 0.000000
# 6 0.000000 0.000000 0.000000 0.000000 0.000000 0.029640
#
#
# Mechanical properties :
#
#
# Convention : Reuss Voigt Hill
#
# Bulk Modulus (GPa) = 47.21809 63.62257 55.42033
# Shear Modulus (GPa) = 30.92858 35.35092 33.13975
#
# Velocity S-wave (km/s) = 3.55994 3.80595 3.68499
# Velocity P-wave (km/s) = 6.02041 6.73671 6.38861
#
# Compressibility (1/GPa) = 0.02117832
#
# Stress axis : x y z
#
# Youngs Moduli (GPa) = 64.78125 68.61123 159.30403
#
# Poissons Ratio (x) = 0.14952 0.19792
# Poissons Ratio (y) = 0.14117 0.65850
# Poissons Ratio (z) = 0.08048 0.28361
#
# Static dielectric constant tensor:
#      x y z
#    x 4.495090 0.000000 0.000000 
#    y 0.000000 4.292440 0.000000 
#    z 0.000000 0.000000 4.480120 
# 
# 
# High freq. dielectric constant tensor:
#      x y z
#    x 1.973630 0.000000 0.000000 
#    y 0.000000 1.954210 0.000000 
#    z 0.000000 0.000000 1.970050 
# 
# From -- ./inp_files/2958.got.cif
#   From: 2010.03.12/outbox.cif.g09.slc.cpg/sg19_2_cif.got.tgz:2958.got - 2010.04.10 18:59:41.
