data_PCOD8156730
_publ_section_title
;
Structure prediction by ZEFSAII (Michael W. Deem and Ramdas Pophale) SiO2 
 PCOD8156730
Probable space group: P 21 21 21
;
_chemical_formula_sum "Si O2"
_cell_formula_units_Z 32
_cell_length_a 14.150742
_cell_length_b 8.671100
_cell_length_c 14.414258
_cell_angle_alpha 90.000000
_cell_angle_beta 90.000000
_cell_angle_gamma 90.000000
_cell_volume 1768.665477
_symmetry_space_group_name_H-M "P 21 21 21"
_symmetry_group_IT_number 19
_symmetry_cell_setting 'orthorhombic'
loop_
_space_group_symop_operation_xyz
x,y,z
1/2-x,-y,1/2+z
1/2+x,1/2-y,-z
-x,1/2+y,1/2-z
loop_
_atom_site_type_symbol
_atom_site_label
_atom_site_fract_x
_atom_site_fract_y
_atom_site_fract_z
Si Si1 0.250007 0.632124 0.424859
Si Si2 0.249963 0.675758 0.752474
Si Si3 0.891868 0.134100 0.590639
Si Si4 0.108126 0.365943 0.409277
Si Si5 0.890758 0.345597 0.413215
Si Si6 0.749964 0.173814 0.285238
Si Si7 0.109235 0.154446 0.586705
Si Si8 0.249992 0.887935 0.579880
O O1 0.344122 0.528335 0.437592
O O2 0.155835 0.528427 0.437477
O O3 0.250074 0.711723 0.323899
O O4 0.250007 0.763996 0.499599
O O5 0.157405 0.695657 0.816205
O O6 0.342559 0.695672 0.816153
O O7 0.249965 0.510686 0.700106
O O8 0.249908 0.811177 0.679869
O O9 0.877103 0.253816 0.508160
O O10 0.001938 0.117019 0.612798
O O11 0.122896 0.246319 0.491798
O O12 0.998058 0.382935 0.387081
O O13 0.843413 0.247872 0.330545
O O14 0.843287 0.510271 0.428289
O O15 0.656538 0.247874 0.330585
O O16 0.156751 0.989824 0.571585
#
# Coordination Sequence:
#
# PCOD8156730 Si02
#       8
#     4   4   4   4   4   4   4   4
#     4  10  21  38  54  77 109 140 174 215 262 309
#     4  10  20  34  55  77 105 142 173 215 262 309
#     4   9  20  38  56  75 106 143 174 209 263 316
#     4   9  20  38  56  75 106 143 174 209 263 316
#     4  10  20  35  56  80 105 137 175 217 260 310
#     4   9  19  36  55  73 104 143 173 211 260 312
#     4  10  20  35  56  80 105 137 175 217 260 310
#     4  11  22  34  54  83 108 133 176 223 258 302
#
# _framework density 18.092739000000002
#
# number of rings (size 3 to 8) (size 9 to 14) (size 15 to 20)
#    0.000    2.500    0.000    4.500    0.000    9.000 
#    0.000    5.000    0.000    0.000    0.000    0.000 
#    0.000    0.000    0.000    0.000    0.000    0.000 
#
# Total GULP energy -396793.488923 kJ/mol
# GULP energy per Si atom -12399.796529 kJ/mol
# Density = 1.805156 g / cm^3
# Si number density = 18.092739 Si / 1000 Ang^3
#
#
#
# Elastic Constant Matrix: (Units=GPa)
#
#
# Indices 1 2 3 4 5 6 
#
# 1 189.5114 80.8856 75.3960 0.0000 0.0000 0.0000
# 2 80.8856 111.5198 83.6753 0.0000 0.0000 0.0000
# 3 75.3960 83.6753 114.6197 0.0000 0.0000 0.0000
# 4 0.0000 0.0000 0.0000 18.5646 0.0000 0.0000
# 5 0.0000 0.0000 0.0000 0.0000 29.1347 0.0000
# 6 0.0000 0.0000 0.0000 0.0000 0.0000 11.0442
#
#
#
# Elastic Compliance Matrix: (Units=1/GPa)
#
#
# Indices 1 2 3 4 5 6 
#
# 1 0.007894 -0.004045 -0.002240 0.000000 0.000000 0.000000
# 2 -0.004045 0.021901 -0.013327 0.000000 0.000000 0.000000
# 3 -0.002240 -0.013327 0.019927 0.000000 0.000000 0.000000
# 4 0.000000 0.000000 0.000000 0.053866 0.000000 0.000000
# 5 0.000000 0.000000 0.000000 0.000000 0.034323 0.000000
# 6 0.000000 0.000000 0.000000 0.000000 0.000000 0.090546
#
#
# Mechanical properties :
#
#
# Convention : Reuss Voigt Hill
#
# Bulk Modulus (GPa) = 95.25851 99.50722 97.38287
# Shear Modulus (GPa) = 18.43794 23.46161 20.94977
#
# Velocity S-wave (km/s) = 3.19577 3.60494 3.40650
# Velocity P-wave (km/s) = 8.14749 8.51148 8.33147
#
# Compressibility (1/GPa) = 0.01049775
#
# Stress axis : x y z
#
# Youngs Moduli (GPa) = 126.67270 45.66078 50.18369
#
# Poissons Ratio (x) = 0.18471 0.11239
# Poissons Ratio (y) = 0.51244 0.66880
# Poissons Ratio (z) = 0.28370 0.60852
#
# Static dielectric constant tensor:
#      x y z
#    x 3.868650 0.000000 0.000000 
#    y 0.000000 3.314520 0.000000 
#    z 0.000000 0.000000 3.370180 
# 
# 
# High freq. dielectric constant tensor:
#      x y z
#    x 1.705910 0.000000 0.000000 
#    y 0.000000 1.701680 0.000000 
#    z 0.000000 0.000000 1.710490 
# 
# From -- ./inp_files/6258.got.cif
#   From: 2010.03.12/outbox.cif.g09.slc.cpg/sg19_4_cif.got.tgz:6258.got - 2010.04.10 18:59:41.
