data_PCOD8156823
_publ_section_title
;
Structure prediction by ZEFSAII (Michael W. Deem and Ramdas Pophale) SiO2 
 PCOD8156823
Probable space group: P 21 21 21
;
_chemical_formula_sum "Si O2"
_cell_formula_units_Z 24
_cell_length_a 12.790604
_cell_length_b 11.347632
_cell_length_c 7.439966
_cell_angle_alpha 90.000000
_cell_angle_beta 90.000000
_cell_angle_gamma 90.000000
_cell_volume 1079.859485
_symmetry_space_group_name_H-M "P 21 21 21"
_symmetry_group_IT_number 19
_symmetry_cell_setting 'orthorhombic'
loop_
_space_group_symop_operation_xyz
x,y,z
1/2-x,-y,1/2+z
1/2+x,1/2-y,-z
-x,1/2+y,1/2-z
loop_
_atom_site_type_symbol
_atom_site_label
_atom_site_fract_x
_atom_site_fract_y
_atom_site_fract_z
Si Si1 0.152312 0.936483 0.864061
Si Si2 0.661682 0.879553 0.831475
Si Si3 0.969408 0.803571 0.701831
Si Si4 0.844352 0.031447 0.714762
Si Si5 0.508047 0.900898 0.532130
Si Si6 0.202950 0.164120 0.638989
O O1 0.087841 0.836959 0.755515
O O2 0.195255 0.041994 0.744083
O O3 0.254066 0.871028 0.942996
O O4 0.074860 0.991993 0.016254
O O5 0.727852 0.992714 0.766764
O O6 0.549261 0.892988 0.735865
O O7 0.714569 0.755833 0.771266
O O8 0.653419 0.877548 0.048262
O O9 0.958406 0.724114 0.523046
O O10 0.910952 0.921296 0.647364
O O11 0.909647 0.731550 0.864397
O O12 0.896627 0.086067 0.891127
#
# Coordination Sequence:
#
# PCOD8156823 Si02
#       6
#     4   4   4   4   4   4
#     4  10  22  44  63  94 132 169 215 272 323 386
#     4  11  21  37  63  96 123 169 220 258 324 382
#     4   9  21  41  65  89 130 171 213 264 325 384
#     4  10  20  38  62  90 128 166 210 269 311 378
#     4  10  21  39  62  90 130 169 213 263 321 385
#     4  10  23  41  65  95 129 170 217 264 330 389
#
# _framework density 22.225114000000001
#
# number of rings (size 3 to 8) (size 9 to 14) (size 15 to 20)
#    0.000    2.000    1.667    1.000    2.333    1.333 
#    9.000    0.000    0.000    0.000    0.000    0.000 
#    0.000    0.000    0.000    0.000    0.000    0.000 
#
# Total GULP energy -297462.575656 kJ/mol
# GULP energy per Si atom -12394.273986 kJ/mol
# Density = 2.217453 g / cm^3
# Si number density = 22.225114 Si / 1000 Ang^3
#
#
#
# Elastic Constant Matrix: (Units=GPa)
#
#
# Indices 1 2 3 4 5 6 
#
# 1 58.6633 13.8950 16.9042 0.0000 0.0000 0.0000
# 2 13.8950 77.5778 14.0553 0.0000 0.0000 0.0000
# 3 16.9042 14.0553 64.5108 0.0000 0.0000 0.0000
# 4 0.0000 0.0000 0.0000 25.2176 0.0000 0.0000
# 5 0.0000 0.0000 0.0000 0.0000 42.5332 0.0000
# 6 0.0000 0.0000 0.0000 0.0000 0.0000 28.5768
#
#
#
# Elastic Compliance Matrix: (Units=1/GPa)
#
#
# Indices 1 2 3 4 5 6 
#
# 1 0.018927 -0.002594 -0.004394 0.000000 0.000000 0.000000
# 2 -0.002594 0.013776 -0.002322 0.000000 0.000000 0.000000
# 3 -0.004394 -0.002322 0.017159 0.000000 0.000000 0.000000
# 4 0.000000 0.000000 0.000000 0.039655 0.000000 0.000000
# 5 0.000000 0.000000 0.000000 0.000000 0.023511 0.000000
# 6 0.000000 0.000000 0.000000 0.000000 0.000000 0.034993
#
#
# Mechanical properties :
#
#
# Convention : Reuss Voigt Hill
#
# Bulk Modulus (GPa) = 32.00894 32.27343 32.14118
# Shear Modulus (GPa) = 28.23993 29.65868 28.94931
#
# Velocity S-wave (km/s) = 3.56846 3.65700 3.61300
# Velocity P-wave (km/s) = 5.60464 5.69071 5.64784
#
# Compressibility (1/GPa) = 0.03124128
#
# Stress axis : x y z
#
# Youngs Moduli (GPa) = 52.83431 72.59259 58.27973
#
# Poissons Ratio (x) = 0.18829 0.25611
# Poissons Ratio (y) = 0.13704 0.13531
# Poissons Ratio (z) = 0.23218 0.16854
#
# Static dielectric constant tensor:
#      x y z
#    x 4.096600 0.000000 0.000000 
#    y 0.000000 4.252910 0.000000 
#    z 0.000000 0.000000 3.517230 
# 
# 
# High freq. dielectric constant tensor:
#      x y z
#    x 1.871250 0.000000 0.000000 
#    y 0.000000 1.894560 0.000000 
#    z 0.000000 0.000000 1.834880 
# 
# From -- ./inp_files/3400.got.cif
#   From: 2010.03.12/outbox.cif.g09.slc.cpg/sg19_2_cif.got.tgz:3400.got - 2010.04.10 18:59:41.
