data_PCOD8156320
_publ_section_title
;
Structure prediction by ZEFSAII (Michael W. Deem and Ramdas Pophale) SiO2 
 PCOD8156320
Probable space group: P 21 21 2
;
_chemical_formula_sum "Si O2"
_cell_formula_units_Z 14
_cell_length_a 19.201625
_cell_length_b 4.778576
_cell_length_c 5.527861
_cell_angle_alpha 90.000000
_cell_angle_beta 90.000000
_cell_angle_gamma 90.000000
_cell_volume 507.216760
_symmetry_space_group_name_H-M "P 21 21 2"
_symmetry_group_IT_number 18
_symmetry_cell_setting 'orthorhombic'
loop_
_space_group_symop_operation_xyz
x,y,z
-x,-y,z
1/2+x,1/2-y,-z
1/2-x,1/2+y,-z
loop_
_atom_site_type_symbol
_atom_site_label
_atom_site_fract_x
_atom_site_fract_y
_atom_site_fract_z
Si Si1 0.000000 0.000000 0.372366
Si Si2 0.257817 0.259629 0.839186
Si Si3 0.387160 0.625988 0.253713
Si Si4 0.902954 0.370518 0.079551
O O1 0.970468 0.257074 0.216267
O O2 0.059662 0.159368 0.525165
O O3 0.192318 0.199956 0.658485
O O4 0.334413 0.164076 0.744684
O O5 0.258949 0.583932 0.914176
O O6 0.389803 0.307942 0.164243
O O7 0.411708 0.814811 0.022087
#
# Coordination Sequence:
#
# PCOD8156320 Si02
#       4
#     2   4   4   4
#     4  12  26  42  72 104 136 180 218 274 348 400
#     4   8  16  38  66  90 126 174 218 272 326 380
#     4  10  23  43  67  97 135 175 223 276 329 396
#     4  10  23  43  67  97 135 175 223 276 329 396
#
# _framework density 27.601610999999998
#
# number of rings (size 3 to 8) (size 9 to 14) (size 15 to 20)
#    0.000    2.286    0.000    0.857    0.000    9.143 
#    0.000   17.143    0.000    6.857    0.000    0.000 
#    0.000    0.000    0.000    0.000    0.000    0.000 
#
# Total GULP energy -173520.567349 kJ/mol
# GULP energy per Si atom -12394.326239 kJ/mol
# Density = 2.753879 g / cm^3
# Si number density = 27.601611 Si / 1000 Ang^3
#
#
#
# Elastic Constant Matrix: (Units=GPa)
#
#
# Indices 1 2 3 4 5 6 
#
# 1 132.4897 -6.0269 -0.2253 0.0000 0.0000 0.0000
# 2 -6.0269 76.4747 -16.6225 0.0000 0.0000 0.0000
# 3 -0.2253 -16.6225 17.2145 0.0000 0.0000 0.0000
# 4 0.0000 0.0000 0.0000 15.6833 0.0000 0.0000
# 5 0.0000 0.0000 0.0000 0.0000 27.8533 0.0000
# 6 0.0000 0.0000 0.0000 0.0000 0.0000 40.8822
#
#
#
# Elastic Compliance Matrix: (Units=1/GPa)
#
#
# Indices 1 2 3 4 5 6 
#
# 1 0.007585 0.000784 0.000856 0.000000 0.000000 0.000000
# 2 0.000784 0.016631 0.016069 0.000000 0.000000 0.000000
# 3 0.000856 0.016069 0.073618 0.000000 0.000000 0.000000
# 4 0.000000 0.000000 0.000000 0.063762 0.000000 0.000000
# 5 0.000000 0.000000 0.000000 0.000000 0.035902 0.000000
# 6 0.000000 0.000000 0.000000 0.000000 0.000000 0.024461
#
#
# Mechanical properties :
#
#
# Convention : Reuss Voigt Hill
#
# Bulk Modulus (GPa) = 7.50456 20.04771 13.77614
# Shear Modulus (GPa) = 21.64895 33.48734 27.56814
#
# Velocity S-wave (km/s) = 2.80364 3.48694 3.16379
# Velocity P-wave (km/s) = 3.63391 4.84671 4.28345
#
# Compressibility (1/GPa) = 0.13325225
#
# Stress axis : x y z
#
# Youngs Moduli (GPa) = 131.84144 60.12944 13.58358
#
# Poissons Ratio (x) = -0.04713 -0.01163
# Poissons Ratio (y) = -0.10334 -0.21828
# Poissons Ratio (z) = -0.11288 -0.96623
#
# Static dielectric constant tensor:
#      x y z
#    x 5.707000 0.000000 0.000000 
#    y 0.000000 4.865230 0.000000 
#    z 0.000000 0.000000 4.080170 
# 
# 
# High freq. dielectric constant tensor:
#      x y z
#    x 2.150330 0.000000 0.000000 
#    y 0.000000 2.127990 0.000000 
#    z 0.000000 0.000000 2.045680 
# 
# From -- ./inp_files/135.got.cif
#   From: 2010.03.12/outbox.cif.g09.slc.cpg/sg18_1_cif.got.tgz:135.got - 2010.04.10 18:53:55.
