data_PCOD8156518
_publ_section_title
;
Structure prediction by ZEFSAII (Michael W. Deem and Ramdas Pophale) SiO2 
 PCOD8156518
Probable space group: P 21 21 2
;
_chemical_formula_sum "Si O2"
_cell_formula_units_Z 20
_cell_length_a 26.775542
_cell_length_b 4.944148
_cell_length_c 5.807537
_cell_angle_alpha 90.000000
_cell_angle_beta 90.000000
_cell_angle_gamma 90.000000
_cell_volume 768.814771
_symmetry_space_group_name_H-M "P 21 21 2"
_symmetry_group_IT_number 18
_symmetry_cell_setting 'orthorhombic'
loop_
_space_group_symop_operation_xyz
x,y,z
-x,-y,z
1/2+x,1/2-y,-z
1/2-x,1/2+y,-z
loop_
_atom_site_type_symbol
_atom_site_label
_atom_site_fract_x
_atom_site_fract_y
_atom_site_fract_z
Si Si1 0.357322 0.898991 0.148200
Si Si2 0.500000 0.500000 0.160948
Si Si3 0.421666 0.228650 0.487942
Si Si4 0.000000 0.500000 0.158669
Si Si5 0.148461 0.911592 0.147448
Si Si6 0.751925 0.518355 0.647283
O O1 0.395178 0.989883 0.346444
O O2 0.301521 0.862812 0.241004
O O3 0.375135 0.611884 0.043403
O O4 0.357068 0.107289 0.937997
O O5 0.454322 0.415346 0.322446
O O6 0.517034 0.249086 0.002221
O O7 0.453795 0.083955 0.684639
O O8 0.381056 0.425868 0.609503
O O9 0.206308 0.991833 0.174372
O O10 0.736692 0.716186 0.438397
#
# Coordination Sequence:
#
# PCOD8156518 Si02
#       6
#     4   2   4   2   4   4
#     4  12  28  49  80 118 161 210 264 318 395 469
#     4  12  30  56  84 114 158 208 268 334 410 468
#     4  12  30  54  82 118 160 208 266 342 384 484
#     4  12  30  56  84 114 158 208 268 334 410 468
#     4  12  28  49  80 118 161 210 264 318 395 469
#     4  12  24  50  78 114 166 212 254 322 388 464
#
# _framework density 26.014071000000001
#
# number of rings (size 3 to 8) (size 9 to 14) (size 15 to 20)
#    0.000    0.000    2.000    6.000    0.000   16.000 
#    0.000    0.000    0.000    0.000    0.000    0.000 
#    0.000    0.000    0.000    0.000    0.000    0.000 
#
# Total GULP energy -248192.707517 kJ/mol
# GULP energy per Si atom -12409.635376 kJ/mol
# Density = 2.595486 g / cm^3
# Si number density = 26.014071 Si / 1000 Ang^3
#
#
#
# Elastic Constant Matrix: (Units=GPa)
#
#
# Indices 1 2 3 4 5 6 
#
# 1 108.1348 16.7201 32.0637 0.0000 0.0000 0.0000
# 2 16.7201 112.8718 26.7627 0.0000 0.0000 0.0000
# 3 32.0637 26.7627 106.9113 0.0000 0.0000 0.0000
# 4 0.0000 0.0000 0.0000 59.7205 0.0000 0.0000
# 5 0.0000 0.0000 0.0000 0.0000 51.1308 0.0000
# 6 0.0000 0.0000 0.0000 0.0000 0.0000 35.8946
#
#
#
# Elastic Compliance Matrix: (Units=1/GPa)
#
#
# Indices 1 2 3 4 5 6 
#
# 1 0.010224 -0.000837 -0.002857 0.000000 0.000000 0.000000
# 2 -0.000837 0.009487 -0.002124 0.000000 0.000000 0.000000
# 3 -0.002857 -0.002124 0.010742 0.000000 0.000000 0.000000
# 4 0.000000 0.000000 0.000000 0.016745 0.000000 0.000000
# 5 0.000000 0.000000 0.000000 0.000000 0.019558 0.000000
# 6 0.000000 0.000000 0.000000 0.000000 0.000000 0.027859
#
#
# Mechanical properties :
#
#
# Convention : Reuss Voigt Hill
#
# Bulk Modulus (GPa) = 53.14104 53.22344 53.18224
# Shear Modulus (GPa) = 44.43523 46.17394 45.30459
#
# Velocity S-wave (km/s) = 4.13743 4.21760 4.17771
# Velocity P-wave (km/s) = 6.58001 6.64992 6.61506
#
# Compressibility (1/GPa) = 0.01881785
#
# Stress axis : x y z
#
# Youngs Moduli (GPa) = 97.80669 105.40518 93.09275
#
# Poissons Ratio (x) = 0.08824 0.26595
# Poissons Ratio (y) = 0.08188 0.19771
# Poissons Ratio (z) = 0.27941 0.22386
#
# Static dielectric constant tensor:
#      x y z
#    x 4.874720 0.000000 0.000000 
#    y 0.000000 4.700430 0.000000 
#    z 0.000000 0.000000 4.902830 
# 
# 
# High freq. dielectric constant tensor:
#      x y z
#    x 2.059420 0.000000 0.000000 
#    y 0.000000 2.048880 0.000000 
#    z 0.000000 0.000000 2.054630 
# 
# From -- ./inp_files/2175.got.cif
#   From: 2010.03.12/outbox.cif.g09.slc.cpg/sg18_2_cif.got.tgz:2175.got - 2010.04.10 18:53:55.
