data_PCOD8156184
_publ_section_title
;
Structure prediction by ZEFSAII (Michael W. Deem and Ramdas Pophale) SiO2 
 PCOD8156184
Probable space group: P 21 21 2
;
_chemical_formula_sum "Si O2"
_cell_formula_units_Z 30
_cell_length_a 5.163565
_cell_length_b 21.254828
_cell_length_c 13.219305
_cell_angle_alpha 90.000000
_cell_angle_beta 90.000000
_cell_angle_gamma 90.000000
_cell_volume 1450.827791
_symmetry_space_group_name_H-M "P 21 21 2"
_symmetry_group_IT_number 18
_symmetry_cell_setting 'orthorhombic'
loop_
_space_group_symop_operation_xyz
x,y,z
-x,-y,z
1/2+x,1/2-y,-z
1/2-x,1/2+y,-z
loop_
_atom_site_type_symbol
_atom_site_label
_atom_site_fract_x
_atom_site_fract_y
_atom_site_fract_z
Si Si1 0.622419 0.312623 0.581750
Si Si2 0.079395 0.133181 0.200659
Si Si3 0.916392 0.570578 0.876840
Si Si4 0.000000 0.000000 0.839111
Si Si5 0.374173 0.829302 0.545648
Si Si6 0.615739 0.069331 0.719815
Si Si7 0.385097 0.711622 0.982976
Si Si8 0.640732 0.903663 0.918296
O O1 0.554940 0.348499 0.683640
O O2 0.605220 0.237735 0.602546
O O3 0.407264 0.334620 0.502885
O O4 0.901433 0.333523 0.538796
O O5 0.371623 0.111678 0.181646
O O6 0.022422 0.193071 0.129468
O O7 0.866676 0.080382 0.171530
O O8 0.000000 0.500000 0.860225
O O9 0.918827 0.591002 0.995474
O O10 0.900731 0.056198 0.765504
O O11 0.217113 0.028294 0.913524
O O12 0.391979 0.888132 0.620914
O O13 0.470220 0.108999 0.806971
O O14 0.500000 0.000000 0.696541
O O15 0.615237 0.751740 0.030742
O O16 0.342992 0.650938 0.053966
#
# Coordination Sequence:
#
# PCOD8156184 Si02
#       8
#     4   4   4   2   4   4   4   4
#     4  10  23  45  66  94 120 171 217 263 321 390
#     4  11  24  42  64  91 132 164 217 271 310 383
#     4  11  23  40  65  91 127 175 214 259 315 385
#     4  10  22  38  66  94 132 176 218 262 336 394
#     4  10  23  43  71  91 124 166 218 264 330 388
#     4  10  23  41  63 102 127 167 213 273 337 385
#     4  11  25  40  60  98 134 173 211 259 321 379
#     4  10  24  38  63  92 137 169 220 257 322 392
#
# _framework density 20.677849999999999
#
# number of rings (size 3 to 8) (size 9 to 14) (size 15 to 20)
#    0.000    1.600    0.000    4.000   14.933    0.000 
#    2.400    4.000    0.000    0.000    0.000    0.000 
#    0.000    0.000    0.000    0.000    0.000    0.000 
#
# Total GULP energy -371942.358414 kJ/mol
# GULP energy per Si atom -12398.078614 kJ/mol
# Density = 2.063079 g / cm^3
# Si number density = 20.677850 Si / 1000 Ang^3
#
#
#
# Elastic Constant Matrix: (Units=GPa)
#
#
# Indices 1 2 3 4 5 6 
#
# 1 83.4374 14.4849 11.4928 0.0000 0.0000 0.0000
# 2 14.4849 87.7364 55.1584 0.0000 0.0000 0.0000
# 3 11.4928 55.1584 102.5902 0.0000 0.0000 0.0000
# 4 0.0000 0.0000 0.0000 28.3196 0.0000 0.0000
# 5 0.0000 0.0000 0.0000 0.0000 18.1007 0.0000
# 6 0.0000 0.0000 0.0000 0.0000 0.0000 32.0171
#
#
#
# Elastic Compliance Matrix: (Units=1/GPa)
#
#
# Indices 1 2 3 4 5 6 
#
# 1 0.012351 -0.001766 -0.000434 0.000000 0.000000 0.000000
# 2 -0.001766 0.017470 -0.009195 0.000000 0.000000 0.000000
# 3 -0.000434 -0.009195 0.014740 0.000000 0.000000 0.000000
# 4 0.000000 0.000000 0.000000 0.035311 0.000000 0.000000
# 5 0.000000 0.000000 0.000000 0.000000 0.055246 0.000000
# 6 0.000000 0.000000 0.000000 0.000000 0.000000 0.031233
#
#
# Mechanical properties :
#
#
# Convention : Reuss Voigt Hill
#
# Bulk Modulus (GPa) = 45.93322 48.44846 47.19084
# Shear Modulus (GPa) = 25.45820 28.52933 26.99376
#
# Velocity S-wave (km/s) = 3.51263 3.71847 3.61701
# Velocity P-wave (km/s) = 6.22201 6.47433 6.34942
#
# Compressibility (1/GPa) = 0.02177073
#
# Stress axis : x y z
#
# Youngs Moduli (GPa) = 80.96211 57.24035 67.84285
#
# Poissons Ratio (x) = 0.10110 0.02945
# Poissons Ratio (y) = 0.14300 0.62382
# Poissons Ratio (z) = 0.03514 0.52633
#
# Static dielectric constant tensor:
#      x y z
#    x 4.032870 0.000000 0.000000 
#    y 0.000000 3.825220 0.000000 
#    z 0.000000 0.000000 3.538440 
# 
# 
# High freq. dielectric constant tensor:
#      x y z
#    x 1.825520 0.000000 0.000000 
#    y 0.000000 1.808690 0.000000 
#    z 0.000000 0.000000 1.794000 
# 
# From -- ./inp_files/5228.got.cif
#   From: 2010.03.12/outbox.cif.g09.slc.cpg/sg18_3_cif.got.tgz:5228.got - 2010.04.10 18:53:55.
