data_PCOD8156460
_publ_section_title
;
Structure prediction by ZEFSAII (Michael W. Deem and Ramdas Pophale) SiO2 
 PCOD8156460
Probable space group: P 21 21 2
;
_chemical_formula_sum "Si O2"
_cell_formula_units_Z 32
_cell_length_a 8.107411
_cell_length_b 15.569029
_cell_length_c 11.391123
_cell_angle_alpha 90.000000
_cell_angle_beta 90.000000
_cell_angle_gamma 90.000000
_cell_volume 1437.838998
_symmetry_space_group_name_H-M "P 21 21 2"
_symmetry_group_IT_number 18
_symmetry_cell_setting 'orthorhombic'
loop_
_space_group_symop_operation_xyz
x,y,z
-x,-y,z
1/2+x,1/2-y,-z
1/2-x,1/2+y,-z
loop_
_atom_site_type_symbol
_atom_site_label
_atom_site_fract_x
_atom_site_fract_y
_atom_site_fract_z
Si Si1 0.945284 0.402618 0.215077
Si Si2 0.096782 0.589104 0.484253
Si Si3 0.858396 0.767807 0.209321
Si Si4 0.909019 0.082889 0.268416
Si Si5 0.468644 0.239698 0.352605
Si Si6 0.338380 0.182626 0.993236
Si Si7 0.468823 0.587165 0.485402
Si Si8 0.165529 0.319544 0.859681
O O1 0.086394 0.330906 0.186693
O O2 0.000000 0.500000 0.201955
O O3 0.882175 0.386815 0.346870
O O4 0.809946 0.388157 0.110631
O O5 0.281791 0.587618 0.535243
O O6 0.000000 0.500000 0.502871
O O7 0.997882 0.663588 0.553343
O O8 0.003232 0.825048 0.259517
O O9 0.714450 0.767310 0.303995
O O10 0.802124 0.817540 0.091073
O O11 0.898049 0.073235 0.408909
O O12 0.734208 0.091852 0.199058
O O13 0.000000 0.000000 0.212541
O O14 0.485718 0.330577 0.412899
O O15 0.600747 0.238287 0.248023
O O16 0.320702 0.274462 0.925788
O O17 0.517117 0.165387 0.050052
O O18 0.500000 0.500000 0.407619
#
# Coordination Sequence:
#
# PCOD8156460 Si02
#       8
#     4   4   4   4   4   4   4   4
#     4  11  24  41  70  97 140 180 229 285 351 411
#     4  11  26  43  69 102 140 186 232 286 343 424
#     4  11  23  45  66  99 135 178 236 293 336 419
#     4  11  24  41  66  98 141 176 223 284 350 399
#     4  11  26  40  72  97 134 187 234 273 357 411
#     4  11  22  44  70  94 133 174 233 285 348 401
#     4  11  26  42  63  99 144 180 229 287 337 416
#     4  11  23  42  72  97 130 181 223 291 340 413
#
# _framework density 22.255621000000001
#
# number of rings (size 3 to 8) (size 9 to 14) (size 15 to 20)
#    0.000    1.000    3.750    1.500    8.750    1.000 
#    0.000    2.500    0.000    0.000    0.000    0.000 
#    0.000    0.000    0.000    0.000    0.000    0.000 
#
# Total GULP energy -396451.362937 kJ/mol
# GULP energy per Si atom -12389.105092 kJ/mol
# Density = 2.220497 g / cm^3
# Si number density = 22.255621 Si / 1000 Ang^3
#
#
#
# Elastic Constant Matrix: (Units=GPa)
#
#
# Indices 1 2 3 4 5 6 
#
# 1 59.2679 22.3845 24.5144 0.0000 0.0000 0.0000
# 2 22.3845 140.3853 50.0009 0.0000 0.0000 0.0000
# 3 24.5144 50.0009 111.5118 0.0000 0.0000 0.0000
# 4 0.0000 0.0000 0.0000 19.1353 0.0000 0.0000
# 5 0.0000 0.0000 0.0000 0.0000 19.1358 0.0000
# 6 0.0000 0.0000 0.0000 0.0000 0.0000 25.7471
#
#
#
# Elastic Compliance Matrix: (Units=1/GPa)
#
#
# Indices 1 2 3 4 5 6 
#
# 1 0.018947 -0.001830 -0.003345 0.000000 0.000000 0.000000
# 2 -0.001830 0.008654 -0.003478 0.000000 0.000000 0.000000
# 3 -0.003345 -0.003478 0.011262 0.000000 0.000000 0.000000
# 4 0.000000 0.000000 0.000000 0.052259 0.000000 0.000000
# 5 0.000000 0.000000 0.000000 0.000000 0.052258 0.000000
# 6 0.000000 0.000000 0.000000 0.000000 0.000000 0.038839
#
#
# Mechanical properties :
#
#
# Convention : Reuss Voigt Hill
#
# Bulk Modulus (GPa) = 46.38624 56.10716 51.24670
# Shear Modulus (GPa) = 24.18831 27.08799 25.63815
#
# Velocity S-wave (km/s) = 3.30030 3.49252 3.39777
# Velocity P-wave (km/s) = 5.95066 6.44428 6.20238
#
# Compressibility (1/GPa) = 0.02155812
#
# Stress axis : x y z
#
# Youngs Moduli (GPa) = 52.77849 115.55643 88.79037
#
# Poissons Ratio (x) = 0.21145 0.29699
# Poissons Ratio (y) = 0.09658 0.30881
# Poissons Ratio (z) = 0.17653 0.40191
#
# Static dielectric constant tensor:
#      x y z
#    x 4.033800 0.000000 0.000000 
#    y 0.000000 4.080810 0.000000 
#    z 0.000000 0.000000 4.425470 
# 
# 
# High freq. dielectric constant tensor:
#      x y z
#    x 1.865070 0.000000 0.000000 
#    y 0.000000 1.874020 0.000000 
#    z 0.000000 0.000000 1.891320 
# 
# From -- ./inp_files/5682.got.cif
#   From: 2010.03.12/outbox.cif.g09.slc.cpg/sg18_3_cif.got.tgz:5682.got - 2010.04.10 18:53:55.
