data_PCOD8156457
_publ_section_title
;
Structure prediction by ZEFSAII (Michael W. Deem and Ramdas Pophale) SiO2 
 PCOD8156457
Probable space group: P 21 21 2
;
_chemical_formula_sum "Si O2"
_cell_formula_units_Z 26
_cell_length_a 9.588497
_cell_length_b 11.677086
_cell_length_c 10.888117
_cell_angle_alpha 90.000000
_cell_angle_beta 90.000000
_cell_angle_gamma 90.000000
_cell_volume 1219.095686
_symmetry_space_group_name_H-M "P 21 21 2"
_symmetry_group_IT_number 18
_symmetry_cell_setting 'orthorhombic'
loop_
_space_group_symop_operation_xyz
x,y,z
-x,-y,z
1/2+x,1/2-y,-z
1/2-x,1/2+y,-z
loop_
_atom_site_type_symbol
_atom_site_label
_atom_site_fract_x
_atom_site_fract_y
_atom_site_fract_z
Si Si1 0.197312 0.851088 0.739955
Si Si2 0.000000 0.500000 0.973947
Si Si3 0.057835 0.274670 0.824668
Si Si4 0.599119 0.095437 0.407327
Si Si5 0.780951 0.410872 0.166188
Si Si6 0.990767 0.696419 0.338870
Si Si7 0.103833 0.901562 0.478853
O O1 0.355094 0.802199 0.749922
O O2 0.143564 0.830676 0.600768
O O3 0.096647 0.781056 0.831633
O O4 0.193625 0.984880 0.775189
O O5 0.129617 0.545974 0.051835
O O6 0.061241 0.394664 0.895774
O O7 0.099328 0.295054 0.682161
O O8 0.172106 0.186308 0.878906
O O9 0.538884 0.123824 0.540211
O O10 0.755631 0.046525 0.419645
O O11 0.500000 0.000000 0.346089
O O12 0.882387 0.363119 0.270329
O O13 0.030001 0.824759 0.375697
O O14 0.000000 0.000000 0.519309
#
# Coordination Sequence:
#
# PCOD8156457 Si02
#       7
#     4   2   4   4   4   4   4
#     4  11  24  42  72 102 139 183 224 281 341 419
#     4  12  30  48  72  98 136 180 244 304 344 392
#     4  12  26  45  73 101 136 177 236 284 346 404
#     4  11  23  39  64 102 141 174 214 281 347 410
#     4  12  25  50  70  97 137 188 234 285 346 413
#     4  11  22  41  69 102 144 182 215 275 350 427
#     4  11  23  36  64 107 144 177 219 269 345 429
#
# _framework density 21.327283999999999
#
# number of rings (size 3 to 8) (size 9 to 14) (size 15 to 20)
#    0.000    0.615    5.385    3.231    4.308    0.000 
#    0.000    0.000    0.000    0.000    0.000    0.000 
#    0.000    0.000    0.000    0.000    0.000    0.000 
#
# Total GULP energy -322479.790450 kJ/mol
# GULP energy per Si atom -12403.068863 kJ/mol
# Density = 2.127874 g / cm^3
# Si number density = 21.327284 Si / 1000 Ang^3
#
#
#
# Elastic Constant Matrix: (Units=GPa)
#
#
# Indices 1 2 3 4 5 6 
#
# 1 136.0253 69.6951 32.3526 0.0000 0.0000 0.0000
# 2 69.6951 110.3457 38.1500 0.0000 0.0000 0.0000
# 3 32.3526 38.1500 63.9847 0.0000 0.0000 0.0000
# 4 0.0000 0.0000 0.0000 28.1322 0.0000 0.0000
# 5 0.0000 0.0000 0.0000 0.0000 26.3358 0.0000
# 6 0.0000 0.0000 0.0000 0.0000 0.0000 47.7853
#
#
#
# Elastic Compliance Matrix: (Units=1/GPa)
#
#
# Indices 1 2 3 4 5 6 
#
# 1 0.011030 -0.006347 -0.001793 0.000000 0.000000 0.000000
# 2 -0.006347 0.015068 -0.005775 0.000000 0.000000 0.000000
# 3 -0.001793 -0.005775 0.019978 0.000000 0.000000 0.000000
# 4 0.000000 0.000000 0.000000 0.035546 0.000000 0.000000
# 5 0.000000 0.000000 0.000000 0.000000 0.037971 0.000000
# 6 0.000000 0.000000 0.000000 0.000000 0.000000 0.020927
#
#
# Mechanical properties :
#
#
# Convention : Reuss Voigt Hill
#
# Bulk Modulus (GPa) = 54.80312 65.63900 60.22106
# Shear Modulus (GPa) = 28.66458 31.79453 30.22955
#
# Velocity S-wave (km/s) = 3.67008 3.86527 3.76894
# Velocity P-wave (km/s) = 6.61146 7.12490 6.87298
#
# Compressibility (1/GPa) = 0.01824714
#
# Stress axis : x y z
#
# Youngs Moduli (GPa) = 90.66320 66.36793 50.05409
#
# Poissons Ratio (x) = 0.42121 0.08974
# Poissons Ratio (y) = 0.57541 0.28905
# Poissons Ratio (z) = 0.16255 0.38326
#
# Static dielectric constant tensor:
#      x y z
#    x 4.116160 0.000000 0.000000 
#    y 0.000000 3.811690 0.000000 
#    z 0.000000 0.000000 3.629340 
# 
# 
# High freq. dielectric constant tensor:
#      x y z
#    x 1.854850 0.000000 0.000000 
#    y 0.000000 1.834370 0.000000 
#    z 0.000000 0.000000 1.815690 
# 
# From -- ./inp_files/5550.got.cif
#   From: 2010.03.12/outbox.cif.g09.slc.cpg/sg18_3_cif.got.tgz:5550.got - 2010.04.10 18:53:55.
