data_PCOD8156029
_publ_section_title
;
Structure prediction by ZEFSAII (Michael W. Deem and Ramdas Pophale) SiO2 
 PCOD8156029
Probable space group: P 21 21 2
;
_chemical_formula_sum "Si O2"
_cell_formula_units_Z 22
_cell_length_a 14.767354
_cell_length_b 6.623686
_cell_length_c 9.424835
_cell_angle_alpha 90.000000
_cell_angle_beta 90.000000
_cell_angle_gamma 90.000000
_cell_volume 921.883788
_symmetry_space_group_name_H-M "P 21 21 2"
_symmetry_group_IT_number 18
_symmetry_cell_setting 'orthorhombic'
loop_
_space_group_symop_operation_xyz
x,y,z
-x,-y,z
1/2+x,1/2-y,-z
1/2-x,1/2+y,-z
loop_
_atom_site_type_symbol
_atom_site_label
_atom_site_fract_x
_atom_site_fract_y
_atom_site_fract_z
Si Si1 0.277679 0.088701 0.851284
Si Si2 0.000000 0.000000 0.244188
Si Si3 0.595069 0.352491 0.017745
Si Si4 0.165095 0.862032 0.392327
Si Si5 0.789033 0.283357 0.693654
Si Si6 0.078696 0.676873 0.919503
O O1 0.199971 0.197098 0.948662
O O2 0.282196 0.196839 0.699518
O O3 0.254735 0.859763 0.813535
O O4 0.371751 0.098337 0.937397
O O5 0.060253 0.859299 0.345552
O O6 0.930756 0.865177 0.148998
O O7 0.576562 0.575602 0.080695
O O8 0.533858 0.157334 0.079810
O O9 0.167567 0.826710 0.559352
O O10 0.210485 0.075496 0.362278
O O11 0.871122 0.397318 0.776309
#
# Coordination Sequence:
#
# PCOD8156029 Si02
#       6
#     4   2   4   4   4   4
#     4  11  21  41  70  91 135 170 218 281 317 390
#     4  10  20  40  68  94 130 180 216 266 334 396
#     4   9  18  36  66  95 120 172 219 258 336 372
#     4  12  23  43  67  93 136 178 214 269 338 399
#     4  11  25  40  67 100 128 177 217 264 335 392
#     4   9  19  38  65  93 126 164 221 268 313 390
#
# _framework density 23.864180000000001
#
# number of rings (size 3 to 8) (size 9 to 14) (size 15 to 20)
#    0.000    1.818    5.455    1.091    2.545    2.909 
#    0.000    1.818   12.000    0.000    0.000    0.000 
#    0.000    0.000    0.000    0.000    0.000    0.000 
#
# Total GULP energy -272669.681366 kJ/mol
# GULP energy per Si atom -12394.076426 kJ/mol
# Density = 2.380986 g / cm^3
# Si number density = 23.864180 Si / 1000 Ang^3
#
#
#
# Elastic Constant Matrix: (Units=GPa)
#
#
# Indices 1 2 3 4 5 6 
#
# 1 120.0688 23.2071 49.8745 0.0000 0.0000 0.0000
# 2 23.2071 29.7151 32.1844 0.0000 0.0000 0.0000
# 3 49.8745 32.1844 145.0312 0.0000 0.0000 0.0000
# 4 0.0000 0.0000 0.0000 31.3991 0.0000 0.0000
# 5 0.0000 0.0000 0.0000 0.0000 29.9182 0.0000
# 6 0.0000 0.0000 0.0000 0.0000 0.0000 37.4243
#
#
#
# Elastic Compliance Matrix: (Units=1/GPa)
#
#
# Indices 1 2 3 4 5 6 
#
# 1 0.010375 -0.005579 -0.002330 0.000000 0.000000 0.000000
# 2 -0.005579 0.047301 -0.008578 0.000000 0.000000 0.000000
# 3 -0.002330 -0.008578 0.009600 0.000000 0.000000 0.000000
# 4 0.000000 0.000000 0.000000 0.031848 0.000000 0.000000
# 5 0.000000 0.000000 0.000000 0.000000 0.033425 0.000000
# 6 0.000000 0.000000 0.000000 0.000000 0.000000 0.026721
#
#
# Mechanical properties :
#
#
# Convention : Reuss Voigt Hill
#
# Bulk Modulus (GPa) = 29.15312 56.14966 42.65139
# Shear Modulus (GPa) = 24.54873 32.38494 28.46683
#
# Velocity S-wave (km/s) = 3.21079 3.68782 3.45754
# Velocity P-wave (km/s) = 5.09788 6.45858 5.81814
#
# Compressibility (1/GPa) = 0.03430164
#
# Stress axis : x y z
#
# Youngs Moduli (GPa) = 96.38932 21.14111 104.16900
#
# Poissons Ratio (x) = 0.11795 0.24267
# Poissons Ratio (y) = 0.53778 0.89358
# Poissons Ratio (z) = 0.22455 0.18135
#
# Static dielectric constant tensor:
#      x y z
#    x 5.186540 0.000000 0.000000 
#    y 0.000000 4.637280 0.000000 
#    z 0.000000 0.000000 4.241890 
# 
# 
# High freq. dielectric constant tensor:
#      x y z
#    x 1.965010 0.000000 0.000000 
#    y 0.000000 1.959380 0.000000 
#    z 0.000000 0.000000 1.931540 
# 
# From -- ./inp_files/4173.got.cif
#   From: 2010.03.12/outbox.cif.g09.slc.cpg/sg18_3_cif.got.tgz:4173.got - 2010.04.10 18:53:55.
