data_PCOD8156251
_publ_section_title
;
Structure prediction by ZEFSAII (Michael W. Deem and Ramdas Pophale) SiO2 
 PCOD8156251
Probable space group: P 21 21 2
;
_chemical_formula_sum "Si O2"
_cell_formula_units_Z 20
_cell_length_a 9.764510
_cell_length_b 8.851074
_cell_length_c 9.859614
_cell_angle_alpha 90.000000
_cell_angle_beta 90.000000
_cell_angle_gamma 90.000000
_cell_volume 852.130949
_symmetry_space_group_name_H-M "P 21 21 2"
_symmetry_group_IT_number 18
_symmetry_cell_setting 'orthorhombic'
loop_
_space_group_symop_operation_xyz
x,y,z
-x,-y,z
1/2+x,1/2-y,-z
1/2-x,1/2+y,-z
loop_
_atom_site_type_symbol
_atom_site_label
_atom_site_fract_x
_atom_site_fract_y
_atom_site_fract_z
Si Si1 0.000000 0.000000 0.646865
Si Si2 0.303522 0.745938 0.420843
Si Si3 0.185235 0.659663 0.130754
Si Si4 0.318428 0.251772 0.292804
Si Si5 0.000000 0.500000 0.659416
Si Si6 0.620030 0.190026 0.919697
O O1 0.919500 0.880683 0.553550
O O2 0.107695 0.911132 0.743300
O O3 0.215727 0.702941 0.287035
O O4 0.198524 0.744363 0.544907
O O5 0.382024 0.908485 0.423468
O O6 0.165387 0.483405 0.098422
O O7 0.040421 0.729025 0.081256
O O8 0.310274 0.735839 0.050571
O O9 0.177948 0.227996 0.214773
O O10 0.421887 0.119275 0.244915
#
# Coordination Sequence:
#
# PCOD8156251 Si02
#       6
#     2   4   4   4   2   4
#     4  10  22  42  72  96 140 182 230 282 358 400
#     4  11  24  44  71 103 139 185 233 290 346 413
#     4  11  28  48  71 100 140 185 235 289 349 415
#     4  11  24  44  71 103 139 185 233 290 346 413
#     4  10  26  38  72 104 144 174 238 290 354 408
#     4  11  28  48  71 100 140 185 235 289 349 415
#
# _framework density 23.470569999999999
#
# number of rings (size 3 to 8) (size 9 to 14) (size 15 to 20)
#    0.000    1.200    2.000    1.200   14.000    0.800 
#    0.000    0.000    0.000    0.000    0.000    0.000 
#    0.000    0.000    0.000    0.000    0.000    0.000 
#
# Total GULP energy -247829.973261 kJ/mol
# GULP energy per Si atom -12391.498663 kJ/mol
# Density = 2.341715 g / cm^3
# Si number density = 23.470570 Si / 1000 Ang^3
#
#
#
# Elastic Constant Matrix: (Units=GPa)
#
#
# Indices 1 2 3 4 5 6 
#
# 1 131.7422 12.7678 31.6709 0.0000 0.0000 0.0000
# 2 12.7678 80.6023 -1.4094 0.0000 0.0000 0.0000
# 3 31.6709 -1.4094 111.6990 0.0000 0.0000 0.0000
# 4 0.0000 0.0000 0.0000 15.4345 0.0000 0.0000
# 5 0.0000 0.0000 0.0000 0.0000 21.5578 0.0000
# 6 0.0000 0.0000 0.0000 0.0000 0.0000 37.2224
#
#
#
# Elastic Compliance Matrix: (Units=1/GPa)
#
#
# Indices 1 2 3 4 5 6 
#
# 1 0.008291 -0.001355 -0.002368 0.000000 0.000000 0.000000
# 2 -0.001355 0.012631 0.000543 0.000000 0.000000 0.000000
# 3 -0.002368 0.000543 0.009631 0.000000 0.000000 0.000000
# 4 0.000000 0.000000 0.000000 0.064790 0.000000 0.000000
# 5 0.000000 0.000000 0.000000 0.000000 0.046387 0.000000
# 6 0.000000 0.000000 0.000000 0.000000 0.000000 0.026866
#
#
# Mechanical properties :
#
#
# Convention : Reuss Voigt Hill
#
# Bulk Modulus (GPa) = 41.33205 45.56690 43.44948
# Shear Modulus (GPa) = 27.31966 33.57722 30.44844
#
# Velocity S-wave (km/s) = 3.41544 3.78644 3.60572
# Velocity P-wave (km/s) = 5.76212 6.21070 5.99061
#
# Compressibility (1/GPa) = 0.02419430
#
# Stress axis : x y z
#
# Youngs Moduli (GPa) = 120.61075 79.17220 103.83254
#
# Poissons Ratio (x) = 0.10726 0.24587
# Poissons Ratio (y) = 0.16340 -0.05643
# Poissons Ratio (z) = 0.28560 -0.04303
#
# Static dielectric constant tensor:
#      x y z
#    x 4.532710 0.000000 0.000000 
#    y 0.000000 4.570680 0.000000 
#    z 0.000000 0.000000 3.774950 
# 
# 
# High freq. dielectric constant tensor:
#      x y z
#    x 1.952590 0.000000 0.000000 
#    y 0.000000 1.943540 0.000000 
#    z 0.000000 0.000000 1.899250 
# 
# From -- ./inp_files/5435.got.cif
#   From: 2010.03.12/outbox.cif.g09.slc.cpg/sg18_3_cif.got.tgz:5435.got - 2010.04.10 18:53:55.
