data_PCOD8156939
_publ_section_title
;
Structure prediction by ZEFSAII (Michael W. Deem and Ramdas Pophale) SiO2 
 PCOD8156939
Probable space group: P 21 21 21
;
_chemical_formula_sum "Si O2"
_cell_formula_units_Z 28
_cell_length_a 12.822923
_cell_length_b 7.876084
_cell_length_c 13.133022
_cell_angle_alpha 90.000000
_cell_angle_beta 90.000000
_cell_angle_gamma 90.000000
_cell_volume 1326.361922
_symmetry_space_group_name_H-M "P 21 21 21"
_symmetry_group_IT_number 19
_symmetry_cell_setting 'orthorhombic'
loop_
_space_group_symop_operation_xyz
x,y,z
1/2-x,-y,1/2+z
1/2+x,1/2-y,-z
-x,1/2+y,1/2-z
loop_
_atom_site_type_symbol
_atom_site_label
_atom_site_fract_x
_atom_site_fract_y
_atom_site_fract_z
Si Si1 0.419643 0.275460 0.831494
Si Si2 0.592916 0.548069 0.488967
Si Si3 0.349029 0.562489 0.478955
Si Si4 0.257783 0.763545 0.057575
Si Si5 0.103055 0.987829 0.165815
Si Si6 0.231606 0.762302 0.653141
Si Si7 0.217458 0.422402 0.759547
O O1 0.366180 0.174919 0.923660
O O2 0.451579 0.135061 0.747643
O O3 0.515797 0.383240 0.875351
O O4 0.340258 0.407955 0.781514
O O5 0.469501 0.521853 0.502616
O O6 0.650960 0.366616 0.500087
O O7 0.627758 0.639044 0.384152
O O8 0.278162 0.393563 0.488498
O O9 0.302774 0.697809 0.558161
O O10 0.345299 0.626647 0.361751
O O11 0.155414 0.881234 0.074110
O O12 0.307482 0.703851 0.165963
O O13 0.196407 0.102703 0.214386
O O14 0.192830 0.614941 0.727428
#
# Coordination Sequence:
#
# PCOD8156939 Si02
#       7
#     4   4   4   4   4   4   4
#     4  11  21  35  64  93 119 165 200 261 319 367
#     4  11  23  40  62  91 126 163 209 251 317 375
#     4  11  22  41  65  89 123 166 207 250 316 366
#     4   9  24  42  58  91 130 160 209 263 300 379
#     4  10  21  36  58  91 125 152 205 259 315 365
#     4  10  21  42  59  90 126 155 205 265 299 372
#     4  10  22  40  62  87 123 165 205 255 312 364
#
# _framework density 21.110377
#
# number of rings (size 3 to 8) (size 9 to 14) (size 15 to 20)
#    0.000    1.714    2.857    0.857    6.000    2.286 
#    0.000    0.000    0.000    0.000    0.000    0.000 
#    0.000    0.000    0.000    0.000    0.000    0.000 
#
# Total GULP energy -347060.994050 kJ/mol
# GULP energy per Si atom -12395.035502 kJ/mol
# Density = 2.106233 g / cm^3
# Si number density = 21.110377 Si / 1000 Ang^3
#
#
#
# Elastic Constant Matrix: (Units=GPa)
#
#
# Indices 1 2 3 4 5 6 
#
# 1 70.0961 17.3750 9.9012 0.0000 0.0000 0.0000
# 2 17.3750 83.9478 8.5184 0.0000 0.0000 0.0000
# 3 9.9012 8.5184 59.7047 0.0000 0.0000 0.0000
# 4 0.0000 0.0000 0.0000 26.1533 0.0000 0.0000
# 5 0.0000 0.0000 0.0000 0.0000 22.0926 0.0000
# 6 0.0000 0.0000 0.0000 0.0000 0.0000 39.8548
#
#
#
# Elastic Compliance Matrix: (Units=1/GPa)
#
#
# Indices 1 2 3 4 5 6 
#
# 1 0.015297 -0.002951 -0.002116 0.000000 0.000000 0.000000
# 2 -0.002951 0.012657 -0.001316 0.000000 0.000000 0.000000
# 3 -0.002116 -0.001316 0.017288 0.000000 0.000000 0.000000
# 4 0.000000 0.000000 0.000000 0.038236 0.000000 0.000000
# 5 0.000000 0.000000 0.000000 0.000000 0.045264 0.000000
# 6 0.000000 0.000000 0.000000 0.000000 0.000000 0.025091
#
#
# Mechanical properties :
#
#
# Convention : Reuss Voigt Hill
#
# Bulk Modulus (GPa) = 30.79361 31.70421 31.24891
# Shear Modulus (GPa) = 28.18116 29.48372 28.83244
#
# Velocity S-wave (km/s) = 3.65765 3.74123 3.69968
# Velocity P-wave (km/s) = 5.69706 5.80631 5.75195
#
# Compressibility (1/GPa) = 0.03247427
#
# Stress axis : x y z
#
# Youngs Moduli (GPa) = 65.37438 79.01024 57.84444
#
# Poissons Ratio (x) = 0.23318 0.12238
# Poissons Ratio (y) = 0.19294 0.07614
# Poissons Ratio (z) = 0.13831 0.10400
#
# Static dielectric constant tensor:
#      x y z
#    x 3.518160 0.000000 0.000000 
#    y 0.000000 4.008520 0.000000 
#    z 0.000000 0.000000 3.648150 
# 
# 
# High freq. dielectric constant tensor:
#      x y z
#    x 1.810310 0.000000 0.000000 
#    y 0.000000 1.842980 0.000000 
#    z 0.000000 0.000000 1.807750 
# 
# From -- ./inp_files/3900.got.cif
#   From: 2010.03.12/outbox.cif.g09.slc.cpg/sg19_2_cif.got.tgz:3900.got - 2010.04.10 18:59:41.
