data_PCOD8156427
_publ_section_title
;
Structure prediction by ZEFSAII (Michael W. Deem and Ramdas Pophale) SiO2 
 PCOD8156427
Probable space group: P 21 21 2
;
_chemical_formula_sum "Si O2"
_cell_formula_units_Z 32
_cell_length_a 9.298898
_cell_length_b 14.564421
_cell_length_c 11.745020
_cell_angle_alpha 90.000000
_cell_angle_beta 90.000000
_cell_angle_gamma 90.000000
_cell_volume 1590.664061
_symmetry_space_group_name_H-M "P 21 21 2"
_symmetry_group_IT_number 18
_symmetry_cell_setting 'orthorhombic'
loop_
_space_group_symop_operation_xyz
x,y,z
-x,-y,z
1/2+x,1/2-y,-z
1/2-x,1/2+y,-z
loop_
_atom_site_type_symbol
_atom_site_label
_atom_site_fract_x
_atom_site_fract_y
_atom_site_fract_z
Si Si1 0.501955 0.198855 0.812163
Si Si2 0.008146 0.608042 0.953273
Si Si3 0.224948 0.677263 0.779281
Si Si4 0.225216 0.316966 0.794905
Si Si5 0.656489 0.505718 0.692202
Si Si6 0.517339 0.239139 0.387718
Si Si7 0.069724 0.402297 0.410571
Si Si8 0.893588 0.073172 0.560317
O O1 0.648649 0.255187 0.814805
O O2 0.372680 0.270011 0.830932
O O3 0.487294 0.143887 0.694616
O O4 0.493725 0.124304 0.912100
O O5 0.879595 0.670184 0.902091
O O6 0.000000 0.500000 0.928538
O O7 0.155626 0.643236 0.897063
O O8 0.274353 0.593364 0.701522
O O9 0.115598 0.727946 0.696691
O O10 0.245963 0.420781 0.754529
O O11 0.157728 0.256271 0.692664
O O12 0.500000 0.500000 0.750602
O O13 0.644035 0.532596 0.561538
O O14 0.542463 0.158962 0.478274
O O15 0.486787 0.333848 0.453627
O O16 0.239684 0.411370 0.378336
O O17 0.000000 0.500000 0.437161
O O18 0.000000 0.000000 0.624441
#
# Coordination Sequence:
#
# PCOD8156427 Si02
#       8
#     4   4   4   4   4   4   4   4
#     4  12  25  43  66  95 132 178 221 269 342 400
#     4  11  24  44  67  94 130 170 224 285 336 392
#     4  11  23  42  71  93 131 168 225 278 327 397
#     4  11  23  41  69  95 128 166 227 274 331 396
#     4  11  20  38  66  98 124 164 214 277 323 381
#     4  11  25  42  64 100 132 176 214 277 334 390
#     4  12  26  41  65  97 137 177 221 268 331 413
#     4  11  25  41  64  96 140 175 215 271 331 398
#
# _framework density 20.117384999999999
#
# number of rings (size 3 to 8) (size 9 to 14) (size 15 to 20)
#    0.000    0.750    5.000    2.625    3.500    0.000 
#    0.000    0.000    0.000    0.750    0.000    0.000 
#    0.000    0.000    0.000    0.000    0.000    0.000 
#
# Total GULP energy -396795.304568 kJ/mol
# GULP energy per Si atom -12399.853268 kJ/mol
# Density = 2.007160 g / cm^3
# Si number density = 20.117385 Si / 1000 Ang^3
#
#
#
# Elastic Constant Matrix: (Units=GPa)
#
#
# Indices 1 2 3 4 5 6 
#
# 1 104.1399 37.1506 25.1342 0.0000 0.0000 0.0000
# 2 37.1506 106.4072 21.8629 0.0000 0.0000 0.0000
# 3 25.1342 21.8629 93.9980 0.0000 0.0000 0.0000
# 4 0.0000 0.0000 0.0000 11.3302 0.0000 0.0000
# 5 0.0000 0.0000 0.0000 0.0000 -7.0963 0.0000
# 6 0.0000 0.0000 0.0000 0.0000 0.0000 35.1834
#
#
#
# Elastic Compliance Matrix: (Units=1/GPa)
#
#
# Indices 1 2 3 4 5 6 
#
# 1 0.011396 -0.003521 -0.002228 0.000000 0.000000 0.000000
# 2 -0.003521 0.010957 -0.001607 0.000000 0.000000 0.000000
# 3 -0.002228 -0.001607 0.011608 0.000000 0.000000 0.000000
# 4 0.000000 0.000000 0.000000 0.088260 0.000000 0.000000
# 5 0.000000 0.000000 0.000000 0.000000 -0.140918 0.000000
# 6 0.000000 0.000000 0.000000 0.000000 0.000000 0.028422
#
#
# Mechanical properties :
#
#
# Convention : Reuss Voigt Hill
#
# Bulk Modulus (GPa) = 51.95072 52.53782 52.24427
# Shear Modulus (GPa) = 162.04283 22.57660 92.30972
#
# Velocity S-wave (km/s) = 8.98463 3.35362 6.78124
# Velocity P-wave (km/s) = 11.55471 6.41623 9.34557
#
# Compressibility (1/GPa) = 0.01924901
#
# Stress axis : x y z
#
# Youngs Moduli (GPa) = 87.74727 91.26270 86.14640
#
# Poissons Ratio (x) = 0.32134 0.19196
# Poissons Ratio (y) = 0.30896 0.13844
# Poissons Ratio (z) = 0.19553 0.14667
#
# Static dielectric constant tensor:
#      x y z
#    x 4.320370 0.000000 0.000000 
#    y 0.000000 3.831890 0.000000 
#    z 0.000000 0.000000 3.486410 
# 
# 
# High freq. dielectric constant tensor:
#      x y z
#    x 1.802170 0.000000 0.000000 
#    y 0.000000 1.794770 0.000000 
#    z 0.000000 0.000000 1.770990 
# 
# From -- ./inp_files/5663.got.cif
#   From: 2010.03.12/outbox.cif.g09.slc.cpg/sg18_3_cif.got.tgz:5663.got - 2010.04.10 18:53:55.
