data_PCOD8156956
_publ_section_title
;
Structure prediction by ZEFSAII (Michael W. Deem and Ramdas Pophale) SiO2 
 PCOD8156956
Probable space group: P 21 21 21
;
_chemical_formula_sum "Si O2"
_cell_formula_units_Z 32
_cell_length_a 10.907696
_cell_length_b 25.139310
_cell_length_c 5.408046
_cell_angle_alpha 90.000000
_cell_angle_beta 90.000000
_cell_angle_gamma 90.000000
_cell_volume 1482.950845
_symmetry_space_group_name_H-M "P 21 21 21"
_symmetry_group_IT_number 19
_symmetry_cell_setting 'orthorhombic'
loop_
_space_group_symop_operation_xyz
x,y,z
1/2-x,-y,1/2+z
1/2+x,1/2-y,-z
-x,1/2+y,1/2-z
loop_
_atom_site_type_symbol
_atom_site_label
_atom_site_fract_x
_atom_site_fract_y
_atom_site_fract_z
Si Si1 0.671119 0.785015 0.557904
Si Si2 0.102553 0.511853 0.614615
Si Si3 0.493192 0.873447 0.416867
Si Si4 0.626646 0.683122 0.291645
Si Si5 0.640748 0.349475 0.571359
Si Si6 0.024498 0.257565 0.417795
Si Si7 0.600386 0.154961 0.951240
Si Si8 0.877625 0.965383 0.382985
O O1 0.583977 0.822850 0.384617
O O2 0.706480 0.727338 0.439692
O O3 0.593764 0.771132 0.799308
O O4 0.794768 0.817897 0.627999
O O5 0.248617 0.503814 0.617687
O O6 0.049672 0.482813 0.367120
O O7 0.071086 0.573496 0.601037
O O8 0.050650 0.483756 0.865930
O O9 0.427007 0.872044 0.684746
O O10 0.397362 0.877075 0.186374
O O11 0.712469 0.645880 0.120831
O O12 0.538982 0.645284 0.453862
O O13 0.520354 0.717290 0.168019
O O14 0.624614 0.286846 0.527868
O O15 0.092529 0.304150 0.272907
O O16 0.646684 0.097476 0.869714
#
# Coordination Sequence:
#
# PCOD8156956 Si02
#       8
#     4   4   4   4   4   4   4   4
#     4  10  21  37  58  91 132 166 213 248 320 383
#     4  10  21  41  64  95 127 155 208 274 332 375
#     4  11  22  42  65  93 122 171 207 265 316 379
#     4  11  24  38  57  92 130 177 210 262 304 391
#     4  11  24  39  63  92 129 166 221 245 312 383
#     4  10  23  35  58  89 128 176 201 261 301 383
#     4  11  23  39  61  91 132 175 204 265 329 386
#     4  10  22  39  64  97 128 158 204 270 330 390
#
# _framework density 21.578596999999998
#
# number of rings (size 3 to 8) (size 9 to 14) (size 15 to 20)
#    0.000    1.500    3.750    0.750    7.000    0.000 
#    0.000    0.000    0.000    3.000    0.000    0.000 
#    0.000    0.000    0.000    0.000    0.000    0.000 
#
# Total GULP energy -396459.745074 kJ/mol
# GULP energy per Si atom -12389.367034 kJ/mol
# Density = 2.152948 g / cm^3
# Si number density = 21.578597 Si / 1000 Ang^3
#
#
#
# Elastic Constant Matrix: (Units=GPa)
#
#
# Indices 1 2 3 4 5 6 
#
# 1 57.3634 3.7029 2.9984 0.0000 0.0000 0.0000
# 2 3.7029 74.0487 20.1927 0.0000 0.0000 0.0000
# 3 2.9984 20.1927 112.5984 0.0000 0.0000 0.0000
# 4 0.0000 0.0000 0.0000 18.5877 0.0000 0.0000
# 5 0.0000 0.0000 0.0000 0.0000 9.9009 0.0000
# 6 0.0000 0.0000 0.0000 0.0000 0.0000 19.1309
#
#
#
# Elastic Compliance Matrix: (Units=1/GPa)
#
#
# Indices 1 2 3 4 5 6 
#
# 1 0.017500 -0.000787 -0.000325 0.000000 0.000000 0.000000
# 2 -0.000787 0.014234 -0.002532 0.000000 0.000000 0.000000
# 3 -0.000325 -0.002532 0.009344 0.000000 0.000000 0.000000
# 4 0.000000 0.000000 0.000000 0.053799 0.000000 0.000000
# 5 0.000000 0.000000 0.000000 0.000000 0.101000 0.000000
# 6 0.000000 0.000000 0.000000 0.000000 0.000000 0.052271
#
#
# Mechanical properties :
#
#
# Convention : Reuss Voigt Hill
#
# Bulk Modulus (GPa) = 29.59267 33.08871 31.34069
# Shear Modulus (GPa) = 18.74766 23.99836 21.37301
#
# Velocity S-wave (km/s) = 2.95075 3.33849 3.15059
# Velocity P-wave (km/s) = 5.03517 5.49800 5.27167
#
# Compressibility (1/GPa) = 0.03379215
#
# Stress axis : x y z
#
# Youngs Moduli (GPa) = 57.14133 70.25254 107.02281
#
# Poissons Ratio (x) = 0.05525 0.03478
# Poissons Ratio (y) = 0.04494 0.27096
# Poissons Ratio (z) = 0.01857 0.17786
#
# Static dielectric constant tensor:
#      x y z
#    x 3.784010 0.000000 0.000000 
#    y 0.000000 3.669000 0.000000 
#    z 0.000000 0.000000 4.035230 
# 
# 
# High freq. dielectric constant tensor:
#      x y z
#    x 1.826770 0.000000 0.000000 
#    y 0.000000 1.829320 0.000000 
#    z 0.000000 0.000000 1.849060 
# 
# From -- ./inp_files/1315.got.cif
#   From: 2010.03.12/outbox.cif.g09.slc.cpg/sg19_1_cif.got.tgz:1315.got - 2010.04.10 18:59:41.
