data_PCOD8156207
_publ_section_title
;
Structure prediction by ZEFSAII (Michael W. Deem and Ramdas Pophale) SiO2 
 PCOD8156207
Probable space group: P 21 21 2
;
_chemical_formula_sum "Si O2"
_cell_formula_units_Z 20
_cell_length_a 17.145258
_cell_length_b 10.638265
_cell_length_c 5.037468
_cell_angle_alpha 90.000000
_cell_angle_beta 90.000000
_cell_angle_gamma 90.000000
_cell_volume 918.812996
_symmetry_space_group_name_H-M "P 21 21 2"
_symmetry_group_IT_number 18
_symmetry_cell_setting 'orthorhombic'
loop_
_space_group_symop_operation_xyz
x,y,z
-x,-y,z
1/2+x,1/2-y,-z
1/2-x,1/2+y,-z
loop_
_atom_site_type_symbol
_atom_site_label
_atom_site_fract_x
_atom_site_fract_y
_atom_site_fract_z
Si Si1 0.064316 0.102368 0.244405
Si Si2 0.511883 0.859040 0.634795
Si Si3 0.837581 0.458083 0.242415
Si Si4 0.881873 0.604618 0.736229
Si Si5 0.338117 0.626282 0.238404
O O1 0.130045 0.101571 0.469287
O O2 0.027083 0.242550 0.208077
O O3 0.105810 0.057323 0.974014
O O4 0.000000 0.000000 0.322302
O O5 0.606440 0.844981 0.640336
O O6 0.473657 0.865857 0.337235
O O7 0.500000 0.000000 0.767161
O O8 0.842138 0.570868 0.453599
O O9 0.749645 0.417211 0.210220
O O10 0.870100 0.497594 0.953899
O O11 0.838452 0.727673 0.840954
#
# Coordination Sequence:
#
# PCOD8156207 Si02
#       5
#     4   4   4   4   4
#     4  11  24  43  64  91 130 170 205 251 314 380
#     4   9  21  39  63  89 120 162 209 251 303 367
#     4  11  23  38  64  93 119 161 214 260 307 369
#     4  10  22  40  61  90 126 161 205 264 315 362
#     4  11  23  42  63  91 128 164 204 264 316 360
#
# _framework density 21.767216999999999
#
# number of rings (size 3 to 8) (size 9 to 14) (size 15 to 20)
#    0.000    1.600    0.000    5.400    0.000   18.400 
#    0.000    2.000    0.000    0.000    0.000    0.000 
#    0.000    0.000    0.000    0.000    0.000    0.000 
#
# Total GULP energy -247776.796442 kJ/mol
# GULP energy per Si atom -12388.839822 kJ/mol
# Density = 2.171767 g / cm^3
# Si number density = 21.767217 Si / 1000 Ang^3
#
#
#
# Elastic Constant Matrix: (Units=GPa)
#
#
# Indices 1 2 3 4 5 6 
#
# 1 151.6139 50.6344 42.2894 0.0000 0.0000 0.0000
# 2 50.6344 74.2082 24.9968 0.0000 0.0000 0.0000
# 3 42.2894 24.9968 101.2481 0.0000 0.0000 0.0000
# 4 0.0000 0.0000 0.0000 22.9515 0.0000 0.0000
# 5 0.0000 0.0000 0.0000 0.0000 29.8465 0.0000
# 6 0.0000 0.0000 0.0000 0.0000 0.0000 23.1896
#
#
#
# Elastic Compliance Matrix: (Units=1/GPa)
#
#
# Indices 1 2 3 4 5 6 
#
# 1 0.009074 -0.005361 -0.002467 0.000000 0.000000 0.000000
# 2 -0.005361 0.017865 -0.002172 0.000000 0.000000 0.000000
# 3 -0.002467 -0.002172 0.011443 0.000000 0.000000 0.000000
# 4 0.000000 0.000000 0.000000 0.043570 0.000000 0.000000
# 5 0.000000 0.000000 0.000000 0.000000 0.033505 0.000000
# 6 0.000000 0.000000 0.000000 0.000000 0.000000 0.043123
#
#
# Mechanical properties :
#
#
# Convention : Reuss Voigt Hill
#
# Bulk Modulus (GPa) = 54.39389 62.54572 58.46980
# Shear Modulus (GPa) = 27.07017 29.14081 28.10549
#
# Velocity S-wave (km/s) = 3.53033 3.66286 3.59720
# Velocity P-wave (km/s) = 6.45452 6.83264 6.64627
#
# Compressibility (1/GPa) = 0.01838442
#
# Stress axis : x y z
#
# Youngs Moduli (GPa) = 110.20531 55.97609 87.38895
#
# Poissons Ratio (x) = 0.30006 0.21555
# Poissons Ratio (y) = 0.59076 0.18977
# Poissons Ratio (z) = 0.27183 0.12156
#
# Static dielectric constant tensor:
#      x y z
#    x 4.176910 0.000000 0.000000 
#    y 0.000000 3.842760 0.000000 
#    z 0.000000 0.000000 3.882510 
# 
# 
# High freq. dielectric constant tensor:
#      x y z
#    x 1.858030 0.000000 0.000000 
#    y 0.000000 1.832220 0.000000 
#    z 0.000000 0.000000 1.863570 
# 
# From -- ./inp_files/1441.got.cif
#   From: 2010.03.12/outbox.cif.g09.slc.cpg/sg18_1_cif.got.tgz:1441.got - 2010.04.10 18:53:55.
