data_PCOD8156860
_publ_section_title
;
Structure prediction by ZEFSAII (Michael W. Deem and Ramdas Pophale) SiO2 
 PCOD8156860
Probable space group: P 21 21 21
;
_chemical_formula_sum "Si O2"
_cell_formula_units_Z 28
_cell_length_a 12.339407
_cell_length_b 14.179479
_cell_length_c 7.837466
_cell_angle_alpha 90.000000
_cell_angle_beta 90.000000
_cell_angle_gamma 90.000000
_cell_volume 1371.292917
_symmetry_space_group_name_H-M "P 21 21 21"
_symmetry_group_IT_number 19
_symmetry_cell_setting 'orthorhombic'
loop_
_space_group_symop_operation_xyz
x,y,z
1/2-x,-y,1/2+z
1/2+x,1/2-y,-z
-x,1/2+y,1/2-z
loop_
_atom_site_type_symbol
_atom_site_label
_atom_site_fract_x
_atom_site_fract_y
_atom_site_fract_z
Si Si1 0.866347 0.981963 0.332006
Si Si2 0.086676 0.982109 0.857514
Si Si3 0.266053 0.846972 0.364778
Si Si4 0.751089 0.341809 0.518411
Si Si5 0.745356 0.203005 0.829022
Si Si6 0.858590 0.034662 0.957532
Si Si7 0.901093 0.489797 0.028092
O O1 0.855954 0.868683 0.302660
O O2 0.880462 0.040208 0.158532
O O3 0.756857 0.019258 0.427183
O O4 0.971234 0.001064 0.445261
O O5 0.137299 0.901767 0.978469
O O6 0.132940 0.084645 0.907944
O O7 0.123264 0.960703 0.665683
O O8 0.956994 0.978657 0.871272
O O9 0.274878 0.767287 0.506686
O O10 0.153566 0.905823 0.365053
O O11 0.271509 0.803160 0.173230
O O12 0.761611 0.256989 0.651967
O O13 0.653204 0.410344 0.575952
O O14 0.851706 0.139560 0.874348
#
# Coordination Sequence:
#
# PCOD8156860 Si02
#       7
#     4   4   4   4   4   4   4
#     4  10  23  41  62  87 127 173 207 257 320 383
#     4  10  20  39  67  92 130 163 210 260 320 378
#     4  10  21  39  65  97 123 166 206 269 313 365
#     4  10  21  41  67  97 125 163 215 266 312 373
#     4  10  24  42  62  96 129 157 226 262 305 383
#     4  10  23  41  62  89 124 175 204 258 320 381
#     4  10  20  39  67  94 126 165 210 256 326 375
#
# _framework density 20.418686000000001
#
# number of rings (size 3 to 8) (size 9 to 14) (size 15 to 20)
#    0.857    1.143    1.429    1.714    4.000    2.286 
#    0.000    2.857    0.000    0.000    0.000    0.000 
#    0.000    0.000    0.000    0.000    0.000    0.000 
#
# Total GULP energy -347050.185046 kJ/mol
# GULP energy per Si atom -12394.649466 kJ/mol
# Density = 2.037221 g / cm^3
# Si number density = 20.418686 Si / 1000 Ang^3
#
#
#
# Elastic Constant Matrix: (Units=GPa)
#
#
# Indices 1 2 3 4 5 6 
#
# 1 130.7310 20.5610 3.9858 0.0000 0.0000 0.0000
# 2 20.5610 46.7553 18.9631 0.0000 0.0000 0.0000
# 3 3.9858 18.9631 84.9138 0.0000 0.0000 0.0000
# 4 0.0000 0.0000 0.0000 38.9405 0.0000 0.0000
# 5 0.0000 0.0000 0.0000 0.0000 28.0350 0.0000
# 6 0.0000 0.0000 0.0000 0.0000 0.0000 15.4913
#
#
#
# Elastic Compliance Matrix: (Units=1/GPa)
#
#
# Indices 1 2 3 4 5 6 
#
# 1 0.008234 -0.003809 0.000464 0.000000 0.000000 0.000000
# 2 -0.003809 0.025280 -0.005467 0.000000 0.000000 0.000000
# 3 0.000464 -0.005467 0.012976 0.000000 0.000000 0.000000
# 4 0.000000 0.000000 0.000000 0.025680 0.000000 0.000000
# 5 0.000000 0.000000 0.000000 0.000000 0.035670 0.000000
# 6 0.000000 0.000000 0.000000 0.000000 0.000000 0.064553
#
#
# Mechanical properties :
#
#
# Convention : Reuss Voigt Hill
#
# Bulk Modulus (GPa) = 34.64239 38.82444 36.73342
# Shear Modulus (GPa) = 25.04521 31.08603 28.06562
#
# Velocity S-wave (km/s) = 3.50606 3.90607 3.71146
# Velocity P-wave (km/s) = 5.77865 6.27683 6.03288
#
# Compressibility (1/GPa) = 0.02886637
#
# Stress axis : x y z
#
# Youngs Moduli (GPa) = 121.44371 39.55638 77.06698
#
# Poissons Ratio (x) = 0.15068 -0.03577
# Poissons Ratio (y) = 0.46262 0.42131
# Poissons Ratio (z) = -0.05637 0.21625
#
# Static dielectric constant tensor:
#      x y z
#    x 3.606970 0.000000 0.000000 
#    y 0.000000 3.430980 0.000000 
#    z 0.000000 0.000000 3.759310 
# 
# 
# High freq. dielectric constant tensor:
#      x y z
#    x 1.790470 0.000000 0.000000 
#    y 0.000000 1.771680 0.000000 
#    z 0.000000 0.000000 1.811810 
# 
# From -- ./inp_files/3462.got.cif
#   From: 2010.03.12/outbox.cif.g09.slc.cpg/sg19_2_cif.got.tgz:3462.got - 2010.04.10 18:59:41.
