data_PCOD8157922
_publ_section_title
;
Structure prediction by ZEFSAII (Michael W. Deem and Ramdas Pophale) SiO2 
 PCOD8157922
Probable space group: P 21 21 21
;
_chemical_formula_sum "Si O2"
_cell_formula_units_Z 24
_cell_length_a 5.849749
_cell_length_b 10.185926
_cell_length_c 17.404778
_cell_angle_alpha 90.000000
_cell_angle_beta 90.000000
_cell_angle_gamma 90.000000
_cell_volume 1037.065619
_symmetry_space_group_name_H-M "P 21 21 21"
_symmetry_group_IT_number 19
_symmetry_cell_setting 'orthorhombic'
loop_
_space_group_symop_operation_xyz
x,y,z
1/2-x,-y,1/2+z
1/2+x,1/2-y,-z
-x,1/2+y,1/2-z
loop_
_atom_site_type_symbol
_atom_site_label
_atom_site_fract_x
_atom_site_fract_y
_atom_site_fract_z
Si Si1 0.909706 0.637376 0.188348
Si Si2 0.210563 0.305616 0.797463
Si Si3 0.725581 0.808869 0.523938
Si Si4 0.802179 0.079572 0.449183
Si Si5 0.086017 0.050418 0.729636
Si Si6 0.039705 0.716326 0.900351
O O1 0.810884 0.526437 0.244435
O O2 0.749007 0.752249 0.155884
O O3 0.081123 0.723014 0.239955
O O4 0.004516 0.556209 0.114820
O O5 0.286983 0.318011 0.884836
O O6 0.043585 0.178437 0.785209
O O7 0.114335 0.443501 0.766388
O O8 0.484743 0.740730 0.498142
O O9 0.703194 0.949612 0.485886
O O10 0.597243 0.148744 0.404377
O O11 0.895931 0.175397 0.514494
O O12 0.106637 0.100572 0.641024
#
# Coordination Sequence:
#
# PCOD8157922 Si02
#       6
#     4   4   4   4   4   4
#     4  12  27  47  79 111 158 199 270 335 402 481
#     4  12  29  48  80 113 157 213 264 336 406 487
#     4  12  32  52  80 117 168 219 269 336 413 488
#     4  12  26  50  79 112 155 208 267 334 404 490
#     4  12  26  48  73 114 153 200 263 332 400 481
#     4  12  26  47  77 113 151 205 269 327 407 485
#
# _framework density 23.142218
#
# number of rings (size 3 to 8) (size 9 to 14) (size 15 to 20)
#    0.000    0.000    6.667    1.000   11.667    1.333 
#    0.000    0.000    0.000    0.000    0.000    0.000 
#    0.000    0.000    0.000    0.000    0.000    0.000 
#
# Total GULP energy -297404.774315 kJ/mol
# GULP energy per Si atom -12391.865596 kJ/mol
# Density = 2.308955 g / cm^3
# Si number density = 23.142218 Si / 1000 Ang^3
#
#
#
# Elastic Constant Matrix: (Units=GPa)
#
#
# Indices 1 2 3 4 5 6 
#
# 1 121.0149 44.5064 68.9794 0.0000 0.0000 0.0000
# 2 44.5064 111.7488 43.9617 0.0000 0.0000 0.0000
# 3 68.9794 43.9617 161.0769 0.0000 0.0000 0.0000
# 4 0.0000 0.0000 0.0000 54.6659 0.0000 0.0000
# 5 0.0000 0.0000 0.0000 0.0000 52.4077 0.0000
# 6 0.0000 0.0000 0.0000 0.0000 0.0000 26.9473
#
#
#
# Elastic Compliance Matrix: (Units=1/GPa)
#
#
# Indices 1 2 3 4 5 6 
#
# 1 0.011784 -0.003034 -0.004218 0.000000 0.000000 0.000000
# 2 -0.003034 0.010806 -0.001650 0.000000 0.000000 0.000000
# 3 -0.004218 -0.001650 0.008465 0.000000 0.000000 0.000000
# 4 0.000000 0.000000 0.000000 0.018293 0.000000 0.000000
# 5 0.000000 0.000000 0.000000 0.000000 0.019081 0.000000
# 6 0.000000 0.000000 0.000000 0.000000 0.000000 0.037109
#
#
# Mechanical properties :
#
#
# Convention : Reuss Voigt Hill
#
# Bulk Modulus (GPa) = 75.46811 78.74840 77.10825
# Shear Modulus (GPa) = 39.13622 42.56373 40.84998
#
# Velocity S-wave (km/s) = 4.11678 4.29327 4.20595
# Velocity P-wave (km/s) = 7.43496 7.66016 7.54840
#
# Compressibility (1/GPa) = 0.01325063
#
# Stress axis : x y z
#
# Youngs Moduli (GPa) = 84.86392 92.54130 118.13376
#
# Poissons Ratio (x) = 0.28074 0.49832
# Poissons Ratio (y) = 0.25744 0.19493
# Poissons Ratio (z) = 0.35798 0.15270
#
# Static dielectric constant tensor:
#      x y z
#    x 4.267010 0.000000 0.000000 
#    y 0.000000 4.218860 0.000000 
#    z 0.000000 0.000000 4.462080 
# 
# 
# High freq. dielectric constant tensor:
#      x y z
#    x 1.910170 0.000000 0.000000 
#    y 0.000000 1.921430 0.000000 
#    z 0.000000 0.000000 1.938850 
# 
# From -- ./inp_files/1698.got.cif
#   From: 2010.03.12/outbox.cif.g09.slc.cpg/sg19_1_cif.got.tgz:1698.got - 2010.04.10 18:59:41.
