data_PCOD8157419
_publ_section_title
;
Structure prediction by ZEFSAII (Michael W. Deem and Ramdas Pophale) SiO2 
 PCOD8157419
Probable space group: P 21 21 21
;
_chemical_formula_sum "Si O2"
_cell_formula_units_Z 28
_cell_length_a 23.781561
_cell_length_b 8.218313
_cell_length_c 4.999129
_cell_angle_alpha 90.000000
_cell_angle_beta 90.000000
_cell_angle_gamma 90.000000
_cell_volume 977.051328
_symmetry_space_group_name_H-M "P 21 21 21"
_symmetry_group_IT_number 19
_symmetry_cell_setting 'orthorhombic'
loop_
_space_group_symop_operation_xyz
x,y,z
1/2-x,-y,1/2+z
1/2+x,1/2-y,-z
-x,1/2+y,1/2-z
loop_
_atom_site_type_symbol
_atom_site_label
_atom_site_fract_x
_atom_site_fract_y
_atom_site_fract_z
Si Si1 0.529776 0.857194 0.612450
Si Si2 0.952188 0.877563 0.660454
Si Si3 0.643374 0.185447 0.839533
Si Si4 0.859954 0.306818 0.146100
Si Si5 0.431957 0.909596 0.978355
Si Si6 0.714316 0.968770 0.475982
Si Si7 0.786309 0.527121 0.495703
O O1 0.506033 0.681108 0.517465
O O2 0.592660 0.826296 0.724216
O O3 0.497169 0.933064 0.872116
O O4 0.527193 0.995743 0.382829
O O5 0.894513 0.940757 0.516009
O O6 0.931407 0.702044 0.765712
O O7 0.596720 0.317379 0.766061
O O8 0.667364 0.094827 0.578549
O O9 0.693626 0.284010 0.984714
O O10 0.892761 0.434664 0.954221
O O11 0.833844 0.397159 0.405059
O O12 0.809397 0.214885 0.991299
O O13 0.730664 0.009931 0.169369
O O14 0.767827 0.491321 0.799255
#
# Coordination Sequence:
#
# PCOD8157419 Si02
#       7
#     4   4   4   4   4   4   4
#     4  11  24  44  70 113 145 197 241 309 372 469
#     4  11  24  44  73 104 152 191 243 305 371 458
#     4  10  25  43  72 100 143 191 237 304 371 431
#     4  11  25  45  75 106 147 200 248 311 389 447
#     4  10  23  45  70 107 145 187 250 300 376 453
#     4  12  28  49  71 110 149 190 253 311 373 443
#     4  11  25  48  75 108 145 192 256 314 368 441
#
# _framework density 28.657655999999999
#
# number of rings (size 3 to 8) (size 9 to 14) (size 15 to 20)
#    0.000    1.143    0.000    4.286    8.000    4.571 
#   10.286    0.000    0.000    0.000    0.000    0.000 
#    0.000    0.000    0.000    0.000    0.000    0.000 
#
# Total GULP energy -347043.782628 kJ/mol
# GULP energy per Si atom -12394.420808 kJ/mol
# Density = 2.859243 g / cm^3
# Si number density = 28.657656 Si / 1000 Ang^3
#
#
#
# Elastic Constant Matrix: (Units=GPa)
#
#
# Indices 1 2 3 4 5 6 
#
# 1 136.8289 21.5775 -7.8597 0.0000 0.0000 0.0000
# 2 21.5775 117.3350 11.8216 0.0000 0.0000 0.0000
# 3 -7.8597 11.8216 50.3568 0.0000 0.0000 0.0000
# 4 0.0000 0.0000 0.0000 43.0126 0.0000 0.0000
# 5 0.0000 0.0000 0.0000 0.0000 13.7966 0.0000
# 6 0.0000 0.0000 0.0000 0.0000 0.0000 41.7573
#
#
#
# Elastic Compliance Matrix: (Units=1/GPa)
#
#
# Indices 1 2 3 4 5 6 
#
# 1 0.007644 -0.001563 0.001560 0.000000 0.000000 0.000000
# 2 -0.001563 0.009049 -0.002368 0.000000 0.000000 0.000000
# 3 0.001560 -0.002368 0.020658 0.000000 0.000000 0.000000
# 4 0.000000 0.000000 0.000000 0.023249 0.000000 0.000000
# 5 0.000000 0.000000 0.000000 0.000000 0.072482 0.000000
# 6 0.000000 0.000000 0.000000 0.000000 0.000000 0.023948
#
#
# Mechanical properties :
#
#
# Convention : Reuss Voigt Hill
#
# Bulk Modulus (GPa) = 30.66669 39.51105 35.08887
# Shear Modulus (GPa) = 28.96177 38.31203 33.63690
#
# Velocity S-wave (km/s) = 3.18246 3.66031 3.42972
# Velocity P-wave (km/s) = 4.92223 5.62859 5.28722
#
# Compressibility (1/GPa) = 0.03260867
#
# Stress axis : x y z
#
# Youngs Moduli (GPa) = 130.81327 110.51402 48.40806
#
# Poissons Ratio (x) = 0.17273 -0.07552
# Poissons Ratio (y) = 0.20446 0.11464
# Poissons Ratio (z) = -0.20408 0.26172
#
# Static dielectric constant tensor:
#      x y z
#    x 5.925310 0.000000 0.000000 
#    y 0.000000 5.442570 0.000000 
#    z 0.000000 0.000000 4.649200 
# 
# 
# High freq. dielectric constant tensor:
#      x y z
#    x 2.194120 0.000000 0.000000 
#    y 0.000000 2.192260 0.000000 
#    z 0.000000 0.000000 2.133250 
# 
# From -- ./inp_files/2147.got.cif
#   From: 2010.03.12/outbox.cif.g09.slc.cpg/sg19_2_cif.got.tgz:2147.got - 2010.04.10 18:59:41.
