data_PCOD8157255
_publ_section_title
;
Structure prediction by ZEFSAII (Michael W. Deem and Ramdas Pophale) SiO2 
 PCOD8157255
Probable space group: P 21 21 21
;
_chemical_formula_sum "Si O2"
_cell_formula_units_Z 28
_cell_length_a 8.878098
_cell_length_b 18.291712
_cell_length_c 8.050053
_cell_angle_alpha 90.000000
_cell_angle_beta 90.000000
_cell_angle_gamma 90.000000
_cell_volume 1307.293281
_symmetry_space_group_name_H-M "P 21 21 21"
_symmetry_group_IT_number 19
_symmetry_cell_setting 'orthorhombic'
loop_
_space_group_symop_operation_xyz
x,y,z
1/2-x,-y,1/2+z
1/2+x,1/2-y,-z
-x,1/2+y,1/2-z
loop_
_atom_site_type_symbol
_atom_site_label
_atom_site_fract_x
_atom_site_fract_y
_atom_site_fract_z
Si Si1 0.989019 0.842335 0.995845
Si Si2 0.985959 0.173324 0.178845
Si Si3 0.981658 0.342472 0.141305
Si Si4 0.343391 0.885190 0.358765
Si Si5 0.062536 0.492692 0.676866
Si Si6 0.774073 0.918132 0.558265
Si Si7 0.665736 0.306807 0.489190
O O1 0.962909 0.871953 0.181348
O O2 0.158310 0.813073 0.969460
O O3 0.952976 0.909630 0.879595
O O4 0.871928 0.777829 0.958194
O O5 0.076566 0.160972 0.350711
O O6 0.938018 0.257500 0.159396
O O7 0.837365 0.122745 0.187227
O O8 0.077827 0.154220 0.013090
O O9 0.832183 0.387505 0.093684
O O10 0.114199 0.355845 0.011419
O O11 0.377504 0.847046 0.181919
O O12 0.400139 0.968511 0.334397
O O13 0.180594 0.543890 0.585208
O O14 0.128875 0.483506 0.861165
#
# Coordination Sequence:
#
# PCOD8157255 Si02
#       7
#     4   4   4   4   4   4   4
#     4  10  24  43  67 100 134 173 235 276 346 399
#     4  10  23  42  68 100 130 174 229 285 339 402
#     4  10  22  42  67  98 128 176 224 285 336 409
#     4  10  24  43  65  96 139 173 228 276 347 405
#     4  11  26  43  63 101 132 185 219 281 347 408
#     4  11  25  42  68  95 139 180 224 284 340 417
#     4  10  24  43  70 100 132 183 227 291 327 414
#
# _framework density 21.418298
#
# number of rings (size 3 to 8) (size 9 to 14) (size 15 to 20)
#    0.000    1.714    0.000    1.714   12.000    6.857 
#    5.143    0.000    0.000    0.000    0.000    0.000 
#    0.000    0.000    0.000    0.000    0.000    0.000 
#
# Total GULP energy -347144.627881 kJ/mol
# GULP energy per Si atom -12398.022424 kJ/mol
# Density = 2.136955 g / cm^3
# Si number density = 21.418298 Si / 1000 Ang^3
#
#
#
# Elastic Constant Matrix: (Units=GPa)
#
#
# Indices 1 2 3 4 5 6 
#
# 1 87.7439 43.0548 33.4022 0.0000 0.0000 0.0000
# 2 43.0548 73.6348 13.6768 0.0000 0.0000 0.0000
# 3 33.4022 13.6768 95.8821 0.0000 0.0000 0.0000
# 4 0.0000 0.0000 0.0000 32.1741 0.0000 0.0000
# 5 0.0000 0.0000 0.0000 0.0000 34.3467 0.0000
# 6 0.0000 0.0000 0.0000 0.0000 0.0000 22.0883
#
#
#
# Elastic Compliance Matrix: (Units=1/GPa)
#
#
# Indices 1 2 3 4 5 6 
#
# 1 0.017968 -0.009598 -0.004890 0.000000 0.000000 0.000000
# 2 -0.009598 0.019077 0.000622 0.000000 0.000000 0.000000
# 3 -0.004890 0.000622 0.012044 0.000000 0.000000 0.000000
# 4 0.000000 0.000000 0.000000 0.031081 0.000000 0.000000
# 5 0.000000 0.000000 0.000000 0.000000 0.029115 0.000000
# 6 0.000000 0.000000 0.000000 0.000000 0.000000 0.045273
#
#
# Mechanical properties :
#
#
# Convention : Reuss Voigt Hill
#
# Bulk Modulus (GPa) = 46.82164 48.61429 47.71796
# Shear Modulus (GPa) = 26.39801 28.86362 27.63081
#
# Velocity S-wave (km/s) = 3.51450 3.67497 3.59563
# Velocity P-wave (km/s) = 6.19492 6.38389 6.29011
#
# Compressibility (1/GPa) = 0.02135764
#
# Stress axis : x y z
#
# Youngs Moduli (GPa) = 55.65481 52.41990 83.02636
#
# Poissons Ratio (x) = 0.50311 0.40603
# Poissons Ratio (y) = 0.53415 -0.05167
# Poissons Ratio (z) = 0.27218 -0.03262
#
# Static dielectric constant tensor:
#      x y z
#    x 3.941610 0.000000 0.000000 
#    y 0.000000 3.811110 0.000000 
#    z 0.000000 0.000000 4.120970 
# 
# 
# High freq. dielectric constant tensor:
#      x y z
#    x 1.849660 0.000000 0.000000 
#    y 0.000000 1.836920 0.000000 
#    z 0.000000 0.000000 1.851330 
# 
# From -- ./inp_files/2957.got.cif
#   From: 2010.03.12/outbox.cif.g09.slc.cpg/sg19_2_cif.got.tgz:2957.got - 2010.04.10 18:59:41.
