data_PCOD8157438
_publ_section_title
;
Structure prediction by ZEFSAII (Michael W. Deem and Ramdas Pophale) SiO2 
 PCOD8157438
Probable space group: P 21 21 21
;
_chemical_formula_sum "Si O2"
_cell_formula_units_Z 32
_cell_length_a 12.248013
_cell_length_b 14.071622
_cell_length_c 8.299667
_cell_angle_alpha 90.000000
_cell_angle_beta 90.000000
_cell_angle_gamma 90.000000
_cell_volume 1430.442704
_symmetry_space_group_name_H-M "P 21 21 21"
_symmetry_group_IT_number 19
_symmetry_cell_setting 'orthorhombic'
loop_
_space_group_symop_operation_xyz
x,y,z
1/2-x,-y,1/2+z
1/2+x,1/2-y,-z
-x,1/2+y,1/2-z
loop_
_atom_site_type_symbol
_atom_site_label
_atom_site_fract_x
_atom_site_fract_y
_atom_site_fract_z
Si Si1 0.430695 0.065424 0.327828
Si Si2 0.494401 0.812405 0.703588
Si Si3 0.422258 0.855300 0.208429
Si Si4 0.284044 0.820532 0.903853
Si Si5 0.626242 0.835937 0.006563
Si Si6 0.802780 0.961467 0.393999
Si Si7 0.593174 0.001318 0.564036
Si Si8 0.441071 0.685687 0.426333
O O1 0.313905 0.109505 0.361691
O O2 0.481119 0.115603 0.172138
O O3 0.417659 0.953068 0.304696
O O4 0.510867 0.078293 0.483445
O O5 0.367002 0.813166 0.754842
O O6 0.571765 0.784105 0.852555
O O7 0.523314 0.915371 0.634477
O O8 0.513480 0.732950 0.567425
O O9 0.383929 0.768135 0.320630
O O10 0.345427 0.866283 0.054798
O O11 0.545690 0.828843 0.158213
O O12 0.238818 0.715882 0.947678
O O13 0.642566 0.944955 0.965155
O O14 0.672362 0.966467 0.418484
O O15 0.842075 0.872400 0.497125
O O16 0.834217 0.950011 0.205480
#
# Coordination Sequence:
#
# PCOD8157438 Si02
#       8
#     4   4   4   4   4   4   4   4
#     4  12  26  47  72 102 145 197 239 303 363 436
#     4  10  26  47  67 106 147 186 240 302 350 446
#     4  11  25  47  69 103 147 185 254 297 361 441
#     4  11  27  46  74  99 149 200 235 297 379 425
#     4  10  23  48  69 103 140 185 238 301 357 433
#     4  11  26  41  76 103 144 185 244 300 366 421
#     4  11  26  48  70 107 147 184 248 298 362 429
#     4  12  25  44  73 107 139 192 242 300 368 423
#
# _framework density 22.370697
#
# number of rings (size 3 to 8) (size 9 to 14) (size 15 to 20)
#    0.000    1.000    3.750    0.750   10.500    1.000 
#    2.250    0.000    0.000    0.000    0.000    0.000 
#    0.000    0.000    0.000    0.000    0.000    0.000 
#
# Total GULP energy -396939.765104 kJ/mol
# GULP energy per Si atom -12404.367659 kJ/mol
# Density = 2.231978 g / cm^3
# Si number density = 22.370697 Si / 1000 Ang^3
#
#
#
# Elastic Constant Matrix: (Units=GPa)
#
#
# Indices 1 2 3 4 5 6 
#
# 1 111.9347 20.5186 50.7947 0.0000 0.0000 0.0000
# 2 20.5186 90.0267 41.6342 0.0000 0.0000 0.0000
# 3 50.7947 41.6342 118.9885 0.0000 0.0000 0.0000
# 4 0.0000 0.0000 0.0000 45.1955 0.0000 0.0000
# 5 0.0000 0.0000 0.0000 0.0000 34.5734 0.0000
# 6 0.0000 0.0000 0.0000 0.0000 0.0000 32.4885
#
#
#
# Elastic Compliance Matrix: (Units=1/GPa)
#
#
# Indices 1 2 3 4 5 6 
#
# 1 0.011092 -0.000404 -0.004594 0.000000 0.000000 0.000000
# 2 -0.000404 0.013267 -0.004470 0.000000 0.000000 0.000000
# 3 -0.004594 -0.004470 0.011929 0.000000 0.000000 0.000000
# 4 0.000000 0.000000 0.000000 0.022126 0.000000 0.000000
# 5 0.000000 0.000000 0.000000 0.000000 0.028924 0.000000
# 6 0.000000 0.000000 0.000000 0.000000 0.000000 0.030780
#
#
# Mechanical properties :
#
#
# Convention : Reuss Voigt Hill
#
# Bulk Modulus (GPa) = 57.62415 60.76056 59.19236
# Shear Modulus (GPa) = 35.00460 36.31832 35.66146
#
# Velocity S-wave (km/s) = 3.95999 4.03361 3.99697
# Velocity P-wave (km/s) = 6.83545 6.99379 6.91507
#
# Compressibility (1/GPa) = 0.01735383
#
# Stress axis : x y z
#
# Youngs Moduli (GPa) = 90.15111 75.37537 83.82715
#
# Poissons Ratio (x) = 0.03042 0.38510
# Poissons Ratio (y) = 0.03638 0.37469
# Poissons Ratio (z) = 0.41416 0.33692
#
# Static dielectric constant tensor:
#      x y z
#    x 4.042260 0.000000 0.000000 
#    y 0.000000 4.007600 0.000000 
#    z 0.000000 0.000000 4.336530 
# 
# 
# High freq. dielectric constant tensor:
#      x y z
#    x 1.877010 0.000000 0.000000 
#    y 0.000000 1.886590 0.000000 
#    z 0.000000 0.000000 1.897530 
# 
# From -- ./inp_files/3624.got.cif
#   From: 2010.03.12/outbox.cif.g09.slc.cpg/sg19_2_cif.got.tgz:3624.got - 2010.04.10 18:59:41.
