data_PCOD8157397
_publ_section_title
;
Structure prediction by ZEFSAII (Michael W. Deem and Ramdas Pophale) SiO2 
 PCOD8157397
Probable space group: P 21 21 21
;
_chemical_formula_sum "Si O2"
_cell_formula_units_Z 28
_cell_length_a 8.441066
_cell_length_b 12.252834
_cell_length_c 13.387153
_cell_angle_alpha 90.000000
_cell_angle_beta 90.000000
_cell_angle_gamma 90.000000
_cell_volume 1384.592812
_symmetry_space_group_name_H-M "P 21 21 21"
_symmetry_group_IT_number 19
_symmetry_cell_setting 'orthorhombic'
loop_
_space_group_symop_operation_xyz
x,y,z
1/2-x,-y,1/2+z
1/2+x,1/2-y,-z
-x,1/2+y,1/2-z
loop_
_atom_site_type_symbol
_atom_site_label
_atom_site_fract_x
_atom_site_fract_y
_atom_site_fract_z
Si Si1 0.063263 0.997832 0.307076
Si Si2 0.231605 0.201994 0.868934
Si Si3 0.210153 0.520047 0.048720
Si Si4 0.382649 0.296082 0.057752
Si Si5 0.229468 0.431983 0.320025
Si Si6 0.783026 0.309166 0.747079
Si Si7 0.379980 0.621647 0.213201
O O1 0.200368 0.908557 0.321522
O O2 0.945839 0.964152 0.217175
O O3 0.136059 0.111858 0.271012
O O4 0.971994 0.014760 0.412857
O O5 0.204415 0.286945 0.779955
O O6 0.068341 0.179716 0.927262
O O7 0.359332 0.251988 0.945675
O O8 0.284771 0.404542 0.079292
O O9 0.296047 0.620171 0.105253
O O10 0.233536 0.538634 0.933269
O O11 0.319360 0.204771 0.135214
O O12 0.251225 0.304700 0.305895
O O13 0.359280 0.501095 0.259746
O O14 0.936356 0.359331 0.694134
#
# Coordination Sequence:
#
# PCOD8157397 Si02
#       7
#     4   4   4   4   4   4   4
#     4  11  26  43  68  98 140 171 233 272 345 393
#     4  11  24  40  69 102 131 179 225 285 331 399
#     4  11  23  42  66  97 132 177 222 277 336 399
#     4  11  22  40  72  99 131 173 238 273 331 394
#     4  11  25  43  68  96 136 174 226 280 332 400
#     4  11  25  44  65  99 135 178 219 277 337 401
#     4  10  23  44  66  91 139 170 221 282 332 392
#
# _framework density 20.222552
#
# number of rings (size 3 to 8) (size 9 to 14) (size 15 to 20)
#    0.000    1.143    4.286    1.714   10.000    1.143 
#    0.000    0.000    0.000    0.000    0.000    0.000 
#    0.000    0.000    0.000    0.000    0.000    0.000 
#
# Total GULP energy -347226.039204 kJ/mol
# GULP energy per Si atom -12400.929972 kJ/mol
# Density = 2.017653 g / cm^3
# Si number density = 20.222552 Si / 1000 Ang^3
#
#
#
# Elastic Constant Matrix: (Units=GPa)
#
#
# Indices 1 2 3 4 5 6 
#
# 1 115.2203 62.9853 33.4280 0.0000 0.0000 0.0000
# 2 62.9853 126.4670 19.7693 0.0000 0.0000 0.0000
# 3 33.4280 19.7693 88.9343 0.0000 0.0000 0.0000
# 4 0.0000 0.0000 0.0000 3.4219 0.0000 0.0000
# 5 0.0000 0.0000 0.0000 0.0000 31.4779 0.0000
# 6 0.0000 0.0000 0.0000 0.0000 0.0000 37.9692
#
#
#
# Elastic Compliance Matrix: (Units=1/GPa)
#
#
# Indices 1 2 3 4 5 6 
#
# 1 0.012924 -0.005882 -0.003550 0.000000 0.000000 0.000000
# 2 -0.005882 0.010869 -0.000205 0.000000 0.000000 0.000000
# 3 -0.003550 -0.000205 0.012624 0.000000 0.000000 0.000000
# 4 0.000000 0.000000 0.000000 0.292234 0.000000 0.000000
# 5 0.000000 0.000000 0.000000 0.000000 0.031768 0.000000
# 6 0.000000 0.000000 0.000000 0.000000 0.000000 0.026337
#
#
# Mechanical properties :
#
#
# Convention : Reuss Voigt Hill
#
# Bulk Modulus (GPa) = 58.33457 62.55409 60.44433
# Shear Modulus (GPa) = 12.14341 28.86972 20.50657
#
# Velocity S-wave (km/s) = 2.45315 3.78246 3.18786
# Velocity P-wave (km/s) = 6.07724 7.07644 6.59579
#
# Compressibility (1/GPa) = 0.01714249
#
# Stress axis : x y z
#
# Youngs Moduli (GPa) = 77.37303 92.00778 79.21179
#
# Poissons Ratio (x) = 0.54117 0.28124
# Poissons Ratio (y) = 0.45509 0.01625
# Poissons Ratio (z) = 0.27471 0.01888
#
# Static dielectric constant tensor:
#      x y z
#    x 3.833390 0.000000 0.000000 
#    y 0.000000 3.755030 0.000000 
#    z 0.000000 0.000000 3.837800 
# 
# 
# High freq. dielectric constant tensor:
#      x y z
#    x 1.796480 0.000000 0.000000 
#    y 0.000000 1.795030 0.000000 
#    z 0.000000 0.000000 1.790110 
# 
# From -- ./inp_files/5878.got.cif
#   From: 2010.03.12/outbox.cif.g09.slc.cpg/sg19_3_cif.got.tgz:5878.got - 2010.04.10 18:59:41.
