data_PCOD8157155
_publ_section_title
;
Structure prediction by ZEFSAII (Michael W. Deem and Ramdas Pophale) SiO2 
 PCOD8157155
Probable space group: P 21 21 21
;
_chemical_formula_sum "Si O2"
_cell_formula_units_Z 32
_cell_length_a 11.662440
_cell_length_b 8.672216
_cell_length_c 14.342455
_cell_angle_alpha 90.000000
_cell_angle_beta 90.000000
_cell_angle_gamma 90.000000
_cell_volume 1450.584407
_symmetry_space_group_name_H-M "P 21 21 21"
_symmetry_group_IT_number 19
_symmetry_cell_setting 'orthorhombic'
loop_
_space_group_symop_operation_xyz
x,y,z
1/2-x,-y,1/2+z
1/2+x,1/2-y,-z
-x,1/2+y,1/2-z
loop_
_atom_site_type_symbol
_atom_site_label
_atom_site_fract_x
_atom_site_fract_y
_atom_site_fract_z
Si Si1 0.772518 0.961002 0.185880
Si Si2 0.265864 0.862174 0.581317
Si Si3 0.561947 0.471771 0.495919
Si Si4 0.657107 0.642696 0.226376
Si Si5 0.556813 0.133433 0.155230
Si Si6 0.351711 0.628846 0.009195
Si Si7 0.428051 0.956195 0.435557
Si Si8 0.348150 0.522191 0.612800
O O1 0.697378 0.807741 0.192664
O O2 0.846474 0.953149 0.091868
O O3 0.853343 0.983563 0.275236
O O4 0.687300 0.107623 0.186307
O O5 0.236185 0.916118 0.686975
O O6 0.371381 0.960330 0.538802
O O7 0.294921 0.682049 0.576430
O O8 0.156344 0.892249 0.514146
O O9 0.480767 0.482678 0.404590
O O10 0.626202 0.309617 0.502627
O O11 0.480635 0.497992 0.585241
O O12 0.524188 0.655679 0.255901
O O13 0.662257 0.524129 0.140305
O O14 0.544399 0.281307 0.089695
O O15 0.455789 0.553411 0.065795
O O16 0.233583 0.608430 0.067165
#
# Coordination Sequence:
#
# PCOD8157155 Si02
#       8
#     4   4   4   4   4   4   4   4
#     4  11  23  44  65 101 139 175 229 289 347 417
#     4  10  23  43  69  97 135 183 236 282 345 418
#     4  11  23  42  69  98 138 178 226 285 340 412
#     4  10  22  39  67 101 133 176 234 287 334 410
#     4  11  21  41  68  99 130 178 237 282 335 411
#     4  12  25  42  69 101 139 181 227 289 354 409
#     4  12  23  42  69  99 137 186 227 289 352 412
#     4  11  24  47  68  98 139 179 228 289 347 417
#
# _framework density 22.060075000000001
#
# number of rings (size 3 to 8) (size 9 to 14) (size 15 to 20)
#    0.000    1.000    2.500    5.250    1.750    3.000 
#    6.750    0.000    0.000    0.000    0.000    0.000 
#    0.000    0.000    0.000    0.000    0.000    0.000 
#
# Total GULP energy -396810.085324 kJ/mol
# GULP energy per Si atom -12400.315166 kJ/mol
# Density = 2.200987 g / cm^3
# Si number density = 22.060075 Si / 1000 Ang^3
#
#
#
# Elastic Constant Matrix: (Units=GPa)
#
#
# Indices 1 2 3 4 5 6 
#
# 1 37.8422 20.8766 12.4227 0.0000 0.0000 0.0000
# 2 20.8766 68.8414 27.2532 0.0000 0.0000 0.0000
# 3 12.4227 27.2532 110.2666 0.0000 0.0000 0.0000
# 4 0.0000 0.0000 0.0000 28.1515 0.0000 0.0000
# 5 0.0000 0.0000 0.0000 0.0000 41.3369 0.0000
# 6 0.0000 0.0000 0.0000 0.0000 0.0000 28.8905
#
#
#
# Elastic Compliance Matrix: (Units=1/GPa)
#
#
# Indices 1 2 3 4 5 6 
#
# 1 0.031911 -0.009149 -0.001334 0.000000 0.000000 0.000000
# 2 -0.009149 0.018725 -0.003597 0.000000 0.000000 0.000000
# 3 -0.001334 -0.003597 0.010108 0.000000 0.000000 0.000000
# 4 0.000000 0.000000 0.000000 0.035522 0.000000 0.000000
# 5 0.000000 0.000000 0.000000 0.000000 0.024191 0.000000
# 6 0.000000 0.000000 0.000000 0.000000 0.000000 0.034613
#
#
# Mechanical properties :
#
#
# Convention : Reuss Voigt Hill
#
# Bulk Modulus (GPa) = 30.69041 37.56168 34.12605
# Shear Modulus (GPa) = 25.76097 30.10230 27.93164
#
# Velocity S-wave (km/s) = 3.42096 3.69800 3.56218
# Velocity P-wave (km/s) = 5.43566 5.94118 5.69403
#
# Compressibility (1/GPa) = 0.03258347
#
# Stress axis : x y z
#
# Youngs Moduli (GPa) = 31.33747 53.40526 98.92883
#
# Poissons Ratio (x) = 0.48861 0.13195
# Poissons Ratio (y) = 0.28671 0.35587
# Poissons Ratio (z) = 0.04180 0.19211
#
# Static dielectric constant tensor:
#      x y z
#    x 3.982880 0.000000 0.000000 
#    y 0.000000 3.844480 0.000000 
#    z 0.000000 0.000000 4.115240 
# 
# 
# High freq. dielectric constant tensor:
#      x y z
#    x 1.862080 0.000000 0.000000 
#    y 0.000000 1.859570 0.000000 
#    z 0.000000 0.000000 1.872620 
# 
# From -- ./inp_files/6110.got.cif
#   From: 2010.03.12/outbox.cif.g09.slc.cpg/sg19_4_cif.got.tgz:6110.got - 2010.04.10 18:59:41.
