data_PCOD8157961
_publ_section_title
;
Structure prediction by ZEFSAII (Michael W. Deem and Ramdas Pophale) SiO2 
 PCOD8157961
Probable space group: C 2 2 21
;
_chemical_formula_sum "Si O2"
_cell_formula_units_Z 40
_cell_length_a 12.369949
_cell_length_b 14.097959
_cell_length_c 11.631514
_cell_angle_alpha 90.000000
_cell_angle_beta 90.000000
_cell_angle_gamma 90.000000
_cell_volume 2028.431752
_symmetry_space_group_name_H-M "C 2 2 21"
_symmetry_group_IT_number 20
_symmetry_cell_setting 'orthorhombic'
loop_
_space_group_symop_operation_xyz
x,y,z
-x,-y,1/2+z
x,-y,-z
-x,y,1/2-z
1/2+x,1/2+y,z
1/2-x,1/2-y,1/2+z
1/2+x,1/2-y,-z
1/2-x,1/2+y,1/2-z
loop_
_atom_site_type_symbol
_atom_site_label
_atom_site_fract_x
_atom_site_fract_y
_atom_site_fract_z
Si Si1 0.113448 0.847306 0.817565
Si Si2 0.831333 0.000000 0.000000
Si Si3 0.889341 0.672837 0.813931
Si Si4 0.535527 0.306694 0.496969
Si Si5 0.000000 0.153182 0.750000
Si Si6 0.286452 0.532105 0.749088
O O1 0.169445 0.754980 0.760981
O O2 0.000000 0.867542 0.750000
O O3 0.083637 0.824078 0.949423
O O4 0.199214 0.931236 0.812243
O O5 0.901793 0.094522 0.018791
O O6 0.760020 0.983042 0.114928
O O7 0.908573 0.715672 0.942002
O O8 0.811931 0.582257 0.816660
O O9 0.000000 0.643794 0.750000
O O10 0.521259 0.282219 0.362351
O O11 0.102749 0.087362 0.771022
#
# Coordination Sequence:
#
# PCOD8157961 Si02
#       6
#     8   4   8   8   4   8
#     4   9  15  34  57  84 115 150 195 251 299 351
#     4  10  16  30  60  86 116 152 198 258 304 354
#     4   9  20  36  56  87 124 162 196 235 306 377
#     4   9  17  34  56  87 119 147 202 255 304 351
#     4  10  20  32  60  92 112 150 206 262 298 346
#     4  11  18  33  61  92 118 155 206 251 315 349
#
# _framework density 19.719667000000001
#
# number of rings (size 3 to 8) (size 9 to 14) (size 15 to 20)
#    0.000    2.800    5.000    1.200    0.000    0.000 
#   14.400    0.000    2.200    2.400    0.000    0.000 
#    0.000    0.000    0.000    0.000    0.000    0.000 
#
# Total GULP energy -247807.102820 kJ/mol
# GULP energy per Si atom -12390.355141 kJ/mol
# Density = 1.967478 g / cm^3
# Si number density = 19.719667 Si / 1000 Ang^3
#
#
#
# Elastic Constant Matrix: (Units=GPa)
#
#
# Indices 1 2 3 4 5 6 
#
# 1 63.2100 43.6873 18.6358 0.0000 0.0000 0.0000
# 2 43.6873 84.5687 30.1928 0.0000 0.0000 0.0000
# 3 18.6358 30.1928 125.3289 0.0000 0.0000 0.0000
# 4 0.0000 0.0000 0.0000 23.9907 0.0000 0.0000
# 5 0.0000 0.0000 0.0000 0.0000 16.4127 0.0000
# 6 0.0000 0.0000 0.0000 0.0000 0.0000 34.2826
#
#
#
# Elastic Compliance Matrix: (Units=1/GPa)
#
#
# Indices 1 2 3 4 5 6 
#
# 1 0.024654 -0.012503 -0.000654 0.000000 0.000000 0.000000
# 2 -0.012503 0.019278 -0.002785 0.000000 0.000000 0.000000
# 3 -0.000654 -0.002785 0.008747 0.000000 0.000000 0.000000
# 4 0.000000 0.000000 0.000000 0.041683 0.000000 0.000000
# 5 0.000000 0.000000 0.000000 0.000000 0.060928 0.000000
# 6 0.000000 0.000000 0.000000 0.000000 0.000000 0.029169
#
#
# Mechanical properties :
#
#
# Convention : Reuss Voigt Hill
#
# Bulk Modulus (GPa) = 48.08667 50.90438 49.49552
# Shear Modulus (GPa) = 22.39391 26.97666 24.68528
#
# Velocity S-wave (km/s) = 3.37354 3.70267 3.54193
# Velocity P-wave (km/s) = 6.29384 6.64453 6.47156
#
# Compressibility (1/GPa) = 0.02079578
#
# Stress axis : x y z
#
# Youngs Moduli (GPa) = 40.56099 51.87314 114.32228
#
# Poissons Ratio (x) = 0.64855 0.07476
# Poissons Ratio (y) = 0.50712 0.31840
# Poissons Ratio (z) = 0.02653 0.14447
#
# Static dielectric constant tensor:
#      x y z
#    x 3.121210 0.000000 0.000000 
#    y 0.000000 3.419230 0.000000 
#    z 0.000000 0.000000 3.969950 
# 
# 
# High freq. dielectric constant tensor:
#      x y z
#    x 1.720950 0.000000 0.000000 
#    y 0.000000 1.748210 0.000000 
#    z 0.000000 0.000000 1.776250 
# 
# From -- ./inp_files/13902.got.cif
#   From: 2010.03.12/outbox.cif.g09.slc.cpg/sg20_7_cif.got.tgz:13902.got - 2010.04.14 01:38:04.
