data_PCOD8157849
_publ_section_title
;
Structure prediction by ZEFSAII (Michael W. Deem and Ramdas Pophale) SiO2 
 PCOD8157849
Probable space group: P 21 21 21
;
_chemical_formula_sum "Si O2"
_cell_formula_units_Z 20
_cell_length_a 11.070379
_cell_length_b 6.137979
_cell_length_c 11.183258
_cell_angle_alpha 90.000000
_cell_angle_beta 90.000000
_cell_angle_gamma 90.000000
_cell_volume 759.899628
_symmetry_space_group_name_H-M "P 21 21 21"
_symmetry_group_IT_number 19
_symmetry_cell_setting 'orthorhombic'
loop_
_space_group_symop_operation_xyz
x,y,z
1/2-x,-y,1/2+z
1/2+x,1/2-y,-z
-x,1/2+y,1/2-z
loop_
_atom_site_type_symbol
_atom_site_label
_atom_site_fract_x
_atom_site_fract_y
_atom_site_fract_z
Si Si1 0.066679 0.457230 0.570392
Si Si2 0.889473 0.292863 0.754610
Si Si3 0.295395 0.515068 0.442394
Si Si4 0.310656 0.109746 0.803952
Si Si5 0.968649 0.166403 0.385777
O O1 0.075223 0.711531 0.611510
O O2 0.198741 0.383090 0.525286
O O3 0.017443 0.336524 0.689288
O O4 0.978101 0.396511 0.459825
O O5 0.802621 0.502504 0.765640
O O6 0.816713 0.107387 0.682427
O O7 0.245857 0.757914 0.416060
O O8 0.414414 0.518807 0.525843
O O9 0.382500 0.287318 0.725893
O O10 0.401470 0.919645 0.844474
#
# Coordination Sequence:
#
# PCOD8157849 Si02
#       5
#     4   4   4   4   4
#     4  11  26  49  76 114 155 207 264 323 396 462
#     4  11  28  48  76 116 160 206 266 330 390 482
#     4  11  26  49  77 112 157 208 264 326 402 468
#     4  12  27  52  80 116 159 212 267 331 395 485
#     4  11  27  50  81 116 161 213 265 332 399 467
#
# _framework density 26.319265999999999
#
# number of rings (size 3 to 8) (size 9 to 14) (size 15 to 20)
#    0.000    0.800    2.000    2.400   11.200    4.800 
#    0.000    0.000    0.000    0.000    0.000    0.000 
#    0.000    0.000    0.000    0.000    0.000    0.000 
#
# Total GULP energy -247813.610658 kJ/mol
# GULP energy per Si atom -12390.680533 kJ/mol
# Density = 2.625936 g / cm^3
# Si number density = 26.319266 Si / 1000 Ang^3
#
#
#
# Elastic Constant Matrix: (Units=GPa)
#
#
# Indices 1 2 3 4 5 6 
#
# 1 119.1032 66.5504 51.4370 0.0000 0.0000 0.0000
# 2 66.5504 111.2446 58.7605 0.0000 0.0000 0.0000
# 3 51.4370 58.7605 87.7798 0.0000 0.0000 0.0000
# 4 0.0000 0.0000 0.0000 44.7017 0.0000 0.0000
# 5 0.0000 0.0000 0.0000 0.0000 39.3357 0.0000
# 6 0.0000 0.0000 0.0000 0.0000 0.0000 57.4863
#
#
#
# Elastic Compliance Matrix: (Units=1/GPa)
#
#
# Indices 1 2 3 4 5 6 
#
# 1 0.013402 -0.005986 -0.003846 0.000000 0.000000 0.000000
# 2 -0.005986 0.016580 -0.007591 0.000000 0.000000 0.000000
# 3 -0.003846 -0.007591 0.018727 0.000000 0.000000 0.000000
# 4 0.000000 0.000000 0.000000 0.022371 0.000000 0.000000
# 5 0.000000 0.000000 0.000000 0.000000 0.025422 0.000000
# 6 0.000000 0.000000 0.000000 0.000000 0.000000 0.017395
#
#
# Mechanical properties :
#
#
# Convention : Reuss Voigt Hill
#
# Bulk Modulus (GPa) = 72.13529 74.62483 73.38006
# Shear Modulus (GPa) = 32.60208 37.73005 35.16606
#
# Velocity S-wave (km/s) = 3.52336 3.79034 3.65928
# Velocity P-wave (km/s) = 6.63471 6.89716 6.76720
#
# Compressibility (1/GPa) = 0.01386284
#
# Stress axis : x y z
#
# Youngs Moduli (GPa) = 74.61696 60.31424 53.39750
#
# Poissons Ratio (x) = 0.36103 0.20538
# Poissons Ratio (y) = 0.44664 0.40535
# Poissons Ratio (z) = 0.28699 0.45785
#
# Static dielectric constant tensor:
#      x y z
#    x 4.964420 0.000000 0.000000 
#    y 0.000000 4.481410 0.000000 
#    z 0.000000 0.000000 4.733930 
# 
# 
# High freq. dielectric constant tensor:
#      x y z
#    x 2.073810 0.000000 0.000000 
#    y 0.000000 2.033750 0.000000 
#    z 0.000000 0.000000 2.052780 
# 
# From -- ./inp_files/4874.got.cif
#   From: 2010.03.12/outbox.cif.g09.slc.cpg/sg19_3_cif.got.tgz:4874.got - 2010.04.10 18:59:41.
