data_PCOD8157345
_publ_section_title
;
Structure prediction by ZEFSAII (Michael W. Deem and Ramdas Pophale) SiO2 
 PCOD8157345
Probable space group: P 21 21 21
;
_chemical_formula_sum "Si O2"
_cell_formula_units_Z 32
_cell_length_a 10.782862
_cell_length_b 21.967467
_cell_length_c 5.961416
_cell_angle_alpha 90.000000
_cell_angle_beta 90.000000
_cell_angle_gamma 90.000000
_cell_volume 1412.093515
_symmetry_space_group_name_H-M "P 21 21 21"
_symmetry_group_IT_number 19
_symmetry_cell_setting 'orthorhombic'
loop_
_space_group_symop_operation_xyz
x,y,z
1/2-x,-y,1/2+z
1/2+x,1/2-y,-z
-x,1/2+y,1/2-z
loop_
_atom_site_type_symbol
_atom_site_label
_atom_site_fract_x
_atom_site_fract_y
_atom_site_fract_z
Si Si1 0.929292 0.959796 0.734322
Si Si2 0.213640 0.972696 0.686338
Si Si3 0.788361 0.654845 0.421195
Si Si4 0.446300 0.318690 0.034668
Si Si5 0.854730 0.862167 0.061786
Si Si6 0.710717 0.930303 0.411301
Si Si7 0.925166 0.303809 0.221686
Si Si8 0.296526 0.252837 0.393633
O O1 0.831872 0.955390 0.533510
O O2 0.066566 0.971110 0.645429
O O3 0.928796 0.895721 0.866355
O O4 0.889157 0.015845 0.892260
O O5 0.277763 0.907101 0.720163
O O6 0.261613 0.997046 0.436319
O O7 0.914702 0.655411 0.565867
O O8 0.665530 0.656294 0.571624
O O9 0.793032 0.715880 0.272835
O O10 0.403090 0.291354 0.270200
O O11 0.355265 0.374016 0.958430
O O12 0.442925 0.265811 0.851565
O O13 0.752407 0.907337 0.165656
O O14 0.788952 0.800638 0.967684
O O15 0.947655 0.841487 0.261619
O O16 0.862676 0.298963 0.463840
#
# Coordination Sequence:
#
# PCOD8157345 Si02
#       8
#     4   4   4   4   4   4   4   4
#     4  12  25  46  76 103 150 194 263 320 387 471
#     4  12  31  53  79 114 156 213 267 324 392 473
#     4  11  24  45  71 102 147 196 250 317 391 466
#     4  10  23  43  65 103 145 183 246 313 387 464
#     4  11  23  43  68 106 141 192 243 311 382 467
#     4  11  24  44  70 106 141 192 246 319 388 450
#     4  11  23  41  70  99 140 187 240 308 384 463
#     4  10  23  41  67 105 140 187 245 310 389 456
#
# _framework density 22.661390000000001
#
# number of rings (size 3 to 8) (size 9 to 14) (size 15 to 20)
#    0.000    1.000    2.500    3.000    7.000    2.000 
#    4.500    0.000    0.000    0.000    0.000    0.000 
#    0.000    0.000    0.000    0.000    0.000    0.000 
#
# Total GULP energy -396585.008591 kJ/mol
# GULP energy per Si atom -12393.281518 kJ/mol
# Density = 2.260981 g / cm^3
# Si number density = 22.661390 Si / 1000 Ang^3
#
#
#
# Elastic Constant Matrix: (Units=GPa)
#
#
# Indices 1 2 3 4 5 6 
#
# 1 104.3743 43.6918 7.6820 0.0000 0.0000 0.0000
# 2 43.6918 111.2467 30.2680 0.0000 0.0000 0.0000
# 3 7.6820 30.2680 68.8962 0.0000 0.0000 0.0000
# 4 0.0000 0.0000 0.0000 22.8639 0.0000 0.0000
# 5 0.0000 0.0000 0.0000 0.0000 28.5628 0.0000
# 6 0.0000 0.0000 0.0000 0.0000 0.0000 40.8992
#
#
#
# Elastic Compliance Matrix: (Units=1/GPa)
#
#
# Indices 1 2 3 4 5 6 
#
# 1 0.011504 -0.004735 0.000798 0.000000 0.000000 0.000000
# 2 -0.004735 0.012158 -0.004814 0.000000 0.000000 0.000000
# 3 0.000798 -0.004814 0.016540 0.000000 0.000000 0.000000
# 4 0.000000 0.000000 0.000000 0.043737 0.000000 0.000000
# 5 0.000000 0.000000 0.000000 0.000000 0.035011 0.000000
# 6 0.000000 0.000000 0.000000 0.000000 0.000000 0.024450
#
#
# Mechanical properties :
#
#
# Convention : Reuss Voigt Hill
#
# Bulk Modulus (GPa) = 44.05150 49.75568 46.90359
# Shear Modulus (GPa) = 29.67873 31.99022 30.83447
#
# Velocity S-wave (km/s) = 3.62285 3.76128 3.69272
# Velocity P-wave (km/s) = 6.08122 6.39272 6.23891
#
# Compressibility (1/GPa) = 0.02270070
#
# Stress axis : x y z
#
# Youngs Moduli (GPa) = 86.92293 82.24699 60.45810
#
# Poissons Ratio (x) = 0.38947 -0.04822
# Poissons Ratio (y) = 0.41161 0.29102
# Poissons Ratio (z) = -0.06933 0.39590
#
# Static dielectric constant tensor:
#      x y z
#    x 4.105270 0.000000 0.000000 
#    y 0.000000 4.327770 0.000000 
#    z 0.000000 0.000000 3.851870 
# 
# 
# High freq. dielectric constant tensor:
#      x y z
#    x 1.904520 0.000000 0.000000 
#    y 0.000000 1.911520 0.000000 
#    z 0.000000 0.000000 1.870630 
# 
# From -- ./inp_files/1170.got.cif
#   From: 2010.03.12/outbox.cif.g09.slc.cpg/sg19_1_cif.got.tgz:1170.got - 2010.04.10 18:59:41.
