data_PCOD8157513
_publ_section_title
;
Structure prediction by ZEFSAII (Michael W. Deem and Ramdas Pophale) SiO2 
 PCOD8157513
Probable space group: P 21 21 21
;
_chemical_formula_sum "Si O2"
_cell_formula_units_Z 20
_cell_length_a 9.204445
_cell_length_b 18.361176
_cell_length_c 5.116826
_cell_angle_alpha 90.000000
_cell_angle_beta 90.000000
_cell_angle_gamma 90.000000
_cell_volume 864.766285
_symmetry_space_group_name_H-M "P 21 21 21"
_symmetry_group_IT_number 19
_symmetry_cell_setting 'orthorhombic'
loop_
_space_group_symop_operation_xyz
x,y,z
1/2-x,-y,1/2+z
1/2+x,1/2-y,-z
-x,1/2+y,1/2-z
loop_
_atom_site_type_symbol
_atom_site_label
_atom_site_fract_x
_atom_site_fract_y
_atom_site_fract_z
Si Si1 0.036874 0.442296 0.062638
Si Si2 0.061258 0.096829 0.366861
Si Si3 0.868287 0.213454 0.536853
Si Si4 0.108119 0.880807 0.925747
Si Si5 0.186230 0.637250 0.460938
O O1 0.005975 0.525962 0.989115
O O2 0.964202 0.427392 0.343810
O O3 0.210150 0.428538 0.055557
O O4 0.977188 0.387643 0.843990
O O5 0.232931 0.088693 0.352182
O O6 0.022900 0.169968 0.531505
O O7 0.977683 0.104569 0.083954
O O8 0.890998 0.297769 0.480249
O O9 0.801529 0.200635 0.822142
O O10 0.765769 0.176804 0.311846
#
# Coordination Sequence:
#
# PCOD8157513 Si02
#       5
#     4   4   4   4   4
#     4  12  27  44  73 106 146 186 239 297 364 429
#     4  10  28  44  75 100 150 183 243 287 365 424
#     4  10  25  43  72 100 139 187 240 290 348 425
#     4  12  27  45  71 105 149 185 240 298 369 421
#     4  10  25  42  73  97 140 181 244 284 354 417
#
# _framework density 23.127635999999999
#
# number of rings (size 3 to 8) (size 9 to 14) (size 15 to 20)
#    1.200    0.000    0.000    3.600   14.000    0.000 
#    0.000    0.000    0.000    0.000    0.000    0.000 
#    0.000    0.000    0.000    0.000    0.000    0.000 
#
# Total GULP energy -247848.862882 kJ/mol
# GULP energy per Si atom -12392.443144 kJ/mol
# Density = 2.307500 g / cm^3
# Si number density = 23.127636 Si / 1000 Ang^3
#
#
#
# Elastic Constant Matrix: (Units=GPa)
#
#
# Indices 1 2 3 4 5 6 
#
# 1 100.0170 5.9763 37.8153 0.0000 0.0000 0.0000
# 2 5.9763 89.3492 7.9598 0.0000 0.0000 0.0000
# 3 37.8153 7.9598 132.9108 0.0000 0.0000 0.0000
# 4 0.0000 0.0000 0.0000 27.3969 0.0000 0.0000
# 5 0.0000 0.0000 0.0000 0.0000 28.2470 0.0000
# 6 0.0000 0.0000 0.0000 0.0000 0.0000 28.8360
#
#
#
# Elastic Compliance Matrix: (Units=1/GPa)
#
#
# Indices 1 2 3 4 5 6 
#
# 1 0.011223 -0.000469 -0.003165 0.000000 0.000000 0.000000
# 2 -0.000469 0.011272 -0.000542 0.000000 0.000000 0.000000
# 3 -0.003165 -0.000542 0.008457 0.000000 0.000000 0.000000
# 4 0.000000 0.000000 0.000000 0.036501 0.000000 0.000000
# 5 0.000000 0.000000 0.000000 0.000000 0.035402 0.000000
# 6 0.000000 0.000000 0.000000 0.000000 0.000000 0.034679
#
#
# Mechanical properties :
#
#
# Convention : Reuss Voigt Hill
#
# Bulk Modulus (GPa) = 44.24677 47.30889 45.77783
# Shear Modulus (GPa) = 32.59087 34.93101 33.76094
#
# Velocity S-wave (km/s) = 3.75797 3.89055 3.82483
# Velocity P-wave (km/s) = 6.16465 6.37823 6.27235
#
# Compressibility (1/GPa) = 0.02260052
#
# Stress axis : x y z
#
# Youngs Moduli (GPa) = 89.10292 88.71816 118.24817
#
# Poissons Ratio (x) = 0.04158 0.37426
# Poissons Ratio (y) = 0.04176 0.06405
# Poissons Ratio (z) = 0.28202 0.04806
#
# Static dielectric constant tensor:
#      x y z
#    x 4.112930 0.000000 0.000000 
#    y 0.000000 3.977190 0.000000 
#    z 0.000000 0.000000 4.007380 
# 
# 
# High freq. dielectric constant tensor:
#      x y z
#    x 1.902440 0.000000 0.000000 
#    y 0.000000 1.916660 0.000000 
#    z 0.000000 0.000000 1.913290 
# 
# From -- ./inp_files/352.got.cif
#   From: 2010.03.12/outbox.cif.g09.slc.cpg/sg19_1_cif.got.tgz:352.got - 2010.04.10 18:59:41.
