data_PCOD8157142
_publ_section_title
;
Structure prediction by ZEFSAII (Michael W. Deem and Ramdas Pophale) SiO2 
 PCOD8157142
Probable space group: P 21 21 21
;
_chemical_formula_sum "Si O2"
_cell_formula_units_Z 20
_cell_length_a 7.980699
_cell_length_b 8.928614
_cell_length_c 12.997340
_cell_angle_alpha 90.000000
_cell_angle_beta 90.000000
_cell_angle_gamma 90.000000
_cell_volume 926.146008
_symmetry_space_group_name_H-M "P 21 21 21"
_symmetry_group_IT_number 19
_symmetry_cell_setting 'orthorhombic'
loop_
_space_group_symop_operation_xyz
x,y,z
1/2-x,-y,1/2+z
1/2+x,1/2-y,-z
-x,1/2+y,1/2-z
loop_
_atom_site_type_symbol
_atom_site_label
_atom_site_fract_x
_atom_site_fract_y
_atom_site_fract_z
Si Si1 0.936000 0.545138 0.929080
Si Si2 0.729763 0.226322 0.565977
Si Si3 0.270327 0.955824 0.752544
Si Si4 0.980652 0.056856 0.069812
Si Si5 0.723652 0.667340 0.567983
O O1 0.898555 0.493723 0.812352
O O2 0.109597 0.624420 0.947363
O O3 0.787109 0.654604 0.972689
O O4 0.928818 0.396611 0.998520
O O5 0.748438 0.310700 0.675011
O O6 0.568610 0.117149 0.558973
O O7 0.422859 0.920446 0.676681
O O8 0.302969 0.104495 0.817808
O O9 0.807803 0.154061 0.072216
O O10 0.096259 0.114968 0.975799
#
# Coordination Sequence:
#
# PCOD8157142 Si02
#       5
#     4   4   4   4   4
#     4  10  22  40  60  87 120 156 199 244 295 353
#     4  11  22  40  64  87 119 162 199 244 297 354
#     4  10  22  39  59  87 120 156 200 244 294 355
#     4  11  22  39  61  88 119 157 199 246 299 353
#     4  10  22  40  60  89 122 155 197 248 297 353
#
# _framework density 21.594867000000001
#
# number of rings (size 3 to 8) (size 9 to 14) (size 15 to 20)
#    0.000    1.600    0.000    6.000    0.000    6.400 
#    0.000   10.000    0.000    0.000    0.000    0.000 
#    0.000    0.000    0.000    0.000    0.000    0.000 
#
# Total GULP energy -247907.207139 kJ/mol
# GULP energy per Si atom -12395.360357 kJ/mol
# Density = 2.154572 g / cm^3
# Si number density = 21.594867 Si / 1000 Ang^3
#
#
#
# Elastic Constant Matrix: (Units=GPa)
#
#
# Indices 1 2 3 4 5 6 
#
# 1 63.7968 6.6323 7.1441 0.0000 0.0000 0.0000
# 2 6.6323 90.7321 15.0740 0.0000 0.0000 0.0000
# 3 7.1441 15.0740 101.6093 0.0000 0.0000 0.0000
# 4 0.0000 0.0000 0.0000 29.4104 0.0000 0.0000
# 5 0.0000 0.0000 0.0000 0.0000 17.2800 0.0000
# 6 0.0000 0.0000 0.0000 0.0000 0.0000 45.3269
#
#
#
# Elastic Compliance Matrix: (Units=1/GPa)
#
#
# Indices 1 2 3 4 5 6 
#
# 1 0.015887 -0.001000 -0.000969 0.000000 0.000000 0.000000
# 2 -0.001000 0.011363 -0.001615 0.000000 0.000000 0.000000
# 3 -0.000969 -0.001615 0.010149 0.000000 0.000000 0.000000
# 4 0.000000 0.000000 0.000000 0.034002 0.000000 0.000000
# 5 0.000000 0.000000 0.000000 0.000000 0.057870 0.000000
# 6 0.000000 0.000000 0.000000 0.000000 0.000000 0.022062
#
#
# Mechanical properties :
#
#
# Convention : Reuss Voigt Hill
#
# Bulk Modulus (GPa) = 33.07888 34.87100 33.97494
# Shear Modulus (GPa) = 29.65962 33.55596 31.60779
#
# Velocity S-wave (km/s) = 3.71004 3.94621 3.82995
# Velocity P-wave (km/s) = 5.80549 6.07835 5.94349
#
# Compressibility (1/GPa) = 0.03023077
#
# Stress axis : x y z
#
# Youngs Moduli (GPa) = 62.94366 88.00523 98.52826
#
# Poissons Ratio (x) = 0.08804 0.09544
# Poissons Ratio (y) = 0.06297 0.15916
# Poissons Ratio (z) = 0.06097 0.14216
#
# Static dielectric constant tensor:
#      x y z
#    x 3.688330 0.000000 0.000000 
#    y 0.000000 4.152520 0.000000 
#    z 0.000000 0.000000 3.862150 
# 
# 
# High freq. dielectric constant tensor:
#      x y z
#    x 1.841930 0.000000 0.000000 
#    y 0.000000 1.866750 0.000000 
#    z 0.000000 0.000000 1.842690 
# 
# From -- ./inp_files/2582.got.cif
#   From: 2010.03.12/outbox.cif.g09.slc.cpg/sg19_2_cif.got.tgz:2582.got - 2010.04.10 18:59:41.
