data_PCOD8157582
_publ_section_title
;
Structure prediction by ZEFSAII (Michael W. Deem and Ramdas Pophale) SiO2 
 PCOD8157582
Probable space group: P 21 21 21
;
_chemical_formula_sum "Si O2"
_cell_formula_units_Z 24
_cell_length_a 12.296192
_cell_length_b 15.105182
_cell_length_c 5.165466
_cell_angle_alpha 90.000000
_cell_angle_beta 90.000000
_cell_angle_gamma 90.000000
_cell_volume 959.414119
_symmetry_space_group_name_H-M "P 21 21 21"
_symmetry_group_IT_number 19
_symmetry_cell_setting 'orthorhombic'
loop_
_space_group_symop_operation_xyz
x,y,z
1/2-x,-y,1/2+z
1/2+x,1/2-y,-z
-x,1/2+y,1/2-z
loop_
_atom_site_type_symbol
_atom_site_label
_atom_site_fract_x
_atom_site_fract_y
_atom_site_fract_z
Si Si1 0.678667 0.507273 0.707889
Si Si2 0.917666 0.767690 0.702359
Si Si3 0.296204 0.359203 0.749437
Si Si4 0.630719 0.997117 0.420675
Si Si5 0.494540 0.630732 0.798628
Si Si6 0.000704 0.101933 0.548363
O O1 0.738555 0.480773 0.971366
O O2 0.618836 0.602460 0.745481
O O3 0.593847 0.427696 0.651219
O O4 0.786018 0.777063 0.732505
O O5 0.944799 0.664832 0.733700
O O6 0.951773 0.803007 0.420888
O O7 0.979153 0.824809 0.920295
O O8 0.235581 0.444914 0.635094
O O9 0.334189 0.394539 0.030927
O O10 0.404845 0.339140 0.585313
O O11 0.544770 0.988199 0.184059
O O12 0.573209 0.038187 0.678203
#
# Coordination Sequence:
#
# PCOD8157582 Si02
#       6
#     4   4   4   4   4   4
#     4  12  26  46  73 101 141 199 251 294 350 438
#     4  11  28  44  71 111 152 183 227 309 387 423
#     4  11  22  41  76 106 140 190 244 302 360 433
#     4  11  21  43  78 106 137 187 260 301 347 434
#     4  11  24  48  71 105 144 190 249 297 358 435
#     4  12  27  46  71 113 146 191 243 309 366 437
#
# _framework density 25.015267999999999
#
# number of rings (size 3 to 8) (size 9 to 14) (size 15 to 20)
#    0.000    0.667    3.333    5.000    4.667    2.667 
#    0.000    0.000    0.000    0.000    0.000    0.000 
#    0.000    0.000    0.000    0.000    0.000    0.000 
#
# Total GULP energy -297517.720803 kJ/mol
# GULP energy per Si atom -12396.571700 kJ/mol
# Density = 2.495833 g / cm^3
# Si number density = 25.015268 Si / 1000 Ang^3
#
#
#
# Elastic Constant Matrix: (Units=GPa)
#
#
# Indices 1 2 3 4 5 6 
#
# 1 109.0133 18.5106 13.7143 0.0000 0.0000 0.0000
# 2 18.5106 28.9538 -8.3402 0.0000 0.0000 0.0000
# 3 13.7143 -8.3402 87.3959 0.0000 0.0000 0.0000
# 4 0.0000 0.0000 0.0000 28.0973 0.0000 0.0000
# 5 0.0000 0.0000 0.0000 0.0000 43.2865 0.0000
# 6 0.0000 0.0000 0.0000 0.0000 0.0000 36.1935
#
#
#
# Elastic Compliance Matrix: (Units=1/GPa)
#
#
# Indices 1 2 3 4 5 6 
#
# 1 0.010763 -0.007576 -0.002412 0.000000 0.000000 0.000000
# 2 -0.007576 0.040846 0.005087 0.000000 0.000000 0.000000
# 3 -0.002412 0.005087 0.012306 0.000000 0.000000 0.000000
# 4 0.000000 0.000000 0.000000 0.035591 0.000000 0.000000
# 5 0.000000 0.000000 0.000000 0.000000 0.023102 0.000000
# 6 0.000000 0.000000 0.000000 0.000000 0.000000 0.027629
#
#
# Mechanical properties :
#
#
# Convention : Reuss Voigt Hill
#
# Bulk Modulus (GPa) = 18.47959 30.34804 24.41382
# Shear Modulus (GPa) = 28.07778 34.94734 31.51256
#
# Velocity S-wave (km/s) = 3.35390 3.74176 3.55312
# Velocity P-wave (km/s) = 4.73303 5.55210 5.15884
#
# Compressibility (1/GPa) = 0.05411375
#
# Stress axis : x y z
#
# Youngs Moduli (GPa) = 92.91109 24.48201 81.26056
#
# Poissons Ratio (x) = 0.18547 0.19599
# Poissons Ratio (y) = 0.70387 -0.41335
# Poissons Ratio (z) = 0.22409 -0.12453
#
# Static dielectric constant tensor:
#      x y z
#    x 4.878220 0.000000 0.000000 
#    y 0.000000 4.320710 0.000000 
#    z 0.000000 0.000000 4.552320 
# 
# 
# High freq. dielectric constant tensor:
#      x y z
#    x 2.009890 0.000000 0.000000 
#    y 0.000000 1.974670 0.000000 
#    z 0.000000 0.000000 2.006700 
# 
# From -- ./inp_files/987.got.cif
#   From: 2010.03.12/outbox.cif.g09.slc.cpg/sg19_1_cif.got.tgz:987.got - 2010.04.10 18:59:41.
