data_PCOD8157274
_publ_section_title
;
Structure prediction by ZEFSAII (Michael W. Deem and Ramdas Pophale) SiO2 
 PCOD8157274
Probable space group: P 21 21 21
;
_chemical_formula_sum "Si O2"
_cell_formula_units_Z 32
_cell_length_a 8.908923
_cell_length_b 19.190248
_cell_length_c 8.865399
_cell_angle_alpha 90.000000
_cell_angle_beta 90.000000
_cell_angle_gamma 90.000000
_cell_volume 1515.667991
_symmetry_space_group_name_H-M "P 21 21 21"
_symmetry_group_IT_number 19
_symmetry_cell_setting 'orthorhombic'
loop_
_space_group_symop_operation_xyz
x,y,z
1/2-x,-y,1/2+z
1/2+x,1/2-y,-z
-x,1/2+y,1/2-z
loop_
_atom_site_type_symbol
_atom_site_label
_atom_site_fract_x
_atom_site_fract_y
_atom_site_fract_z
Si Si1 0.043900 0.638821 0.786209
Si Si2 0.579366 0.745511 0.680206
Si Si3 0.409833 0.513288 0.332769
Si Si4 0.887503 0.769521 0.822304
Si Si5 0.083663 0.852350 0.597208
Si Si6 0.930120 0.625691 0.451328
Si Si7 0.903486 0.989485 0.025541
Si Si8 0.368536 0.659713 0.877746
O O1 0.020830 0.563600 0.863939
O O2 0.222012 0.655410 0.771199
O O3 0.961636 0.697906 0.885119
O O4 0.967333 0.644000 0.623371
O O5 0.756927 0.749635 0.705221
O O6 0.535476 0.693902 0.544754
O O7 0.529331 0.824525 0.653141
O O8 0.493882 0.713218 0.822682
O O9 0.516098 0.570114 0.410198
O O10 0.252114 0.521287 0.416147
O O11 0.392965 0.522815 0.153534
O O12 0.020802 0.813786 0.744871
O O13 0.816086 0.813541 0.957969
O O14 0.261386 0.860289 0.599462
O O15 0.968462 0.544333 0.426065
O O16 0.941686 0.916954 0.107538
#
# Coordination Sequence:
#
# PCOD8157274 Si02
#       8
#     4   4   4   4   4   4   4   4
#     4  10  22  43  66  95 133 175 225 276 333 411
#     4  12  25  40  70 103 129 184 225 284 343 408
#     4  10  23  41  71  92 136 176 224 279 342 411
#     4  12  23  44  67  98 142 170 231 275 353 410
#     4  12  23  42  68  98 133 177 226 284 337 414
#     4  11  24  42  68  97 129 177 230 277 332 404
#     4  10  23  45  66  99 132 178 226 280 344 419
#     4  11  25  43  68  98 138 179 221 289 350 407
#
# _framework density 21.112801999999999
#
# number of rings (size 3 to 8) (size 9 to 14) (size 15 to 20)
#    0.000    1.000    3.750    2.250    7.000    1.000 
#    0.000    0.000    0.000    0.000    0.000    0.000 
#    0.000    0.000    0.000    0.000    0.000    0.000 
#
# Total GULP energy -396812.103462 kJ/mol
# GULP energy per Si atom -12400.378233 kJ/mol
# Density = 2.106475 g / cm^3
# Si number density = 21.112802 Si / 1000 Ang^3
#
#
#
# Elastic Constant Matrix: (Units=GPa)
#
#
# Indices 1 2 3 4 5 6 
#
# 1 100.0653 40.6746 26.7844 0.0000 0.0000 0.0000
# 2 40.6746 131.6843 27.8561 0.0000 0.0000 0.0000
# 3 26.7844 27.8561 54.6099 0.0000 0.0000 0.0000
# 4 0.0000 0.0000 0.0000 31.6607 0.0000 0.0000
# 5 0.0000 0.0000 0.0000 0.0000 29.4508 0.0000
# 6 0.0000 0.0000 0.0000 0.0000 0.0000 39.9885
#
#
#
# Elastic Compliance Matrix: (Units=1/GPa)
#
#
# Indices 1 2 3 4 5 6 
#
# 1 0.012389 -0.002849 -0.004623 0.000000 0.000000 0.000000
# 2 -0.002849 0.009167 -0.003279 0.000000 0.000000 0.000000
# 3 -0.004623 -0.003279 0.022252 0.000000 0.000000 0.000000
# 4 0.000000 0.000000 0.000000 0.031585 0.000000 0.000000
# 5 0.000000 0.000000 0.000000 0.000000 0.033955 0.000000
# 6 0.000000 0.000000 0.000000 0.000000 0.000000 0.025007
#
#
# Mechanical properties :
#
#
# Convention : Reuss Voigt Hill
#
# Bulk Modulus (GPa) = 44.83053 52.99883 48.91468
# Shear Modulus (GPa) = 30.61986 32.95630 31.78808
#
# Velocity S-wave (km/s) = 3.81241 3.95519 3.88446
# Velocity P-wave (km/s) = 6.37646 6.78345 6.58310
#
# Compressibility (1/GPa) = 0.02230623
#
# Stress axis : x y z
#
# Youngs Moduli (GPa) = 80.71730 109.08137 44.94004
#
# Poissons Ratio (x) = 0.31074 0.20777
# Poissons Ratio (y) = 0.22994 0.14736
# Poissons Ratio (z) = 0.37318 0.35768
#
# Static dielectric constant tensor:
#      x y z
#    x 3.662920 0.000000 0.000000 
#    y 0.000000 4.243070 0.000000 
#    z 0.000000 0.000000 3.636840 
# 
# 
# High freq. dielectric constant tensor:
#      x y z
#    x 1.820930 0.000000 0.000000 
#    y 0.000000 1.853990 0.000000 
#    z 0.000000 0.000000 1.814780 
# 
# From -- ./inp_files/3128.got.cif
#   From: 2010.03.12/outbox.cif.g09.slc.cpg/sg19_2_cif.got.tgz:3128.got - 2010.04.10 18:59:41.
