data_PCOD8157605
_publ_section_title
;
Structure prediction by ZEFSAII (Michael W. Deem and Ramdas Pophale) SiO2 
 PCOD8157605
Probable space group: P 21 21 21
;
_chemical_formula_sum "Si O2"
_cell_formula_units_Z 32
_cell_length_a 7.973189
_cell_length_b 14.252702
_cell_length_c 13.066242
_cell_angle_alpha 90.000000
_cell_angle_beta 90.000000
_cell_angle_gamma 90.000000
_cell_volume 1484.841035
_symmetry_space_group_name_H-M "P 21 21 21"
_symmetry_group_IT_number 19
_symmetry_cell_setting 'orthorhombic'
loop_
_space_group_symop_operation_xyz
x,y,z
1/2-x,-y,1/2+z
1/2+x,1/2-y,-z
-x,1/2+y,1/2-z
loop_
_atom_site_type_symbol
_atom_site_label
_atom_site_fract_x
_atom_site_fract_y
_atom_site_fract_z
Si Si1 0.089894 0.810677 0.249762
Si Si2 0.002307 0.998238 0.164650
Si Si3 0.307846 0.387589 0.680581
Si Si4 0.993212 0.958133 0.700020
Si Si5 0.227034 0.335034 0.106494
Si Si6 0.892088 0.605446 0.647563
Si Si7 0.739955 0.372444 0.933905
Si Si8 0.211589 0.513051 0.977349
O O1 0.098765 0.899184 0.172876
O O2 0.097092 0.710648 0.194129
O O3 0.258766 0.815332 0.317644
O O4 0.910485 0.820788 0.305093
O O5 0.119737 0.089223 0.155272
O O6 0.896965 0.022294 0.266957
O O7 0.902539 0.993001 0.058246
O O8 0.122041 0.389626 0.730386
O O9 0.306709 0.403169 0.558603
O O10 0.892371 0.031715 0.627122
O O11 0.079197 0.894703 0.612810
O O12 0.114968 0.016153 0.775776
O O13 0.415004 0.358401 0.147264
O O14 0.228966 0.238014 0.044052
O O15 0.162651 0.414499 0.029961
O O16 0.816390 0.573897 0.537682
#
# Coordination Sequence:
#
# PCOD8157605 Si02
#       8
#     4   4   4   4   4   4   4   4
#     4  12  25  44  72 101 138 188 234 288 354 428
#     4  11  22  43  66  99 140 178 231 287 348 415
#     4  11  23  45  70  99 139 186 236 293 352 416
#     4  11  24  45  70 101 142 189 233 293 362 421
#     4  12  24  42  69 109 135 178 240 296 357 409
#     4  12  26  45  70 104 144 178 233 303 348 423
#     4  12  25  39  69 103 137 178 231 292 353 416
#     4  11  23  43  72  94 141 191 226 290 356 418
#
# _framework density 21.551130000000001
#
# number of rings (size 3 to 8) (size 9 to 14) (size 15 to 20)
#    0.000    0.500    6.250    2.250    7.000    0.000 
#    2.250    0.000    0.000    0.000    0.000    0.000 
#    0.000    0.000    0.000    0.000    0.000    0.000 
#
# Total GULP energy -396470.671607 kJ/mol
# GULP energy per Si atom -12389.708488 kJ/mol
# Density = 2.150208 g / cm^3
# Si number density = 21.551130 Si / 1000 Ang^3
#
#
#
# Elastic Constant Matrix: (Units=GPa)
#
#
# Indices 1 2 3 4 5 6 
#
# 1 62.7790 18.2986 6.8055 0.0000 0.0000 0.0000
# 2 18.2986 108.2889 28.3832 0.0000 0.0000 0.0000
# 3 6.8055 28.3832 76.8459 0.0000 0.0000 0.0000
# 4 0.0000 0.0000 0.0000 27.3040 0.0000 0.0000
# 5 0.0000 0.0000 0.0000 0.0000 35.4925 0.0000
# 6 0.0000 0.0000 0.0000 0.0000 0.0000 28.5126
#
#
#
# Elastic Compliance Matrix: (Units=1/GPa)
#
#
# Indices 1 2 3 4 5 6 
#
# 1 0.016770 -0.002707 -0.000486 0.000000 0.000000 0.000000
# 2 -0.002707 0.010661 -0.003698 0.000000 0.000000 0.000000
# 3 -0.000486 -0.003698 0.014422 0.000000 0.000000 0.000000
# 4 0.000000 0.000000 0.000000 0.036625 0.000000 0.000000
# 5 0.000000 0.000000 0.000000 0.000000 0.028175 0.000000
# 6 0.000000 0.000000 0.000000 0.000000 0.000000 0.035072
#
#
# Mechanical properties :
#
#
# Convention : Reuss Voigt Hill
#
# Bulk Modulus (GPa) = 35.62108 39.43204 37.52656
# Shear Modulus (GPa) = 30.32813 31.22359 30.77586
#
# Velocity S-wave (km/s) = 3.75542 3.81046 3.78304
# Velocity P-wave (km/s) = 5.94717 6.13972 6.04421
#
# Compressibility (1/GPa) = 0.02807326
#
# Stress axis : x y z
#
# Youngs Moduli (GPa) = 59.62878 93.79810 69.33883
#
# Poissons Ratio (x) = 0.25387 0.03366
# Poissons Ratio (y) = 0.16139 0.25642
# Poissons Ratio (z) = 0.02895 0.34687
#
# Static dielectric constant tensor:
#      x y z
#    x 4.082280 0.000000 0.000000 
#    y 0.000000 3.725290 0.000000 
#    z 0.000000 0.000000 3.822000 
# 
# 
# High freq. dielectric constant tensor:
#      x y z
#    x 1.859860 0.000000 0.000000 
#    y 0.000000 1.828590 0.000000 
#    z 0.000000 0.000000 1.843320 
# 
# From -- ./inp_files/4702.got.cif
#   From: 2010.03.12/outbox.cif.g09.slc.cpg/sg19_3_cif.got.tgz:4702.got - 2010.04.10 18:59:41.
