data_PCOD8157715
_publ_section_title
;
Structure prediction by ZEFSAII (Michael W. Deem and Ramdas Pophale) SiO2 
 PCOD8157715
Probable space group: P 21 21 21
;
_chemical_formula_sum "Si O2"
_cell_formula_units_Z 20
_cell_length_a 7.942685
_cell_length_b 14.556756
_cell_length_c 7.796733
_cell_angle_alpha 90.000000
_cell_angle_beta 90.000000
_cell_angle_gamma 90.000000
_cell_volume 901.456145
_symmetry_space_group_name_H-M "P 21 21 21"
_symmetry_group_IT_number 19
_symmetry_cell_setting 'orthorhombic'
loop_
_space_group_symop_operation_xyz
x,y,z
1/2-x,-y,1/2+z
1/2+x,1/2-y,-z
-x,1/2+y,1/2-z
loop_
_atom_site_type_symbol
_atom_site_label
_atom_site_fract_x
_atom_site_fract_y
_atom_site_fract_z
Si Si1 0.153545 0.807433 0.961000
Si Si2 0.201484 0.378583 0.507432
Si Si3 0.598179 0.329550 0.854619
Si Si4 0.926072 0.996886 0.281208
Si Si5 0.649434 0.656168 0.659868
O O1 0.152915 0.697723 0.993044
O O2 0.281123 0.831835 0.810237
O O3 0.209846 0.854514 0.141200
O O4 0.965870 0.836875 0.902181
O O5 0.274686 0.465017 0.606568
O O6 0.151868 0.411410 0.320248
O O7 0.494910 0.424474 0.845646
O O8 0.477504 0.242035 0.851045
O O9 0.695626 0.325757 0.034223
O O10 0.067711 0.942955 0.393689
#
# Coordination Sequence:
#
# PCOD8157715 Si02
#       5
#     4   4   4   4   4
#     4  11  23  50  70  99 138 193 223 290 352 408
#     4  11  24  46  73  99 144 179 236 289 346 418
#     4  12  27  47  72 102 144 185 236 289 351 414
#     4  11  26  47  67 110 136 186 237 284 355 411
#     4  11  28  46  70 106 138 187 236 286 352 415
#
# _framework density 22.186328
#
# number of rings (size 3 to 8) (size 9 to 14) (size 15 to 20)
#    0.000    0.800    6.000    0.000   14.000    0.000 
#    3.600    0.000    0.000    0.000    0.000    0.000 
#    0.000    0.000    0.000    0.000    0.000    0.000 
#
# Total GULP energy -247960.019484 kJ/mol
# GULP energy per Si atom -12398.000974 kJ/mol
# Density = 2.213583 g / cm^3
# Si number density = 22.186328 Si / 1000 Ang^3
#
#
#
# Elastic Constant Matrix: (Units=GPa)
#
#
# Indices 1 2 3 4 5 6 
#
# 1 23.9637 2.1561 9.5281 0.0000 0.0000 0.0000
# 2 2.1561 76.7008 -1.2846 0.0000 0.0000 0.0000
# 3 9.5281 -1.2846 74.2289 0.0000 0.0000 0.0000
# 4 0.0000 0.0000 0.0000 33.3449 0.0000 0.0000
# 5 0.0000 0.0000 0.0000 0.0000 34.8799 0.0000
# 6 0.0000 0.0000 0.0000 0.0000 0.0000 44.4262
#
#
#
# Elastic Compliance Matrix: (Units=1/GPa)
#
#
# Indices 1 2 3 4 5 6 
#
# 1 0.044110 -0.001335 -0.005685 0.000000 0.000000 0.000000
# 2 -0.001335 0.013082 0.000398 0.000000 0.000000 0.000000
# 3 -0.005685 0.000398 0.014208 0.000000 0.000000 0.000000
# 4 0.000000 0.000000 0.000000 0.029990 0.000000 0.000000
# 5 0.000000 0.000000 0.000000 0.000000 0.028670 0.000000
# 6 0.000000 0.000000 0.000000 0.000000 0.000000 0.022509
#
#
# Mechanical properties :
#
#
# Convention : Reuss Voigt Hill
#
# Bulk Modulus (GPa) = 17.19527 21.74363 19.46945
# Shear Modulus (GPa) = 26.99788 33.49644 30.24716
#
# Velocity S-wave (km/s) = 3.49215 3.88980 3.69633
# Velocity P-wave (km/s) = 4.90177 5.47684 5.19727
#
# Compressibility (1/GPa) = 0.05815552
#
# Stress axis : x y z
#
# Youngs Moduli (GPa) = 22.67043 76.44165 70.38044
#
# Poissons Ratio (x) = 0.10206 0.40013
# Poissons Ratio (y) = 0.03027 -0.02800
# Poissons Ratio (z) = 0.12889 -0.03041
#
# Static dielectric constant tensor:
#      x y z
#    x 4.140190 0.000000 0.000000 
#    y 0.000000 4.257040 0.000000 
#    z 0.000000 0.000000 3.966320 
# 
# 
# High freq. dielectric constant tensor:
#      x y z
#    x 1.873730 0.000000 0.000000 
#    y 0.000000 1.893440 0.000000 
#    z 0.000000 0.000000 1.863920 
# 
# From -- ./inp_files/2640.got.cif
#   From: 2010.03.12/outbox.cif.g09.slc.cpg/sg19_2_cif.got.tgz:2640.got - 2010.04.10 18:59:41.
