data_PCOD8157982
_publ_section_title
;
Structure prediction by ZEFSAII (Michael W. Deem and Ramdas Pophale) SiO2 
 PCOD8157982
Probable space group: C 2 2 21
;
_chemical_formula_sum "Si O2"
_cell_formula_units_Z 64
_cell_length_a 5.047114
_cell_length_b 28.124487
_cell_length_c 26.772538
_cell_angle_alpha 90.000000
_cell_angle_beta 90.000000
_cell_angle_gamma 90.000000
_cell_volume 3800.294626
_symmetry_space_group_name_H-M "C 2 2 21"
_symmetry_group_IT_number 20
_symmetry_cell_setting 'orthorhombic'
loop_
_space_group_symop_operation_xyz
x,y,z
-x,-y,1/2+z
x,-y,-z
-x,y,1/2-z
1/2+x,1/2+y,z
1/2-x,1/2-y,1/2+z
1/2+x,1/2-y,-z
1/2-x,1/2+y,1/2-z
loop_
_atom_site_type_symbol
_atom_site_label
_atom_site_fract_x
_atom_site_fract_y
_atom_site_fract_z
Si Si1 0.956607 0.094323 0.457995
Si Si2 0.966792 0.800144 0.960538
Si Si3 0.953229 0.374133 0.192947
Si Si4 0.969111 0.170410 0.852380
Si Si5 0.586908 0.406158 0.430117
Si Si6 0.964357 0.242708 0.934499
Si Si7 0.902744 0.552313 0.890288
Si Si8 0.057636 0.532423 0.050750
O O1 0.968770 0.147912 0.436665
O O2 0.167096 0.057667 0.434669
O O3 0.054802 0.103987 0.513040
O O4 0.664463 0.072644 0.455717
O O5 0.675598 0.784651 0.942584
O O6 0.171326 0.763720 0.936247
O O7 0.991899 0.796892 0.021244
O O8 0.187535 0.341556 0.171646
O O9 0.918984 0.425859 0.165764
O O10 0.000000 0.387554 0.250000
O O11 0.694886 0.340603 0.188458
O O12 0.028325 0.137369 0.899407
O O13 0.989894 0.222207 0.877811
O O14 0.897981 0.414795 0.422352
O O15 0.395750 0.449240 0.412274
O O16 0.000392 0.498386 0.899111
O O17 0.080334 0.500000 0.000000
#
# Coordination Sequence:
#
# PCOD8157982 Si02
#       8
#     8   8   8   8   8   8   8   8
#     4  12  20  31  44  65 101 131 172 207 236 277
#     4  10  21  31  46  68 100 134 172 205 235 274
#     4  10  21  35  53  75 102 127 159 209 260 308
#     4  10  19  32  53  72  98 131 168 197 249 300
#     4  10  17  29  44  66  93 129 165 198 234 277
#     4  10  19  33  48  69  95 133 174 199 233 298
#     4  10  20  31  45  67  95 130 164 200 242 297
#     4  12  21  29  46  67  96 133 177 209 237 283
#
# _framework density 16.840800000000002
#
# number of rings (size 3 to 8) (size 9 to 14) (size 15 to 20)
#    0.000    1.500    3.750    3.000    0.000    0.000 
#    0.000    0.000    0.000    0.000    0.000    0.000 
#    0.000   20.000    0.000    0.000    0.000    0.000 
#
# Total GULP energy -396478.564765 kJ/mol
# GULP energy per Si atom -12389.955149 kJ/mol
# Density = 1.680247 g / cm^3
# Si number density = 16.840800 Si / 1000 Ang^3
#
#
#
# Elastic Constant Matrix: (Units=GPa)
#
#
# Indices 1 2 3 4 5 6 
#
# 1 65.1432 5.7197 -0.4087 0.0000 0.0000 0.0000
# 2 5.7197 74.8453 15.5309 0.0000 0.0000 0.0000
# 3 -0.4087 15.5309 50.5163 0.0000 0.0000 0.0000
# 4 0.0000 0.0000 0.0000 16.2639 0.0000 0.0000
# 5 0.0000 0.0000 0.0000 0.0000 16.3491 0.0000
# 6 0.0000 0.0000 0.0000 0.0000 0.0000 20.8699
#
#
#
# Elastic Compliance Matrix: (Units=1/GPa)
#
#
# Indices 1 2 3 4 5 6 
#
# 1 0.015467 -0.001290 0.000522 0.000000 0.000000 0.000000
# 2 -0.001290 0.014379 -0.004431 0.000000 0.000000 0.000000
# 3 0.000522 -0.004431 0.021162 0.000000 0.000000 0.000000
# 4 0.000000 0.000000 0.000000 0.061486 0.000000 0.000000
# 5 0.000000 0.000000 0.000000 0.000000 0.061165 0.000000
# 6 0.000000 0.000000 0.000000 0.000000 0.000000 0.047916
#
#
# Mechanical properties :
#
#
# Convention : Reuss Voigt Hill
#
# Bulk Modulus (GPa) = 24.62492 25.79872 25.21182
# Shear Modulus (GPa) = 20.36563 22.00742 21.18653
#
# Velocity S-wave (km/s) = 3.48128 3.61888 3.55074
# Velocity P-wave (km/s) = 5.55094 5.72836 5.64035
#
# Compressibility (1/GPa) = 0.04060926
#
# Stress axis : x y z
#
# Youngs Moduli (GPa) = 64.65221 69.54582 47.25412
#
# Poissons Ratio (x) = 0.08974 -0.02466
# Poissons Ratio (y) = 0.08342 0.20939
# Poissons Ratio (z) = -0.03374 0.30817
#
# Static dielectric constant tensor:
#      x y z
#    x 3.548850 0.000000 0.000000 
#    y 0.000000 3.179830 0.000000 
#    z 0.000000 0.000000 2.868820 
# 
# 
# High freq. dielectric constant tensor:
#      x y z
#    x 1.675320 0.000000 0.000000 
#    y 0.000000 1.637130 0.000000 
#    z 0.000000 0.000000 1.595200 
# 
# From -- ./inp_files/28535.got.cif
#   From: 2010.03.12/outbox.cif.g09.slc.cpg/sg20_15_cif.got.tgz:28535.got - 2010.04.14 01:38:04.
