data_PCOD8157666
_publ_section_title
;
Structure prediction by ZEFSAII (Michael W. Deem and Ramdas Pophale) SiO2 
 PCOD8157666
Probable space group: P 21 21 21
;
_chemical_formula_sum "Si O2"
_cell_formula_units_Z 28
_cell_length_a 10.608157
_cell_length_b 9.220852
_cell_length_c 13.225789
_cell_angle_alpha 90.000000
_cell_angle_beta 90.000000
_cell_angle_gamma 90.000000
_cell_volume 1293.697026
_symmetry_space_group_name_H-M "P 21 21 21"
_symmetry_group_IT_number 19
_symmetry_cell_setting 'orthorhombic'
loop_
_space_group_symop_operation_xyz
x,y,z
1/2-x,-y,1/2+z
1/2+x,1/2-y,-z
-x,1/2+y,1/2-z
loop_
_atom_site_type_symbol
_atom_site_label
_atom_site_fract_x
_atom_site_fract_y
_atom_site_fract_z
Si Si1 0.393333 0.634251 0.801460
Si Si2 0.102840 0.824610 0.043973
Si Si3 0.225969 0.898225 0.839385
Si Si4 0.925876 0.368549 0.119666
Si Si5 0.246328 0.364803 0.821948
Si Si6 0.836059 0.622617 0.820611
Si Si7 0.056911 0.531780 0.958648
O O1 0.465777 0.633365 0.910327
O O2 0.270116 0.737733 0.806642
O O3 0.488231 0.683180 0.713188
O O4 0.347201 0.473047 0.770522
O O5 0.204524 0.887460 0.121389
O O6 0.129937 0.895177 0.934282
O O7 0.115969 0.649649 0.035453
O O8 0.356991 0.979062 0.861908
O O9 0.151804 0.981044 0.750368
O O10 0.820317 0.245472 0.103982
O O11 0.005076 0.390763 0.017689
O O12 0.163502 0.273230 0.742149
O O13 0.160955 0.471415 0.885470
O O14 0.951509 0.621998 0.897391
#
# Coordination Sequence:
#
# PCOD8157666 Si02
#       7
#     4   4   4   4   4   4   4
#     4  12  22  44  73 104 138 179 239 284 340 424
#     4  12  22  43  76  98 133 189 231 279 352 418
#     4  11  23  43  68 101 136 186 225 279 353 410
#     4  11  23  43  68  99 140 176 234 285 340 405
#     4  11  26  42  68 107 137 183 232 287 346 414
#     4  11  26  46  69  98 147 178 233 294 348 407
#     4  12  26  45  70 103 143 181 234 286 357 420
#
# _framework density 21.643397
#
# number of rings (size 3 to 8) (size 9 to 14) (size 15 to 20)
#    0.000    0.571    7.143    1.714    2.000    3.429 
#    0.000    1.429    0.000    0.000    0.000    0.000 
#    0.000    0.000    0.000    0.000    0.000    0.000 
#
# Total GULP energy -347226.773405 kJ/mol
# GULP energy per Si atom -12400.956193 kJ/mol
# Density = 2.159414 g / cm^3
# Si number density = 21.643397 Si / 1000 Ang^3
#
#
#
# Elastic Constant Matrix: (Units=GPa)
#
#
# Indices 1 2 3 4 5 6 
#
# 1 58.9892 28.3375 30.1880 0.0000 0.0000 0.0000
# 2 28.3375 114.6575 38.1336 0.0000 0.0000 0.0000
# 3 30.1880 38.1336 94.5581 0.0000 0.0000 0.0000
# 4 0.0000 0.0000 0.0000 37.3876 0.0000 0.0000
# 5 0.0000 0.0000 0.0000 0.0000 11.5229 0.0000
# 6 0.0000 0.0000 0.0000 0.0000 0.0000 32.0164
#
#
#
# Elastic Compliance Matrix: (Units=1/GPa)
#
#
# Indices 1 2 3 4 5 6 
#
# 1 0.021404 -0.003485 -0.005428 0.000000 0.000000 0.000000
# 2 -0.003485 0.010640 -0.003178 0.000000 0.000000 0.000000
# 3 -0.005428 -0.003178 0.013590 0.000000 0.000000 0.000000
# 4 0.000000 0.000000 0.000000 0.026747 0.000000 0.000000
# 5 0.000000 0.000000 0.000000 0.000000 0.086784 0.000000
# 6 0.000000 0.000000 0.000000 0.000000 0.000000 0.031234
#
#
# Mechanical properties :
#
#
# Convention : Reuss Voigt Hill
#
# Bulk Modulus (GPa) = 46.61567 51.28034 48.94800
# Shear Modulus (GPa) = 22.54977 27.62176 25.08576
#
# Velocity S-wave (km/s) = 3.23131 3.57630 3.40817
# Velocity P-wave (km/s) = 5.95875 6.38733 6.17676
#
# Compressibility (1/GPa) = 0.02145201
#
# Stress axis : x y z
#
# Youngs Moduli (GPa) = 46.72007 93.98523 73.58236
#
# Poissons Ratio (x) = 0.32751 0.39941
# Poissons Ratio (y) = 0.16281 0.23387
# Poissons Ratio (z) = 0.25360 0.29872
#
# Static dielectric constant tensor:
#      x y z
#    x 3.822120 0.000000 0.000000 
#    y 0.000000 3.942600 0.000000 
#    z 0.000000 0.000000 4.015870 
# 
# 
# High freq. dielectric constant tensor:
#      x y z
#    x 1.849430 0.000000 0.000000 
#    y 0.000000 1.855230 0.000000 
#    z 0.000000 0.000000 1.844270 
# 
# From -- ./inp_files/4605.got.cif
#   From: 2010.03.12/outbox.cif.g09.slc.cpg/sg19_3_cif.got.tgz:4605.got - 2010.04.10 18:59:41.
