data_PCOD8157309
_publ_section_title
;
Structure prediction by ZEFSAII (Michael W. Deem and Ramdas Pophale) SiO2 
 PCOD8157309
Probable space group: P 21 21 21
;
_chemical_formula_sum "Si O2"
_cell_formula_units_Z 28
_cell_length_a 9.312651
_cell_length_b 16.511509
_cell_length_c 7.756123
_cell_angle_alpha 90.000000
_cell_angle_beta 90.000000
_cell_angle_gamma 90.000000
_cell_volume 1192.627395
_symmetry_space_group_name_H-M "P 21 21 21"
_symmetry_group_IT_number 19
_symmetry_cell_setting 'orthorhombic'
loop_
_space_group_symop_operation_xyz
x,y,z
1/2-x,-y,1/2+z
1/2+x,1/2-y,-z
-x,1/2+y,1/2-z
loop_
_atom_site_type_symbol
_atom_site_label
_atom_site_fract_x
_atom_site_fract_y
_atom_site_fract_z
Si Si1 0.702214 0.666433 0.369867
Si Si2 0.517116 0.281592 0.012776
Si Si3 0.121118 0.516492 0.217157
Si Si4 0.910074 0.046537 0.893859
Si Si5 0.600068 0.495159 0.415558
Si Si6 0.876803 0.197084 0.344657
Si Si7 0.831897 0.676968 0.995748
O O1 0.541207 0.703058 0.384313
O O2 0.707342 0.571308 0.416334
O O3 0.759037 0.677717 0.179864
O O4 0.809513 0.713884 0.502222
O O5 0.457444 0.271382 0.822148
O O6 0.458621 0.360780 0.108715
O O7 0.244865 0.453075 0.168719
O O8 0.072972 0.506457 0.416594
O O9 0.183380 0.606674 0.184983
O O10 0.985787 0.501058 0.095301
O O11 0.000905 0.996179 0.753968
O O12 0.690098 0.411611 0.409690
O O13 0.742430 0.254770 0.380708
O O14 0.997174 0.195968 0.496401
#
# Coordination Sequence:
#
# PCOD8157309 Si02
#       7
#     4   4   4   4   4   4   4
#     4  11  27  47  70 107 142 190 245 297 371 433
#     4  10  26  45  70 101 145 185 239 292 362 434
#     4  10  22  44  73 109 142 184 246 286 364 439
#     4  11  23  44  73 105 143 189 235 296 361 431
#     4  11  26  46  72 105 147 191 239 308 356 431
#     4   9  22  45  65 101 141 180 233 297 350 433
#     4  10  24  45  69 102 142 183 243 294 362 433
#
# _framework density 23.477577
#
# number of rings (size 3 to 8) (size 9 to 14) (size 15 to 20)
#    0.000    1.714    1.429    0.857   10.000    1.143 
#    5.143    0.000    0.000    0.000    0.000    0.000 
#    0.000    0.000    0.000    0.000    0.000    0.000 
#
# Total GULP energy -347228.555709 kJ/mol
# GULP energy per Si atom -12401.019847 kJ/mol
# Density = 2.342414 g / cm^3
# Si number density = 23.477577 Si / 1000 Ang^3
#
#
#
# Elastic Constant Matrix: (Units=GPa)
#
#
# Indices 1 2 3 4 5 6 
#
# 1 63.5425 26.0829 18.2415 0.0000 0.0000 0.0000
# 2 26.0829 66.4650 20.3580 0.0000 0.0000 0.0000
# 3 18.2415 20.3580 111.4974 0.0000 0.0000 0.0000
# 4 0.0000 0.0000 0.0000 30.2899 0.0000 0.0000
# 5 0.0000 0.0000 0.0000 0.0000 25.9261 0.0000
# 6 0.0000 0.0000 0.0000 0.0000 0.0000 47.5516
#
#
#
# Elastic Compliance Matrix: (Units=1/GPa)
#
#
# Indices 1 2 3 4 5 6 
#
# 1 0.019117 -0.006932 -0.001862 0.000000 0.000000 0.000000
# 2 -0.006932 0.018450 -0.002235 0.000000 0.000000 0.000000
# 3 -0.001862 -0.002235 0.009681 0.000000 0.000000 0.000000
# 4 0.000000 0.000000 0.000000 0.033014 0.000000 0.000000
# 5 0.000000 0.000000 0.000000 0.000000 0.038571 0.000000
# 6 0.000000 0.000000 0.000000 0.000000 0.000000 0.021030
#
#
# Mechanical properties :
#
#
# Convention : Reuss Voigt Hill
#
# Bulk Modulus (GPa) = 39.69526 41.20774 40.45150
# Shear Modulus (GPa) = 29.35668 32.54170 30.94919
#
# Velocity S-wave (km/s) = 3.53995 3.72704 3.63470
# Velocity P-wave (km/s) = 5.80110 6.00926 5.90610
#
# Compressibility (1/GPa) = 0.02519193
#
# Stress axis : x y z
#
# Youngs Moduli (GPa) = 52.30821 54.19969 103.29001
#
# Poissons Ratio (x) = 0.37571 0.19233
# Poissons Ratio (y) = 0.36260 0.23082
# Poissons Ratio (z) = 0.09740 0.12112
#
# Static dielectric constant tensor:
#      x y z
#    x 4.352750 0.000000 0.000000 
#    y 0.000000 4.171650 0.000000 
#    z 0.000000 0.000000 4.346230 
# 
# 
# High freq. dielectric constant tensor:
#      x y z
#    x 1.921620 0.000000 0.000000 
#    y 0.000000 1.918090 0.000000 
#    z 0.000000 0.000000 1.944200 
# 
# From -- ./inp_files/3021.got.cif
#   From: 2010.03.12/outbox.cif.g09.slc.cpg/sg19_2_cif.got.tgz:3021.got - 2010.04.10 18:59:41.
