data_PCOD8157060
_publ_section_title
;
Structure prediction by ZEFSAII (Michael W. Deem and Ramdas Pophale) SiO2 
 PCOD8157060
Probable space group: P 21 21 21
;
_chemical_formula_sum "Si O2"
_cell_formula_units_Z 32
_cell_length_a 12.216167
_cell_length_b 8.933451
_cell_length_c 13.481896
_cell_angle_alpha 90.000000
_cell_angle_beta 90.000000
_cell_angle_gamma 90.000000
_cell_volume 1471.313410
_symmetry_space_group_name_H-M "P 21 21 21"
_symmetry_group_IT_number 19
_symmetry_cell_setting 'orthorhombic'
loop_
_space_group_symop_operation_xyz
x,y,z
1/2-x,-y,1/2+z
1/2+x,1/2-y,-z
-x,1/2+y,1/2-z
loop_
_atom_site_type_symbol
_atom_site_label
_atom_site_fract_x
_atom_site_fract_y
_atom_site_fract_z
Si Si1 0.412120 0.475006 0.860006
Si Si2 0.769688 0.061862 0.961641
Si Si3 0.751965 0.618151 0.379599
Si Si4 0.943463 0.707879 0.235121
Si Si5 0.550201 0.431342 0.336175
Si Si6 0.901207 0.425971 0.500448
Si Si7 0.948360 0.101329 0.454036
Si Si8 0.444509 0.593706 0.171033
O O1 0.444395 0.323957 0.798715
O O2 0.416786 0.617952 0.785656
O O3 0.499017 0.495058 0.945963
O O4 0.297212 0.456296 0.919844
O O5 0.793039 0.229148 0.925769
O O6 0.641999 0.027942 0.940088
O O7 0.841855 0.951004 0.895778
O O8 0.843470 0.637560 0.295292
O O9 0.655285 0.535569 0.322036
O O10 0.793036 0.519432 0.473784
O O11 0.962484 0.614955 0.133710
O O12 0.519081 0.434587 0.450514
O O13 0.450185 0.496061 0.270717
O O14 0.575525 0.264929 0.298870
O O15 0.882053 0.256714 0.463917
O O16 0.937437 0.426331 0.615544
#
# Coordination Sequence:
#
# PCOD8157060 Si02
#       8
#     4   4   4   4   4   4   4   4
#     4   9  20  38  62  89 121 159 208 260 308 371
#     4  11  23  39  62  93 127 161 205 262 318 374
#     4  11  23  38  62  94 123 160 208 257 315 377
#     4  10  21  41  64  89 123 168 213 256 312 383
#     4  11  24  40  62  91 123 162 207 258 315 373
#     4   8  19  40  60  81 115 159 203 250 301 368
#     4  10  22  40  62  88 122 163 209 258 312 375
#     4  10  22  42  62  85 122 162 203 253 311 375
#
# _framework density 21.749275000000001
#
# number of rings (size 3 to 8) (size 9 to 14) (size 15 to 20)
#    0.000    2.000    0.000    3.000    0.000   10.000 
#    0.000    2.500    0.000    0.000    0.000    0.000 
#    0.000    0.000    0.000    0.000    0.000    0.000 
#
# Total GULP energy -396698.954576 kJ/mol
# GULP energy per Si atom -12396.842331 kJ/mol
# Density = 2.169977 g / cm^3
# Si number density = 21.749275 Si / 1000 Ang^3
#
#
#
# Elastic Constant Matrix: (Units=GPa)
#
#
# Indices 1 2 3 4 5 6 
#
# 1 65.7791 32.0073 27.6521 0.0000 0.0000 0.0000
# 2 32.0073 129.1282 43.2996 0.0000 0.0000 0.0000
# 3 27.6521 43.2996 100.3726 0.0000 0.0000 0.0000
# 4 0.0000 0.0000 0.0000 33.5647 0.0000 0.0000
# 5 0.0000 0.0000 0.0000 0.0000 27.1415 0.0000
# 6 0.0000 0.0000 0.0000 0.0000 0.0000 31.6373
#
#
#
# Elastic Compliance Matrix: (Units=1/GPa)
#
#
# Indices 1 2 3 4 5 6 
#
# 1 0.018345 -0.003335 -0.003615 0.000000 0.000000 0.000000
# 2 -0.003335 0.009660 -0.003249 0.000000 0.000000 0.000000
# 3 -0.003615 -0.003249 0.012360 0.000000 0.000000 0.000000
# 4 0.000000 0.000000 0.000000 0.029793 0.000000 0.000000
# 5 0.000000 0.000000 0.000000 0.000000 0.036844 0.000000
# 6 0.000000 0.000000 0.000000 0.000000 0.000000 0.031608
#
#
# Mechanical properties :
#
#
# Convention : Reuss Voigt Hill
#
# Bulk Modulus (GPa) = 50.08043 55.68864 52.88453
# Shear Modulus (GPa) = 30.18155 31.29010 30.73583
#
# Velocity S-wave (km/s) = 3.72923 3.79710 3.76332
# Velocity P-wave (km/s) = 6.45129 6.69958 6.57661
#
# Compressibility (1/GPa) = 0.01996788
#
# Stress axis : x y z
#
# Youngs Moduli (GPa) = 54.51107 103.51770 80.90451
#
# Poissons Ratio (x) = 0.34522 0.29249
# Poissons Ratio (y) = 0.18179 0.26282
# Poissons Ratio (z) = 0.19707 0.33628
#
# Static dielectric constant tensor:
#      x y z
#    x 3.714100 0.000000 0.000000 
#    y 0.000000 3.964750 0.000000 
#    z 0.000000 0.000000 4.142490 
# 
# 
# High freq. dielectric constant tensor:
#      x y z
#    x 1.835770 0.000000 0.000000 
#    y 0.000000 1.856580 0.000000 
#    z 0.000000 0.000000 1.861480 
# 
# From -- ./inp_files/6171.got.cif
#   From: 2010.03.12/outbox.cif.g09.slc.cpg/sg19_4_cif.got.tgz:6171.got - 2010.04.10 18:59:41.
