data_PCOD8157855
_publ_section_title
;
Structure prediction by ZEFSAII (Michael W. Deem and Ramdas Pophale) SiO2 
 PCOD8157855
Probable space group: P 21 21 21
;
_chemical_formula_sum "Si O2"
_cell_formula_units_Z 20
_cell_length_a 8.430922
_cell_length_b 10.476457
_cell_length_c 9.367442
_cell_angle_alpha 90.000000
_cell_angle_beta 90.000000
_cell_angle_gamma 90.000000
_cell_volume 827.390479
_symmetry_space_group_name_H-M "P 21 21 21"
_symmetry_group_IT_number 19
_symmetry_cell_setting 'orthorhombic'
loop_
_space_group_symop_operation_xyz
x,y,z
1/2-x,-y,1/2+z
1/2+x,1/2-y,-z
-x,1/2+y,1/2-z
loop_
_atom_site_type_symbol
_atom_site_label
_atom_site_fract_x
_atom_site_fract_y
_atom_site_fract_z
Si Si1 0.622407 0.077469 0.027169
Si Si2 0.099632 0.263845 0.234140
Si Si3 0.259676 0.232956 0.772662
Si Si4 0.859245 0.456679 0.757632
Si Si5 0.116138 0.381846 0.526032
O O1 0.638367 0.211402 0.111498
O O2 0.459170 0.020268 0.095067
O O3 0.767922 0.982600 0.051475
O O4 0.629300 0.108317 0.858946
O O5 0.243917 0.164915 0.223898
O O6 0.049389 0.301188 0.394596
O O7 0.931044 0.212460 0.176450
O O8 0.220943 0.285627 0.617255
O O9 0.249189 0.079545 0.771705
O O10 0.975170 0.441003 0.621244
#
# Coordination Sequence:
#
# PCOD8157855 Si02
#       5
#     4   4   4   4   4
#     4  11  27  47  75 105 148 195 255 304 370 442
#     4  12  26  45  73 110 143 195 249 304 371 444
#     4  11  28  48  72 107 152 193 248 311 372 452
#     4  11  28  49  77 107 155 202 245 315 379 440
#     4  11  27  47  75 105 148 195 255 304 370 442
#
# _framework density 24.172384000000001
#
# number of rings (size 3 to 8) (size 9 to 14) (size 15 to 20)
#    0.000    0.800    0.000    4.800   22.400    3.200 
#    0.000    0.000    0.000    0.000    0.000    0.000 
#    0.000    0.000    0.000    0.000    0.000    0.000 
#
# Total GULP energy -247902.389291 kJ/mol
# GULP energy per Si atom -12395.119465 kJ/mol
# Density = 2.411737 g / cm^3
# Si number density = 24.172384 Si / 1000 Ang^3
#
#
#
# Elastic Constant Matrix: (Units=GPa)
#
#
# Indices 1 2 3 4 5 6 
#
# 1 148.8969 43.4159 28.0626 0.0000 0.0000 0.0000
# 2 43.4159 84.0656 22.1970 0.0000 0.0000 0.0000
# 3 28.0626 22.1970 99.9685 0.0000 0.0000 0.0000
# 4 0.0000 0.0000 0.0000 30.5676 0.0000 0.0000
# 5 0.0000 0.0000 0.0000 0.0000 31.9069 0.0000
# 6 0.0000 0.0000 0.0000 0.0000 0.0000 45.1109
#
#
#
# Elastic Compliance Matrix: (Units=1/GPa)
#
#
# Indices 1 2 3 4 5 6 
#
# 1 0.008094 -0.003803 -0.001428 0.000000 0.000000 0.000000
# 2 -0.003803 0.014423 -0.002135 0.000000 0.000000 0.000000
# 3 -0.001428 -0.002135 0.010878 0.000000 0.000000 0.000000
# 4 0.000000 0.000000 0.000000 0.032714 0.000000 0.000000
# 5 0.000000 0.000000 0.000000 0.000000 0.031341 0.000000
# 6 0.000000 0.000000 0.000000 0.000000 0.000000 0.022168
#
#
# Mechanical properties :
#
#
# Convention : Reuss Voigt Hill
#
# Bulk Modulus (GPa) = 53.57984 57.80912 55.69448
# Shear Modulus (GPa) = 35.56908 37.46745 36.51826
#
# Velocity S-wave (km/s) = 3.84014 3.94129 3.89104
# Velocity P-wave (km/s) = 6.47118 6.68423 6.57857
#
# Compressibility (1/GPa) = 0.01866374
#
# Stress axis : x y z
#
# Youngs Moduli (GPa) = 123.54692 69.33184 91.92908
#
# Poissons Ratio (x) = 0.26369 0.13124
# Poissons Ratio (y) = 0.46988 0.19626
# Poissons Ratio (z) = 0.17638 0.14802
#
# Static dielectric constant tensor:
#      x y z
#    x 4.451370 0.000000 0.000000 
#    y 0.000000 4.109120 0.000000 
#    z 0.000000 0.000000 4.453560 
# 
# 
# High freq. dielectric constant tensor:
#      x y z
#    x 1.972830 0.000000 0.000000 
#    y 0.000000 1.951140 0.000000 
#    z 0.000000 0.000000 1.972870 
# 
# From -- ./inp_files/2560.got.cif
#   From: 2010.03.12/outbox.cif.g09.slc.cpg/sg19_2_cif.got.tgz:2560.got - 2010.04.10 18:59:41.
