data_PCOD8157515
_publ_section_title
;
Structure prediction by ZEFSAII (Michael W. Deem and Ramdas Pophale) SiO2 
 PCOD8157515
Probable space group: P 21 21 21
;
_chemical_formula_sum "Si O2"
_cell_formula_units_Z 24
_cell_length_a 5.091630
_cell_length_b 11.963091
_cell_length_c 18.741415
_cell_angle_alpha 90.000000
_cell_angle_beta 90.000000
_cell_angle_gamma 90.000000
_cell_volume 1141.570193
_symmetry_space_group_name_H-M "P 21 21 21"
_symmetry_group_IT_number 19
_symmetry_cell_setting 'orthorhombic'
loop_
_space_group_symop_operation_xyz
x,y,z
1/2-x,-y,1/2+z
1/2+x,1/2-y,-z
-x,1/2+y,1/2-z
loop_
_atom_site_type_symbol
_atom_site_label
_atom_site_fract_x
_atom_site_fract_y
_atom_site_fract_z
Si Si1 0.457214 0.124846 0.204519
Si Si2 0.332203 0.511630 0.422959
Si Si3 0.048102 0.703027 0.358953
Si Si4 0.566592 0.558674 0.136717
Si Si5 0.686425 0.765047 0.044533
Si Si6 0.060720 0.439211 0.079366
O O1 0.470819 0.027823 0.144001
O O2 0.683052 0.217711 0.186959
O O3 0.502946 0.068120 0.280454
O O4 0.175671 0.183202 0.200200
O O5 0.084221 0.596335 0.412359
O O6 0.232717 0.384148 0.422197
O O7 0.486252 0.541545 0.495568
O O8 0.970417 0.808087 0.406540
O O9 0.569037 0.682505 0.103646
O O10 0.351330 0.481872 0.098408
O O11 0.850748 0.504097 0.127215
O O12 0.952722 0.713001 0.012223
#
# Coordination Sequence:
#
# PCOD8157515 Si02
#       6
#     4   4   4   4   4   4
#     4  10  25  45  66 104 138 180 230 279 362 409
#     4  10  26  42  71 101 137 181 229 288 346 409
#     4  10  25  43  69 100 135 178 229 282 355 410
#     4  12  25  46  69 105 138 186 231 290 348 418
#     4  12  24  44  68 100 134 179 233 284 338 410
#     4  12  25  42  75 100 140 176 242 287 345 416
#
# _framework density 21.023675000000001
#
# number of rings (size 3 to 8) (size 9 to 14) (size 15 to 20)
#    1.000    0.000    3.333    2.000    7.000    2.667 
#    0.000    0.000    0.000    0.000    0.000    0.000 
#    0.000    0.000    0.000    0.000    0.000    0.000 
#
# Total GULP energy -297563.049541 kJ/mol
# GULP energy per Si atom -12398.460398 kJ/mol
# Density = 2.097582 g / cm^3
# Si number density = 21.023675 Si / 1000 Ang^3
#
#
#
# Elastic Constant Matrix: (Units=GPa)
#
#
# Indices 1 2 3 4 5 6 
#
# 1 105.9747 33.4292 14.8948 0.0000 0.0000 0.0000
# 2 33.4292 149.5344 39.3622 0.0000 0.0000 0.0000
# 3 14.8948 39.3622 122.4791 0.0000 0.0000 0.0000
# 4 0.0000 0.0000 0.0000 19.6451 0.0000 0.0000
# 5 0.0000 0.0000 0.0000 0.0000 27.6799 0.0000
# 6 0.0000 0.0000 0.0000 0.0000 0.0000 33.1380
#
#
#
# Elastic Compliance Matrix: (Units=1/GPa)
#
#
# Indices 1 2 3 4 5 6 
#
# 1 0.010186 -0.002131 -0.000554 0.000000 0.000000 0.000000
# 2 -0.002131 0.007751 -0.002232 0.000000 0.000000 0.000000
# 3 -0.000554 -0.002232 0.008949 0.000000 0.000000 0.000000
# 4 0.000000 0.000000 0.000000 0.050903 0.000000 0.000000
# 5 0.000000 0.000000 0.000000 0.000000 0.036127 0.000000
# 6 0.000000 0.000000 0.000000 0.000000 0.000000 0.030177
#
#
# Mechanical properties :
#
#
# Convention : Reuss Voigt Hill
#
# Bulk Modulus (GPa) = 58.64137 61.48452 60.06294
# Shear Modulus (GPa) = 31.32576 35.44608 33.38592
#
# Velocity S-wave (km/s) = 3.86427 4.11056 3.98931
# Velocity P-wave (km/s) = 6.91836 7.19984 7.06050
#
# Compressibility (1/GPa) = 0.01705281
#
# Stress axis : x y z
#
# Youngs Moduli (GPa) = 98.17004 129.00829 111.74058
#
# Poissons Ratio (x) = 0.27498 0.06188
# Poissons Ratio (y) = 0.20925 0.24940
# Poissons Ratio (z) = 0.05436 0.28794
#
# Static dielectric constant tensor:
#      x y z
#    x 3.794820 0.000000 0.000000 
#    y 0.000000 3.736710 0.000000 
#    z 0.000000 0.000000 3.618250 
# 
# 
# High freq. dielectric constant tensor:
#      x y z
#    x 1.829290 0.000000 0.000000 
#    y 0.000000 1.822010 0.000000 
#    z 0.000000 0.000000 1.816360 
# 
# From -- ./inp_files/6414.got.cif
#   From: 2010.03.12/outbox.cif.g09.slc.cpg/sg19_4_cif.got.tgz:6414.got - 2010.04.10 18:59:41.
