data_PCOD8157746
_publ_section_title
;
Structure prediction by ZEFSAII (Michael W. Deem and Ramdas Pophale) SiO2 
 PCOD8157746
Probable space group: P 21 21 21
;
_chemical_formula_sum "Si O2"
_cell_formula_units_Z 20
_cell_length_a 14.390232
_cell_length_b 11.484989
_cell_length_c 4.857400
_cell_angle_alpha 90.000000
_cell_angle_beta 90.000000
_cell_angle_gamma 90.000000
_cell_volume 802.790543
_symmetry_space_group_name_H-M "P 21 21 21"
_symmetry_group_IT_number 19
_symmetry_cell_setting 'orthorhombic'
loop_
_space_group_symop_operation_xyz
x,y,z
1/2-x,-y,1/2+z
1/2+x,1/2-y,-z
-x,1/2+y,1/2-z
loop_
_atom_site_type_symbol
_atom_site_label
_atom_site_fract_x
_atom_site_fract_y
_atom_site_fract_z
Si Si1 0.962400 0.592024 0.237929
Si Si2 0.498029 0.057556 0.259149
Si Si3 0.808899 0.019024 0.825526
Si Si4 0.887014 0.240163 0.522653
Si Si5 0.765488 0.578813 0.022341
O O1 0.861384 0.636487 0.133465
O O2 0.954041 0.545017 0.548700
O O3 0.989518 0.479703 0.056935
O O4 0.045092 0.687588 0.213985
O O5 0.452285 0.182708 0.283163
O O6 0.606437 0.071585 0.336573
O O7 0.842381 0.142552 0.713707
O O8 0.728473 0.963697 0.635004
O O9 0.803631 0.320938 0.405558
O O10 0.714660 0.511475 0.274899
#
# Coordination Sequence:
#
# PCOD8157746 Si02
#       5
#     4   4   4   4   4
#     4  11  24  45  68 106 139 181 241 296 350 431
#     4  11  24  47  70 100 144 184 238 294 350 436
#     4  11  26  48  68 107 144 184 242 295 352 435
#     4  11  26  46  74 100 145 193 228 296 372 399
#     4  12  24  46  72 105 140 184 245 293 344 435
#
# _framework density 24.913101000000001
#
# number of rings (size 3 to 8) (size 9 to 14) (size 15 to 20)
#    0.000    0.800    4.000    2.400    2.800    9.600 
#    7.200    0.000    0.000    0.000    0.000    0.000 
#    0.000    0.000    0.000    0.000    0.000    0.000 
#
# Total GULP energy -248015.775636 kJ/mol
# GULP energy per Si atom -12400.788782 kJ/mol
# Density = 2.485640 g / cm^3
# Si number density = 24.913101 Si / 1000 Ang^3
#
#
#
# Elastic Constant Matrix: (Units=GPa)
#
#
# Indices 1 2 3 4 5 6 
#
# 1 150.6995 32.7025 2.6397 0.0000 0.0000 0.0000
# 2 32.7025 103.6996 3.2623 0.0000 0.0000 0.0000
# 3 2.6397 3.2623 62.0216 0.0000 0.0000 0.0000
# 4 0.0000 0.0000 0.0000 14.2208 0.0000 0.0000
# 5 0.0000 0.0000 0.0000 0.0000 43.6851 0.0000
# 6 0.0000 0.0000 0.0000 0.0000 0.0000 52.4385
#
#
#
# Elastic Compliance Matrix: (Units=1/GPa)
#
#
# Indices 1 2 3 4 5 6 
#
# 1 0.007125 -0.002241 -0.000185 0.000000 0.000000 0.000000
# 2 -0.002241 0.010364 -0.000450 0.000000 0.000000 0.000000
# 3 -0.000185 -0.000450 0.016155 0.000000 0.000000 0.000000
# 4 0.000000 0.000000 0.000000 0.070320 0.000000 0.000000
# 5 0.000000 0.000000 0.000000 0.000000 0.022891 0.000000
# 6 0.000000 0.000000 0.000000 0.000000 0.000000 0.019070
#
#
# Mechanical properties :
#
#
# Convention : Reuss Voigt Hill
#
# Bulk Modulus (GPa) = 35.85284 43.73663 39.79473
# Shear Modulus (GPa) = 31.06068 40.58995 35.82532
#
# Velocity S-wave (km/s) = 3.53478 4.04079 3.79623
# Velocity P-wave (km/s) = 5.57512 6.27411 5.93491
#
# Compressibility (1/GPa) = 0.02789179
#
# Stress axis : x y z
#
# Youngs Moduli (GPa) = 140.34456 96.48627 61.90047
#
# Poissons Ratio (x) = 0.21624 0.01148
# Poissons Ratio (y) = 0.31454 0.02784
# Poissons Ratio (z) = 0.02602 0.04340
#
# Static dielectric constant tensor:
#      x y z
#    x 4.996230 0.000000 0.000000 
#    y 0.000000 4.219170 0.000000 
#    z 0.000000 0.000000 4.262200 
# 
# 
# High freq. dielectric constant tensor:
#      x y z
#    x 2.022920 0.000000 0.000000 
#    y 0.000000 1.967250 0.000000 
#    z 0.000000 0.000000 1.986300 
# 
# From -- ./inp_files/827.got.cif
#   From: 2010.03.12/outbox.cif.g09.slc.cpg/sg19_1_cif.got.tgz:827.got - 2010.04.10 18:59:41.
