data_PCOD8157373
_publ_section_title
;
Structure prediction by ZEFSAII (Michael W. Deem and Ramdas Pophale) SiO2 
 PCOD8157373
Probable space group: P 21 21 21
;
_chemical_formula_sum "Si O2"
_cell_formula_units_Z 32
_cell_length_a 14.220948
_cell_length_b 12.675272
_cell_length_c 8.120513
_cell_angle_alpha 90.000000
_cell_angle_beta 90.000000
_cell_angle_gamma 90.000000
_cell_volume 1463.758069
_symmetry_space_group_name_H-M "P 21 21 21"
_symmetry_group_IT_number 19
_symmetry_cell_setting 'orthorhombic'
loop_
_space_group_symop_operation_xyz
x,y,z
1/2-x,-y,1/2+z
1/2+x,1/2-y,-z
-x,1/2+y,1/2-z
loop_
_atom_site_type_symbol
_atom_site_label
_atom_site_fract_x
_atom_site_fract_y
_atom_site_fract_z
Si Si1 0.916074 0.860499 0.046285
Si Si2 0.812344 0.362063 0.178070
Si Si3 0.254816 0.935285 0.663881
Si Si4 0.085725 0.495420 0.145142
Si Si5 0.061681 0.160530 0.256836
Si Si6 0.711550 0.811627 0.926146
Si Si7 0.910962 0.337226 0.663476
Si Si8 0.003925 0.806731 0.499428
O O1 0.962871 0.759008 0.129781
O O2 0.887622 0.949703 0.175970
O O3 0.821617 0.824554 0.957529
O O4 0.003442 0.896309 0.930640
O O5 0.794104 0.444840 0.327835
O O6 0.790214 0.246344 0.248979
O O7 0.747642 0.396836 0.024606
O O8 0.918907 0.360458 0.119484
O O9 0.327319 0.860409 0.760118
O O10 0.155509 0.927334 0.758022
O O11 0.168775 0.571564 0.086144
O O12 0.989733 0.560266 0.167209
O O13 0.075749 0.399478 0.011855
O O14 0.029290 0.193789 0.072391
O O15 0.651723 0.746165 0.061522
O O16 0.959751 0.278377 0.818904
#
# Coordination Sequence:
#
# PCOD8157373 Si02
#       8
#     4   4   4   4   4   4   4   4
#     4  11  26  44  68  96 134 183 226 279 347 403
#     4  11  23  40  66 100 132 176 224 284 337 397
#     4  11  24  39  69  99 135 171 230 282 341 397
#     4  11  23  45  70  93 138 186 220 274 344 412
#     4  11  21  43  69  93 130 179 217 275 345 397
#     4  12  24  47  68  98 141 181 223 282 344 408
#     4  11  24  45  66 101 133 171 234 286 329 405
#     4  10  23  43  66 100 135 175 226 282 339 403
#
# _framework density 21.861535
#
# number of rings (size 3 to 8) (size 9 to 14) (size 15 to 20)
#    0.000    1.000    5.000    1.500    3.500    1.000 
#    6.750    0.000    0.000    0.000    0.000    0.000 
#    0.000    0.000    0.000    0.000    0.000    0.000 
#
# Total GULP energy -396653.968718 kJ/mol
# GULP energy per Si atom -12395.436522 kJ/mol
# Density = 2.181178 g / cm^3
# Si number density = 21.861535 Si / 1000 Ang^3
#
#
#
# Elastic Constant Matrix: (Units=GPa)
#
#
# Indices 1 2 3 4 5 6 
#
# 1 92.2796 5.0718 26.6958 0.0000 0.0000 0.0000
# 2 5.0718 58.6523 12.4010 0.0000 0.0000 0.0000
# 3 26.6958 12.4010 81.6635 0.0000 0.0000 0.0000
# 4 0.0000 0.0000 0.0000 26.3786 0.0000 0.0000
# 5 0.0000 0.0000 0.0000 0.0000 29.8023 0.0000
# 6 0.0000 0.0000 0.0000 0.0000 0.0000 25.7040
#
#
#
# Elastic Compliance Matrix: (Units=1/GPa)
#
#
# Indices 1 2 3 4 5 6 
#
# 1 0.011971 -0.000215 -0.003881 0.000000 0.000000 0.000000
# 2 -0.000215 0.017619 -0.002605 0.000000 0.000000 0.000000
# 3 -0.003881 -0.002605 0.013910 0.000000 0.000000 0.000000
# 4 0.000000 0.000000 0.000000 0.037909 0.000000 0.000000
# 5 0.000000 0.000000 0.000000 0.000000 0.033554 0.000000
# 6 0.000000 0.000000 0.000000 0.000000 0.000000 0.038904
#
#
# Mechanical properties :
#
#
# Convention : Reuss Voigt Hill
#
# Bulk Modulus (GPa) = 33.22455 35.65918 34.44186
# Shear Modulus (GPa) = 28.20040 28.93878 28.56959
#
# Velocity S-wave (km/s) = 3.59549 3.64226 3.61895
# Velocity P-wave (km/s) = 5.69802 5.83394 5.76638
#
# Compressibility (1/GPa) = 0.03009823
#
# Stress axis : x y z
#
# Youngs Moduli (GPa) = 83.53451 56.75678 71.89262
#
# Poissons Ratio (x) = 0.01218 0.27900
# Poissons Ratio (y) = 0.01793 0.18731
# Poissons Ratio (z) = 0.32418 0.14787
#
# Static dielectric constant tensor:
#      x y z
#    x 3.941610 0.000000 0.000000 
#    y 0.000000 3.954500 0.000000 
#    z 0.000000 0.000000 4.035120 
# 
# 
# High freq. dielectric constant tensor:
#      x y z
#    x 1.867790 0.000000 0.000000 
#    y 0.000000 1.849250 0.000000 
#    z 0.000000 0.000000 1.856250 
# 
# From -- ./inp_files/4000.got.cif
#   From: 2010.03.12/outbox.cif.g09.slc.cpg/sg19_2_cif.got.tgz:4000.got - 2010.04.10 18:59:41.
