data_PCOD8157145
_publ_section_title
;
Structure prediction by ZEFSAII (Michael W. Deem and Ramdas Pophale) SiO2 
 PCOD8157145
Probable space group: P 21 21 21
;
_chemical_formula_sum "Si O2"
_cell_formula_units_Z 24
_cell_length_a 11.193952
_cell_length_b 11.497842
_cell_length_c 9.364667
_cell_angle_alpha 90.000000
_cell_angle_beta 90.000000
_cell_angle_gamma 90.000000
_cell_volume 1205.291560
_symmetry_space_group_name_H-M "P 21 21 21"
_symmetry_group_IT_number 19
_symmetry_cell_setting 'orthorhombic'
loop_
_space_group_symop_operation_xyz
x,y,z
1/2-x,-y,1/2+z
1/2+x,1/2-y,-z
-x,1/2+y,1/2-z
loop_
_atom_site_type_symbol
_atom_site_label
_atom_site_fract_x
_atom_site_fract_y
_atom_site_fract_z
Si Si1 0.137045 0.216024 0.759173
Si Si2 0.050285 0.639701 0.966031
Si Si3 0.175148 0.482629 0.740360
Si Si4 0.870967 0.357522 0.372033
Si Si5 0.979662 0.556445 0.518647
Si Si6 0.051945 0.501347 0.226991
O O1 0.169484 0.348879 0.789876
O O2 0.251464 0.136889 0.722303
O O3 0.049051 0.205697 0.624649
O O4 0.076109 0.167453 0.902980
O O5 0.128660 0.732816 0.052538
O O6 0.990902 0.555905 0.085535
O O7 0.139139 0.565082 0.870104
O O8 0.308452 0.518611 0.695068
O O9 0.087347 0.500518 0.608072
O O10 0.875781 0.458637 0.493788
O O11 0.984907 0.379975 0.266181
O O12 0.033971 0.589948 0.362707
#
# Coordination Sequence:
#
# PCOD8157145 Si02
#       6
#     4   4   4   4   4   4
#     4  11  22  42  66  91 136 168 218 270 322 386
#     4  11  23  39  70  92 124 176 212 266 330 376
#     4  11  21  41  65  94 125 172 214 268 321 386
#     4  10  23  40  65  89 131 164 216 261 322 378
#     4   9  23  41  61  96 127 168 216 268 320 388
#     4  10  22  39  63  94 125 166 218 257 323 384
#
# _framework density 19.912195000000001
#
# number of rings (size 3 to 8) (size 9 to 14) (size 15 to 20)
#    1.000    0.667    3.333    1.000    4.667    1.333 
#    0.000    0.000    0.000    0.000    0.000    0.000 
#    0.000    0.000    0.000    0.000    0.000    0.000 
#
# Total GULP energy -297451.231790 kJ/mol
# GULP energy per Si atom -12393.801325 kJ/mol
# Density = 1.986687 g / cm^3
# Si number density = 19.912195 Si / 1000 Ang^3
#
#
#
# Elastic Constant Matrix: (Units=GPa)
#
#
# Indices 1 2 3 4 5 6 
#
# 1 84.9234 12.5673 -0.7050 0.0000 0.0000 0.0000
# 2 12.5673 59.4865 0.6537 0.0000 0.0000 0.0000
# 3 -0.7050 0.6537 55.9113 0.0000 0.0000 0.0000
# 4 0.0000 0.0000 0.0000 30.5527 0.0000 0.0000
# 5 0.0000 0.0000 0.0000 0.0000 22.0024 0.0000
# 6 0.0000 0.0000 0.0000 0.0000 0.0000 28.5077
#
#
#
# Elastic Compliance Matrix: (Units=1/GPa)
#
#
# Indices 1 2 3 4 5 6 
#
# 1 0.012157 -0.002570 0.000183 0.000000 0.000000 0.000000
# 2 -0.002570 0.017356 -0.000235 0.000000 0.000000 0.000000
# 3 0.000183 -0.000235 0.017891 0.000000 0.000000 0.000000
# 4 0.000000 0.000000 0.000000 0.032730 0.000000 0.000000
# 5 0.000000 0.000000 0.000000 0.000000 0.045450 0.000000
# 6 0.000000 0.000000 0.000000 0.000000 0.000000 0.035078
#
#
# Mechanical properties :
#
#
# Convention : Reuss Voigt Hill
#
# Bulk Modulus (GPa) = 23.71964 25.03924 24.37944
# Shear Modulus (GPa) = 27.78397 28.73290 28.25844
#
# Velocity S-wave (km/s) = 3.73946 3.80278 3.77125
# Velocity P-wave (km/s) = 5.53016 5.64656 5.58866
#
# Compressibility (1/GPa) = 0.04215916
#
# Stress axis : x y z
#
# Youngs Moduli (GPa) = 82.25569 57.61645 55.89546
#
# Poissons Ratio (x) = 0.14810 -0.01025
# Poissons Ratio (y) = 0.21143 0.01315
# Poissons Ratio (z) = -0.01508 0.01356
#
# Static dielectric constant tensor:
#      x y z
#    x 3.455290 0.000000 0.000000 
#    y 0.000000 3.403750 0.000000 
#    z 0.000000 0.000000 3.714180 
# 
# 
# High freq. dielectric constant tensor:
#      x y z
#    x 1.770240 0.000000 0.000000 
#    y 0.000000 1.764130 0.000000 
#    z 0.000000 0.000000 1.785950 
# 
# From -- ./inp_files/3398.got.cif
#   From: 2010.03.12/outbox.cif.g09.slc.cpg/sg19_2_cif.got.tgz:3398.got - 2010.04.10 18:59:41.
