data_PCOD8157399
_publ_section_title
;
Structure prediction by ZEFSAII (Michael W. Deem and Ramdas Pophale) SiO2 
 PCOD8157399
Probable space group: P 21 21 21
;
_chemical_formula_sum "Si O2"
_cell_formula_units_Z 32
_cell_length_a 13.163030
_cell_length_b 12.320011
_cell_length_c 9.110079
_cell_angle_alpha 90.000000
_cell_angle_beta 90.000000
_cell_angle_gamma 90.000000
_cell_volume 1477.369435
_symmetry_space_group_name_H-M "P 21 21 21"
_symmetry_group_IT_number 19
_symmetry_cell_setting 'orthorhombic'
loop_
_space_group_symop_operation_xyz
x,y,z
1/2-x,-y,1/2+z
1/2+x,1/2-y,-z
-x,1/2+y,1/2-z
loop_
_atom_site_type_symbol
_atom_site_label
_atom_site_fract_x
_atom_site_fract_y
_atom_site_fract_z
Si Si1 0.419832 0.081487 0.785563
Si Si2 0.395027 0.899382 0.564853
Si Si3 0.914093 0.742488 0.926642
Si Si4 0.885597 0.795490 0.234516
Si Si5 0.267288 0.573590 0.549114
Si Si6 0.263624 0.776177 0.345925
Si Si7 0.447137 0.521013 0.125540
Si Si8 0.469720 0.470708 0.456583
O O1 0.524684 0.117479 0.709002
O O2 0.347763 0.185891 0.799030
O O3 0.365217 0.994317 0.678705
O O4 0.444865 0.030423 0.944898
O O5 0.431872 0.795045 0.656501
O O6 0.299037 0.864137 0.467094
O O7 0.484956 0.933377 0.457214
O O8 0.839442 0.720434 0.791855
O O9 0.004237 0.655671 0.941700
O O10 0.972873 0.856071 0.915573
O O11 0.850502 0.744079 0.079807
O O12 0.788336 0.853846 0.306385
O O13 0.257564 0.653688 0.408671
O O14 0.168448 0.503611 0.580521
O O15 0.358246 0.487730 0.525887
O O16 0.470341 0.520979 0.296577
#
# Coordination Sequence:
#
# PCOD8157399 Si02
#       8
#     4   4   4   4   4   4   4   4
#     4  11  24  43  69  95 135 185 220 284 349 399
#     4  11  23  42  66  96 139 176 222 282 347 395
#     4  12  24  42  68 103 134 169 236 275 332 421
#     4  10  23  44  66  97 134 179 226 276 341 415
#     4  10  25  46  68  98 138 176 224 285 344 396
#     4  11  25  43  67 101 136 178 232 279 340 417
#     4  12  25  44  72 101 134 181 228 287 340 407
#     4  11  25  46  68  99 140 180 222 288 341 406
#
# _framework density 21.660121
#
# number of rings (size 3 to 8) (size 9 to 14) (size 15 to 20)
#    0.000    1.000    5.000    0.750    3.500    2.000 
#    0.000    2.500    0.000    0.000    0.000    0.000 
#    0.000    0.000    0.000    0.000    0.000    0.000 
#
# Total GULP energy -396806.748279 kJ/mol
# GULP energy per Si atom -12400.210884 kJ/mol
# Density = 2.161082 g / cm^3
# Si number density = 21.660121 Si / 1000 Ang^3
#
#
#
# Elastic Constant Matrix: (Units=GPa)
#
#
# Indices 1 2 3 4 5 6 
#
# 1 60.4291 34.1156 20.0237 0.0000 0.0000 0.0000
# 2 34.1156 101.5516 22.3798 0.0000 0.0000 0.0000
# 3 20.0237 22.3798 132.2458 0.0000 0.0000 0.0000
# 4 0.0000 0.0000 0.0000 27.9044 0.0000 0.0000
# 5 0.0000 0.0000 0.0000 0.0000 16.0751 0.0000
# 6 0.0000 0.0000 0.0000 0.0000 0.0000 27.5198
#
#
#
# Elastic Compliance Matrix: (Units=1/GPa)
#
#
# Indices 1 2 3 4 5 6 
#
# 1 0.020947 -0.006584 -0.002057 0.000000 0.000000 0.000000
# 2 -0.006584 0.012298 -0.001084 0.000000 0.000000 0.000000
# 3 -0.002057 -0.001084 0.008057 0.000000 0.000000 0.000000
# 4 0.000000 0.000000 0.000000 0.035837 0.000000 0.000000
# 5 0.000000 0.000000 0.000000 0.000000 0.062208 0.000000
# 6 0.000000 0.000000 0.000000 0.000000 0.000000 0.036337
#
#
# Mechanical properties :
#
#
# Convention : Reuss Voigt Hill
#
# Bulk Modulus (GPa) = 45.76509 49.69610 47.73059
# Shear Modulus (GPa) = 24.70140 28.81370 26.75755
#
# Velocity S-wave (km/s) = 3.38066 3.65124 3.51855
# Velocity P-wave (km/s) = 6.03432 6.38504 6.21216
#
# Compressibility (1/GPa) = 0.02185072
#
# Stress axis : x y z
#
# Youngs Moduli (GPa) = 47.73983 81.31484 124.12019
#
# Poissons Ratio (x) = 0.53534 0.25538
# Poissons Ratio (y) = 0.31430 0.13459
# Poissons Ratio (z) = 0.09822 0.08817
#
# Static dielectric constant tensor:
#      x y z
#    x 3.506170 0.000000 0.000000 
#    y 0.000000 4.046350 0.000000 
#    z 0.000000 0.000000 4.274830 
# 
# 
# High freq. dielectric constant tensor:
#      x y z
#    x 1.822570 0.000000 0.000000 
#    y 0.000000 1.860700 0.000000 
#    z 0.000000 0.000000 1.876700 
# 
# From -- ./inp_files/3953.got.cif
#   From: 2010.03.12/outbox.cif.g09.slc.cpg/sg19_2_cif.got.tgz:3953.got - 2010.04.10 18:59:41.
