data_PCOD8157804
_publ_section_title
;
Structure prediction by ZEFSAII (Michael W. Deem and Ramdas Pophale) SiO2 
 PCOD8157804
Probable space group: P 21 21 21
;
_chemical_formula_sum "Si O2"
_cell_formula_units_Z 32
_cell_length_a 8.367105
_cell_length_b 11.835288
_cell_length_c 15.106943
_cell_angle_alpha 90.000000
_cell_angle_beta 90.000000
_cell_angle_gamma 90.000000
_cell_volume 1495.996716
_symmetry_space_group_name_H-M "P 21 21 21"
_symmetry_group_IT_number 19
_symmetry_cell_setting 'orthorhombic'
loop_
_space_group_symop_operation_xyz
x,y,z
1/2-x,-y,1/2+z
1/2+x,1/2-y,-z
-x,1/2+y,1/2-z
loop_
_atom_site_type_symbol
_atom_site_label
_atom_site_fract_x
_atom_site_fract_y
_atom_site_fract_z
Si Si1 0.069433 0.543480 0.349741
Si Si2 0.066451 0.124118 0.508998
Si Si3 0.437196 0.966748 0.349222
Si Si4 0.432251 0.012428 0.834531
Si Si5 0.062846 0.476709 0.834514
Si Si6 0.434977 0.237604 0.093970
Si Si7 0.944212 0.376662 0.488870
Si Si8 0.566662 0.224980 0.910263
O O1 0.257886 0.560903 0.355152
O O2 0.013497 0.546035 0.248834
O O3 0.020338 0.428894 0.400030
O O4 0.983748 0.646336 0.398439
O O5 0.255140 0.121262 0.521366
O O6 0.007565 0.251110 0.499017
O O7 0.013238 0.054231 0.422446
O O8 0.988187 0.072927 0.596764
O O9 0.256920 0.992959 0.321174
O O10 0.444717 0.838785 0.383563
O O11 0.552204 0.975377 0.264545
O O12 0.497970 0.051746 0.425253
O O13 0.494627 0.141656 0.836517
O O14 0.949570 0.365700 0.837161
O O15 0.257010 0.285591 0.090054
O O16 0.492131 0.181885 0.002260
#
# Coordination Sequence:
#
# PCOD8157804 Si02
#       8
#     4   4   4   4   4   4   4   4
#     4  12  26  44  69  99 135 177 221 272 332 394
#     4  11  25  45  69  96 135 176 221 274 331 395
#     4  11  25  45  69  98 133 176 224 274 331 393
#     4  11  25  45  69  98 133 176 224 274 331 393
#     4  12  26  44  69  99 135 177 221 272 332 394
#     4  12  24  43  70  99 133 173 222 275 331 392
#     4  11  25  45  69  96 135 176 221 274 331 395
#     4  12  24  43  70  99 133 173 222 275 331 392
#
# _framework density 21.390419999999999
#
# number of rings (size 3 to 8) (size 9 to 14) (size 15 to 20)
#    0.000    0.500    2.500    6.000    3.500    3.000 
#    0.000    0.000    0.000    0.000    0.000    0.000 
#    0.000    0.000    0.000    0.000    0.000    0.000 
#
# Total GULP energy -397073.002109 kJ/mol
# GULP energy per Si atom -12408.531316 kJ/mol
# Density = 2.134173 g / cm^3
# Si number density = 21.390420 Si / 1000 Ang^3
#
#
#
# Elastic Constant Matrix: (Units=GPa)
#
#
# Indices 1 2 3 4 5 6 
#
# 1 85.5884 12.5856 31.0896 0.0000 0.0000 0.0000
# 2 12.5856 116.8552 27.5347 0.0000 0.0000 0.0000
# 3 31.0896 27.5347 113.6804 0.0000 0.0000 0.0000
# 4 0.0000 0.0000 0.0000 21.4275 0.0000 0.0000
# 5 0.0000 0.0000 0.0000 0.0000 32.4709 0.0000
# 6 0.0000 0.0000 0.0000 0.0000 0.0000 34.8025
#
#
#
# Elastic Compliance Matrix: (Units=1/GPa)
#
#
# Indices 1 2 3 4 5 6 
#
# 1 0.013012 -0.000597 -0.003414 0.000000 0.000000 0.000000
# 2 -0.000597 0.009103 -0.002042 0.000000 0.000000 0.000000
# 3 -0.003414 -0.002042 0.010225 0.000000 0.000000 0.000000
# 4 0.000000 0.000000 0.000000 0.046669 0.000000 0.000000
# 5 0.000000 0.000000 0.000000 0.000000 0.030797 0.000000
# 6 0.000000 0.000000 0.000000 0.000000 0.000000 0.028734
#
#
# Mechanical properties :
#
#
# Convention : Reuss Voigt Hill
#
# Bulk Modulus (GPa) = 49.42054 50.94932 50.18493
# Shear Modulus (GPa) = 31.76855 34.06780 32.91818
#
# Velocity S-wave (km/s) = 3.85798 3.99515 3.92716
# Velocity P-wave (km/s) = 6.55740 6.71953 6.63896
#
# Compressibility (1/GPa) = 0.02023450
#
# Stress axis : x y z
#
# Youngs Moduli (GPa) = 76.85397 109.85444 97.80221
#
# Poissons Ratio (x) = 0.06558 0.33388
# Poissons Ratio (y) = 0.04588 0.19967
# Poissons Ratio (z) = 0.26237 0.22428
#
# Static dielectric constant tensor:
#      x y z
#    x 3.842700 0.000000 0.000000 
#    y 0.000000 3.817840 0.000000 
#    z 0.000000 0.000000 3.900640 
# 
# 
# High freq. dielectric constant tensor:
#      x y z
#    x 1.849510 0.000000 0.000000 
#    y 0.000000 1.850240 0.000000 
#    z 0.000000 0.000000 1.846100 
# 
# From -- ./inp_files/5962.got.cif
#   From: 2010.03.12/outbox.cif.g09.slc.cpg/sg19_3_cif.got.tgz:5962.got - 2010.04.10 18:59:41.
