data_PCOD8157017
_publ_section_title
;
Structure prediction by ZEFSAII (Michael W. Deem and Ramdas Pophale) SiO2 
 PCOD8157017
Probable space group: P 21 21 21
;
_chemical_formula_sum "Si O2"
_cell_formula_units_Z 32
_cell_length_a 17.021072
_cell_length_b 17.276748
_cell_length_c 4.971699
_cell_angle_alpha 90.000000
_cell_angle_beta 90.000000
_cell_angle_gamma 90.000000
_cell_volume 1462.021418
_symmetry_space_group_name_H-M "P 21 21 21"
_symmetry_group_IT_number 19
_symmetry_cell_setting 'orthorhombic'
loop_
_space_group_symop_operation_xyz
x,y,z
1/2-x,-y,1/2+z
1/2+x,1/2-y,-z
-x,1/2+y,1/2-z
loop_
_atom_site_type_symbol
_atom_site_label
_atom_site_fract_x
_atom_site_fract_y
_atom_site_fract_z
Si Si1 0.815111 0.794745 0.389722
Si Si2 0.552790 0.941673 0.955330
Si Si3 0.577924 0.764289 0.930318
Si Si4 0.283728 0.961899 0.271263
Si Si5 0.707563 0.030072 0.898026
Si Si6 0.976851 0.746080 0.575619
Si Si7 0.547145 0.430982 0.052073
Si Si8 0.250741 0.211907 0.608563
O O1 0.785657 0.880305 0.319772
O O2 0.904932 0.801019 0.492568
O O3 0.759807 0.760381 0.620329
O O4 0.808402 0.742173 0.122810
O O5 0.590173 0.856119 0.965386
O O6 0.479653 0.947785 0.751090
O O7 0.618364 0.002298 0.867512
O O8 0.519990 0.962991 0.248777
O O9 0.548258 0.746387 0.632090
O O10 0.659705 0.721698 0.987753
O O11 0.512655 0.731003 0.136177
O O12 0.371274 0.973051 0.386553
O O13 0.267401 0.877152 0.157836
O O14 0.226210 0.979423 0.521561
O O15 0.764221 0.982166 0.702420
O O16 0.940269 0.660425 0.592486
#
# Coordination Sequence:
#
# PCOD8157017 Si02
#       8
#     4   4   4   4   4   4   4   4
#     4  12  24  42  71  96 134 178 221 278 321 404
#     4  10  21  39  66  95 129 177 216 263 321 401
#     4  10  21  39  64  96 128 167 216 272 321 386
#     4  12  26  45  68  97 134 174 223 283 338 396
#     4  12  25  43  66 101 140 176 220 274 336 395
#     4  10  21  39  65  93 126 169 221 264 318 395
#     4  10  21  41  67  88 129 175 222 258 324 402
#     4  12  25  44  71 100 130 174 225 274 341 391
#
# _framework density 21.887505999999998
#
# number of rings (size 3 to 8) (size 9 to 14) (size 15 to 20)
#    0.000    1.000    1.250    6.000    3.500    2.000 
#    6.750    0.000    0.000    0.000    0.000    0.000 
#    0.000    0.000    0.000    0.000    0.000    0.000 
#
# Total GULP energy -397049.811690 kJ/mol
# GULP energy per Si atom -12407.806615 kJ/mol
# Density = 2.183769 g / cm^3
# Si number density = 21.887506 Si / 1000 Ang^3
#
#
#
# Elastic Constant Matrix: (Units=GPa)
#
#
# Indices 1 2 3 4 5 6 
#
# 1 95.6903 38.2004 14.4884 0.0000 0.0000 0.0000
# 2 38.2004 76.6564 26.9194 0.0000 0.0000 0.0000
# 3 14.4884 26.9194 104.0648 0.0000 0.0000 0.0000
# 4 0.0000 0.0000 0.0000 32.2288 0.0000 0.0000
# 5 0.0000 0.0000 0.0000 0.0000 32.8312 0.0000
# 6 0.0000 0.0000 0.0000 0.0000 0.0000 28.9900
#
#
#
# Elastic Compliance Matrix: (Units=1/GPa)
#
#
# Indices 1 2 3 4 5 6 
#
# 1 0.013048 -0.006450 -0.000148 0.000000 0.000000 0.000000
# 2 -0.006450 0.017537 -0.003639 0.000000 0.000000 0.000000
# 3 -0.000148 -0.003639 0.010571 0.000000 0.000000 0.000000
# 4 0.000000 0.000000 0.000000 0.031028 0.000000 0.000000
# 5 0.000000 0.000000 0.000000 0.000000 0.030459 0.000000
# 6 0.000000 0.000000 0.000000 0.000000 0.000000 0.034495
#
#
# Mechanical properties :
#
#
# Convention : Reuss Voigt Hill
#
# Bulk Modulus (GPa) = 48.34925 48.40310 48.37617
# Shear Modulus (GPa) = 30.39411 31.93021 31.16216
#
# Velocity S-wave (km/s) = 3.73050 3.82361 3.77734
# Velocity P-wave (km/s) = 6.37914 6.45413 6.41674
#
# Compressibility (1/GPa) = 0.02068285
#
# Stress axis : x y z
#
# Youngs Moduli (GPa) = 76.64152 57.02137 94.59645
#
# Poissons Ratio (x) = 0.36780 0.01401
# Poissons Ratio (y) = 0.49435 0.34419
# Poissons Ratio (z) = 0.01135 0.20747
#
# Static dielectric constant tensor:
#      x y z
#    x 3.828240 0.000000 0.000000 
#    y 0.000000 3.716910 0.000000 
#    z 0.000000 0.000000 4.104490 
# 
# 
# High freq. dielectric constant tensor:
#      x y z
#    x 1.866970 0.000000 0.000000 
#    y 0.000000 1.837230 0.000000 
#    z 0.000000 0.000000 1.879220 
# 
# From -- ./inp_files/1579.got.cif
#   From: 2010.03.12/outbox.cif.g09.slc.cpg/sg19_1_cif.got.tgz:1579.got - 2010.04.10 18:59:41.
