data_PCOD8157506
_publ_section_title
;
Structure prediction by ZEFSAII (Michael W. Deem and Ramdas Pophale) SiO2 
 PCOD8157506
Probable space group: P 21 21 21
;
_chemical_formula_sum "Si O2"
_cell_formula_units_Z 32
_cell_length_a 14.887227
_cell_length_b 8.679033
_cell_length_c 10.835831
_cell_angle_alpha 90.000000
_cell_angle_beta 90.000000
_cell_angle_gamma 90.000000
_cell_volume 1400.062338
_symmetry_space_group_name_H-M "P 21 21 21"
_symmetry_group_IT_number 19
_symmetry_cell_setting 'orthorhombic'
loop_
_space_group_symop_operation_xyz
x,y,z
1/2-x,-y,1/2+z
1/2+x,1/2-y,-z
-x,1/2+y,1/2-z
loop_
_atom_site_type_symbol
_atom_site_label
_atom_site_fract_x
_atom_site_fract_y
_atom_site_fract_z
Si Si1 0.463960 0.218292 0.628924
Si Si2 0.960620 0.464351 0.120153
Si Si3 0.738869 0.843102 0.603467
Si Si4 0.071774 0.451842 0.892129
Si Si5 0.391576 0.550751 0.024687
Si Si6 0.055165 0.708662 0.715373
Si Si7 0.308327 0.102645 0.075314
Si Si8 0.735832 0.725647 0.870951
O O1 0.526754 0.361406 0.662461
O O2 0.452368 0.133394 0.757882
O O3 0.517637 0.124962 0.525406
O O4 0.364326 0.261223 0.574632
O O5 0.874647 0.443336 0.034652
O O6 0.044945 0.420298 0.033366
O O7 0.821903 0.957009 0.617956
O O8 0.755769 0.733177 0.484125
O O9 0.727482 0.745740 0.725653
O O10 0.650394 0.946969 0.584147
O O11 0.040952 0.625429 0.848760
O O12 0.034555 0.307256 0.810633
O O13 0.426699 0.441191 0.132276
O O14 0.314521 0.670612 0.069978
O O15 0.138562 0.827424 0.694625
O O16 0.252097 0.955785 0.114002
#
# Coordination Sequence:
#
# PCOD8157506 Si02
#       8
#     4   4   4   4   4   4   4   4
#     4  12  26  45  76  98 148 192 244 302 371 437
#     4  11  25  46  68 108 139 190 240 295 366 444
#     4  11  24  46  68 103 145 187 244 305 364 443
#     4  11  25  45  73 107 142 189 241 302 370 447
#     4  11  25  48  71 105 145 197 244 307 371 443
#     4  10  25  43  74  99 149 184 235 304 370 433
#     4  10  24  48  66 102 145 187 246 302 361 448
#     4  12  24  47  74 106 145 194 252 305 373 441
#
# _framework density 22.856124000000001
#
# number of rings (size 3 to 8) (size 9 to 14) (size 15 to 20)
#    0.000    1.000    3.750    1.500   10.500    0.000 
#    6.750    0.000    0.000    0.000    0.000    0.000 
#    0.000    0.000    0.000    0.000    0.000    0.000 
#
# Total GULP energy -396614.812124 kJ/mol
# GULP energy per Si atom -12394.212879 kJ/mol
# Density = 2.280410 g / cm^3
# Si number density = 22.856124 Si / 1000 Ang^3
#
#
#
# Elastic Constant Matrix: (Units=GPa)
#
#
# Indices 1 2 3 4 5 6 
#
# 1 70.7983 13.6961 27.6797 0.0000 0.0000 0.0000
# 2 13.6961 97.3698 15.1157 0.0000 0.0000 0.0000
# 3 27.6797 15.1157 43.9004 0.0000 0.0000 0.0000
# 4 0.0000 0.0000 0.0000 -954.3464 0.0000 0.0000
# 5 0.0000 0.0000 0.0000 0.0000 23.1716 0.0000
# 6 0.0000 0.0000 0.0000 0.0000 0.0000 21.9496
#
#
#
# Elastic Compliance Matrix: (Units=1/GPa)
#
#
# Indices 1 2 3 4 5 6 
#
# 1 0.018812 -0.000850 -0.011568 0.000000 0.000000 0.000000
# 2 -0.000850 0.010889 -0.003213 0.000000 0.000000 0.000000
# 3 -0.011568 -0.003213 0.031179 0.000000 0.000000 0.000000
# 4 0.000000 0.000000 0.000000 -0.001048 0.000000 0.000000
# 5 0.000000 0.000000 0.000000 0.000000 0.043156 0.000000
# 6 0.000000 0.000000 0.000000 0.000000 0.000000 0.045559
#
#
# Mechanical properties :
#
#
# Convention : Reuss Voigt Hill
#
# Bulk Modulus (GPa) = 33.76522 36.11686 34.94104
# Shear Modulus (GPa) = 26.35985 -171.47323 -72.55669
#
# Velocity S-wave (km/s) = 3.39970 -8.67097 -5.64038
# Velocity P-wave (km/s) = 5.49688 9.18758 5.20557
#
# Compressibility (1/GPa) = 0.02961628
#
# Stress axis : x y z
#
# Youngs Moduli (GPa) = 53.15761 91.83990 32.07266
#
# Poissons Ratio (x) = 0.07808 0.37103
# Poissons Ratio (y) = 0.04520 0.10305
# Poissons Ratio (z) = 0.61495 0.29509
#
# Static dielectric constant tensor:
#      x y z
#    x 23.746000 0.000000 0.000000 
#    y 0.000000 4.350260 0.000000 
#    z 0.000000 0.000000 4.262760 
# 
# 
# High freq. dielectric constant tensor:
#      x y z
#    x 1.902060 0.000000 0.000000 
#    y 0.000000 1.917030 0.000000 
#    z 0.000000 0.000000 1.901130 
# 
# From -- ./inp_files/5241.got.cif
#   From: 2010.03.12/outbox.cif.g09.slc.cpg/sg19_3_cif.got.tgz:5241.got - 2010.04.10 18:59:41.
