data_PCOD8157354
_publ_section_title
;
Structure prediction by ZEFSAII (Michael W. Deem and Ramdas Pophale) SiO2 
 PCOD8157354
Probable space group: P 21 21 21
;
_chemical_formula_sum "Si O2"
_cell_formula_units_Z 32
_cell_length_a 18.778589
_cell_length_b 9.355686
_cell_length_c 8.568123
_cell_angle_alpha 90.000000
_cell_angle_beta 90.000000
_cell_angle_gamma 90.000000
_cell_volume 1505.304246
_symmetry_space_group_name_H-M "P 21 21 21"
_symmetry_group_IT_number 19
_symmetry_cell_setting 'orthorhombic'
loop_
_space_group_symop_operation_xyz
x,y,z
1/2-x,-y,1/2+z
1/2+x,1/2-y,-z
-x,1/2+y,1/2-z
loop_
_atom_site_type_symbol
_atom_site_label
_atom_site_fract_x
_atom_site_fract_y
_atom_site_fract_z
Si Si1 0.067692 0.159606 0.865344
Si Si2 0.052468 0.478855 0.779503
Si Si3 0.775723 0.688009 0.264175
Si Si4 0.445972 0.437760 0.632191
Si Si5 0.801548 0.157059 0.220485
Si Si6 0.774323 0.579146 0.605943
Si Si7 0.063519 0.242346 0.217273
Si Si8 0.803019 0.042885 0.877874
O O1 0.046410 0.308548 0.786124
O O2 0.149164 0.123688 0.825760
O O3 0.021129 0.034475 0.790760
O O4 0.054130 0.167159 0.050087
O O5 0.114720 0.524454 0.662824
O O6 0.068532 0.544000 0.949158
O O7 0.773766 0.598122 0.422014
O O8 0.743374 0.586852 0.131157
O O9 0.855667 0.735144 0.222309
O O10 0.727757 0.827722 0.275820
O O11 0.379511 0.356176 0.707742
O O12 0.458671 0.591859 0.710565
O O13 0.515028 0.339841 0.657890
O O14 0.786052 0.323494 0.187906
O O15 0.742233 0.098192 0.339232
O O16 0.794571 0.069414 0.060483
#
# Coordination Sequence:
#
# PCOD8157354 Si02
#       8
#     4   4   4   4   4   4   4   4
#     4  10  23  44  62  88 127 162 203 255 304 363
#     4  11  24  42  64  91 124 164 207 253 310 369
#     4  10  23  42  63  90 125 160 202 255 308 362
#     4  11  24  42  64  91 124 164 207 253 310 369
#     4  11  22  41  66  92 122 160 205 255 306 364
#     4  10  23  42  63  90 125 160 202 255 308 362
#     4  10  23  44  62  88 127 162 203 255 304 363
#     4  11  22  41  66  92 122 160 205 255 306 364
#
# _framework density 21.25816
#
# number of rings (size 3 to 8) (size 9 to 14) (size 15 to 20)
#    0.000    1.500    2.500    1.500    3.500    5.000 
#    0.000    0.000    0.000    0.000    0.000    0.000 
#    0.000    0.000    0.000    0.000    0.000    0.000 
#
# Total GULP energy -397004.332276 kJ/mol
# GULP energy per Si atom -12406.385384 kJ/mol
# Density = 2.120978 g / cm^3
# Si number density = 21.258160 Si / 1000 Ang^3
#
#
#
# Elastic Constant Matrix: (Units=GPa)
#
#
# Indices 1 2 3 4 5 6 
#
# 1 65.7574 17.0886 7.0652 0.0000 0.0000 0.0000
# 2 17.0886 35.9139 -6.5170 0.0000 0.0000 0.0000
# 3 7.0652 -6.5170 16.4647 0.0000 0.0000 0.0000
# 4 0.0000 0.0000 0.0000 36.8343 0.0000 0.0000
# 5 0.0000 0.0000 0.0000 0.0000 28.2945 0.0000
# 6 0.0000 0.0000 0.0000 0.0000 0.0000 36.2542
#
#
#
# Elastic Compliance Matrix: (Units=1/GPa)
#
#
# Indices 1 2 3 4 5 6 
#
# 1 0.019660 -0.011728 -0.013079 0.000000 0.000000 0.000000
# 2 -0.011728 0.036995 0.019676 0.000000 0.000000 0.000000
# 3 -0.013079 0.019676 0.074136 0.000000 0.000000 0.000000
# 4 0.000000 0.000000 0.000000 0.027149 0.000000 0.000000
# 5 0.000000 0.000000 0.000000 0.000000 0.035343 0.000000
# 6 0.000000 0.000000 0.000000 0.000000 0.000000 0.027583
#
#
# Mechanical properties :
#
#
# Convention : Reuss Voigt Hill
#
# Bulk Modulus (GPa) = 8.29665 17.04550 12.67108
# Shear Modulus (GPa) = 18.42945 26.97654 22.70299
#
# Velocity S-wave (km/s) = 2.94757 3.56616 3.27152
# Velocity P-wave (km/s) = 3.93643 4.99924 4.49933
#
# Compressibility (1/GPa) = 0.12053056
#
# Stress axis : x y z
#
# Youngs Moduli (GPa) = 50.86342 27.03038 13.48867
#
# Poissons Ratio (x) = 0.31702 0.17641
# Poissons Ratio (y) = 0.59654 -0.26540
# Poissons Ratio (z) = 0.66523 -0.53185
#
# Static dielectric constant tensor:
#      x y z
#    x 3.808180 0.000000 0.000000 
#    y 0.000000 3.794120 0.000000 
#    z 0.000000 0.000000 3.758290 
# 
# 
# High freq. dielectric constant tensor:
#      x y z
#    x 1.838410 0.000000 0.000000 
#    y 0.000000 1.838650 0.000000 
#    z 0.000000 0.000000 1.832650 
# 
# From -- ./inp_files/3044.got.cif
#   From: 2010.03.12/outbox.cif.g09.slc.cpg/sg19_2_cif.got.tgz:3044.got - 2010.04.10 18:59:41.
