data_PCOD8157201
_publ_section_title
;
Structure prediction by ZEFSAII (Michael W. Deem and Ramdas Pophale) SiO2 
 PCOD8157201
Probable space group: P 21 21 21
;
_chemical_formula_sum "Si O2"
_cell_formula_units_Z 24
_cell_length_a 16.206985
_cell_length_b 4.965368
_cell_length_c 13.837153
_cell_angle_alpha 90.000000
_cell_angle_beta 90.000000
_cell_angle_gamma 90.000000
_cell_volume 1113.526134
_symmetry_space_group_name_H-M "P 21 21 21"
_symmetry_group_IT_number 19
_symmetry_cell_setting 'orthorhombic'
loop_
_space_group_symop_operation_xyz
x,y,z
1/2-x,-y,1/2+z
1/2+x,1/2-y,-z
-x,1/2+y,1/2-z
loop_
_atom_site_type_symbol
_atom_site_label
_atom_site_fract_x
_atom_site_fract_y
_atom_site_fract_z
Si Si1 0.440176 0.691399 0.856977
Si Si2 0.694122 0.129542 0.009583
Si Si3 0.198927 0.137056 0.500935
Si Si4 0.049253 0.311045 0.135101
Si Si5 0.904006 0.063857 0.691352
Si Si6 0.908275 0.566214 0.817950
O O1 0.417313 0.718196 0.744170
O O2 0.475189 0.398600 0.884459
O O3 0.512975 0.895317 0.884774
O O4 0.357464 0.748660 0.915249
O O5 0.658301 0.000934 0.106518
O O6 0.747654 0.388875 0.039156
O O7 0.625079 0.237521 0.936274
O O8 0.746376 0.887978 0.960944
O O9 0.146409 0.013940 0.588442
O O10 0.890925 0.865456 0.781127
O O11 0.996622 0.032497 0.650344
O O12 0.885955 0.361728 0.731417
#
# Coordination Sequence:
#
# PCOD8157201 Si02
#       6
#     4   4   4   4   4   4
#     4  10  22  42  66  89 119 164 212 253 297 361
#     4  12  25  39  62  95 129 162 197 253 318 367
#     4  12  25  39  62  95 129 162 197 253 318 367
#     4  10  22  42  66  89 119 164 212 253 297 361
#     4  10  22  41  64  88 119 164 213 254 296 360
#     4  10  22  41  64  88 119 164 213 254 296 360
#
# _framework density 21.553155
#
# number of rings (size 3 to 8) (size 9 to 14) (size 15 to 20)
#    0.000    1.333    0.000    5.000    0.000    8.000 
#    0.000    0.000    0.000    0.000    0.000    0.000 
#    0.000    0.000    0.000    0.000    0.000    0.000 
#
# Total GULP energy -297755.452600 kJ/mol
# GULP energy per Si atom -12406.477192 kJ/mol
# Density = 2.150410 g / cm^3
# Si number density = 21.553155 Si / 1000 Ang^3
#
#
#
# Elastic Constant Matrix: (Units=GPa)
#
#
# Indices 1 2 3 4 5 6 
#
# 1 82.8245 21.3460 43.1052 0.0000 0.0000 0.0000
# 2 21.3460 91.8799 9.0861 0.0000 0.0000 0.0000
# 3 43.1052 9.0861 73.5220 0.0000 0.0000 0.0000
# 4 0.0000 0.0000 0.0000 23.0573 0.0000 0.0000
# 5 0.0000 0.0000 0.0000 0.0000 18.6937 0.0000
# 6 0.0000 0.0000 0.0000 0.0000 0.0000 36.2340
#
#
#
# Elastic Compliance Matrix: (Units=1/GPa)
#
#
# Indices 1 2 3 4 5 6 
#
# 1 0.018273 -0.003225 -0.010315 0.000000 0.000000 0.000000
# 2 -0.003225 0.011588 0.000459 0.000000 0.000000 0.000000
# 3 -0.010315 0.000459 0.019592 0.000000 0.000000 0.000000
# 4 0.000000 0.000000 0.000000 0.043370 0.000000 0.000000
# 5 0.000000 0.000000 0.000000 0.000000 0.053494 0.000000
# 6 0.000000 0.000000 0.000000 0.000000 0.000000 0.027598
#
#
# Mechanical properties :
#
#
# Convention : Reuss Voigt Hill
#
# Bulk Modulus (GPa) = 42.93566 43.92235 43.42900
# Shear Modulus (GPa) = 24.05679 27.24294 25.64987
#
# Velocity S-wave (km/s) = 3.34452 3.55912 3.45349
# Velocity P-wave (km/s) = 5.90580 6.10841 6.00796
#
# Compressibility (1/GPa) = 0.02329066
#
# Stress axis : x y z
#
# Youngs Moduli (GPa) = 54.72498 86.29838 51.04089
#
# Poissons Ratio (x) = 0.27834 0.52648
# Poissons Ratio (y) = 0.17650 -0.02342
# Poissons Ratio (z) = 0.56448 -0.03960
#
# Static dielectric constant tensor:
#      x y z
#    x 3.879950 0.000000 0.000000 
#    y 0.000000 4.046570 0.000000 
#    z 0.000000 0.000000 3.659930 
# 
# 
# High freq. dielectric constant tensor:
#      x y z
#    x 1.846480 0.000000 0.000000 
#    y 0.000000 1.865670 0.000000 
#    z 0.000000 0.000000 1.841260 
# 
# From -- ./inp_files/4443.got.cif
#   From: 2010.03.12/outbox.cif.g09.slc.cpg/sg19_3_cif.got.tgz:4443.got - 2010.04.10 18:59:41.
