data_PCOD8157119
_publ_section_title
;
Structure prediction by ZEFSAII (Michael W. Deem and Ramdas Pophale) SiO2 
 PCOD8157119
Probable space group: P 21 21 21
;
_chemical_formula_sum "Si O2"
_cell_formula_units_Z 32
_cell_length_a 11.333580
_cell_length_b 9.304176
_cell_length_c 13.695607
_cell_angle_alpha 90.000000
_cell_angle_beta 90.000000
_cell_angle_gamma 90.000000
_cell_volume 1444.196595
_symmetry_space_group_name_H-M "P 21 21 21"
_symmetry_group_IT_number 19
_symmetry_cell_setting 'orthorhombic'
loop_
_space_group_symop_operation_xyz
x,y,z
1/2-x,-y,1/2+z
1/2+x,1/2-y,-z
-x,1/2+y,1/2-z
loop_
_atom_site_type_symbol
_atom_site_label
_atom_site_fract_x
_atom_site_fract_y
_atom_site_fract_z
Si Si1 0.531775 0.731523 0.534385
Si Si2 0.730256 0.091417 0.310675
Si Si3 0.441645 0.716285 0.928394
Si Si4 0.613790 0.491562 0.895986
Si Si5 0.937795 0.946291 0.627549
Si Si6 0.001101 0.520483 0.190018
Si Si7 0.288875 0.473257 0.981570
Si Si8 0.348328 0.878562 0.111641
O O1 0.425747 0.838015 0.563452
O O2 0.512061 0.684880 0.420905
O O3 0.531916 0.594734 0.606468
O O4 0.656352 0.816827 0.543379
O O5 0.643170 0.078831 0.219923
O O6 0.859178 0.030210 0.287477
O O7 0.727046 0.262005 0.329109
O O8 0.680061 0.010596 0.406159
O O9 0.561092 0.627751 0.957586
O O10 0.458882 0.818047 0.835269
O O11 0.345034 0.592140 0.908768
O O12 0.398887 0.821419 0.011519
O O13 0.567830 0.522347 0.786780
O O14 0.755604 0.491727 0.905345
O O15 0.851372 0.985906 0.536230
O O16 0.033123 0.063890 0.664188
#
# Coordination Sequence:
#
# PCOD8157119 Si02
#       8
#     4   4   4   4   4   4   4   4
#     4  11  25  43  73 102 140 181 233 297 351 418
#     4  11  24  45  74  97 145 185 238 294 356 426
#     4  10  21  45  71  94 133 187 230 283 346 408
#     4  11  25  43  71 105 136 176 245 291 346 416
#     4  12  26  44  70 102 146 188 229 294 369 407
#     4  12  22  47  75 103 135 186 244 291 342 422
#     4  10  24  46  70 104 140 187 235 291 354 425
#     4  11  25  45  68  99 141 182 236 287 346 434
#
# _framework density 22.157647999999998
#
# number of rings (size 3 to 8) (size 9 to 14) (size 15 to 20)
#    0.000    1.000    3.750    2.250    7.000    0.000 
#    2.250    0.000    0.000    0.000    0.000    0.000 
#    0.000    0.000    0.000    0.000    0.000    0.000 
#
# Total GULP energy -396536.652833 kJ/mol
# GULP energy per Si atom -12391.770401 kJ/mol
# Density = 2.210722 g / cm^3
# Si number density = 22.157648 Si / 1000 Ang^3
#
#
#
# Elastic Constant Matrix: (Units=GPa)
#
#
# Indices 1 2 3 4 5 6 
#
# 1 130.6373 37.5404 24.6619 0.0000 0.0000 0.0000
# 2 37.5404 103.9736 26.0462 0.0000 0.0000 0.0000
# 3 24.6619 26.0462 80.8626 0.0000 0.0000 0.0000
# 4 0.0000 0.0000 0.0000 24.8585 0.0000 0.0000
# 5 0.0000 0.0000 0.0000 0.0000 16.3473 0.0000
# 6 0.0000 0.0000 0.0000 0.0000 0.0000 29.3047
#
#
#
# Elastic Compliance Matrix: (Units=1/GPa)
#
#
# Indices 1 2 3 4 5 6 
#
# 1 0.008776 -0.002717 -0.001801 0.000000 0.000000 0.000000
# 2 -0.002717 0.011303 -0.002812 0.000000 0.000000 0.000000
# 3 -0.001801 -0.002812 0.013822 0.000000 0.000000 0.000000
# 4 0.000000 0.000000 0.000000 0.040228 0.000000 0.000000
# 5 0.000000 0.000000 0.000000 0.000000 0.061172 0.000000
# 6 0.000000 0.000000 0.000000 0.000000 0.000000 0.034124
#
#
# Mechanical properties :
#
#
# Convention : Reuss Voigt Hill
#
# Bulk Modulus (GPa) = 51.97617 54.66339 53.31978
# Shear Modulus (GPa) = 26.24682 29.25044 27.74863
#
# Velocity S-wave (km/s) = 3.44546 3.63727 3.54266
# Velocity P-wave (km/s) = 6.27189 6.50872 6.39140
#
# Compressibility (1/GPa) = 0.01923958
#
# Stress axis : x y z
#
# Youngs Moduli (GPa) = 113.95143 88.46906 72.34951
#
# Poissons Ratio (x) = 0.24040 0.13032
# Poissons Ratio (y) = 0.30964 0.20346
# Poissons Ratio (z) = 0.20525 0.24879
#
# Static dielectric constant tensor:
#      x y z
#    x 4.205050 0.000000 0.000000 
#    y 0.000000 4.352190 0.000000 
#    z 0.000000 0.000000 3.850940 
# 
# 
# High freq. dielectric constant tensor:
#      x y z
#    x 1.879750 0.000000 0.000000 
#    y 0.000000 1.881520 0.000000 
#    z 0.000000 0.000000 1.858460 
# 
# From -- ./inp_files/6126.got.cif
#   From: 2010.03.12/outbox.cif.g09.slc.cpg/sg19_4_cif.got.tgz:6126.got - 2010.04.10 18:59:41.
