data_PCOD8157243
_publ_section_title
;
Structure prediction by ZEFSAII (Michael W. Deem and Ramdas Pophale) SiO2 
 PCOD8157243
Probable space group: P 21 21 21
;
_chemical_formula_sum "Si O2"
_cell_formula_units_Z 32
_cell_length_a 16.071221
_cell_length_b 13.497117
_cell_length_c 7.107929
_cell_angle_alpha 90.000000
_cell_angle_beta 90.000000
_cell_angle_gamma 90.000000
_cell_volume 1541.817486
_symmetry_space_group_name_H-M "P 21 21 21"
_symmetry_group_IT_number 19
_symmetry_cell_setting 'orthorhombic'
loop_
_space_group_symop_operation_xyz
x,y,z
1/2-x,-y,1/2+z
1/2+x,1/2-y,-z
-x,1/2+y,1/2-z
loop_
_atom_site_type_symbol
_atom_site_label
_atom_site_fract_x
_atom_site_fract_y
_atom_site_fract_z
Si Si1 0.459958 0.282572 0.603973
Si Si2 0.835299 0.399230 0.963985
Si Si3 0.726412 0.399159 0.318482
Si Si4 0.011923 0.351958 0.047139
Si Si5 0.629352 0.983148 0.804431
Si Si6 0.408021 0.750475 0.207471
Si Si7 0.199816 0.770287 0.870173
Si Si8 0.794951 0.905864 0.986068
O O1 0.484885 0.210113 0.771616
O O2 0.431641 0.388619 0.688088
O O3 0.539849 0.290336 0.470289
O O4 0.386237 0.237620 0.481192
O O5 0.793750 0.486723 0.847060
O O6 0.815558 0.299845 0.845736
O O7 0.802249 0.387542 0.174756
O O8 0.933805 0.417002 0.977862
O O9 0.648516 0.342284 0.227018
O O10 0.746565 0.352586 0.520806
O O11 0.087876 0.425988 0.084296
O O12 0.034472 0.275355 0.883239
O O13 0.643574 0.016734 0.588738
O O14 0.721416 0.963627 0.882151
O O15 0.350803 0.655490 0.160112
O O16 0.251370 0.668181 0.864163
#
# Coordination Sequence:
#
# PCOD8157243 Si02
#       8
#     4   4   4   4   4   4   4   4
#     4  11  23  46  65  96 137 173 216 281 335 399
#     4  12  23  41  68  96 133 176 225 272 334 396
#     4  11  24  40  66  98 129 176 226 271 328 404
#     4  12  25  43  69  98 136 178 223 271 341 402
#     4  11  24  44  68 102 133 177 227 277 339 402
#     4  11  24  45  66  99 135 175 220 278 337 395
#     4  10  22  42  65  91 133 173 218 276 331 386
#     4  10  23  43  71  94 136 172 225 280 325 406
#
# _framework density 20.754728
#
# number of rings (size 3 to 8) (size 9 to 14) (size 15 to 20)
#    0.000    1.000    5.000    1.500    1.750    1.000 
#    9.000    0.000    0.000    0.000    0.000    0.000 
#    0.000    0.000    0.000    0.000    0.000    0.000 
#
# Total GULP energy -396868.855121 kJ/mol
# GULP energy per Si atom -12402.151723 kJ/mol
# Density = 2.070749 g / cm^3
# Si number density = 20.754728 Si / 1000 Ang^3
#
#
#
# Elastic Constant Matrix: (Units=GPa)
#
#
# Indices 1 2 3 4 5 6 
#
# 1 99.4288 18.6642 15.7322 0.0000 0.0000 0.0000
# 2 18.6642 77.6639 16.6243 0.0000 0.0000 0.0000
# 3 15.7322 16.6243 56.4583 0.0000 0.0000 0.0000
# 4 0.0000 0.0000 0.0000 24.8375 0.0000 0.0000
# 5 0.0000 0.0000 0.0000 0.0000 37.1133 0.0000
# 6 0.0000 0.0000 0.0000 0.0000 0.0000 41.1511
#
#
#
# Elastic Compliance Matrix: (Units=1/GPa)
#
#
# Indices 1 2 3 4 5 6 
#
# 1 0.010830 -0.002088 -0.002403 0.000000 0.000000 0.000000
# 2 -0.002088 0.014145 -0.003583 0.000000 0.000000 0.000000
# 3 -0.002403 -0.003583 0.019437 0.000000 0.000000 0.000000
# 4 0.000000 0.000000 0.000000 0.040262 0.000000 0.000000
# 5 0.000000 0.000000 0.000000 0.000000 0.026945 0.000000
# 6 0.000000 0.000000 0.000000 0.000000 0.000000 0.024301
#
#
# Mechanical properties :
#
#
# Convention : Reuss Voigt Hill
#
# Bulk Modulus (GPa) = 35.38199 37.28802 36.33500
# Shear Modulus (GPa) = 30.96215 32.78905 31.87560
#
# Velocity S-wave (km/s) = 3.86659 3.97903 3.92321
# Velocity P-wave (km/s) = 6.08430 6.25422 6.16984
#
# Compressibility (1/GPa) = 0.02826297
#
# Stress axis : x y z
#
# Youngs Moduli (GPa) = 92.33924 70.69726 51.44882
#
# Poissons Ratio (x) = 0.14763 0.12362
# Poissons Ratio (y) = 0.19283 0.18435
# Poissons Ratio (z) = 0.22187 0.25331
#
# Static dielectric constant tensor:
#      x y z
#    x 3.943630 0.000000 0.000000 
#    y 0.000000 3.728630 0.000000 
#    z 0.000000 0.000000 3.613810 
# 
# 
# High freq. dielectric constant tensor:
#      x y z
#    x 1.828380 0.000000 0.000000 
#    y 0.000000 1.812440 0.000000 
#    z 0.000000 0.000000 1.808430 
# 
# From -- ./inp_files/1782.got.cif
#   From: 2010.03.12/outbox.cif.g09.slc.cpg/sg19_1_cif.got.tgz:1782.got - 2010.04.10 18:59:41.
