data_PCOD8157805
_publ_section_title
;
Structure prediction by ZEFSAII (Michael W. Deem and Ramdas Pophale) SiO2 
 PCOD8157805
Probable space group: P 21 21 21
;
_chemical_formula_sum "Si O2"
_cell_formula_units_Z 20
_cell_length_a 5.247278
_cell_length_b 19.787152
_cell_length_c 7.478797
_cell_angle_alpha 90.000000
_cell_angle_beta 90.000000
_cell_angle_gamma 90.000000
_cell_volume 776.513676
_symmetry_space_group_name_H-M "P 21 21 21"
_symmetry_group_IT_number 19
_symmetry_cell_setting 'orthorhombic'
loop_
_space_group_symop_operation_xyz
x,y,z
1/2-x,-y,1/2+z
1/2+x,1/2-y,-z
-x,1/2+y,1/2-z
loop_
_atom_site_type_symbol
_atom_site_label
_atom_site_fract_x
_atom_site_fract_y
_atom_site_fract_z
Si Si1 0.835274 0.083522 0.435783
Si Si2 0.505866 0.197766 0.291141
Si Si3 0.963099 0.390161 0.038623
Si Si4 0.289504 0.836748 0.134533
Si Si5 0.529742 0.965785 0.566488
O O1 0.751400 0.155014 0.352753
O O2 0.973079 0.039140 0.281915
O O3 0.026711 0.098728 0.599765
O O4 0.588905 0.043162 0.510429
O O5 0.402591 0.169058 0.103734
O O6 0.292272 0.191556 0.442736
O O7 0.567326 0.276358 0.261856
O O8 0.745681 0.447010 0.010833
O O9 0.244653 0.419245 0.013309
O O10 0.942626 0.360434 0.238956
#
# Coordination Sequence:
#
# PCOD8157805 Si02
#       5
#     4   4   4   4   4
#     4  11  25  45  73 105 149 193 248 304 371 439
#     4  11  26  47  71 109 148 192 250 306 368 447
#     4  11  28  47  74 109 148 189 249 306 372 436
#     4  12  25  46  78 101 151 199 243 309 373 438
#     4  11  26  47  72 110 146 193 248 307 366 448
#
# _framework density 25.756146999999999
#
# number of rings (size 3 to 8) (size 9 to 14) (size 15 to 20)
#    0.000    0.800    4.000    1.200    8.400    4.800 
#    0.000    0.000    0.000    0.000    0.000    0.000 
#    0.000    0.000    0.000    0.000    0.000    0.000 
#
# Total GULP energy -248108.795684 kJ/mol
# GULP energy per Si atom -12405.439784 kJ/mol
# Density = 2.569752 g / cm^3
# Si number density = 25.756147 Si / 1000 Ang^3
#
#
#
# Elastic Constant Matrix: (Units=GPa)
#
#
# Indices 1 2 3 4 5 6 
#
# 1 53.8005 -5.0467 3.7953 0.0000 0.0000 0.0000
# 2 -5.0467 72.1315 36.4927 0.0000 0.0000 0.0000
# 3 3.7953 36.4927 96.9718 0.0000 0.0000 0.0000
# 4 0.0000 0.0000 0.0000 40.9088 0.0000 0.0000
# 5 0.0000 0.0000 0.0000 0.0000 43.8335 0.0000
# 6 0.0000 0.0000 0.0000 0.0000 0.0000 31.8350
#
#
#
# Elastic Compliance Matrix: (Units=1/GPa)
#
#
# Indices 1 2 3 4 5 6 
#
# 1 0.018891 0.002095 -0.001528 0.000000 0.000000 0.000000
# 2 0.002095 0.017356 -0.006613 0.000000 0.000000 0.000000
# 3 -0.001528 -0.006613 0.012861 0.000000 0.000000 0.000000
# 4 0.000000 0.000000 0.000000 0.024445 0.000000 0.000000
# 5 0.000000 0.000000 0.000000 0.000000 0.022814 0.000000
# 6 0.000000 0.000000 0.000000 0.000000 0.000000 0.031412
#
#
# Mechanical properties :
#
#
# Convention : Reuss Voigt Hill
#
# Bulk Modulus (GPa) = 27.01582 32.59849 29.80715
# Shear Modulus (GPa) = 32.84938 35.82628 34.33783
#
# Velocity S-wave (km/s) = 3.57515 3.73363 3.65525
# Velocity P-wave (km/s) = 5.24920 5.59202 5.42332
#
# Compressibility (1/GPa) = 0.03701535
#
# Stress axis : x y z
#
# Youngs Moduli (GPa) = 52.93405 57.61698 77.75531
#
# Poissons Ratio (x) = -0.12068 0.11878
# Poissons Ratio (y) = -0.11088 0.51423
# Poissons Ratio (z) = 0.08086 0.38105
#
# Static dielectric constant tensor:
#      x y z
#    x 4.256560 0.000000 0.000000 
#    y 0.000000 4.711200 0.000000 
#    z 0.000000 0.000000 4.753550 
# 
# 
# High freq. dielectric constant tensor:
#      x y z
#    x 2.020060 0.000000 0.000000 
#    y 0.000000 2.033490 0.000000 
#    z 0.000000 0.000000 2.039090 
# 
# From -- ./inp_files/365.got.cif
#   From: 2010.03.12/outbox.cif.g09.slc.cpg/sg19_1_cif.got.tgz:365.got - 2010.04.10 18:59:41.
