data_PCOD8157325
_publ_section_title
;
Structure prediction by ZEFSAII (Michael W. Deem and Ramdas Pophale) SiO2 
 PCOD8157325
Probable space group: P 21 21 21
;
_chemical_formula_sum "Si O2"
_cell_formula_units_Z 32
_cell_length_a 11.739743
_cell_length_b 13.564399
_cell_length_c 8.904113
_cell_angle_alpha 90.000000
_cell_angle_beta 90.000000
_cell_angle_gamma 90.000000
_cell_volume 1417.913733
_symmetry_space_group_name_H-M "P 21 21 21"
_symmetry_group_IT_number 19
_symmetry_cell_setting 'orthorhombic'
loop_
_space_group_symop_operation_xyz
x,y,z
1/2-x,-y,1/2+z
1/2+x,1/2-y,-z
-x,1/2+y,1/2-z
loop_
_atom_site_type_symbol
_atom_site_label
_atom_site_fract_x
_atom_site_fract_y
_atom_site_fract_z
Si Si1 0.584047 0.529481 0.940642
Si Si2 0.705398 0.333967 0.495176
Si Si3 0.518667 0.947921 0.007562
Si Si4 0.959944 0.878540 0.324784
Si Si5 0.859669 0.683693 0.330268
Si Si6 0.274148 0.364328 0.667038
Si Si7 0.263918 0.338958 0.020694
Si Si8 0.589708 0.979871 0.332413
O O1 0.703218 0.582181 0.959886
O O2 0.492239 0.592558 0.845081
O O3 0.602075 0.426459 0.855848
O O4 0.533503 0.512985 0.106371
O O5 0.582997 0.375628 0.445301
O O6 0.701569 0.305342 0.669550
O O7 0.738195 0.240841 0.396837
O O8 0.590864 0.973518 0.154086
O O9 0.598535 0.892501 0.885909
O O10 0.466946 0.050160 0.936149
O O11 0.971002 0.758765 0.339504
O O12 0.829851 0.902308 0.380041
O O13 0.764993 0.722760 0.450953
O O14 0.266046 0.361415 0.846113
O O15 0.182794 0.442785 0.607867
O O16 0.383311 0.372975 0.093469
#
# Coordination Sequence:
#
# PCOD8157325 Si02
#       8
#     4   4   4   4   4   4   4   4
#     4  12  28  45  75 105 157 192 249 309 388 447
#     4  12  30  46  70 111 157 198 244 310 394 450
#     4  12  26  47  77 107 153 198 253 321 373 450
#     4  10  22  48  74 103 139 199 244 313 363 444
#     4  10  24  49  69 103 147 196 248 304 371 449
#     4  12  24  46  77 107 145 194 258 308 379 447
#     4  10  24  45  75 108 138 189 254 311 364 447
#     4  12  24  44  75 110 142 190 256 316 370 448
#
# _framework density 22.568370000000002
#
# number of rings (size 3 to 8) (size 9 to 14) (size 15 to 20)
#    0.750    0.000    3.750    2.250    8.750    0.000 
#    2.250    0.000    0.000    0.000    0.000    0.000 
#    0.000    0.000    0.000    0.000    0.000    0.000 
#
# Total GULP energy -396563.238469 kJ/mol
# GULP energy per Si atom -12392.601202 kJ/mol
# Density = 2.251700 g / cm^3
# Si number density = 22.568370 Si / 1000 Ang^3
#
#
#
# Elastic Constant Matrix: (Units=GPa)
#
#
# Indices 1 2 3 4 5 6 
#
# 1 101.0589 46.9266 35.1216 0.0000 0.0000 0.0000
# 2 46.9266 135.0739 27.6978 0.0000 0.0000 0.0000
# 3 35.1216 27.6978 116.0849 0.0000 0.0000 0.0000
# 4 0.0000 0.0000 0.0000 36.5693 0.0000 0.0000
# 5 0.0000 0.0000 0.0000 0.0000 15.7838 0.0000
# 6 0.0000 0.0000 0.0000 0.0000 0.0000 31.2891
#
#
#
# Elastic Compliance Matrix: (Units=1/GPa)
#
#
# Indices 1 2 3 4 5 6 
#
# 1 0.012680 -0.003805 -0.002928 0.000000 0.000000 0.000000
# 2 -0.003805 0.008926 -0.000979 0.000000 0.000000 0.000000
# 3 -0.002928 -0.000979 0.009734 0.000000 0.000000 0.000000
# 4 0.000000 0.000000 0.000000 0.027345 0.000000 0.000000
# 5 0.000000 0.000000 0.000000 0.000000 0.063356 0.000000
# 6 0.000000 0.000000 0.000000 0.000000 0.000000 0.031960
#
#
# Mechanical properties :
#
#
# Convention : Reuss Voigt Hill
#
# Bulk Modulus (GPa) = 62.82984 63.52328 63.17656
# Shear Modulus (GPa) = 28.61567 32.89323 30.75445
#
# Velocity S-wave (km/s) = 3.56470 3.82185 3.69551
# Velocity P-wave (km/s) = 6.69649 6.90533 6.80171
#
# Compressibility (1/GPa) = 0.01591600
#
# Stress axis : x y z
#
# Youngs Moduli (GPa) = 78.86678 112.03497 102.73389
#
# Poissons Ratio (x) = 0.42625 0.30085
# Poissons Ratio (y) = 0.30005 0.10054
# Poissons Ratio (z) = 0.23096 0.10964
#
# Static dielectric constant tensor:
#      x y z
#    x 3.853050 0.000000 0.000000 
#    y 0.000000 4.204760 0.000000 
#    z 0.000000 0.000000 3.950040 
# 
# 
# High freq. dielectric constant tensor:
#      x y z
#    x 1.873580 0.000000 0.000000 
#    y 0.000000 1.901270 0.000000 
#    z 0.000000 0.000000 1.895460 
# 
# From -- ./inp_files/3633.got.cif
#   From: 2010.03.12/outbox.cif.g09.slc.cpg/sg19_2_cif.got.tgz:3633.got - 2010.04.10 18:59:41.
