data_PCOD8157755
_publ_section_title
;
Structure prediction by ZEFSAII (Michael W. Deem and Ramdas Pophale) SiO2 
 PCOD8157755
Probable space group: P 21 21 21
;
_chemical_formula_sum "Si O2"
_cell_formula_units_Z 28
_cell_length_a 14.757185
_cell_length_b 5.260088
_cell_length_c 14.135779
_cell_angle_alpha 90.000000
_cell_angle_beta 90.000000
_cell_angle_gamma 90.000000
_cell_volume 1097.277006
_symmetry_space_group_name_H-M "P 21 21 21"
_symmetry_group_IT_number 19
_symmetry_cell_setting 'orthorhombic'
loop_
_space_group_symop_operation_xyz
x,y,z
1/2-x,-y,1/2+z
1/2+x,1/2-y,-z
-x,1/2+y,1/2-z
loop_
_atom_site_type_symbol
_atom_site_label
_atom_site_fract_x
_atom_site_fract_y
_atom_site_fract_z
Si Si1 0.156947 0.257124 0.918253
Si Si2 0.527278 0.759873 0.507553
Si Si3 0.056743 0.391002 0.750075
Si Si4 0.844812 0.554042 0.888895
Si Si5 0.544003 0.610442 0.709355
Si Si6 0.265770 0.924854 0.783264
Si Si7 0.687354 0.107800 0.551807
O O1 0.116418 0.461423 0.842486
O O2 0.239619 0.389303 0.974730
O O3 0.190247 0.020523 0.856590
O O4 0.077465 0.164752 0.989070
O O5 0.568637 0.616520 0.416182
O O6 0.530739 0.569037 0.596968
O O7 0.585748 0.009996 0.532214
O O8 0.001028 0.638623 0.721240
O O9 0.121441 0.311157 0.663012
O O10 0.780570 0.384626 0.819571
O O11 0.792881 0.646581 0.984335
O O12 0.497760 0.379689 0.763362
O O13 0.651371 0.620949 0.731686
O O14 0.305840 0.673991 0.835735
#
# Coordination Sequence:
#
# PCOD8157755 Si02
#       7
#     4   4   4   4   4   4   4
#     4  11  26  44  80 109 158 207 267 343 415 476
#     4  12  26  51  76 118 155 212 273 341 411 500
#     4  11  24  45  73 117 153 199 263 330 418 488
#     4  11  26  44  80 110 160 204 271 339 415 483
#     4  12  28  51  80 110 161 213 270 332 403 497
#     4  11  27  51  74 118 157 213 273 342 416 494
#     4  12  25  48  77 114 170 202 275 351 404 514
#
# _framework density 25.517710999999998
#
# number of rings (size 3 to 8) (size 9 to 14) (size 15 to 20)
#    0.000    0.571    4.286    1.714    6.000    4.571 
#    0.000    0.000    0.000    0.000    0.000    0.000 
#    0.000    0.000    0.000    0.000    0.000    0.000 
#
# Total GULP energy -347209.140091 kJ/mol
# GULP energy per Si atom -12400.326432 kJ/mol
# Density = 2.545963 g / cm^3
# Si number density = 25.517711 Si / 1000 Ang^3
#
#
#
# Elastic Constant Matrix: (Units=GPa)
#
#
# Indices 1 2 3 4 5 6 
#
# 1 128.7283 22.4980 39.3746 0.0000 0.0000 0.0000
# 2 22.4980 84.4796 25.0443 0.0000 0.0000 0.0000
# 3 39.3746 25.0443 112.5673 0.0000 0.0000 0.0000
# 4 0.0000 0.0000 0.0000 41.5440 0.0000 0.0000
# 5 0.0000 0.0000 0.0000 0.0000 48.8804 0.0000
# 6 0.0000 0.0000 0.0000 0.0000 0.0000 34.9284
#
#
#
# Elastic Compliance Matrix: (Units=1/GPa)
#
#
# Indices 1 2 3 4 5 6 
#
# 1 0.008884 -0.001547 -0.002763 0.000000 0.000000 0.000000
# 2 -0.001547 0.012942 -0.002338 0.000000 0.000000 0.000000
# 3 -0.002763 -0.002338 0.010370 0.000000 0.000000 0.000000
# 4 0.000000 0.000000 0.000000 0.024071 0.000000 0.000000
# 5 0.000000 0.000000 0.000000 0.000000 0.020458 0.000000
# 6 0.000000 0.000000 0.000000 0.000000 0.000000 0.028630
#
#
# Mechanical properties :
#
#
# Convention : Reuss Voigt Hill
#
# Bulk Modulus (GPa) = 52.91100 55.51212 54.21156
# Shear Modulus (GPa) = 40.01526 40.99445 40.50485
#
# Velocity S-wave (km/s) = 3.96427 4.01248 3.98844
# Velocity P-wave (km/s) = 6.46018 6.57786 6.51928
#
# Compressibility (1/GPa) = 0.01889966
#
# Stress axis : x y z
#
# Youngs Moduli (GPa) = 112.56386 77.26596 96.42814
#
# Poissons Ratio (x) = 0.11951 0.26646
# Poissons Ratio (y) = 0.17410 0.22549
# Poissons Ratio (z) = 0.31105 0.18068
#
# Static dielectric constant tensor:
#      x y z
#    x 4.867140 0.000000 0.000000 
#    y 0.000000 4.145250 0.000000 
#    z 0.000000 0.000000 4.868100 
# 
# 
# High freq. dielectric constant tensor:
#      x y z
#    x 2.027170 0.000000 0.000000 
#    y 0.000000 2.000530 0.000000 
#    z 0.000000 0.000000 2.029400 
# 
# From -- ./inp_files/6236.got.cif
#   From: 2010.03.12/outbox.cif.g09.slc.cpg/sg19_4_cif.got.tgz:6236.got - 2010.04.10 18:59:41.
