data_PCOD8157798
_publ_section_title
;
Structure prediction by ZEFSAII (Michael W. Deem and Ramdas Pophale) SiO2 
 PCOD8157798
Probable space group: P 21 21 21
;
_chemical_formula_sum "Si O2"
_cell_formula_units_Z 16
_cell_length_a 13.011680
_cell_length_b 4.841530
_cell_length_c 9.981266
_cell_angle_alpha 90.000000
_cell_angle_beta 90.000000
_cell_angle_gamma 90.000000
_cell_volume 628.784215
_symmetry_space_group_name_H-M "P 21 21 21"
_symmetry_group_IT_number 19
_symmetry_cell_setting 'orthorhombic'
loop_
_space_group_symop_operation_xyz
x,y,z
1/2-x,-y,1/2+z
1/2+x,1/2-y,-z
-x,1/2+y,1/2-z
loop_
_atom_site_type_symbol
_atom_site_label
_atom_site_fract_x
_atom_site_fract_y
_atom_site_fract_z
Si Si1 0.405827 0.777421 0.073845
Si Si2 0.482377 0.003811 0.663351
Si Si3 0.203080 0.032542 0.982384
Si Si4 0.621411 0.961501 0.164004
O O1 0.361950 0.569088 0.186061
O O2 0.499702 0.962030 0.130466
O O3 0.436909 0.585978 0.950062
O O4 0.320242 0.991971 0.024311
O O5 0.495737 0.187871 0.796671
O O6 0.367069 0.043710 0.609925
O O7 0.169753 0.842944 0.854454
O O8 0.182708 0.347165 0.941057
#
# Coordination Sequence:
#
# PCOD8157798 Si02
#       4
#     4   4   4   4
#     4  11  26  48  78  99 155 185 242 306 349 439
#     4  11  25  44  67 106 146 181 235 294 354 424
#     4  11  27  44  75 109 139 195 237 296 365 423
#     4  11  26  48  72 110 138 193 248 288 368 422
#
# _framework density 25.445931999999999
#
# number of rings (size 3 to 8) (size 9 to 14) (size 15 to 20)
#    0.000    1.000    0.000    6.000    7.000   10.000 
#    0.000    0.000    0.000    0.000    0.000    0.000 
#    0.000    0.000    0.000    0.000    0.000    0.000 
#
# Total GULP energy -198567.919728 kJ/mol
# GULP energy per Si atom -12410.494983 kJ/mol
# Density = 2.538802 g / cm^3
# Si number density = 25.445932 Si / 1000 Ang^3
#
#
#
# Elastic Constant Matrix: (Units=GPa)
#
#
# Indices 1 2 3 4 5 6 
#
# 1 84.4593 -11.1509 -0.7856 0.0000 0.0000 0.0000
# 2 -11.1509 65.7383 -5.5971 0.0000 0.0000 0.0000
# 3 -0.7856 -5.5971 92.8532 0.0000 0.0000 0.0000
# 4 0.0000 0.0000 0.0000 20.9870 0.0000 0.0000
# 5 0.0000 0.0000 0.0000 0.0000 23.6603 0.0000
# 6 0.0000 0.0000 0.0000 0.0000 0.0000 32.9435
#
#
#
# Elastic Compliance Matrix: (Units=1/GPa)
#
#
# Indices 1 2 3 4 5 6 
#
# 1 0.012116 0.002075 0.000228 0.000000 0.000000 0.000000
# 2 0.002075 0.015646 0.000961 0.000000 0.000000 0.000000
# 3 0.000228 0.000961 0.010830 0.000000 0.000000 0.000000
# 4 0.000000 0.000000 0.000000 0.047649 0.000000 0.000000
# 5 0.000000 0.000000 0.000000 0.000000 0.042265 0.000000
# 6 0.000000 0.000000 0.000000 0.000000 0.000000 0.030355
#
#
# Mechanical properties :
#
#
# Convention : Reuss Voigt Hill
#
# Bulk Modulus (GPa) = 22.16476 23.10928 22.63702
# Shear Modulus (GPa) = 29.87341 32.89044 31.38193
#
# Velocity S-wave (km/s) = 3.43008 3.59912 3.51562
# Velocity P-wave (km/s) = 4.94133 5.13547 5.03933
#
# Compressibility (1/GPa) = 0.04511666
#
# Stress axis : x y z
#
# Youngs Moduli (GPa) = 82.53523 63.91601 92.34017
#
# Poissons Ratio (x) = -0.13260 -0.02101
# Poissons Ratio (y) = -0.17123 -0.08871
# Poissons Ratio (z) = -0.01878 -0.06140
#
# Static dielectric constant tensor:
#      x y z
#    x 4.462430 0.000000 0.000000 
#    y 0.000000 4.419200 0.000000 
#    z 0.000000 0.000000 4.537180 
# 
# 
# High freq. dielectric constant tensor:
#      x y z
#    x 2.011450 0.000000 0.000000 
#    y 0.000000 2.021720 0.000000 
#    z 0.000000 0.000000 2.023920 
# 
# From -- ./inp_files/281.got.cif
#   From: 2010.03.12/outbox.cif.g09.slc.cpg/sg19_1_cif.got.tgz:281.got - 2010.04.10 18:59:41.
