data_PCOD8157486
_publ_section_title
;
Structure prediction by ZEFSAII (Michael W. Deem and Ramdas Pophale) SiO2 
 PCOD8157486
Probable space group: P 21 21 21
;
_chemical_formula_sum "Si O2"
_cell_formula_units_Z 32
_cell_length_a 20.712157
_cell_length_b 8.662048
_cell_length_c 8.297628
_cell_angle_alpha 90.000000
_cell_angle_beta 90.000000
_cell_angle_gamma 90.000000
_cell_volume 1488.674935
_symmetry_space_group_name_H-M "P 21 21 21"
_symmetry_group_IT_number 19
_symmetry_cell_setting 'orthorhombic'
loop_
_space_group_symop_operation_xyz
x,y,z
1/2-x,-y,1/2+z
1/2+x,1/2-y,-z
-x,1/2+y,1/2-z
loop_
_atom_site_type_symbol
_atom_site_label
_atom_site_fract_x
_atom_site_fract_y
_atom_site_fract_z
Si Si1 0.068243 0.267014 0.691177
Si Si2 0.817631 0.554487 0.825599
Si Si3 0.349372 0.483514 0.084217
Si Si4 0.130658 0.657398 0.126150
Si Si5 0.983909 0.006710 0.547596
Si Si6 0.265449 0.527486 0.788253
Si Si7 0.892503 0.320769 0.037479
Si Si8 0.774765 0.324215 0.575584
O O1 0.122092 0.146152 0.750392
O O2 0.102575 0.371792 0.550945
O O3 0.048845 0.391987 0.824976
O O4 0.008352 0.166706 0.628686
O O5 0.783820 0.481855 0.670409
O O6 0.838681 0.434891 0.965182
O O7 0.764949 0.663792 0.908935
O O8 0.309839 0.516176 0.250673
O O9 0.292702 0.455191 0.953531
O O10 0.393031 0.328220 0.082005
O O11 0.186296 0.528566 0.149269
O O12 0.121203 0.768444 0.280072
O O13 0.065829 0.563203 0.087842
O O14 0.154462 0.758847 0.973988
O O15 0.039745 0.910383 0.460471
O O16 0.265369 0.712858 0.805173
#
# Coordination Sequence:
#
# PCOD8157486 Si02
#       8
#     4   4   4   4   4   4   4   4
#     4  11  24  42  68  97 126 177 228 272 329 393
#     4  11  24  41  69 102 137 173 217 274 339 397
#     4  11  21  41  71  97 135 166 224 272 337 401
#     4  11  25  42  68  98 137 175 225 275 337 398
#     4  11  26  45  68  94 133 179 233 275 329 388
#     4  11  21  38  68 100 133 172 211 272 340 399
#     4  10  24  45  65  99 130 178 223 278 328 388
#     4  12  23  42  67 103 137 172 215 278 335 406
#
# _framework density 21.495626000000001
#
# number of rings (size 3 to 8) (size 9 to 14) (size 15 to 20)
#    0.000    1.000    3.750    2.250    3.500    4.000 
#    2.250    0.000    0.000    0.000    0.000    0.000 
#    0.000    0.000    0.000    0.000    0.000    0.000 
#
# Total GULP energy -396567.811284 kJ/mol
# GULP energy per Si atom -12392.744103 kJ/mol
# Density = 2.144670 g / cm^3
# Si number density = 21.495626 Si / 1000 Ang^3
#
#
#
# Elastic Constant Matrix: (Units=GPa)
#
#
# Indices 1 2 3 4 5 6 
#
# 1 98.4245 44.5559 34.8414 0.0000 0.0000 0.0000
# 2 44.5559 112.4700 33.3999 0.0000 0.0000 0.0000
# 3 34.8414 33.3999 72.3561 0.0000 0.0000 0.0000
# 4 0.0000 0.0000 0.0000 41.8351 0.0000 0.0000
# 5 0.0000 0.0000 0.0000 0.0000 27.6217 0.0000
# 6 0.0000 0.0000 0.0000 0.0000 0.0000 44.6025
#
#
#
# Elastic Compliance Matrix: (Units=1/GPa)
#
#
# Indices 1 2 3 4 5 6 
#
# 1 0.013644 -0.004003 -0.004722 0.000000 0.000000 0.000000
# 2 -0.004003 0.011478 -0.003371 0.000000 0.000000 0.000000
# 3 -0.004722 -0.003371 0.017650 0.000000 0.000000 0.000000
# 4 0.000000 0.000000 0.000000 0.023903 0.000000 0.000000
# 5 0.000000 0.000000 0.000000 0.000000 0.036203 0.000000
# 6 0.000000 0.000000 0.000000 0.000000 0.000000 0.022420
#
#
# Mechanical properties :
#
#
# Convention : Reuss Voigt Hill
#
# Bulk Modulus (GPa) = 53.81956 56.53832 55.17894
# Shear Modulus (GPa) = 32.11633 34.17544 33.14588
#
# Velocity S-wave (km/s) = 3.86954 3.99165 3.93107
# Velocity P-wave (km/s) = 6.71239 6.89955 6.80661
#
# Compressibility (1/GPa) = 0.01858061
#
# Stress axis : x y z
#
# Youngs Moduli (GPa) = 73.29415 87.12313 56.65606
#
# Poissons Ratio (x) = 0.34873 0.26754
# Poissons Ratio (y) = 0.29338 0.19098
# Poissons Ratio (z) = 0.34610 0.29368
#
# Static dielectric constant tensor:
#      x y z
#    x 4.052700 0.000000 0.000000 
#    y 0.000000 4.075390 0.000000 
#    z 0.000000 0.000000 3.656480 
# 
# 
# High freq. dielectric constant tensor:
#      x y z
#    x 1.850830 0.000000 0.000000 
#    y 0.000000 1.857690 0.000000 
#    z 0.000000 0.000000 1.826010 
# 
# From -- ./inp_files/4309.got.cif
#   From: 2010.03.12/outbox.cif.g09.slc.cpg/sg19_3_cif.got.tgz:4309.got - 2010.04.10 18:59:41.
