data_PCOD8157208
_publ_section_title
;
Structure prediction by ZEFSAII (Michael W. Deem and Ramdas Pophale) SiO2 
 PCOD8157208
Probable space group: P 21 21 21
;
_chemical_formula_sum "Si O2"
_cell_formula_units_Z 24
_cell_length_a 8.158580
_cell_length_b 7.679236
_cell_length_c 15.124014
_cell_angle_alpha 90.000000
_cell_angle_beta 90.000000
_cell_angle_gamma 90.000000
_cell_volume 947.544602
_symmetry_space_group_name_H-M "P 21 21 21"
_symmetry_group_IT_number 19
_symmetry_cell_setting 'orthorhombic'
loop_
_space_group_symop_operation_xyz
x,y,z
1/2-x,-y,1/2+z
1/2+x,1/2-y,-z
-x,1/2+y,1/2-z
loop_
_atom_site_type_symbol
_atom_site_label
_atom_site_fract_x
_atom_site_fract_y
_atom_site_fract_z
Si Si1 0.690081 0.567338 0.860515
Si Si2 0.857271 0.404635 0.022765
Si Si3 0.087711 0.929280 0.872024
Si Si4 0.629605 0.837677 0.997491
Si Si5 0.837923 0.049586 0.118136
Si Si6 0.915999 0.740592 0.724698
O O1 0.508050 0.502060 0.833339
O O2 0.803073 0.595132 0.774961
O O3 0.766369 0.426719 0.928419
O O4 0.689431 0.760359 0.904859
O O5 0.773736 0.521004 0.100138
O O6 0.869877 0.203475 0.047886
O O7 0.039323 0.479679 0.014027
O O8 0.017442 0.815145 0.954450
O O9 0.063878 0.812994 0.783721
O O10 0.004823 0.121483 0.854796
O O11 0.778017 0.878266 0.065490
O O12 0.699708 0.104065 0.189633
#
# Coordination Sequence:
#
# PCOD8157208 Si02
#       6
#     4   4   4   4   4   4
#     4  11  23  42  68  97 134 179 225 279 340 403
#     4  10  22  42  68  96 132 175 229 275 333 401
#     4  10  22  41  66  95 133 174 218 277 329 400
#     4  11  22  43  67  98 134 179 224 279 337 405
#     4  11  25  41  66 100 138 175 228 280 339 413
#     4  11  24  43  67 100 139 178 226 280 348 398
#
# _framework density 25.328624000000001
#
# number of rings (size 3 to 8) (size 9 to 14) (size 15 to 20)
#    0.000    1.333    1.667    4.000    2.333    4.000 
#    0.000    3.333    0.000    0.000    0.000    0.000 
#    0.000    0.000    0.000    0.000    0.000    0.000 
#
# Total GULP energy -297348.114538 kJ/mol
# GULP energy per Si atom -12389.504772 kJ/mol
# Density = 2.527097 g / cm^3
# Si number density = 25.328624 Si / 1000 Ang^3
#
#
#
# Elastic Constant Matrix: (Units=GPa)
#
#
# Indices 1 2 3 4 5 6 
#
# 1 55.2764 9.4225 10.7665 0.0000 0.0000 0.0000
# 2 9.4225 83.6784 17.6160 0.0000 0.0000 0.0000
# 3 10.7665 17.6160 64.1236 0.0000 0.0000 0.0000
# 4 0.0000 0.0000 0.0000 41.9230 0.0000 0.0000
# 5 0.0000 0.0000 0.0000 0.0000 29.1228 0.0000
# 6 0.0000 0.0000 0.0000 0.0000 0.0000 42.0996
#
#
#
# Elastic Compliance Matrix: (Units=1/GPa)
#
#
# Indices 1 2 3 4 5 6 
#
# 1 0.018890 -0.001549 -0.002746 0.000000 0.000000 0.000000
# 2 -0.001549 0.012811 -0.003259 0.000000 0.000000 0.000000
# 3 -0.002746 -0.003259 0.016951 0.000000 0.000000 0.000000
# 4 0.000000 0.000000 0.000000 0.023853 0.000000 0.000000
# 5 0.000000 0.000000 0.000000 0.000000 0.034337 0.000000
# 6 0.000000 0.000000 0.000000 0.000000 0.000000 0.023753
#
#
# Mechanical properties :
#
#
# Convention : Reuss Voigt Hill
#
# Bulk Modulus (GPa) = 29.81213 30.96537 30.38875
# Shear Modulus (GPa) = 31.87024 33.64730 32.75877
#
# Velocity S-wave (km/s) = 3.55106 3.64872 3.60022
# Velocity P-wave (km/s) = 5.34874 5.47748 5.41350
#
# Compressibility (1/GPa) = 0.03354340
#
# Stress axis : x y z
#
# Youngs Moduli (GPa) = 52.93857 78.05726 58.99225
#
# Poissons Ratio (x) = 0.12091 0.16200
# Poissons Ratio (y) = 0.08200 0.19228
# Poissons Ratio (z) = 0.14537 0.25442
#
# Static dielectric constant tensor:
#      x y z
#    x 4.324400 0.000000 0.000000 
#    y 0.000000 4.675620 0.000000 
#    z 0.000000 0.000000 4.596830 
# 
# 
# High freq. dielectric constant tensor:
#      x y z
#    x 1.990520 0.000000 0.000000 
#    y 0.000000 2.026610 0.000000 
#    z 0.000000 0.000000 2.002150 
# 
# From -- ./inp_files/5842.got.cif
#   From: 2010.03.12/outbox.cif.g09.slc.cpg/sg19_3_cif.got.tgz:5842.got - 2010.04.10 18:59:41.
