data_PCOD8157895
_publ_section_title
;
Structure prediction by ZEFSAII (Michael W. Deem and Ramdas Pophale) SiO2 
 PCOD8157895
Probable space group: P 21 21 21
;
_chemical_formula_sum "Si O2"
_cell_formula_units_Z 32
_cell_length_a 5.022939
_cell_length_b 12.053702
_cell_length_c 20.229770
_cell_angle_alpha 90.000000
_cell_angle_beta 90.000000
_cell_angle_gamma 90.000000
_cell_volume 1224.811624
_symmetry_space_group_name_H-M "P 21 21 21"
_symmetry_group_IT_number 19
_symmetry_cell_setting 'orthorhombic'
loop_
_space_group_symop_operation_xyz
x,y,z
1/2-x,-y,1/2+z
1/2+x,1/2-y,-z
-x,1/2+y,1/2-z
loop_
_atom_site_type_symbol
_atom_site_label
_atom_site_fract_x
_atom_site_fract_y
_atom_site_fract_z
Si Si1 0.016866 0.240375 0.249241
Si Si2 0.637443 0.266013 0.542947
Si Si3 0.704245 0.542059 0.808594
Si Si4 0.974490 0.798839 0.396312
Si Si5 0.788497 0.490377 0.587803
Si Si6 0.718214 0.944829 0.110627
Si Si7 0.636829 0.894796 0.506835
Si Si8 0.994538 0.378551 0.709860
O O1 0.884341 0.357457 0.262905
O O2 0.101427 0.237492 0.171586
O O3 0.794753 0.147493 0.267787
O O4 0.290267 0.227202 0.292293
O O5 0.437222 0.239734 0.484288
O O6 0.623019 0.170279 0.597830
O O7 0.584271 0.387881 0.574195
O O8 0.436139 0.492027 0.842997
O O9 0.837904 0.448337 0.764839
O O10 0.928318 0.580234 0.860628
O O11 0.097953 0.711345 0.447283
O O12 0.728049 0.852724 0.434811
O O13 0.162689 0.902109 0.377691
O O14 0.886534 0.529602 0.514828
O O15 0.009045 0.441942 0.639469
O O16 0.666827 0.021259 0.045667
#
# Coordination Sequence:
#
# PCOD8157895 Si02
#       8
#     4   4   4   4   4   4   4   4
#     4  12  28  51  78 112 151 200 264 314 387 449
#     4  12  25  46  71 107 146 192 246 307 368 447
#     4  12  25  49  73 108 149 197 255 314 369 453
#     4  12  27  48  78 111 159 203 253 322 383 477
#     4  12  27  48  75 110 154 198 253 315 387 460
#     4  12  27  48  77 110 155 199 258 315 383 457
#     4  12  27  47  76 114 158 205 252 317 397 460
#     4  12  28  49  76 110 146 200 251 316 380 449
#
# _framework density 26.126465
#
# number of rings (size 3 to 8) (size 9 to 14) (size 15 to 20)
#    0.000    0.000    3.750    6.000    5.250    2.000 
#    0.000    0.000    0.000    0.000    0.000    0.000 
#    0.000    0.000    0.000    0.000    0.000    0.000 
#
# Total GULP energy -396632.990413 kJ/mol
# GULP energy per Si atom -12394.780950 kJ/mol
# Density = 2.606700 g / cm^3
# Si number density = 26.126465 Si / 1000 Ang^3
#
#
#
# Elastic Constant Matrix: (Units=GPa)
#
#
# Indices 1 2 3 4 5 6 
#
# 1 84.5498 3.2759 12.4852 0.0000 0.0000 0.0000
# 2 3.2759 106.9739 34.8512 0.0000 0.0000 0.0000
# 3 12.4852 34.8512 85.3614 0.0000 0.0000 0.0000
# 4 0.0000 0.0000 0.0000 48.8471 0.0000 0.0000
# 5 0.0000 0.0000 0.0000 0.0000 43.7363 0.0000
# 6 0.0000 0.0000 0.0000 0.0000 0.0000 34.8110
#
#
#
# Elastic Compliance Matrix: (Units=1/GPa)
#
#
# Indices 1 2 3 4 5 6 
#
# 1 0.012094 0.000238 -0.001866 0.000000 0.000000 0.000000
# 2 0.000238 0.010787 -0.004439 0.000000 0.000000 0.000000
# 3 -0.001866 -0.004439 0.013800 0.000000 0.000000 0.000000
# 4 0.000000 0.000000 0.000000 0.020472 0.000000 0.000000
# 5 0.000000 0.000000 0.000000 0.000000 0.022864 0.000000
# 6 0.000000 0.000000 0.000000 0.000000 0.000000 0.028727
#
#
# Mechanical properties :
#
#
# Convention : Reuss Voigt Hill
#
# Bulk Modulus (GPa) = 40.73914 42.01220 41.37567
# Shear Modulus (GPa) = 38.74170 40.56373 39.65272
#
# Velocity S-wave (km/s) = 3.85496 3.94457 3.90002
# Velocity P-wave (km/s) = 5.95325 6.07136 6.01259
#
# Compressibility (1/GPa) = 0.02454642
#
# Stress axis : x y z
#
# Youngs Moduli (GPa) = 82.68794 92.70483 72.46348
#
# Poissons Ratio (x) = -0.02202 0.13520
# Poissons Ratio (y) = -0.01964 0.32165
# Poissons Ratio (z) = 0.15428 0.41150
#
# Static dielectric constant tensor:
#      x y z
#    x 4.712740 0.000000 0.000000 
#    y 0.000000 4.976270 0.000000 
#    z 0.000000 0.000000 4.773170 
# 
# 
# High freq. dielectric constant tensor:
#      x y z
#    x 2.026800 0.000000 0.000000 
#    y 0.000000 2.069260 0.000000 
#    z 0.000000 0.000000 2.059290 
# 
# From -- ./inp_files/6952.got.cif
#   From: 2010.03.12/outbox.cif.g09.slc.cpg/sg19_4_cif.got.tgz:6952.got - 2010.04.10 18:59:41.
