data_PCOD8157519
_publ_section_title
;
Structure prediction by ZEFSAII (Michael W. Deem and Ramdas Pophale) SiO2 
 PCOD8157519
Probable space group: P 21 21 21
;
_chemical_formula_sum "Si O2"
_cell_formula_units_Z 16
_cell_length_a 5.136400
_cell_length_b 18.065193
_cell_length_c 7.619640
_cell_angle_alpha 90.000000
_cell_angle_beta 90.000000
_cell_angle_gamma 90.000000
_cell_volume 707.026832
_symmetry_space_group_name_H-M "P 21 21 21"
_symmetry_group_IT_number 19
_symmetry_cell_setting 'orthorhombic'
loop_
_space_group_symop_operation_xyz
x,y,z
1/2-x,-y,1/2+z
1/2+x,1/2-y,-z
-x,1/2+y,1/2-z
loop_
_atom_site_type_symbol
_atom_site_label
_atom_site_fract_x
_atom_site_fract_y
_atom_site_fract_z
Si Si1 0.416680 0.765752 0.390549
Si Si2 0.038073 0.049189 0.371046
Si Si3 0.025929 0.364983 0.639284
Si Si4 0.706830 0.596166 0.797362
O O1 0.695595 0.768446 0.484610
O O2 0.435986 0.716787 0.214596
O O3 0.344882 0.848848 0.337500
O O4 0.268469 0.096766 0.277250
O O5 0.075943 0.055191 0.582132
O O6 0.766014 0.082731 0.310280
O O7 0.047266 0.963850 0.314181
O O8 0.993233 0.359639 0.426671
#
# Coordination Sequence:
#
# PCOD8157519 Si02
#       4
#     4   4   4   4
#     4  12  29  44  73 104 144 185 236 288 353 417
#     4  10  25  43  72 103 138 185 230 287 354 408
#     4  10  26  44  71  98 144 180 236 282 353 412
#     4  10  28  43  76 101 146 180 236 291 352 415
#
# _framework density 22.629973
#
# number of rings (size 3 to 8) (size 9 to 14) (size 15 to 20)
#    1.500    0.000    0.000    1.500   17.500    0.000 
#    0.000    0.000    0.000    0.000    0.000    0.000 
#    0.000    0.000    0.000    0.000    0.000    0.000 
#
# Total GULP energy -198357.450690 kJ/mol
# GULP energy per Si atom -12397.340668 kJ/mol
# Density = 2.257847 g / cm^3
# Si number density = 22.629973 Si / 1000 Ang^3
#
#
#
# Elastic Constant Matrix: (Units=GPa)
#
#
# Indices 1 2 3 4 5 6 
#
# 1 102.5878 -2.9903 10.0575 0.0000 0.0000 0.0000
# 2 -2.9903 73.2367 28.4323 0.0000 0.0000 0.0000
# 3 10.0575 28.4323 73.5278 0.0000 0.0000 0.0000
# 4 0.0000 0.0000 0.0000 52.5601 0.0000 0.0000
# 5 0.0000 0.0000 0.0000 0.0000 23.6254 0.0000
# 6 0.0000 0.0000 0.0000 0.0000 0.0000 30.8725
#
#
#
# Elastic Compliance Matrix: (Units=1/GPa)
#
#
# Indices 1 2 3 4 5 6 
#
# 1 0.009955 0.001100 -0.001787 0.000000 0.000000 0.000000
# 2 0.001100 0.016188 -0.006410 0.000000 0.000000 0.000000
# 3 -0.001787 -0.006410 0.016323 0.000000 0.000000 0.000000
# 4 0.000000 0.000000 0.000000 0.019026 0.000000 0.000000
# 5 0.000000 0.000000 0.000000 0.000000 0.042327 0.000000
# 6 0.000000 0.000000 0.000000 0.000000 0.000000 0.032391
#
#
# Mechanical properties :
#
#
# Convention : Reuss Voigt Hill
#
# Bulk Modulus (GPa) = 35.37030 35.59460 35.48245
# Shear Modulus (GPa) = 31.28343 35.66845 33.47594
#
# Velocity S-wave (km/s) = 3.72208 3.97439 3.85031
# Velocity P-wave (km/s) = 5.84257 6.06829 5.95650
#
# Compressibility (1/GPa) = 0.02827231
#
# Stress axis : x y z
#
# Youngs Moduli (GPa) = 100.45178 61.77467 61.26143
#
# Poissons Ratio (x) = -0.06797 0.10948
# Poissons Ratio (y) = -0.11053 0.39270
# Poissons Ratio (z) = 0.17952 0.39599
#
# Static dielectric constant tensor:
#      x y z
#    x 4.014210 0.000000 0.000000 
#    y 0.000000 3.772390 0.000000 
#    z 0.000000 0.000000 3.873430 
# 
# 
# High freq. dielectric constant tensor:
#      x y z
#    x 1.894220 0.000000 0.000000 
#    y 0.000000 1.888050 0.000000 
#    z 0.000000 0.000000 1.881740 
# 
# From -- ./inp_files/282.got.cif
#   From: 2010.03.12/outbox.cif.g09.slc.cpg/sg19_1_cif.got.tgz:282.got - 2010.04.10 18:59:41.
