data_PCOD8157507
_publ_section_title
;
Structure prediction by ZEFSAII (Michael W. Deem and Ramdas Pophale) SiO2 
 PCOD8157507
Probable space group: P 21 21 21
;
_chemical_formula_sum "Si O2"
_cell_formula_units_Z 28
_cell_length_a 11.895157
_cell_length_b 16.099831
_cell_length_c 5.759474
_cell_angle_alpha 90.000000
_cell_angle_beta 90.000000
_cell_angle_gamma 90.000000
_cell_volume 1102.996966
_symmetry_space_group_name_H-M "P 21 21 21"
_symmetry_group_IT_number 19
_symmetry_cell_setting 'orthorhombic'
loop_
_space_group_symop_operation_xyz
x,y,z
1/2-x,-y,1/2+z
1/2+x,1/2-y,-z
-x,1/2+y,1/2-z
loop_
_atom_site_type_symbol
_atom_site_label
_atom_site_fract_x
_atom_site_fract_y
_atom_site_fract_z
Si Si1 0.246574 0.892046 0.761033
Si Si2 0.567567 0.848501 0.290112
Si Si3 0.432066 0.615636 0.845918
Si Si4 0.239525 0.721491 0.038896
Si Si5 0.387009 0.204230 0.916161
Si Si6 0.256418 0.546691 0.550240
Si Si7 0.582683 0.476769 0.030701
O O1 0.261764 0.805569 0.895203
O O2 0.165392 0.875713 0.541409
O O3 0.370511 0.922991 0.685940
O O4 0.186855 0.965694 0.900291
O O5 0.629818 0.830676 0.047399
O O6 0.538246 0.759754 0.408293
O O7 0.654239 0.889655 0.472969
O O8 0.458254 0.909366 0.272275
O O9 0.347673 0.661919 0.022765
O O10 0.538106 0.674151 0.799643
O O11 0.373727 0.595018 0.597847
O O12 0.472875 0.530769 0.967057
O O13 0.217416 0.744396 0.305672
O O14 0.264303 0.499193 0.305579
#
# Coordination Sequence:
#
# PCOD8157507 Si02
#       7
#     4   4   4   4   4   4   4
#     4  11  26  47  69 102 146 191 253 308 377 466
#     4  10  25  42  72 102 142 193 250 308 386 446
#     4  11  24  43  76 104 145 194 245 313 382 448
#     4  10  24  48  70 103 144 192 248 310 374 477
#     4  11  24  48  68 102 145 197 248 303 393 458
#     4  11  25  45  72 112 148 188 246 318 381 451
#     4  12  24  47  71 109 144 197 252 318 381 444
#
# _framework density 25.385380999999999
#
# number of rings (size 3 to 8) (size 9 to 14) (size 15 to 20)
#    0.000    1.143    2.857    1.714    6.000    1.143 
#    7.714    0.000    0.000    0.000    0.000    0.000 
#    0.000    0.000    0.000    0.000    0.000    0.000 
#
# Total GULP energy -346987.817054 kJ/mol
# GULP energy per Si atom -12392.422038 kJ/mol
# Density = 2.532760 g / cm^3
# Si number density = 25.385381 Si / 1000 Ang^3
#
#
#
# Elastic Constant Matrix: (Units=GPa)
#
#
# Indices 1 2 3 4 5 6 
#
# 1 64.7634 33.5121 0.2156 0.0000 0.0000 0.0000
# 2 33.5121 110.3129 16.3408 0.0000 0.0000 0.0000
# 3 0.2156 16.3408 60.7156 0.0000 0.0000 0.0000
# 4 0.0000 0.0000 0.0000 36.2820 0.0000 0.0000
# 5 0.0000 0.0000 0.0000 0.0000 29.3470 0.0000
# 6 0.0000 0.0000 0.0000 0.0000 0.0000 61.3976
#
#
#
# Elastic Compliance Matrix: (Units=1/GPa)
#
#
# Indices 1 2 3 4 5 6 
#
# 1 0.018452 -0.005828 0.001503 0.000000 0.000000 0.000000
# 2 -0.005828 0.011282 -0.003016 0.000000 0.000000 0.000000
# 3 0.001503 -0.003016 0.017277 0.000000 0.000000 0.000000
# 4 0.000000 0.000000 0.000000 0.027562 0.000000 0.000000
# 5 0.000000 0.000000 0.000000 0.000000 0.034075 0.000000
# 6 0.000000 0.000000 0.000000 0.000000 0.000000 0.016287
#
#
# Mechanical properties :
#
#
# Convention : Reuss Voigt Hill
#
# Bulk Modulus (GPa) = 30.93216 37.32544 34.12880
# Shear Modulus (GPa) = 33.24629 37.78688 35.51658
#
# Velocity S-wave (km/s) = 3.62285 3.86233 3.74451
# Velocity P-wave (km/s) = 5.45083 5.88435 5.67173
#
# Compressibility (1/GPa) = 0.03232882
#
# Stress axis : x y z
#
# Youngs Moduli (GPa) = 54.19586 88.63372 57.88185
#
# Poissons Ratio (x) = 0.51657 -0.08700
# Poissons Ratio (y) = 0.31586 0.17456
# Poissons Ratio (z) = -0.08146 0.26730
#
# Static dielectric constant tensor:
#      x y z
#    x 4.529750 0.000000 0.000000 
#    y 0.000000 4.930420 0.000000 
#    z 0.000000 0.000000 4.196570 
# 
# 
# High freq. dielectric constant tensor:
#      x y z
#    x 2.007170 0.000000 0.000000 
#    y 0.000000 2.039290 0.000000 
#    z 0.000000 0.000000 1.990880 
# 
# From -- ./inp_files/1042.got.cif
#   From: 2010.03.12/outbox.cif.g09.slc.cpg/sg19_1_cif.got.tgz:1042.got - 2010.04.10 18:59:41.
