data_PCOD8157313
_publ_section_title
;
Structure prediction by ZEFSAII (Michael W. Deem and Ramdas Pophale) SiO2 
 PCOD8157313
Probable space group: P 21 21 21
;
_chemical_formula_sum "Si O2"
_cell_formula_units_Z 28
_cell_length_a 5.718359
_cell_length_b 11.910170
_cell_length_c 16.517178
_cell_angle_alpha 90.000000
_cell_angle_beta 90.000000
_cell_angle_gamma 90.000000
_cell_volume 1124.929295
_symmetry_space_group_name_H-M "P 21 21 21"
_symmetry_group_IT_number 19
_symmetry_cell_setting 'orthorhombic'
loop_
_space_group_symop_operation_xyz
x,y,z
1/2-x,-y,1/2+z
1/2+x,1/2-y,-z
-x,1/2+y,1/2-z
loop_
_atom_site_type_symbol
_atom_site_label
_atom_site_fract_x
_atom_site_fract_y
_atom_site_fract_z
Si Si1 0.765040 0.389652 0.663928
Si Si2 0.026091 0.999059 0.604691
Si Si3 0.327404 0.296311 0.031337
Si Si4 0.927086 0.489232 0.509497
Si Si5 0.526901 0.220753 0.187869
Si Si6 0.362880 0.666653 0.893769
Si Si7 0.649785 0.591794 0.755342
O O1 0.924872 0.463326 0.604570
O O2 0.912520 0.315836 0.727241
O O3 0.634274 0.301463 0.605065
O O4 0.587721 0.481191 0.701946
O O5 0.869123 0.103396 0.576536
O O6 0.189889 0.955917 0.529404
O O7 0.166848 0.047555 0.680151
O O8 0.884433 0.890476 0.639367
O O9 0.351954 0.426283 0.001789
O O10 0.336127 0.282733 0.129502
O O11 0.076778 0.256689 0.999572
O O12 0.945012 0.374085 0.457972
O O13 0.744967 0.303890 0.203901
O O14 0.416276 0.630457 0.800837
#
# Coordination Sequence:
#
# PCOD8157313 Si02
#       7
#     4   4   4   4   4   4   4
#     4  11  25  45  69 104 145 190 249 318 382 469
#     4  10  22  45  65  97 142 188 242 310 376 456
#     4  12  26  49  78 114 155 207 260 326 393 466
#     4  11  25  45  69 108 145 199 257 309 392 474
#     4  11  22  45  73 102 148 186 256 317 385 453
#     4  11  25  42  71  96 145 196 242 313 383 462
#     4  10  23  43  65 103 136 180 250 307 385 452
#
# _framework density 24.890454999999999
#
# number of rings (size 3 to 8) (size 9 to 14) (size 15 to 20)
#    0.000    1.143    4.286    0.857    4.000    1.143 
#    0.000    0.000    0.000    0.000    0.000    0.000 
#    0.000    0.000    0.000    0.000    0.000    0.000 
#
# Total GULP energy -346880.968299 kJ/mol
# GULP energy per Si atom -12388.606011 kJ/mol
# Density = 2.483380 g / cm^3
# Si number density = 24.890455 Si / 1000 Ang^3
#
#
#
# Elastic Constant Matrix: (Units=GPa)
#
#
# Indices 1 2 3 4 5 6 
#
# 1 56.7184 17.1600 9.5452 0.0000 0.0000 0.0000
# 2 17.1600 114.1836 20.1115 0.0000 0.0000 0.0000
# 3 9.5452 20.1115 110.0558 0.0000 0.0000 0.0000
# 4 0.0000 0.0000 0.0000 47.3091 0.0000 0.0000
# 5 0.0000 0.0000 0.0000 0.0000 27.1452 0.0000
# 6 0.0000 0.0000 0.0000 0.0000 0.0000 28.0037
#
#
#
# Elastic Compliance Matrix: (Units=1/GPa)
#
#
# Indices 1 2 3 4 5 6 
#
# 1 0.018608 -0.002596 -0.001140 0.000000 0.000000 0.000000
# 2 -0.002596 0.009411 -0.001495 0.000000 0.000000 0.000000
# 3 -0.001140 -0.001495 0.009458 0.000000 0.000000 0.000000
# 4 0.000000 0.000000 0.000000 0.021138 0.000000 0.000000
# 5 0.000000 0.000000 0.000000 0.000000 0.036839 0.000000
# 6 0.000000 0.000000 0.000000 0.000000 0.000000 0.035710
#
#
# Mechanical properties :
#
#
# Convention : Reuss Voigt Hill
#
# Bulk Modulus (GPa) = 37.01296 41.62123 39.31710
# Shear Modulus (GPa) = 33.19404 36.10101 34.64753
#
# Velocity S-wave (km/s) = 3.65582 3.81254 3.73500
# Velocity P-wave (km/s) = 5.72037 6.01154 5.86776
#
# Compressibility (1/GPa) = 0.02701756
#
# Stress axis : x y z
#
# Youngs Moduli (GPa) = 53.74011 106.25644 105.72762
#
# Poissons Ratio (x) = 0.27582 0.12048
# Poissons Ratio (y) = 0.13950 0.15803
# Poissons Ratio (z) = 0.06124 0.15882
#
# Static dielectric constant tensor:
#      x y z
#    x 3.972550 0.000000 0.000000 
#    y 0.000000 4.826780 0.000000 
#    z 0.000000 0.000000 4.721030 
# 
# 
# High freq. dielectric constant tensor:
#      x y z
#    x 1.951180 0.000000 0.000000 
#    y 0.000000 2.012990 0.000000 
#    z 0.000000 0.000000 2.004290 
# 
# From -- ./inp_files/5351.got.cif
#   From: 2010.03.12/outbox.cif.g09.slc.cpg/sg19_3_cif.got.tgz:5351.got - 2010.04.10 18:59:41.
