data_PCOD8157991
_publ_section_title
;
Structure prediction by ZEFSAII (Michael W. Deem and Ramdas Pophale) SiO2 
 PCOD8157991
Probable space group: C 2 2 21
;
_chemical_formula_sum "Si O2"
_cell_formula_units_Z 48
_cell_length_a 5.270409
_cell_length_b 25.477463
_cell_length_c 15.579024
_cell_angle_alpha 90.000000
_cell_angle_beta 90.000000
_cell_angle_gamma 90.000000
_cell_volume 2091.899158
_symmetry_space_group_name_H-M "C 2 2 21"
_symmetry_group_IT_number 20
_symmetry_cell_setting 'orthorhombic'
loop_
_space_group_symop_operation_xyz
x,y,z
-x,-y,1/2+z
x,-y,-z
-x,y,1/2-z
1/2+x,1/2+y,z
1/2-x,1/2-y,1/2+z
1/2+x,1/2-y,-z
1/2-x,1/2+y,1/2-z
loop_
_atom_site_type_symbol
_atom_site_label
_atom_site_fract_x
_atom_site_fract_y
_atom_site_fract_z
Si Si1 0.896616 0.064686 0.655072
Si Si2 0.768967 0.603303 0.348252
Si Si3 0.268644 0.352142 0.657715
Si Si4 0.727160 0.684795 0.848280
Si Si5 0.770128 0.270930 0.342705
Si Si6 0.116312 0.510915 0.902897
O O1 0.812446 0.123721 0.636683
O O2 0.639702 0.031267 0.642806
O O3 0.000000 0.056094 0.750000
O O4 0.138872 0.049757 0.595699
O O5 0.750562 0.619857 0.249385
O O6 0.510120 0.624014 0.393684
O O7 0.793023 0.541144 0.354125
O O8 0.010808 0.632362 0.392816
O O9 0.301763 0.290569 0.671206
O O10 0.491099 0.715770 0.892411
O O11 0.748303 0.699258 0.748115
O O12 0.987313 0.704966 0.893156
O O13 0.037403 0.500000 0.000000
#
# Coordination Sequence:
#
# PCOD8157991 Si02
#       6
#     8   8   8   8   8   8
#     4  12  25  41  68  97 123 163 220 274 316 375
#     4  10  20  35  54  82 119 156 211 248 307 369
#     4  10  19  32  56  94 118 162 196 266 313 365
#     4  10  18  31  52  88 127 151 189 250 317 374
#     4  10  17  30  51  88 137 147 184 250 346 363
#     4  12  28  45  62  89 133 179 213 264 332 388
#
# _framework density 22.945658000000002
#
# number of rings (size 3 to 8) (size 9 to 14) (size 15 to 20)
#    0.000    1.333    1.667    8.000    9.333    0.000 
#    0.000    0.000    0.000    0.000    0.000   39.667 
#    0.000    0.000    0.000    0.000    0.000    0.000 
#
# Total GULP energy -297405.514658 kJ/mol
# GULP energy per Si atom -12391.896444 kJ/mol
# Density = 2.289343 g / cm^3
# Si number density = 22.945658 Si / 1000 Ang^3
#
#
#
# Elastic Constant Matrix: (Units=GPa)
#
#
# Indices 1 2 3 4 5 6 
#
# 1 283.3460 88.5788 14.9048 0.0000 0.0000 0.0000
# 2 88.5788 182.4157 32.0646 0.0000 0.0000 0.0000
# 3 14.9048 32.0646 25.1655 0.0000 0.0000 0.0000
# 4 0.0000 0.0000 0.0000 2.1770 0.0000 0.0000
# 5 0.0000 0.0000 0.0000 0.0000 11.7485 0.0000
# 6 0.0000 0.0000 0.0000 0.0000 0.0000 50.5221
#
#
#
# Elastic Compliance Matrix: (Units=1/GPa)
#
#
# Indices 1 2 3 4 5 6 
#
# 1 0.004161 -0.002046 0.000142 0.000000 0.000000 0.000000
# 2 -0.002046 0.008070 -0.009070 0.000000 0.000000 0.000000
# 3 0.000142 -0.009070 0.051210 0.000000 0.000000 0.000000
# 4 0.000000 0.000000 0.000000 0.459356 0.000000 0.000000
# 5 0.000000 0.000000 0.000000 0.000000 0.085117 0.000000
# 6 0.000000 0.000000 0.000000 0.000000 0.000000 0.019793
#
#
# Mechanical properties :
#
#
# Convention : Reuss Voigt Hill
#
# Bulk Modulus (GPa) = 24.10067 84.66928 54.38498
# Shear Modulus (GPa) = 7.53594 36.58144 22.05869
#
# Velocity S-wave (km/s) = 1.81422 3.99716 3.10392
# Velocity P-wave (km/s) = 3.86195 7.63433 6.04970
#
# Compressibility (1/GPa) = 0.04149262
#
# Stress axis : x y z
#
# Youngs Moduli (GPa) = 240.31053 123.92060 19.52737
#
# Poissons Ratio (x) = 0.25349 -0.00277
# Poissons Ratio (y) = 0.49158 0.17712
# Poissons Ratio (z) = -0.03407 1.12402
#
# Static dielectric constant tensor:
#      x y z
#    x 8.651420 0.000000 0.000000 
#    y 0.000000 4.134650 0.000000 
#    z 0.000000 0.000000 3.346920 
# 
# 
# High freq. dielectric constant tensor:
#      x y z
#    x 1.959160 0.000000 0.000000 
#    y 0.000000 1.917720 0.000000 
#    z 0.000000 0.000000 1.827390 
# 
# From -- ./inp_files/22821.got.cif
#   From: 2010.03.12/outbox.cif.g09.slc.cpg/sg20_12_cif.got.tgz:22821.got - 2010.04.14 01:38:04.
