data_PCOD8157069
_publ_section_title
;
Structure prediction by ZEFSAII (Michael W. Deem and Ramdas Pophale) SiO2 
 PCOD8157069
Probable space group: P 21 21 21
;
_chemical_formula_sum "Si O2"
_cell_formula_units_Z 32
_cell_length_a 8.537277
_cell_length_b 12.644759
_cell_length_c 13.838383
_cell_angle_alpha 90.000000
_cell_angle_beta 90.000000
_cell_angle_gamma 90.000000
_cell_volume 1493.878495
_symmetry_space_group_name_H-M "P 21 21 21"
_symmetry_group_IT_number 19
_symmetry_cell_setting 'orthorhombic'
loop_
_space_group_symop_operation_xyz
x,y,z
1/2-x,-y,1/2+z
1/2+x,1/2-y,-z
-x,1/2+y,1/2-z
loop_
_atom_site_type_symbol
_atom_site_label
_atom_site_fract_x
_atom_site_fract_y
_atom_site_fract_z
Si Si1 0.779800 0.841967 0.302023
Si Si2 0.515446 0.139885 0.484490
Si Si3 0.166624 0.059090 0.064196
Si Si4 0.299830 0.577645 0.204605
Si Si5 0.816999 0.171775 0.595597
Si Si6 0.473739 0.547377 0.398584
Si Si7 0.046730 0.690159 0.315786
Si Si8 0.275255 0.724257 0.489257
O O1 0.669872 0.808330 0.211360
O O2 0.709410 0.795247 0.401589
O O3 0.954647 0.795828 0.286054
O O4 0.790493 0.967726 0.308773
O O5 0.619124 0.113581 0.392170
O O6 0.632708 0.170549 0.570565
O O7 0.402492 0.237385 0.463484
O O8 0.411038 0.040599 0.513373
O O9 0.341847 0.030014 0.095135
O O10 0.072746 0.093357 0.161387
O O11 0.163417 0.155158 0.986347
O O12 0.429447 0.571880 0.288153
O O13 0.166173 0.662986 0.230509
O O14 0.890038 0.059450 0.565517
O O15 0.417455 0.643270 0.467328
O O16 0.135081 0.708601 0.416210
#
# Coordination Sequence:
#
# PCOD8157069 Si02
#       8
#     4   4   4   4   4   4   4   4
#     4  10  21  41  67  95 131 169 219 277 328 396
#     4  12  26  45  66  95 134 190 224 273 334 403
#     4  11  21  39  69  98 128 170 224 276 334 392
#     4  10  23  43  65  96 136 178 220 272 334 397
#     4  11  26  45  64  92 136 182 226 271 330 404
#     4  10  22  43  66 100 135 171 220 283 331 399
#     4  10  22  41  67 100 129 172 215 277 332 404
#     4  10  21  41  70 100 131 166 216 283 343 389
#
# _framework density 21.420749000000001
#
# number of rings (size 3 to 8) (size 9 to 14) (size 15 to 20)
#    0.000    1.500    0.000    6.000    5.250    1.000 
#   13.500    1.250    0.000    0.000    0.000    0.000 
#    0.000    0.000    0.000    0.000    0.000    0.000 
#
# Total GULP energy -396853.656237 kJ/mol
# GULP energy per Si atom -12401.676757 kJ/mol
# Density = 2.137199 g / cm^3
# Si number density = 21.420749 Si / 1000 Ang^3
#
#
#
# Elastic Constant Matrix: (Units=GPa)
#
#
# Indices 1 2 3 4 5 6 
#
# 1 124.3904 45.7231 26.9319 0.0000 0.0000 0.0000
# 2 45.7231 106.1906 29.5783 0.0000 0.0000 0.0000
# 3 26.9319 29.5783 74.2090 0.0000 0.0000 0.0000
# 4 0.0000 0.0000 0.0000 28.6217 0.0000 0.0000
# 5 0.0000 0.0000 0.0000 0.0000 24.9372 0.0000
# 6 0.0000 0.0000 0.0000 0.0000 0.0000 38.5800
#
#
#
# Elastic Compliance Matrix: (Units=1/GPa)
#
#
# Indices 1 2 3 4 5 6 
#
# 1 0.009838 -0.003646 -0.002117 0.000000 0.000000 0.000000
# 2 -0.003646 0.011945 -0.003438 0.000000 0.000000 0.000000
# 3 -0.002117 -0.003438 0.015614 0.000000 0.000000 0.000000
# 4 0.000000 0.000000 0.000000 0.034939 0.000000 0.000000
# 5 0.000000 0.000000 0.000000 0.000000 0.040101 0.000000
# 6 0.000000 0.000000 0.000000 0.000000 0.000000 0.025920
#
#
# Mechanical properties :
#
#
# Convention : Reuss Voigt Hill
#
# Bulk Modulus (GPa) = 52.64657 56.58408 54.61533
# Shear Modulus (GPa) = 30.65812 31.93155 31.29483
#
# Velocity S-wave (km/s) = 3.78727 3.86513 3.82640
# Velocity P-wave (km/s) = 6.61478 6.81115 6.71368
#
# Compressibility (1/GPa) = 0.01899459
#
# Stress axis : x y z
#
# Youngs Moduli (GPa) = 101.64823 83.72038 64.04547
#
# Poissons Ratio (x) = 0.30527 0.13559
# Poissons Ratio (y) = 0.37064 0.22016
# Poissons Ratio (z) = 0.21519 0.28779
#
# Static dielectric constant tensor:
#      x y z
#    x 3.902580 0.000000 0.000000 
#    y 0.000000 4.003570 0.000000 
#    z 0.000000 0.000000 3.875780 
# 
# 
# High freq. dielectric constant tensor:
#      x y z
#    x 1.844130 0.000000 0.000000 
#    y 0.000000 1.848000 0.000000 
#    z 0.000000 0.000000 1.840000 
# 
# From -- ./inp_files/5934.got.cif
#   From: 2010.03.12/outbox.cif.g09.slc.cpg/sg19_3_cif.got.tgz:5934.got - 2010.04.10 18:59:41.
