data_PCOD8157536
_publ_section_title
;
Structure prediction by ZEFSAII (Michael W. Deem and Ramdas Pophale) SiO2 
 PCOD8157536
Probable space group: P 21 21 21
;
_chemical_formula_sum "Si O2"
_cell_formula_units_Z 28
_cell_length_a 15.837824
_cell_length_b 9.604815
_cell_length_c 7.156149
_cell_angle_alpha 90.000000
_cell_angle_beta 90.000000
_cell_angle_gamma 90.000000
_cell_volume 1088.588874
_symmetry_space_group_name_H-M "P 21 21 21"
_symmetry_group_IT_number 19
_symmetry_cell_setting 'orthorhombic'
loop_
_space_group_symop_operation_xyz
x,y,z
1/2-x,-y,1/2+z
1/2+x,1/2-y,-z
-x,1/2+y,1/2-z
loop_
_atom_site_type_symbol
_atom_site_label
_atom_site_fract_x
_atom_site_fract_y
_atom_site_fract_z
Si Si1 0.929650 0.251977 0.268612
Si Si2 0.665954 0.987731 0.933371
Si Si3 0.483721 0.641887 0.136109
Si Si4 0.657553 0.628352 0.289213
Si Si5 0.419113 0.765246 0.496709
Si Si6 0.152380 0.566749 0.645717
Si Si7 0.812852 0.462664 0.409237
O O1 0.877197 0.107639 0.274873
O O2 0.862385 0.380955 0.242261
O O3 0.984873 0.271869 0.457193
O O4 0.988492 0.240269 0.088997
O O5 0.766575 0.978314 0.913195
O O6 0.637195 0.146525 0.905200
O O7 0.638097 0.930042 0.132624
O O8 0.560520 0.580797 0.263057
O O9 0.427918 0.739770 0.273363
O O10 0.429972 0.509725 0.061482
O O11 0.716996 0.507143 0.371155
O O12 0.660931 0.770425 0.412856
O O13 0.693438 0.650232 0.077391
O O14 0.371904 0.909524 0.529648
#
# Coordination Sequence:
#
# PCOD8157536 Si02
#       7
#     4   4   4   4   4   4   4
#     4  11  25  47  70 110 148 186 245 302 366 434
#     4  11  24  46  69 109 143 189 246 293 364 449
#     4  10  26  45  76 101 148 189 242 303 362 432
#     4  11  25  48  70 105 150 186 246 304 366 438
#     4  11  25  45  73 108 142 196 244 291 375 438
#     4  11  24  47  70 106 145 191 241 301 368 439
#     4  11  25  46  70 107 146 191 244 304 365 432
#
# _framework density 25.721371000000001
#
# number of rings (size 3 to 8) (size 9 to 14) (size 15 to 20)
#    0.000    1.143    4.286    0.857    8.000    3.429 
#    2.571    0.000    0.000    0.000    0.000    0.000 
#    0.000    0.000    0.000    0.000    0.000    0.000 
#
# Total GULP energy -347166.681042 kJ/mol
# GULP energy per Si atom -12398.810037 kJ/mol
# Density = 2.566283 g / cm^3
# Si number density = 25.721371 Si / 1000 Ang^3
#
#
#
# Elastic Constant Matrix: (Units=GPa)
#
#
# Indices 1 2 3 4 5 6 
#
# 1 132.4969 31.6447 11.8167 0.0000 0.0000 0.0000
# 2 31.6447 113.5980 14.8053 0.0000 0.0000 0.0000
# 3 11.8167 14.8053 26.9156 0.0000 0.0000 0.0000
# 4 0.0000 0.0000 0.0000 36.5726 0.0000 0.0000
# 5 0.0000 0.0000 0.0000 0.0000 41.2155 0.0000
# 6 0.0000 0.0000 0.0000 0.0000 0.0000 35.0866
#
#
#
# Elastic Compliance Matrix: (Units=1/GPa)
#
#
# Indices 1 2 3 4 5 6 
#
# 1 0.008243 -0.001966 -0.002538 0.000000 0.000000 0.000000
# 2 -0.001966 0.009951 -0.004611 0.000000 0.000000 0.000000
# 3 -0.002538 -0.004611 0.040804 0.000000 0.000000 0.000000
# 4 0.000000 0.000000 0.000000 0.027343 0.000000 0.000000
# 5 0.000000 0.000000 0.000000 0.000000 0.024263 0.000000
# 6 0.000000 0.000000 0.000000 0.000000 0.000000 0.028501
#
#
# Mechanical properties :
#
#
# Convention : Reuss Voigt Hill
#
# Bulk Modulus (GPa) = 24.52809 43.28265 33.90537
# Shear Modulus (GPa) = 29.25291 36.89121 33.07206
#
# Velocity S-wave (km/s) = 3.37605 3.79127 3.58967
# Velocity P-wave (km/s) = 4.97531 6.00242 5.51284
#
# Compressibility (1/GPa) = 0.04076959
#
# Stress axis : x y z
#
# Youngs Moduli (GPa) = 121.31348 100.48791 24.50761
#
# Poissons Ratio (x) = 0.19751 0.06220
# Poissons Ratio (y) = 0.23844 0.11300
# Poissons Ratio (z) = 0.30787 0.46335
#
# Static dielectric constant tensor:
#      x y z
#    x 4.834050 0.000000 0.000000 
#    y 0.000000 4.660820 0.000000 
#    z 0.000000 0.000000 4.646890 
# 
# 
# High freq. dielectric constant tensor:
#      x y z
#    x 2.038960 0.000000 0.000000 
#    y 0.000000 2.026740 0.000000 
#    z 0.000000 0.000000 2.026630 
# 
# From -- ./inp_files/4153.got.cif
#   From: 2010.03.12/outbox.cif.g09.slc.cpg/sg19_3_cif.got.tgz:4153.got - 2010.04.10 18:59:41.
