data_PCOD8157859
_publ_section_title
;
Structure prediction by ZEFSAII (Michael W. Deem and Ramdas Pophale) SiO2 
 PCOD8157859
Probable space group: P 21 21 21
;
_chemical_formula_sum "Si O2"
_cell_formula_units_Z 24
_cell_length_a 11.520825
_cell_length_b 8.756824
_cell_length_c 9.394247
_cell_angle_alpha 90.000000
_cell_angle_beta 90.000000
_cell_angle_gamma 90.000000
_cell_volume 947.746470
_symmetry_space_group_name_H-M "P 21 21 21"
_symmetry_group_IT_number 19
_symmetry_cell_setting 'orthorhombic'
loop_
_space_group_symop_operation_xyz
x,y,z
1/2-x,-y,1/2+z
1/2+x,1/2-y,-z
-x,1/2+y,1/2-z
loop_
_atom_site_type_symbol
_atom_site_label
_atom_site_fract_x
_atom_site_fract_y
_atom_site_fract_z
Si Si1 0.625413 0.622760 0.000000
Si Si2 0.178353 0.171364 0.299424
Si Si3 0.507715 0.938648 0.000000
Si Si4 0.814294 0.798976 0.500000
Si Si5 0.631899 0.058433 0.500000
Si Si6 0.178353 0.171364 0.700576
O O1 0.600925 0.803925 0.000001
O O2 0.702491 0.592516 0.857040
O O3 0.702492 0.592516 0.142960
O O4 0.507088 0.524830 0.000001
O O5 0.069976 0.072917 0.357154
O O6 0.182218 0.181545 0.130228
O O7 0.166189 0.344080 0.360754
O O8 0.571265 0.099147 0.000001
O O9 0.430023 0.927083 0.142846
O O10 0.817781 0.681545 0.630228
O O11 0.696045 0.896515 0.500000
O O12 0.666190 0.155920 0.360753
#
# Coordination Sequence:
#
# PCOD8157859 Si02
#       6
#     4   4   4   4   4   4
#     4   8  16  36  53  79 121 159 185 239 322 326
#     4   9  19  34  57  87 121 157 201 249 292 376
#     4   9  19  36  57  83 127 160 191 260 306 340
#     4  12  19  34  66  94 107 164 216 232 304 369
#     4   9  18  32  60  80 117 157 194 251 288 367
#     4   9  19  34  57  87 121 157 201 249 292 376
#
# _framework density 25.323228
#
# number of rings (size 3 to 8) (size 9 to 14) (size 15 to 20)
#    0.000    3.333    3.333    1.000    0.000    0.000 
#    0.000   11.667    0.000   40.000    0.000    0.000 
#    0.000    0.000    0.000    0.000    0.000    0.000 
#
# Total GULP energy -297657.279947 kJ/mol
# GULP energy per Si atom -12402.386664 kJ/mol
# Density = 2.526559 g / cm^3
# Si number density = 25.323228 Si / 1000 Ang^3
#
#
#
# Elastic Constant Matrix: (Units=GPa)
#
#
# Indices 1 2 3 4 5 6 
#
# 1 201.5340 62.6761 76.9001 0.0000 0.0000 0.0000
# 2 62.6761 102.5524 36.4585 0.0000 0.0000 0.0000
# 3 76.9001 36.4585 226.9822 0.0000 0.0000 0.0000
# 4 0.0000 0.0000 0.0000 2.8370 0.0000 0.0000
# 5 0.0000 0.0000 0.0000 0.0000 22.9987 0.0000
# 6 0.0000 0.0000 0.0000 0.0000 0.0000 34.2643
#
#
#
# Elastic Compliance Matrix: (Units=1/GPa)
#
#
# Indices 1 2 3 4 5 6 
#
# 1 0.006698 -0.003486 -0.001709 0.000000 0.000000 0.000000
# 2 -0.003486 0.012156 -0.000771 0.000000 0.000000 0.000000
# 3 -0.001709 -0.000771 0.005109 0.000000 0.000000 0.000000
# 4 0.000000 0.000000 0.000000 0.352482 0.000000 0.000000
# 5 0.000000 0.000000 0.000000 0.000000 0.043481 0.000000
# 6 0.000000 0.000000 0.000000 0.000000 0.000000 0.029185
#
#
# Mechanical properties :
#
#
# Convention : Reuss Voigt Hill
#
# Bulk Modulus (GPa) = 83.13187 98.12646 90.62916
# Shear Modulus (GPa) = 10.75144 35.68892 23.22018
#
# Velocity S-wave (km/s) = 2.06274 3.75818 3.03141
# Velocity P-wave (km/s) = 6.21070 7.59379 6.93680
#
# Compressibility (1/GPa) = 0.01202908
#
# Stress axis : x y z
#
# Youngs Moduli (GPa) = 149.29022 82.26437 195.74502
#
# Poissons Ratio (x) = 0.28678 0.33461
# Poissons Ratio (y) = 0.52044 0.15101
# Poissons Ratio (z) = 0.25520 0.06346
#
# Static dielectric constant tensor:
#      x y z
#    x 4.758370 0.000000 0.000000 
#    y 0.000000 4.040030 0.000000 
#    z 0.000000 0.000000 4.371020 
# 
# 
# High freq. dielectric constant tensor:
#      x y z
#    x 2.022910 0.000000 0.000000 
#    y 0.000000 2.015280 0.000000 
#    z 0.000000 0.000000 2.001810 
# 
# From -- ./inp_files/3357.got.cif
#   From: 2010.03.12/outbox.cif.g09.slc.cpg/sg19_2_cif.got.tgz:3357.got - 2010.04.10 18:59:41.
