data_PCOD8157854
_publ_section_title
;
Structure prediction by ZEFSAII (Michael W. Deem and Ramdas Pophale) SiO2 
 PCOD8157854
Probable space group: P 21 21 21
;
_chemical_formula_sum "Si O2"
_cell_formula_units_Z 20
_cell_length_a 5.456132
_cell_length_b 8.364279
_cell_length_c 17.844706
_cell_angle_alpha 90.000000
_cell_angle_beta 90.000000
_cell_angle_gamma 90.000000
_cell_volume 814.371894
_symmetry_space_group_name_H-M "P 21 21 21"
_symmetry_group_IT_number 19
_symmetry_cell_setting 'orthorhombic'
loop_
_space_group_symop_operation_xyz
x,y,z
1/2-x,-y,1/2+z
1/2+x,1/2-y,-z
-x,1/2+y,1/2-z
loop_
_atom_site_type_symbol
_atom_site_label
_atom_site_fract_x
_atom_site_fract_y
_atom_site_fract_z
Si Si1 0.530912 0.358409 0.894322
Si Si2 0.428386 0.490564 0.601124
Si Si3 0.196472 0.031398 0.250053
Si Si4 0.458281 0.472324 0.436368
Si Si5 0.571140 0.231519 0.317472
O O1 0.595499 0.178011 0.915088
O O2 0.493511 0.388526 0.804588
O O3 0.776443 0.454000 0.917170
O O4 0.278631 0.409911 0.934764
O O5 0.639693 0.465087 0.661897
O O6 0.482761 0.405835 0.521442
O O7 0.187628 0.414126 0.636531
O O8 0.238977 0.851477 0.222054
O O9 0.428384 0.151433 0.247627
O O10 0.405048 0.330351 0.377227
#
# Coordination Sequence:
#
# PCOD8157854 Si02
#       5
#     4   4   4   4   4
#     4  11  27  50  75 109 153 202 257 312 386 464
#     4  12  27  45  80 106 155 200 258 317 393 455
#     4  11  27  45  76 108 152 204 260 321 381 464
#     4  11  29  49  76 112 157 196 257 316 394 463
#     4  11  28  45  75 111 153 200 264 318 390 460
#
# _framework density 24.558803999999999
#
# number of rings (size 3 to 8) (size 9 to 14) (size 15 to 20)
#    0.000    0.800    0.000    3.600   28.000    0.000 
#    0.000    0.000    0.000    0.000    0.000    0.000 
#    0.000    0.000    0.000    0.000    0.000    0.000 
#
# Total GULP energy -247861.815018 kJ/mol
# GULP energy per Si atom -12393.090751 kJ/mol
# Density = 2.450291 g / cm^3
# Si number density = 24.558804 Si / 1000 Ang^3
#
#
#
# Elastic Constant Matrix: (Units=GPa)
#
#
# Indices 1 2 3 4 5 6 
#
# 1 109.0479 29.2442 32.0946 0.0000 0.0000 0.0000
# 2 29.2442 80.6509 20.1949 0.0000 0.0000 0.0000
# 3 32.0946 20.1949 140.1283 0.0000 0.0000 0.0000
# 4 0.0000 0.0000 0.0000 29.4645 0.0000 0.0000
# 5 0.0000 0.0000 0.0000 0.0000 27.7949 0.0000
# 6 0.0000 0.0000 0.0000 0.0000 0.0000 35.0352
#
#
#
# Elastic Compliance Matrix: (Units=1/GPa)
#
#
# Indices 1 2 3 4 5 6 
#
# 1 0.010650 -0.003372 -0.001953 0.000000 0.000000 0.000000
# 2 -0.003372 0.013931 -0.001235 0.000000 0.000000 0.000000
# 3 -0.001953 -0.001235 0.007762 0.000000 0.000000 0.000000
# 4 0.000000 0.000000 0.000000 0.033939 0.000000 0.000000
# 5 0.000000 0.000000 0.000000 0.000000 0.035978 0.000000
# 6 0.000000 0.000000 0.000000 0.000000 0.000000 0.028543
#
#
# Mechanical properties :
#
#
# Convention : Reuss Voigt Hill
#
# Bulk Modulus (GPa) = 52.02724 54.76606 53.39665
# Shear Modulus (GPa) = 33.25995 35.01182 34.13588
#
# Velocity S-wave (km/s) = 3.68407 3.77985 3.73227
# Velocity P-wave (km/s) = 6.27115 6.43413 6.35316
#
# Compressibility (1/GPa) = 0.01922070
#
# Stress axis : x y z
#
# Youngs Moduli (GPa) = 93.90078 71.78074 128.83810
#
# Poissons Ratio (x) = 0.24208 0.25163
# Poissons Ratio (y) = 0.31668 0.15916
# Poissons Ratio (z) = 0.18340 0.08867
#
# Static dielectric constant tensor:
#      x y z
#    x 4.092350 0.000000 0.000000 
#    y 0.000000 4.430330 0.000000 
#    z 0.000000 0.000000 4.962530 
# 
# 
# High freq. dielectric constant tensor:
#      x y z
#    x 1.964380 0.000000 0.000000 
#    y 0.000000 1.980770 0.000000 
#    z 0.000000 0.000000 1.998950 
# 
# From -- ./inp_files/343.got.cif
#   From: 2010.03.12/outbox.cif.g09.slc.cpg/sg19_1_cif.got.tgz:343.got - 2010.04.10 18:59:41.
