data_PCOD8157584
_publ_section_title
;
Structure prediction by ZEFSAII (Michael W. Deem and Ramdas Pophale) SiO2 
 PCOD8157584
Probable space group: P 21 21 21
;
_chemical_formula_sum "Si O2"
_cell_formula_units_Z 20
_cell_length_a 8.808803
_cell_length_b 5.552912
_cell_length_c 16.778102
_cell_angle_alpha 90.000000
_cell_angle_beta 90.000000
_cell_angle_gamma 90.000000
_cell_volume 820.692603
_symmetry_space_group_name_H-M "P 21 21 21"
_symmetry_group_IT_number 19
_symmetry_cell_setting 'orthorhombic'
loop_
_space_group_symop_operation_xyz
x,y,z
1/2-x,-y,1/2+z
1/2+x,1/2-y,-z
-x,1/2+y,1/2-z
loop_
_atom_site_type_symbol
_atom_site_label
_atom_site_fract_x
_atom_site_fract_y
_atom_site_fract_z
Si Si1 0.127286 0.817402 0.833342
Si Si2 0.837260 0.535136 0.826096
Si Si3 0.478244 0.295145 0.058618
Si Si4 0.590879 0.772227 0.746119
Si Si5 0.784417 0.067046 0.083657
O O1 0.213155 0.887336 0.752663
O O2 0.259364 0.711768 0.890880
O O3 0.011396 0.604897 0.809795
O O4 0.019163 0.009854 0.875113
O O5 0.841589 0.376521 0.907007
O O6 0.708328 0.745014 0.822423
O O7 0.631080 0.149967 0.039095
O O8 0.422908 0.422524 0.978025
O O9 0.481533 0.537979 0.746593
O O10 0.681680 0.766356 0.661194
#
# Coordination Sequence:
#
# PCOD8157584 Si02
#       5
#     4   4   4   4   4
#     4  11  21  44  77 102 143 200 262 312 376 466
#     4  11  22  44  75 104 140 202 252 316 375 461
#     4  11  26  46  74 104 156 193 263 311 400 450
#     4  12  28  48  79 112 158 201 260 320 381 456
#     4  11  27  48  69 112 151 202 255 323 384 461
#
# _framework density 24.36966
#
# number of rings (size 3 to 8) (size 9 to 14) (size 15 to 20)
#    0.000    0.800    4.000    2.400    5.600    3.200 
#    0.000    0.000    0.000    0.000    0.000    0.000 
#    0.000    0.000    0.000    0.000    0.000    0.000 
#
# Total GULP energy -247835.227647 kJ/mol
# GULP energy per Si atom -12391.761382 kJ/mol
# Density = 2.431419 g / cm^3
# Si number density = 24.369660 Si / 1000 Ang^3
#
#
#
# Elastic Constant Matrix: (Units=GPa)
#
#
# Indices 1 2 3 4 5 6 
#
# 1 74.4237 14.6529 17.0939 0.0000 0.0000 0.0000
# 2 14.6529 76.6789 3.5302 0.0000 0.0000 0.0000
# 3 17.0939 3.5302 60.5081 0.0000 0.0000 0.0000
# 4 0.0000 0.0000 0.0000 28.1694 0.0000 0.0000
# 5 0.0000 0.0000 0.0000 0.0000 51.0195 0.0000
# 6 0.0000 0.0000 0.0000 0.0000 0.0000 34.3838
#
#
#
# Elastic Compliance Matrix: (Units=1/GPa)
#
#
# Indices 1 2 3 4 5 6 
#
# 1 0.014891 -0.002659 -0.004052 0.000000 0.000000 0.000000
# 2 -0.002659 0.013551 -0.000039 0.000000 0.000000 0.000000
# 3 -0.004052 -0.000039 0.017674 0.000000 0.000000 0.000000
# 4 0.000000 0.000000 0.000000 0.035500 0.000000 0.000000
# 5 0.000000 0.000000 0.000000 0.000000 0.019600 0.000000
# 6 0.000000 0.000000 0.000000 0.000000 0.000000 0.029083
#
#
# Mechanical properties :
#
#
# Convention : Reuss Voigt Hill
#
# Bulk Modulus (GPa) = 30.66016 31.35163 31.00589
# Shear Modulus (GPa) = 32.32670 34.47010 33.39840
#
# Velocity S-wave (km/s) = 3.64609 3.76502 3.70603
# Velocity P-wave (km/s) = 5.50762 5.63857 5.57348
#
# Compressibility (1/GPa) = 0.03261562
#
# Stress axis : x y z
#
# Youngs Moduli (GPa) = 67.15615 73.79347 56.58151
#
# Poissons Ratio (x) = 0.19622 0.22924
# Poissons Ratio (y) = 0.17857 0.00223
# Poissons Ratio (z) = 0.27209 0.00291
#
# Static dielectric constant tensor:
#      x y z
#    x 4.474510 0.000000 0.000000 
#    y 0.000000 4.523370 0.000000 
#    z 0.000000 0.000000 4.106260 
# 
# 
# High freq. dielectric constant tensor:
#      x y z
#    x 1.975880 0.000000 0.000000 
#    y 0.000000 1.973060 0.000000 
#    z 0.000000 0.000000 1.945350 
# 
# From -- ./inp_files/330.got.cif
#   From: 2010.03.12/outbox.cif.g09.slc.cpg/sg19_1_cif.got.tgz:330.got - 2010.04.10 18:59:41.
