data_PCOD8157404
_publ_section_title
;
Structure prediction by ZEFSAII (Michael W. Deem and Ramdas Pophale) SiO2 
 PCOD8157404
Probable space group: P 21 21 21
;
_chemical_formula_sum "Si O2"
_cell_formula_units_Z 32
_cell_length_a 14.703529
_cell_length_b 9.655892
_cell_length_c 10.120649
_cell_angle_alpha 90.000000
_cell_angle_beta 90.000000
_cell_angle_gamma 90.000000
_cell_volume 1436.886105
_symmetry_space_group_name_H-M "P 21 21 21"
_symmetry_group_IT_number 19
_symmetry_cell_setting 'orthorhombic'
loop_
_space_group_symop_operation_xyz
x,y,z
1/2-x,-y,1/2+z
1/2+x,1/2-y,-z
-x,1/2+y,1/2-z
loop_
_atom_site_type_symbol
_atom_site_label
_atom_site_fract_x
_atom_site_fract_y
_atom_site_fract_z
Si Si1 0.782231 0.448395 0.289454
Si Si2 0.730204 0.661949 0.078904
Si Si3 0.381033 0.646841 0.025170
Si Si4 0.541899 0.782970 0.149821
Si Si5 0.708191 0.165569 0.207144
Si Si6 0.090243 0.564385 0.323917
Si Si7 0.974276 0.903927 0.618802
Si Si8 0.470280 0.130407 0.831094
O O1 0.741911 0.585162 0.219916
O O2 0.771028 0.441644 0.449811
O O3 0.722924 0.327794 0.224763
O O4 0.887058 0.436794 0.247990
O O5 0.637761 0.749237 0.081864
O O6 0.809872 0.774596 0.068852
O O7 0.465600 0.749355 0.041757
O O8 0.335464 0.601167 0.161460
O O9 0.421664 0.504471 0.966791
O O10 0.527265 0.696046 0.282113
O O11 0.530960 0.944156 0.182142
O O12 0.802481 0.089958 0.184649
O O13 0.631111 0.145217 0.093544
O O14 0.030193 0.703363 0.307567
O O15 0.061128 0.446364 0.218994
O O16 0.034247 0.899706 0.486542
#
# Coordination Sequence:
#
# PCOD8157404 Si02
#       8
#     4   4   4   4   4   4   4   4
#     4  10  24  44  67 106 142 184 238 299 362 426
#     4  11  24  43  75 100 144 193 236 301 366 426
#     4  10  23  44  68  96 140 181 233 289 354 424
#     4  11  26  43  74  97 144 185 243 290 366 424
#     4   9  23  43  68  95 139 180 230 294 349 431
#     4  11  25  45  68 103 136 186 237 294 358 429
#     4  11  26  45  71 106 139 191 240 296 363 433
#     4  11  27  43  73 101 146 182 243 297 362 431
#
# _framework density 22.270381
#
# number of rings (size 3 to 8) (size 9 to 14) (size 15 to 20)
#    0.000    1.500    0.000    2.250   21.000    1.000 
#    0.000    0.000    0.000    0.000    0.000    0.000 
#    0.000    0.000    0.000    0.000    0.000    0.000 
#
# Total GULP energy -396687.370824 kJ/mol
# GULP energy per Si atom -12396.480338 kJ/mol
# Density = 2.221969 g / cm^3
# Si number density = 22.270381 Si / 1000 Ang^3
#
#
#
# Elastic Constant Matrix: (Units=GPa)
#
#
# Indices 1 2 3 4 5 6 
#
# 1 81.8072 18.5170 12.8987 0.0000 0.0000 0.0000
# 2 18.5170 91.5871 30.5766 0.0000 0.0000 0.0000
# 3 12.8987 30.5766 71.4929 0.0000 0.0000 0.0000
# 4 0.0000 0.0000 0.0000 39.9701 0.0000 0.0000
# 5 0.0000 0.0000 0.0000 0.0000 31.0732 0.0000
# 6 0.0000 0.0000 0.0000 0.0000 0.0000 33.9021
#
#
#
# Elastic Compliance Matrix: (Units=1/GPa)
#
#
# Indices 1 2 3 4 5 6 
#
# 1 0.012932 -0.002141 -0.001417 0.000000 0.000000 0.000000
# 2 -0.002141 0.013092 -0.005213 0.000000 0.000000 0.000000
# 3 -0.001417 -0.005213 0.016473 0.000000 0.000000 0.000000
# 4 0.000000 0.000000 0.000000 0.025019 0.000000 0.000000
# 5 0.000000 0.000000 0.000000 0.000000 0.032182 0.000000
# 6 0.000000 0.000000 0.000000 0.000000 0.000000 0.029497
#
#
# Mechanical properties :
#
#
# Convention : Reuss Voigt Hill
#
# Bulk Modulus (GPa) = 40.07491 40.98576 40.53034
# Shear Modulus (GPa) = 32.24664 33.18208 32.71436
#
# Velocity S-wave (km/s) = 3.80934 3.86419 3.83686
# Velocity P-wave (km/s) = 6.11407 6.19298 6.15365
#
# Compressibility (1/GPa) = 0.02495327
#
# Stress axis : x y z
#
# Youngs Moduli (GPa) = 77.32732 76.38347 60.70692
#
# Poissons Ratio (x) = 0.16357 0.08604
# Poissons Ratio (y) = 0.16559 0.31646
# Poissons Ratio (z) = 0.10960 0.39818
#
# Static dielectric constant tensor:
#      x y z
#    x 4.319520 0.000000 0.000000 
#    y 0.000000 4.021890 0.000000 
#    z 0.000000 0.000000 3.917670 
# 
# 
# High freq. dielectric constant tensor:
#      x y z
#    x 1.891130 0.000000 0.000000 
#    y 0.000000 1.878210 0.000000 
#    z 0.000000 0.000000 1.867900 
# 
# From -- ./inp_files/5290.got.cif
#   From: 2010.03.12/outbox.cif.g09.slc.cpg/sg19_3_cif.got.tgz:5290.got - 2010.04.10 18:59:41.
