data_PCOD8157004
_publ_section_title
;
Structure prediction by ZEFSAII (Michael W. Deem and Ramdas Pophale) SiO2 
 PCOD8157004
Probable space group: P 21 21 21
;
_chemical_formula_sum "Si O2"
_cell_formula_units_Z 32
_cell_length_a 16.194636
_cell_length_b 10.277764
_cell_length_c 8.822521
_cell_angle_alpha 90.000000
_cell_angle_beta 90.000000
_cell_angle_gamma 90.000000
_cell_volume 1468.461392
_symmetry_space_group_name_H-M "P 21 21 21"
_symmetry_group_IT_number 19
_symmetry_cell_setting 'orthorhombic'
loop_
_space_group_symop_operation_xyz
x,y,z
1/2-x,-y,1/2+z
1/2+x,1/2-y,-z
-x,1/2+y,1/2-z
loop_
_atom_site_type_symbol
_atom_site_label
_atom_site_fract_x
_atom_site_fract_y
_atom_site_fract_z
Si Si1 0.480924 0.092362 0.235507
Si Si2 0.623332 0.038929 0.800963
Si Si3 0.164351 0.981155 0.918668
Si Si4 0.601544 0.159910 0.492338
Si Si5 0.675585 0.576926 0.730246
Si Si6 0.966132 0.564257 0.050994
Si Si7 0.106169 0.271423 0.945349
Si Si8 0.240546 0.339041 0.726498
O O1 0.548085 0.082182 0.368420
O O2 0.512859 0.203811 0.118183
O O3 0.392545 0.116670 0.317870
O O4 0.470947 0.964883 0.129304
O O5 0.609000 0.055054 0.623832
O O6 0.555883 0.943547 0.873880
O O7 0.712387 0.971178 0.815934
O O8 0.617579 0.180873 0.881692
O O9 0.252808 0.985417 0.838221
O O10 0.121551 0.121210 0.920431
O O11 0.169266 0.937235 0.090316
O O12 0.560183 0.287203 0.563716
O O13 0.690581 0.203614 0.425243
O O14 0.592942 0.536679 0.641716
O O15 0.696998 0.728908 0.709036
O O16 0.171451 0.362148 0.855043
#
# Coordination Sequence:
#
# PCOD8157004 Si02
#       8
#     4   4   4   4   4   4   4   4
#     4  10  21  39  62  90 121 168 204 260 319 382
#     4  11  23  38  67  91 129 169 214 264 323 396
#     4  11  21  39  65  90 125 167 211 264 324 380
#     4  11  23  43  66  95 135 171 214 273 327 384
#     4  11  23  40  65  94 127 166 213 270 317 386
#     4  11  24  42  62  97 130 168 219 269 323 388
#     4   9  21  40  60  88 127 160 207 265 315 375
#     4  10  22  41  63  91 126 169 214 263 320 393
#
# _framework density 21.791516000000001
#
# number of rings (size 3 to 8) (size 9 to 14) (size 15 to 20)
#    0.000    1.500    0.000    6.000    3.500    0.000 
#    4.500    0.000   11.000    0.000    0.000    0.000 
#    0.000    0.000    0.000    0.000    0.000    0.000 
#
# Total GULP energy -396628.277535 kJ/mol
# GULP energy per Si atom -12394.633673 kJ/mol
# Density = 2.174192 g / cm^3
# Si number density = 21.791516 Si / 1000 Ang^3
#
#
#
# Elastic Constant Matrix: (Units=GPa)
#
#
# Indices 1 2 3 4 5 6 
#
# 1 78.1002 14.5020 29.1367 0.0000 0.0000 0.0000
# 2 14.5020 39.7610 11.1197 0.0000 0.0000 0.0000
# 3 29.1367 11.1197 119.5843 0.0000 0.0000 0.0000
# 4 0.0000 0.0000 0.0000 24.5330 0.0000 0.0000
# 5 0.0000 0.0000 0.0000 0.0000 36.7035 0.0000
# 6 0.0000 0.0000 0.0000 0.0000 0.0000 30.1255
#
#
#
# Elastic Compliance Matrix: (Units=1/GPa)
#
#
# Indices 1 2 3 4 5 6 
#
# 1 0.014835 -0.004517 -0.003194 0.000000 0.000000 0.000000
# 2 -0.004517 0.027197 -0.001428 0.000000 0.000000 0.000000
# 3 -0.003194 -0.001428 0.009273 0.000000 0.000000 0.000000
# 4 0.000000 0.000000 0.000000 0.040761 0.000000 0.000000
# 5 0.000000 0.000000 0.000000 0.000000 0.027245 0.000000
# 6 0.000000 0.000000 0.000000 0.000000 0.000000 0.033194
#
#
# Mechanical properties :
#
#
# Convention : Reuss Voigt Hill
#
# Bulk Modulus (GPa) = 30.27979 38.55136 34.41557
# Shear Modulus (GPa) = 27.50350 30.45154 28.97752
#
# Velocity S-wave (km/s) = 3.55649 3.74224 3.65055
# Velocity P-wave (km/s) = 5.54889 6.03340 5.79621
#
# Compressibility (1/GPa) = 0.03302533
#
# Stress axis : x y z
#
# Youngs Moduli (GPa) = 67.41007 36.76833 107.83486
#
# Poissons Ratio (x) = 0.16609 0.34447
# Poissons Ratio (y) = 0.30451 0.15403
# Poissons Ratio (z) = 0.21533 0.05252
#
# Static dielectric constant tensor:
#      x y z
#    x 4.155270 0.000000 0.000000 
#    y 0.000000 3.558450 0.000000 
#    z 0.000000 0.000000 4.128140 
# 
# 
# High freq. dielectric constant tensor:
#      x y z
#    x 1.862740 0.000000 0.000000 
#    y 0.000000 1.829550 0.000000 
#    z 0.000000 0.000000 1.875280 
# 
# From -- ./inp_files/3976.got.cif
#   From: 2010.03.12/outbox.cif.g09.slc.cpg/sg19_2_cif.got.tgz:3976.got - 2010.04.10 18:59:41.
