data_PCOD8157264
_publ_section_title
;
Structure prediction by ZEFSAII (Michael W. Deem and Ramdas Pophale) SiO2 
 PCOD8157264
Probable space group: P 21 21 21
;
_chemical_formula_sum "Si O2"
_cell_formula_units_Z 20
_cell_length_a 5.537338
_cell_length_b 8.196372
_cell_length_c 19.295943
_cell_angle_alpha 90.000000
_cell_angle_beta 90.000000
_cell_angle_gamma 90.000000
_cell_volume 875.767254
_symmetry_space_group_name_H-M "P 21 21 21"
_symmetry_group_IT_number 19
_symmetry_cell_setting 'orthorhombic'
loop_
_space_group_symop_operation_xyz
x,y,z
1/2-x,-y,1/2+z
1/2+x,1/2-y,-z
-x,1/2+y,1/2-z
loop_
_atom_site_type_symbol
_atom_site_label
_atom_site_fract_x
_atom_site_fract_y
_atom_site_fract_z
Si Si1 0.152690 0.026737 0.765339
Si Si2 0.728140 0.151918 0.007946
Si Si3 0.870645 0.915945 0.887328
Si Si4 0.002823 0.732309 0.205186
Si Si5 0.137815 0.584666 0.870296
O O1 0.285634 0.852986 0.753491
O O2 0.056305 0.029193 0.844317
O O3 0.329202 0.180459 0.761117
O O4 0.958626 0.029443 0.704567
O O5 0.790311 0.002612 0.957219
O O6 0.481467 0.246530 0.984055
O O7 0.650695 0.070365 0.080107
O O8 0.643968 0.906661 0.836252
O O9 0.979275 0.734404 0.902274
O O10 0.909490 0.857479 0.146128
#
# Coordination Sequence:
#
# PCOD8157264 Si02
#       5
#     4   4   4   4   4
#     4  10  22  44  70 112 132 190 238 308 366 438
#     4  12  32  50  74 114 150 198 250 316 364 436
#     4  10  25  47  75 103 145 196 246 299 376 447
#     4  10  22  42  74 102 144 184 240 308 366 446
#     4  10  25  47  75 103 145 196 246 299 376 447
#
# _framework density 22.837115000000001
#
# number of rings (size 3 to 8) (size 9 to 14) (size 15 to 20)
#    0.000    1.600    0.000    1.200   14.000    8.000 
#    3.600    0.000    0.000    0.000    0.000    0.000 
#    0.000    0.000    0.000    0.000    0.000    0.000 
#
# Total GULP energy -247865.116760 kJ/mol
# GULP energy per Si atom -12393.255838 kJ/mol
# Density = 2.278514 g / cm^3
# Si number density = 22.837115 Si / 1000 Ang^3
#
#
#
# Elastic Constant Matrix: (Units=GPa)
#
#
# Indices 1 2 3 4 5 6 
#
# 1 103.0534 32.9559 4.4995 0.0000 0.0000 0.0000
# 2 32.9559 41.5414 22.1386 0.0000 0.0000 0.0000
# 3 4.4995 22.1386 42.0655 0.0000 0.0000 0.0000
# 4 0.0000 0.0000 0.0000 54.0154 0.0000 0.0000
# 5 0.0000 0.0000 0.0000 0.0000 9.8801 0.0000
# 6 0.0000 0.0000 0.0000 0.0000 0.0000 29.3532
#
#
#
# Elastic Compliance Matrix: (Units=1/GPa)
#
#
# Indices 1 2 3 4 5 6 
#
# 1 0.014031 -0.014359 0.006056 0.000000 0.000000 0.000000
# 2 -0.014359 0.048150 -0.023805 0.000000 0.000000 0.000000
# 3 0.006056 -0.023805 0.035653 0.000000 0.000000 0.000000
# 4 0.000000 0.000000 0.000000 0.018513 0.000000 0.000000
# 5 0.000000 0.000000 0.000000 0.000000 0.101214 0.000000
# 6 0.000000 0.000000 0.000000 0.000000 0.000000 0.034068
#
#
# Mechanical properties :
#
#
# Convention : Reuss Voigt Hill
#
# Bulk Modulus (GPa) = 29.74531 33.98314 31.86422
# Shear Modulus (GPa) = 15.28818 27.12082 21.20450
#
# Velocity S-wave (km/s) = 2.59017 3.44986 3.05045
# Velocity P-wave (km/s) = 4.69026 5.54813 5.13713
#
# Compressibility (1/GPa) = 0.03361875
#
# Stress axis : x y z
#
# Youngs Moduli (GPa) = 71.27019 20.76852 28.04824
#
# Poissons Ratio (x) = 0.29821 -0.16986
# Poissons Ratio (y) = 1.02335 0.66768
# Poissons Ratio (z) = -0.43161 0.49439
#
# Static dielectric constant tensor:
#      x y z
#    x 4.485080 0.000000 0.000000 
#    y 0.000000 4.183630 0.000000 
#    z 0.000000 0.000000 3.861650 
# 
# 
# High freq. dielectric constant tensor:
#      x y z
#    x 1.922240 0.000000 0.000000 
#    y 0.000000 1.908790 0.000000 
#    z 0.000000 0.000000 1.881670 
# 
# From -- ./inp_files/336.got.cif
#   From: 2010.03.12/outbox.cif.g09.slc.cpg/sg19_1_cif.got.tgz:336.got - 2010.04.10 18:59:41.
