data_PCOD8157589
_publ_section_title
;
Structure prediction by ZEFSAII (Michael W. Deem and Ramdas Pophale) SiO2 
 PCOD8157589
Probable space group: P 21 21 21
;
_chemical_formula_sum "Si O2"
_cell_formula_units_Z 32
_cell_length_a 9.293234
_cell_length_b 13.264663
_cell_length_c 11.395642
_cell_angle_alpha 90.000000
_cell_angle_beta 90.000000
_cell_angle_gamma 90.000000
_cell_volume 1404.759218
_symmetry_space_group_name_H-M "P 21 21 21"
_symmetry_group_IT_number 19
_symmetry_cell_setting 'orthorhombic'
loop_
_space_group_symop_operation_xyz
x,y,z
1/2-x,-y,1/2+z
1/2+x,1/2-y,-z
-x,1/2+y,1/2-z
loop_
_atom_site_type_symbol
_atom_site_label
_atom_site_fract_x
_atom_site_fract_y
_atom_site_fract_z
Si Si1 0.562267 0.954890 0.891815
Si Si2 0.318972 0.416339 0.067500
Si Si3 0.889528 0.325841 0.615836
Si Si4 0.594342 0.443900 0.199621
Si Si5 0.375524 0.826999 0.060360
Si Si6 0.769116 0.290031 0.850859
Si Si7 0.860871 0.361334 0.083082
Si Si8 0.958978 0.148592 0.159192
O O1 0.609753 0.903716 0.771287
O O2 0.711728 0.991002 0.947218
O O3 0.454693 0.047084 0.868878
O O4 0.491824 0.872996 0.973706
O O5 0.426992 0.421053 0.177722
O O6 0.225478 0.314200 0.083142
O O7 0.413830 0.417486 0.951258
O O8 0.886659 0.437159 0.673910
O O9 0.780267 0.316211 0.504104
O O10 0.837418 0.259546 0.726280
O O11 0.051020 0.283078 0.587873
O O12 0.639240 0.404121 0.329603
O O13 0.693046 0.382668 0.108274
O O14 0.630316 0.358079 0.829021
O O15 0.877669 0.347379 0.941552
O O16 0.905253 0.262796 0.154746
#
# Coordination Sequence:
#
# PCOD8157589 Si02
#       8
#     4   4   4   4   4   4   4   4
#     4  12  26  47  69 109 145 192 241 310 375 442
#     4  11  26  44  71 106 140 189 247 303 363 442
#     4  12  28  48  76 107 155 192 249 311 371 451
#     4  12  26  47  71 105 145 197 241 298 372 450
#     4  12  29  49  74 113 151 195 246 313 387 435
#     4  11  21  48  72 104 139 190 246 309 357 438
#     4  11  24  45  78 102 141 197 252 297 364 453
#     4  11  24  44  75 104 146 188 248 303 375 441
#
# _framework density 22.779703999999999
#
# number of rings (size 3 to 8) (size 9 to 14) (size 15 to 20)
#    0.000    0.500    6.250    0.750    5.250    1.000 
#    2.250    0.000    0.000    0.000    0.000    0.000 
#    0.000    0.000    0.000    0.000    0.000    0.000 
#
# Total GULP energy -396687.285988 kJ/mol
# GULP energy per Si atom -12396.477687 kJ/mol
# Density = 2.272786 g / cm^3
# Si number density = 22.779704 Si / 1000 Ang^3
#
#
#
# Elastic Constant Matrix: (Units=GPa)
#
#
# Indices 1 2 3 4 5 6 
#
# 1 85.1139 29.3094 13.7592 0.0000 0.0000 0.0000
# 2 29.3094 96.8374 35.2328 0.0000 0.0000 0.0000
# 3 13.7592 35.2328 100.7233 0.0000 0.0000 0.0000
# 4 0.0000 0.0000 0.0000 36.1752 0.0000 0.0000
# 5 0.0000 0.0000 0.0000 0.0000 32.6932 0.0000
# 6 0.0000 0.0000 0.0000 0.0000 0.0000 38.9259
#
#
#
# Elastic Compliance Matrix: (Units=1/GPa)
#
#
# Indices 1 2 3 4 5 6 
#
# 1 0.013135 -0.003807 -0.000463 0.000000 0.000000 0.000000
# 2 -0.003807 0.012936 -0.004005 0.000000 0.000000 0.000000
# 3 -0.000463 -0.004005 0.011392 0.000000 0.000000 0.000000
# 4 0.000000 0.000000 0.000000 0.027643 0.000000 0.000000
# 5 0.000000 0.000000 0.000000 0.000000 0.030587 0.000000
# 6 0.000000 0.000000 0.000000 0.000000 0.000000 0.025690
#
#
# Mechanical properties :
#
#
# Convention : Reuss Voigt Hill
#
# Bulk Modulus (GPa) = 47.81521 48.80860 48.31191
# Shear Modulus (GPa) = 34.50560 35.18374 34.84467
#
# Velocity S-wave (km/s) = 3.89620 3.93430 3.91530
# Velocity P-wave (km/s) = 6.42467 6.48931 6.45707
#
# Compressibility (1/GPa) = 0.02091385
#
# Stress axis : x y z
#
# Youngs Moduli (GPa) = 76.13396 77.30354 87.77868
#
# Poissons Ratio (x) = 0.29431 0.04060
# Poissons Ratio (y) = 0.28985 0.35155
# Poissons Ratio (z) = 0.03521 0.30959
#
# Static dielectric constant tensor:
#      x y z
#    x 4.144140 0.000000 0.000000 
#    y 0.000000 4.160120 0.000000 
#    z 0.000000 0.000000 4.221700 
# 
# 
# High freq. dielectric constant tensor:
#      x y z
#    x 1.897510 0.000000 0.000000 
#    y 0.000000 1.904740 0.000000 
#    z 0.000000 0.000000 1.903320 
# 
# From -- ./inp_files/4693.got.cif
#   From: 2010.03.12/outbox.cif.g09.slc.cpg/sg19_3_cif.got.tgz:4693.got - 2010.04.10 18:59:41.
