data_PCOD8157523
_publ_section_title
;
Structure prediction by ZEFSAII (Michael W. Deem and Ramdas Pophale) SiO2 
 PCOD8157523
Probable space group: P 21 21 21
;
_chemical_formula_sum "Si O2"
_cell_formula_units_Z 32
_cell_length_a 17.703876
_cell_length_b 5.298280
_cell_length_c 13.701765
_cell_angle_alpha 90.000000
_cell_angle_beta 90.000000
_cell_angle_gamma 90.000000
_cell_volume 1285.226819
_symmetry_space_group_name_H-M "P 21 21 21"
_symmetry_group_IT_number 19
_symmetry_cell_setting 'orthorhombic'
loop_
_space_group_symop_operation_xyz
x,y,z
1/2-x,-y,1/2+z
1/2+x,1/2-y,-z
-x,1/2+y,1/2-z
loop_
_atom_site_type_symbol
_atom_site_label
_atom_site_fract_x
_atom_site_fract_y
_atom_site_fract_z
Si Si1 0.240674 0.475546 0.407628
Si Si2 0.973868 0.677256 0.059490
Si Si3 0.868043 0.669864 0.231451
Si Si4 0.568980 0.303400 0.937598
Si Si5 0.359072 0.079454 0.402819
Si Si6 0.270538 0.852775 0.250426
Si Si7 0.006827 0.463388 0.693948
Si Si8 0.856271 0.894804 0.921641
O O1 0.184901 0.365324 0.325031
O O2 0.281579 0.698761 0.351952
O O3 0.190837 0.565157 0.501245
O O4 0.305219 0.290181 0.450266
O O5 0.939178 0.596726 0.164532
O O6 0.017387 0.944085 0.072217
O O7 0.904628 0.690240 0.982486
O O8 0.024595 0.442707 0.024167
O O9 0.896504 0.779714 0.333895
O O10 0.816841 0.427591 0.259013
O O11 0.636345 0.353759 0.016430
O O12 0.328810 0.064493 0.289293
O O13 0.447935 0.148939 0.386048
O O14 0.295794 0.735027 0.149329
O O15 0.084399 0.555292 0.642270
O O16 0.027316 0.221379 0.761217
#
# Coordination Sequence:
#
# PCOD8157523 Si02
#       8
#     4   4   4   4   4   4   4   4
#     4  10  25  46  68 107 142 192 243 299 358 437
#     4  11  27  44  72 106 143 185 241 296 362 431
#     4  10  25  45  69 103 140 190 239 295 360 433
#     4  12  26  44  74 106 143 190 235 300 363 428
#     4  11  25  42  66 104 142 181 245 295 357 433
#     4  11  24  45  73  98 147 191 243 298 360 433
#     4  12  26  45  75 104 142 185 241 295 361 424
#     4  11  24  47  73 106 145 194 237 304 363 429
#
# _framework density 24.898326999999998
#
# number of rings (size 3 to 8) (size 9 to 14) (size 15 to 20)
#    0.000    1.000    2.500    2.250    8.750    1.000 
#    9.000    0.000    0.000    0.000    0.000    0.000 
#    0.000    0.000    0.000    0.000    0.000    0.000 
#
# Total GULP energy -396451.121877 kJ/mol
# GULP energy per Si atom -12389.097559 kJ/mol
# Density = 2.484166 g / cm^3
# Si number density = 24.898327 Si / 1000 Ang^3
#
#
#
# Elastic Constant Matrix: (Units=GPa)
#
#
# Indices 1 2 3 4 5 6 
#
# 1 67.9204 3.3800 24.7870 0.0000 0.0000 0.0000
# 2 3.3800 65.0389 4.5836 0.0000 0.0000 0.0000
# 3 24.7870 4.5836 125.7483 0.0000 0.0000 0.0000
# 4 0.0000 0.0000 0.0000 23.4711 0.0000 0.0000
# 5 0.0000 0.0000 0.0000 0.0000 55.6925 0.0000
# 6 0.0000 0.0000 0.0000 0.0000 0.0000 28.1620
#
#
#
# Elastic Compliance Matrix: (Units=1/GPa)
#
#
# Indices 1 2 3 4 5 6 
#
# 1 0.015888 -0.000607 -0.003110 0.000000 0.000000 0.000000
# 2 -0.000607 0.015438 -0.000443 0.000000 0.000000 0.000000
# 3 -0.003110 -0.000443 0.008582 0.000000 0.000000 0.000000
# 4 0.000000 0.000000 0.000000 0.042605 0.000000 0.000000
# 5 0.000000 0.000000 0.000000 0.000000 0.017956 0.000000
# 6 0.000000 0.000000 0.000000 0.000000 0.000000 0.035509
#
#
# Mechanical properties :
#
#
# Convention : Reuss Voigt Hill
#
# Bulk Modulus (GPa) = 31.65656 36.02319 33.83987
# Shear Modulus (GPa) = 32.29424 36.52894 34.41159
#
# Velocity S-wave (km/s) = 3.60536 3.83446 3.72167
# Velocity P-wave (km/s) = 5.48392 5.83983 5.66467
#
# Compressibility (1/GPa) = 0.03158903
#
# Stress axis : x y z
#
# Youngs Moduli (GPa) = 62.93997 64.77455 116.52948
#
# Poissons Ratio (x) = 0.03929 0.36237
# Poissons Ratio (y) = 0.03817 0.05164
# Poissons Ratio (z) = 0.19572 0.02871
#
# Static dielectric constant tensor:
#      x y z
#    x 4.776680 0.000000 0.000000 
#    y 0.000000 4.024460 0.000000 
#    z 0.000000 0.000000 4.661990 
# 
# 
# High freq. dielectric constant tensor:
#      x y z
#    x 2.012000 0.000000 0.000000 
#    y 0.000000 1.954760 0.000000 
#    z 0.000000 0.000000 2.010330 
# 
# From -- ./inp_files/6294.got.cif
#   From: 2010.03.12/outbox.cif.g09.slc.cpg/sg19_4_cif.got.tgz:6294.got - 2010.04.10 18:59:41.
