data_PCOD8157848
_publ_section_title
;
Structure prediction by ZEFSAII (Michael W. Deem and Ramdas Pophale) SiO2 
 PCOD8157848
Probable space group: P 21 21 21
;
_chemical_formula_sum "Si O2"
_cell_formula_units_Z 32
_cell_length_a 13.688635
_cell_length_b 11.336035
_cell_length_c 8.615710
_cell_angle_alpha 90.000000
_cell_angle_beta 90.000000
_cell_angle_gamma 90.000000
_cell_volume 1336.941468
_symmetry_space_group_name_H-M "P 21 21 21"
_symmetry_group_IT_number 19
_symmetry_cell_setting 'orthorhombic'
loop_
_space_group_symop_operation_xyz
x,y,z
1/2-x,-y,1/2+z
1/2+x,1/2-y,-z
-x,1/2+y,1/2-z
loop_
_atom_site_type_symbol
_atom_site_label
_atom_site_fract_x
_atom_site_fract_y
_atom_site_fract_z
Si Si1 0.583307 0.449916 0.364206
Si Si2 0.549395 0.778781 0.960218
Si Si3 0.505957 0.522547 0.040163
Si Si4 0.708688 0.045659 0.473593
Si Si5 0.269607 0.663955 0.699087
Si Si6 0.754206 0.265145 0.313565
Si Si7 0.869715 0.307840 0.997423
Si Si8 0.958634 0.685902 0.353934
O O1 0.487872 0.373756 0.413912
O O2 0.552833 0.516488 0.208493
O O3 0.678412 0.368866 0.346555
O O4 0.616129 0.551313 0.483689
O O5 0.664368 0.746244 0.952300
O O6 0.522934 0.837703 0.796816
O O7 0.494732 0.655925 0.983433
O O8 0.394753 0.476304 0.021707
O O9 0.571529 0.440920 0.926172
O O10 0.744436 0.106478 0.631895
O O11 0.699150 0.139979 0.331480
O O12 0.784078 0.942285 0.425196
O O13 0.178178 0.749162 0.656164
O O14 0.364388 0.743726 0.696663
O O15 0.799658 0.282203 0.144091
O O16 0.978459 0.256213 0.018133
#
# Coordination Sequence:
#
# PCOD8157848 Si02
#       8
#     4   4   4   4   4   4   4   4
#     4  12  29  47  78 112 157 200 260 324 396 459
#     4  11  28  50  75 112 152 207 260 321 393 471
#     4  12  27  50  75 113 156 201 262 320 390 470
#     4  12  27  48  79 113 152 203 263 324 394 467
#     4  12  26  48  76 112 153 201 258 327 390 472
#     4  11  27  49  74 108 153 202 259 315 390 464
#     4  11  28  47  71 111 148 201 255 314 391 464
#     4  11  26  49  74 103 153 201 257 311 396 459
#
# _framework density 23.935227999999999
#
# number of rings (size 3 to 8) (size 9 to 14) (size 15 to 20)
#    0.000    0.500    3.750    1.500   15.750    1.000 
#    0.000    0.000    0.000    0.000    0.000    0.000 
#    0.000    0.000    0.000    0.000    0.000    0.000 
#
# Total GULP energy -396737.316689 kJ/mol
# GULP energy per Si atom -12398.041147 kJ/mol
# Density = 2.388075 g / cm^3
# Si number density = 23.935228 Si / 1000 Ang^3
#
#
#
# Elastic Constant Matrix: (Units=GPa)
#
#
# Indices 1 2 3 4 5 6 
#
# 1 66.5125 6.3399 20.1161 0.0000 0.0000 0.0000
# 2 6.3399 131.7083 40.8642 0.0000 0.0000 0.0000
# 3 20.1161 40.8642 94.5722 0.0000 0.0000 0.0000
# 4 0.0000 0.0000 0.0000 42.3583 0.0000 0.0000
# 5 0.0000 0.0000 0.0000 0.0000 37.1092 0.0000
# 6 0.0000 0.0000 0.0000 0.0000 0.0000 31.5784
#
#
#
# Elastic Compliance Matrix: (Units=1/GPa)
#
#
# Indices 1 2 3 4 5 6 
#
# 1 0.016081 0.000332 -0.003564 0.000000 0.000000 0.000000
# 2 0.000332 0.008775 -0.003862 0.000000 0.000000 0.000000
# 3 -0.003564 -0.003862 0.013001 0.000000 0.000000 0.000000
# 4 0.000000 0.000000 0.000000 0.023608 0.000000 0.000000
# 5 0.000000 0.000000 0.000000 0.000000 0.026947 0.000000
# 6 0.000000 0.000000 0.000000 0.000000 0.000000 0.031667
#
#
# Mechanical properties :
#
#
# Convention : Reuss Voigt Hill
#
# Bulk Modulus (GPa) = 42.25108 47.49261 44.87185
# Shear Modulus (GPa) = 35.17229 37.24071 36.20650
#
# Velocity S-wave (km/s) = 3.83754 3.94876 3.89355
# Velocity P-wave (km/s) = 6.10951 6.37774 6.24507
#
# Compressibility (1/GPa) = 0.02366803
#
# Stress axis : x y z
#
# Youngs Moduli (GPa) = 62.18515 113.96218 76.91840
#
# Poissons Ratio (x) = -0.03780 0.27413
# Poissons Ratio (y) = -0.02062 0.29707
# Poissons Ratio (z) = 0.22162 0.44013
#
# Static dielectric constant tensor:
#      x y z
#    x 4.340100 0.000000 0.000000 
#    y 0.000000 4.445170 0.000000 
#    z 0.000000 0.000000 4.234430 
# 
# 
# High freq. dielectric constant tensor:
#      x y z
#    x 1.949910 0.000000 0.000000 
#    y 0.000000 1.967100 0.000000 
#    z 0.000000 0.000000 1.948000 
# 
# From -- ./inp_files/3946.got.cif
#   From: 2010.03.12/outbox.cif.g09.slc.cpg/sg19_2_cif.got.tgz:3946.got - 2010.04.10 18:59:41.
