data_PCOD8157860
_publ_section_title
;
Structure prediction by ZEFSAII (Michael W. Deem and Ramdas Pophale) SiO2 
 PCOD8157860
Probable space group: P 21 21 21
;
_chemical_formula_sum "Si O2"
_cell_formula_units_Z 28
_cell_length_a 9.546832
_cell_length_b 6.634645
_cell_length_c 21.553052
_cell_angle_alpha 90.000000
_cell_angle_beta 90.000000
_cell_angle_gamma 90.000000
_cell_volume 1365.166891
_symmetry_space_group_name_H-M "P 21 21 21"
_symmetry_group_IT_number 19
_symmetry_cell_setting 'orthorhombic'
loop_
_space_group_symop_operation_xyz
x,y,z
1/2-x,-y,1/2+z
1/2+x,1/2-y,-z
-x,1/2+y,1/2-z
loop_
_atom_site_type_symbol
_atom_site_label
_atom_site_fract_x
_atom_site_fract_y
_atom_site_fract_z
Si Si1 0.115720 0.839404 0.014853
Si Si2 0.361328 0.424777 0.406412
Si Si3 0.508730 0.492693 0.595136
Si Si4 0.365154 0.346885 0.980883
Si Si5 0.167121 0.922769 0.587922
Si Si6 0.106324 0.176877 0.182373
Si Si7 0.367953 0.663374 0.818302
O O1 0.094045 0.626663 0.049366
O O2 0.263530 0.923482 0.038738
O O3 0.126795 0.792003 0.941355
O O4 0.991694 0.996792 0.029224
O O5 0.278460 0.572145 0.452863
O O6 0.514321 0.507858 0.392070
O O7 0.283743 0.418048 0.339816
O O8 0.602460 0.639603 0.554157
O O9 0.425829 0.617927 0.646703
O O10 0.600662 0.329235 0.630354
O O11 0.341458 0.294999 0.053607
O O12 0.258201 0.921253 0.650498
O O13 0.144594 0.232316 0.252189
O O14 0.979086 0.018560 0.180891
#
# Coordination Sequence:
#
# PCOD8157860 Si02
#       7
#     4   4   4   4   4   4   4
#     4  12  23  44  68 103 141 180 224 274 341 419
#     4  12  24  41  66 104 142 170 218 283 349 395
#     4  12  20  44  76  98 126 176 238 278 316 410
#     4  12  23  44  68 103 141 180 224 274 341 419
#     4  12  24  41  66 104 142 170 218 283 349 395
#     4  12  25  46  72  96 129 184 239 274 323 411
#     4  12  25  46  72  96 129 184 239 274 323 411
#
# _framework density 20.510314000000001
#
# number of rings (size 3 to 8) (size 9 to 14) (size 15 to 20)
#    0.000    0.000    8.571    3.429    0.000    0.000 
#    0.000    5.714    0.000    0.000    0.000    0.000 
#    0.000    0.000    0.000    0.000    0.000    0.000 
#
# Total GULP energy -347228.501971 kJ/mol
# GULP energy per Si atom -12401.017928 kJ/mol
# Density = 2.046363 g / cm^3
# Si number density = 20.510314 Si / 1000 Ang^3
#
#
#
# Elastic Constant Matrix: (Units=GPa)
#
#
# Indices 1 2 3 4 5 6 
#
# 1 125.5887 25.4574 27.0823 0.0000 0.0000 0.0000
# 2 25.4574 84.7529 20.8539 0.0000 0.0000 0.0000
# 3 27.0823 20.8539 95.0373 0.0000 0.0000 0.0000
# 4 0.0000 0.0000 0.0000 28.8453 0.0000 0.0000
# 5 0.0000 0.0000 0.0000 0.0000 25.7587 0.0000
# 6 0.0000 0.0000 0.0000 0.0000 0.0000 22.3873
#
#
#
# Elastic Compliance Matrix: (Units=1/GPa)
#
#
# Indices 1 2 3 4 5 6 
#
# 1 0.008840 -0.002152 -0.002047 0.000000 0.000000 0.000000
# 2 -0.002152 0.012996 -0.002239 0.000000 0.000000 0.000000
# 3 -0.002047 -0.002239 0.011597 0.000000 0.000000 0.000000
# 4 0.000000 0.000000 0.000000 0.034668 0.000000 0.000000
# 5 0.000000 0.000000 0.000000 0.000000 0.038822 0.000000
# 6 0.000000 0.000000 0.000000 0.000000 0.000000 0.044668
#
#
# Mechanical properties :
#
#
# Convention : Reuss Voigt Hill
#
# Bulk Modulus (GPa) = 48.64169 50.24067 49.44118
# Shear Modulus (GPa) = 29.18555 30.86396 30.02475
#
# Velocity S-wave (km/s) = 3.77632 3.88339 3.83023
# Velocity P-wave (km/s) = 6.54074 6.68252 6.61201
#
# Compressibility (1/GPa) = 0.02055850
#
# Stress axis : x y z
#
# Youngs Moduli (GPa) = 113.12134 76.94609 86.23133
#
# Poissons Ratio (x) = 0.16556 0.17651
# Poissons Ratio (y) = 0.24340 0.19304
# Poissons Ratio (z) = 0.23156 0.17225
#
# Static dielectric constant tensor:
#      x y z
#    x 3.669860 0.000000 0.000000 
#    y 0.000000 4.016190 0.000000 
#    z 0.000000 0.000000 3.806160 
# 
# 
# High freq. dielectric constant tensor:
#      x y z
#    x 1.803840 0.000000 0.000000 
#    y 0.000000 1.814030 0.000000 
#    z 0.000000 0.000000 1.796560 
# 
# From -- ./inp_files/7339.got.cif
#   From: 2010.03.12/outbox.cif.g09.slc.cpg/sg19_4_cif.got.tgz:7339.got - 2010.04.10 18:59:41.
