data_PCOD8157903
_publ_section_title
;
Structure prediction by ZEFSAII (Michael W. Deem and Ramdas Pophale) SiO2 
 PCOD8157903
Probable space group: P 21 21 21
;
_chemical_formula_sum "Si O2"
_cell_formula_units_Z 32
_cell_length_a 8.461776
_cell_length_b 13.952410
_cell_length_c 11.466884
_cell_angle_alpha 90.000000
_cell_angle_beta 90.000000
_cell_angle_gamma 90.000000
_cell_volume 1353.805186
_symmetry_space_group_name_H-M "P 21 21 21"
_symmetry_group_IT_number 19
_symmetry_cell_setting 'orthorhombic'
loop_
_space_group_symop_operation_xyz
x,y,z
1/2-x,-y,1/2+z
1/2+x,1/2-y,-z
-x,1/2+y,1/2-z
loop_
_atom_site_type_symbol
_atom_site_label
_atom_site_fract_x
_atom_site_fract_y
_atom_site_fract_z
Si Si1 0.026707 0.752890 0.091022
Si Si2 0.144961 0.577790 0.235414
Si Si3 0.166829 0.143478 0.937878
Si Si4 0.333174 0.640303 0.443380
Si Si5 0.333653 0.247016 0.342287
Si Si6 0.147457 0.913764 0.654189
Si Si7 0.148799 0.587007 0.661244
Si Si8 0.362243 0.069774 0.737870
O O1 0.124398 0.666184 0.147991
O O2 0.080101 0.854615 0.142767
O O3 0.843886 0.736390 0.114262
O O4 0.050319 0.753341 0.952578
O O5 0.179761 0.616611 0.365055
O O6 0.300890 0.520085 0.195423
O O7 0.992986 0.510239 0.237460
O O8 0.108677 0.251858 0.919948
O O9 0.320329 0.122871 0.858347
O O10 0.019020 0.076931 0.903506
O O11 0.215206 0.128113 0.071345
O O12 0.482113 0.572608 0.413836
O O13 0.284097 0.629649 0.577244
O O14 0.377223 0.156495 0.262923
O O15 0.360754 0.346199 0.274543
O O16 0.201351 0.019191 0.693697
#
# Coordination Sequence:
#
# PCOD8157903 Si02
#       8
#     4   4   4   4   4   4   4   4
#     4  12  30  49  75 106 158 199 254 314 388 443
#     4  12  27  49  77 110 152 203 256 314 381 458
#     4  12  25  48  78 109 152 197 257 318 376 443
#     4  12  25  48  78 109 152 197 257 318 376 443
#     4  12  28  49  77 112 152 197 252 310 386 457
#     4  12  27  47  78 113 151 199 255 313 379 458
#     4  12  27  47  78 113 151 199 255 313 379 458
#     4  12  27  49  77 110 152 203 256 314 381 458
#
# _framework density 23.637079
#
# number of rings (size 3 to 8) (size 9 to 14) (size 15 to 20)
#    0.000    0.000    6.250    2.250    7.000    2.000 
#    0.000    0.000    0.000    0.000    0.000    0.000 
#    0.000    0.000    0.000    0.000    0.000    0.000 
#
# Total GULP energy -397087.329214 kJ/mol
# GULP energy per Si atom -12408.979038 kJ/mol
# Density = 2.358328 g / cm^3
# Si number density = 23.637079 Si / 1000 Ang^3
#
#
#
# Elastic Constant Matrix: (Units=GPa)
#
#
# Indices 1 2 3 4 5 6 
#
# 1 56.8545 5.3893 16.4033 0.0000 0.0000 0.0000
# 2 5.3893 80.2427 23.6919 0.0000 0.0000 0.0000
# 3 16.4033 23.6919 125.2137 0.0000 0.0000 0.0000
# 4 0.0000 0.0000 0.0000 29.4508 0.0000 0.0000
# 5 0.0000 0.0000 0.0000 0.0000 43.5489 0.0000
# 6 0.0000 0.0000 0.0000 0.0000 0.0000 39.5871
#
#
#
# Elastic Compliance Matrix: (Units=1/GPa)
#
#
# Indices 1 2 3 4 5 6 
#
# 1 0.018303 -0.000552 -0.002293 0.000000 0.000000 0.000000
# 2 -0.000552 0.013216 -0.002428 0.000000 0.000000 0.000000
# 3 -0.002293 -0.002428 0.008746 0.000000 0.000000 0.000000
# 4 0.000000 0.000000 0.000000 0.033955 0.000000 0.000000
# 5 0.000000 0.000000 0.000000 0.000000 0.022963 0.000000
# 6 0.000000 0.000000 0.000000 0.000000 0.000000 0.025261
#
#
# Mechanical properties :
#
#
# Convention : Reuss Voigt Hill
#
# Bulk Modulus (GPa) = 33.64995 39.25333 36.45164
# Shear Modulus (GPa) = 34.99025 36.97246 35.98135
#
# Velocity S-wave (km/s) = 3.85166 3.95925 3.90582
# Velocity P-wave (km/s) = 5.83501 6.12729 5.98293
#
# Compressibility (1/GPa) = 0.02971773
#
# Stress axis : x y z
#
# Youngs Moduli (GPa) = 54.63673 75.66438 114.33499
#
# Poissons Ratio (x) = 0.04178 0.26219
# Poissons Ratio (y) = 0.03017 0.27764
# Poissons Ratio (z) = 0.12529 0.18374
#
# Static dielectric constant tensor:
#      x y z
#    x 4.238440 0.000000 0.000000 
#    y 0.000000 4.262310 0.000000 
#    z 0.000000 0.000000 4.403100 
# 
# 
# High freq. dielectric constant tensor:
#      x y z
#    x 1.949950 0.000000 0.000000 
#    y 0.000000 1.937560 0.000000 
#    z 0.000000 0.000000 1.946410 
# 
# From -- ./inp_files/4682.got.cif
#   From: 2010.03.12/outbox.cif.g09.slc.cpg/sg19_3_cif.got.tgz:4682.got - 2010.04.10 18:59:41.
