data_PCOD8157368
_publ_section_title
;
Structure prediction by ZEFSAII (Michael W. Deem and Ramdas Pophale) SiO2 
 PCOD8157368
Probable space group: P 21 21 21
;
_chemical_formula_sum "Si O2"
_cell_formula_units_Z 24
_cell_length_a 8.361154
_cell_length_b 11.609347
_cell_length_c 11.201005
_cell_angle_alpha 90.000000
_cell_angle_beta 90.000000
_cell_angle_gamma 90.000000
_cell_volume 1087.253980
_symmetry_space_group_name_H-M "P 21 21 21"
_symmetry_group_IT_number 19
_symmetry_cell_setting 'orthorhombic'
loop_
_space_group_symop_operation_xyz
x,y,z
1/2-x,-y,1/2+z
1/2+x,1/2-y,-z
-x,1/2+y,1/2-z
loop_
_atom_site_type_symbol
_atom_site_label
_atom_site_fract_x
_atom_site_fract_y
_atom_site_fract_z
Si Si1 0.574920 0.525061 0.323367
Si Si2 0.857726 0.683989 0.377101
Si Si3 0.745956 0.330258 0.467037
Si Si4 0.343445 0.561426 0.530647
Si Si5 0.508959 0.492240 0.054537
Si Si6 0.470535 0.344668 0.643249
O O1 0.703298 0.627867 0.313867
O O2 0.652900 0.410263 0.375122
O O3 0.429339 0.571560 0.403220
O O4 0.506967 0.486076 0.196855
O O5 0.822661 0.815689 0.407093
O O6 0.897919 0.617364 0.499386
O O7 0.005086 0.675014 0.284322
O O8 0.626729 0.296111 0.574166
O O9 0.807060 0.216963 0.398405
O O10 0.905028 0.391005 0.515890
O O11 0.171178 0.506006 0.506597
O O12 0.450616 0.480884 0.617371
#
# Coordination Sequence:
#
# PCOD8157368 Si02
#       6
#     4   4   4   4   4   4
#     4  10  24  47  69  99 145 181 237 300 350 427
#     4  11  25  44  72 102 140 186 239 297 354 427
#     4  10  23  42  71  99 140 185 237 284 361 412
#     4  11  26  44  66 105 137 186 243 286 364 419
#     4  11  24  45  71 101 139 184 236 296 362 420
#     4  11  24  44  69 102 141 188 236 299 349 431
#
# _framework density 22.07396
#
# number of rings (size 3 to 8) (size 9 to 14) (size 15 to 20)
#    0.000    1.333    1.667    2.000    7.000    4.000 
#    9.000    0.000    0.000    0.000    0.000    0.000 
#    0.000    0.000    0.000    0.000    0.000    0.000 
#
# Total GULP energy -297729.221378 kJ/mol
# GULP energy per Si atom -12405.384224 kJ/mol
# Density = 2.202372 g / cm^3
# Si number density = 22.073960 Si / 1000 Ang^3
#
#
#
# Elastic Constant Matrix: (Units=GPa)
#
#
# Indices 1 2 3 4 5 6 
#
# 1 96.8285 18.3359 18.8192 0.0000 0.0000 0.0000
# 2 18.3359 100.0583 32.2865 0.0000 0.0000 0.0000
# 3 18.8192 32.2865 99.2981 0.0000 0.0000 0.0000
# 4 0.0000 0.0000 0.0000 21.7203 0.0000 0.0000
# 5 0.0000 0.0000 0.0000 0.0000 36.3716 0.0000
# 6 0.0000 0.0000 0.0000 0.0000 0.0000 31.8790
#
#
#
# Elastic Compliance Matrix: (Units=1/GPa)
#
#
# Indices 1 2 3 4 5 6 
#
# 1 0.010918 -0.001489 -0.001585 0.000000 0.000000 0.000000
# 2 -0.001489 0.011369 -0.003414 0.000000 0.000000 0.000000
# 3 -0.001585 -0.003414 0.011481 0.000000 0.000000 0.000000
# 4 0.000000 0.000000 0.000000 0.046040 0.000000 0.000000
# 5 0.000000 0.000000 0.000000 0.000000 0.027494 0.000000
# 6 0.000000 0.000000 0.000000 0.000000 0.000000 0.031369
#
#
# Mechanical properties :
#
#
# Convention : Reuss Voigt Hill
#
# Bulk Modulus (GPa) = 48.09842 48.34089 48.21966
# Shear Modulus (GPa) = 31.53040 33.11041 32.32040
#
# Velocity S-wave (km/s) = 3.78352 3.87715 3.83062
# Velocity P-wave (km/s) = 6.39716 6.47998 6.43870
#
# Compressibility (1/GPa) = 0.02079070
#
# Stress axis : x y z
#
# Youngs Moduli (GPa) = 91.59538 87.96003 87.09888
#
# Poissons Ratio (x) = 0.13100 0.13804
# Poissons Ratio (y) = 0.13641 0.29738
# Poissons Ratio (z) = 0.14517 0.30032
#
# Static dielectric constant tensor:
#      x y z
#    x 4.024630 0.000000 0.000000 
#    y 0.000000 3.857560 0.000000 
#    z 0.000000 0.000000 3.850270 
# 
# 
# High freq. dielectric constant tensor:
#      x y z
#    x 1.878070 0.000000 0.000000 
#    y 0.000000 1.869200 0.000000 
#    z 0.000000 0.000000 1.865330 
# 
# From -- ./inp_files/3320.got.cif
#   From: 2010.03.12/outbox.cif.g09.slc.cpg/sg19_2_cif.got.tgz:3320.got - 2010.04.10 18:59:41.
