data_PCOD8157279
_publ_section_title
;
Structure prediction by ZEFSAII (Michael W. Deem and Ramdas Pophale) SiO2 
 PCOD8157279
Probable space group: P 21 21 21
;
_chemical_formula_sum "Si O2"
_cell_formula_units_Z 32
_cell_length_a 9.027267
_cell_length_b 11.127289
_cell_length_c 14.796636
_cell_angle_alpha 90.000000
_cell_angle_beta 90.000000
_cell_angle_gamma 90.000000
_cell_volume 1486.307420
_symmetry_space_group_name_H-M "P 21 21 21"
_symmetry_group_IT_number 19
_symmetry_cell_setting 'orthorhombic'
loop_
_space_group_symop_operation_xyz
x,y,z
1/2-x,-y,1/2+z
1/2+x,1/2-y,-z
-x,1/2+y,1/2-z
loop_
_atom_site_type_symbol
_atom_site_label
_atom_site_fract_x
_atom_site_fract_y
_atom_site_fract_z
Si Si1 0.121475 0.038157 0.487972
Si Si2 0.726174 0.064010 0.678855
Si Si3 0.527185 0.271281 0.653720
Si Si4 0.768610 0.629976 0.832966
Si Si5 0.972466 0.174253 0.804315
Si Si6 0.420358 0.632408 0.417512
Si Si7 0.449596 0.920363 0.681564
Si Si8 0.100318 0.116766 0.977646
O O1 0.130411 0.120258 0.577561
O O2 0.048848 0.112853 0.407897
O O3 0.283107 0.989516 0.463095
O O4 0.022608 0.920887 0.504278
O O5 0.641201 0.167224 0.620884
O O6 0.828614 0.130474 0.751897
O O7 0.816645 0.975324 0.614962
O O8 0.594185 0.986894 0.723856
O O9 0.356984 0.229799 0.649429
O O10 0.570567 0.301977 0.757635
O O11 0.694965 0.502646 0.808817
O O12 0.875746 0.663809 0.751731
O O13 0.973314 0.315954 0.835496
O O14 0.980467 0.095141 0.897172
O O15 0.332425 0.747515 0.460357
O O16 0.475037 0.887964 0.576242
#
# Coordination Sequence:
#
# PCOD8157279 Si02
#       8
#     4   4   4   4   4   4   4   4
#     4  11  23  44  67 102 134 183 228 283 344 414
#     4  11  24  44  68 104 141 174 234 290 339 423
#     4  11  26  42  71 100 141 189 216 291 356 407
#     4  10  22  43  67  96 143 176 224 279 344 414
#     4  10  22  43  70 100 133 183 226 289 336 403
#     4  10  24  40  69  99 133 173 236 281 337 412
#     4  10  23  45  66 104 139 176 232 277 345 419
#     4   9  24  41  72  95 140 178 228 288 339 410
#
# _framework density 21.529865999999998
#
# number of rings (size 3 to 8) (size 9 to 14) (size 15 to 20)
#    0.750    1.000    1.250    1.500    7.000    3.000 
#    2.250    3.750    0.000    0.000    0.000    0.000 
#    0.000    0.000    0.000    0.000    0.000    0.000 
#
# Total GULP energy -396503.354423 kJ/mol
# GULP energy per Si atom -12390.729826 kJ/mol
# Density = 2.148086 g / cm^3
# Si number density = 21.529866 Si / 1000 Ang^3
#
#
#
# Elastic Constant Matrix: (Units=GPa)
#
#
# Indices 1 2 3 4 5 6 
#
# 1 70.7813 36.1231 32.7928 0.0000 0.0000 0.0000
# 2 36.1231 99.8405 43.1016 0.0000 0.0000 0.0000
# 3 32.7928 43.1016 98.9111 0.0000 0.0000 0.0000
# 4 0.0000 0.0000 0.0000 41.4799 0.0000 0.0000
# 5 0.0000 0.0000 0.0000 0.0000 18.3414 0.0000
# 6 0.0000 0.0000 0.0000 0.0000 0.0000 34.1388
#
#
#
# Elastic Compliance Matrix: (Units=1/GPa)
#
#
# Indices 1 2 3 4 5 6 
#
# 1 0.018509 -0.004985 -0.003964 0.000000 0.000000 0.000000
# 2 -0.004985 0.013680 -0.004308 0.000000 0.000000 0.000000
# 3 -0.003964 -0.004308 0.013302 0.000000 0.000000 0.000000
# 4 0.000000 0.000000 0.000000 0.024108 0.000000 0.000000
# 5 0.000000 0.000000 0.000000 0.000000 0.054522 0.000000
# 6 0.000000 0.000000 0.000000 0.000000 0.000000 0.029292
#
#
# Mechanical properties :
#
#
# Convention : Reuss Voigt Hill
#
# Bulk Modulus (GPa) = 52.70095 54.84090 53.77092
# Shear Modulus (GPa) = 26.84537 29.29303 28.06920
#
# Velocity S-wave (km/s) = 3.53496 3.69260 3.61464
# Velocity P-wave (km/s) = 6.41814 6.61118 6.51537
#
# Compressibility (1/GPa) = 0.01897499
#
# Stress axis : x y z
#
# Youngs Moduli (GPa) = 54.02836 73.10165 75.17877
#
# Poissons Ratio (x) = 0.36444 0.29800
# Poissons Ratio (y) = 0.26935 0.32388
# Poissons Ratio (z) = 0.21417 0.31494
#
# Static dielectric constant tensor:
#      x y z
#    x 3.811870 0.000000 0.000000 
#    y 0.000000 3.948830 0.000000 
#    z 0.000000 0.000000 3.822080 
# 
# 
# High freq. dielectric constant tensor:
#      x y z
#    x 1.840370 0.000000 0.000000 
#    y 0.000000 1.849300 0.000000 
#    z 0.000000 0.000000 1.837130 
# 
# From -- ./inp_files/5937.got.cif
#   From: 2010.03.12/outbox.cif.g09.slc.cpg/sg19_3_cif.got.tgz:5937.got - 2010.04.10 18:59:41.
