data_PCOD8157214
_publ_section_title
;
Structure prediction by ZEFSAII (Michael W. Deem and Ramdas Pophale) SiO2 
 PCOD8157214
Probable space group: P 21 21 21
;
_chemical_formula_sum "Si O2"
_cell_formula_units_Z 32
_cell_length_a 15.185628
_cell_length_b 8.468954
_cell_length_c 11.327583
_cell_angle_alpha 90.000000
_cell_angle_beta 90.000000
_cell_angle_gamma 90.000000
_cell_volume 1456.799500
_symmetry_space_group_name_H-M "P 21 21 21"
_symmetry_group_IT_number 19
_symmetry_cell_setting 'orthorhombic'
loop_
_space_group_symop_operation_xyz
x,y,z
1/2-x,-y,1/2+z
1/2+x,1/2-y,-z
-x,1/2+y,1/2-z
loop_
_atom_site_type_symbol
_atom_site_label
_atom_site_fract_x
_atom_site_fract_y
_atom_site_fract_z
Si Si1 0.051750 0.937227 0.332962
Si Si2 0.662521 0.377820 0.494530
Si Si3 0.917249 0.534169 0.768201
Si Si4 0.227601 0.342211 0.315973
Si Si5 0.668939 0.840607 0.590117
Si Si6 0.091209 0.188776 0.156820
Si Si7 0.902933 0.178417 0.827666
Si Si8 0.691649 0.388452 0.054158
O O1 0.123053 0.795779 0.331086
O O2 0.959291 0.853783 0.352989
O O3 0.077451 0.068367 0.429599
O O4 0.042080 0.037703 0.212810
O O5 0.620721 0.341250 0.365863
O O6 0.717101 0.233160 0.552354
O O7 0.731909 0.519845 0.484359
O O8 0.926183 0.363613 0.828653
O O9 0.840204 0.521943 0.670833
O O10 0.010019 0.585982 0.713822
O O11 0.174003 0.505138 0.328056
O O12 0.182137 0.222579 0.224330
O O13 0.326955 0.364182 0.268280
O O14 0.622098 0.870040 0.462423
O O15 0.770168 0.787087 0.574511
O O16 0.105820 0.130544 0.024878
#
# Coordination Sequence:
#
# PCOD8157214 Si02
#       8
#     4   4   4   4   4   4   4   4
#     4  10  22  41  67  97 136 176 219 285 345 405
#     4  10  23  44  68  95 135 179 231 283 341 411
#     4  12  26  45  71 102 140 182 237 284 355 414
#     4  11  24  45  68 100 138 179 236 286 338 417
#     4  11  24  42  69  98 138 179 228 281 347 407
#     4  11  22  43  67  99 135 179 224 281 347 415
#     4  12  26  47  67 104 144 181 232 290 345 424
#     4  11  23  43  73  91 132 183 219 282 346 407
#
# _framework density 21.965959999999999
#
# number of rings (size 3 to 8) (size 9 to 14) (size 15 to 20)
#    0.000    1.000    5.000    1.500    7.000    0.000 
#    2.250    0.000    0.000    0.000    0.000    0.000 
#    0.000    0.000    0.000    0.000    0.000    0.000 
#
# Total GULP energy -396621.785185 kJ/mol
# GULP energy per Si atom -12394.430787 kJ/mol
# Density = 2.191596 g / cm^3
# Si number density = 21.965960 Si / 1000 Ang^3
#
#
#
# Elastic Constant Matrix: (Units=GPa)
#
#
# Indices 1 2 3 4 5 6 
#
# 1 92.8497 3.4266 23.0966 0.0000 0.0000 0.0000
# 2 3.4266 50.9688 6.4193 0.0000 0.0000 0.0000
# 3 23.0966 6.4193 65.0355 0.0000 0.0000 0.0000
# 4 0.0000 0.0000 0.0000 26.7804 0.0000 0.0000
# 5 0.0000 0.0000 0.0000 0.0000 32.8445 0.0000
# 6 0.0000 0.0000 0.0000 0.0000 0.0000 24.5940
#
#
#
# Elastic Compliance Matrix: (Units=1/GPa)
#
#
# Indices 1 2 3 4 5 6 
#
# 1 0.011817 -0.000269 -0.004170 0.000000 0.000000 0.000000
# 2 -0.000269 0.019873 -0.001866 0.000000 0.000000 0.000000
# 3 -0.004170 -0.001866 0.017041 0.000000 0.000000 0.000000
# 4 0.000000 0.000000 0.000000 0.037341 0.000000 0.000000
# 5 0.000000 0.000000 0.000000 0.000000 0.030446 0.000000
# 6 0.000000 0.000000 0.000000 0.000000 0.000000 0.040660
#
#
# Mechanical properties :
#
#
# Convention : Reuss Voigt Hill
#
# Bulk Modulus (GPa) = 27.68479 30.52655 29.10567
# Shear Modulus (GPa) = 27.49816 28.57123 28.03469
#
# Velocity S-wave (km/s) = 3.54199 3.61044 3.57638
# Velocity P-wave (km/s) = 5.41835 5.59533 5.50755
#
# Compressibility (1/GPa) = 0.03612092
#
# Stress axis : x y z
#
# Youngs Moduli (GPa) = 84.62107 50.31965 58.68059
#
# Poissons Ratio (x) = 0.01355 0.24471
# Poissons Ratio (y) = 0.02279 0.10949
# Poissons Ratio (z) = 0.35289 0.09389
#
# Static dielectric constant tensor:
#      x y z
#    x 3.952060 0.000000 0.000000 
#    y 0.000000 3.972760 0.000000 
#    z 0.000000 0.000000 4.030060 
# 
# 
# High freq. dielectric constant tensor:
#      x y z
#    x 1.865050 0.000000 0.000000 
#    y 0.000000 1.857410 0.000000 
#    z 0.000000 0.000000 1.862860 
# 
# From -- ./inp_files/4739.got.cif
#   From: 2010.03.12/outbox.cif.g09.slc.cpg/sg19_3_cif.got.tgz:4739.got - 2010.04.10 18:59:41.
