data_PCOD8157661
_publ_section_title
;
Structure prediction by ZEFSAII (Michael W. Deem and Ramdas Pophale) SiO2 
 PCOD8157661
Probable space group: P 21 21 21
;
_chemical_formula_sum "Si O2"
_cell_formula_units_Z 20
_cell_length_a 16.834619
_cell_length_b 5.816435
_cell_length_c 8.844107
_cell_angle_alpha 90.000000
_cell_angle_beta 90.000000
_cell_angle_gamma 90.000000
_cell_volume 865.992557
_symmetry_space_group_name_H-M "P 21 21 21"
_symmetry_group_IT_number 19
_symmetry_cell_setting 'orthorhombic'
loop_
_space_group_symop_operation_xyz
x,y,z
1/2-x,-y,1/2+z
1/2+x,1/2-y,-z
-x,1/2+y,1/2-z
loop_
_atom_site_type_symbol
_atom_site_label
_atom_site_fract_x
_atom_site_fract_y
_atom_site_fract_z
Si Si1 0.431619 0.000639 0.109750
Si Si2 0.103947 0.622359 0.816858
Si Si3 0.294501 0.770733 0.279308
Si Si4 0.456751 0.906413 0.771447
Si Si5 0.667612 0.553787 0.947370
O O1 0.396193 0.250076 0.154121
O O2 0.523049 0.018243 0.161459
O O3 0.380610 0.819543 0.204948
O O4 0.419921 0.939135 0.936115
O O5 0.188901 0.491618 0.825985
O O6 0.105507 0.790705 0.961213
O O7 0.223040 0.796322 0.162689
O O8 0.278057 0.917115 0.431431
O O9 0.499459 0.156968 0.737564
O O10 0.385081 0.879467 0.652153
#
# Coordination Sequence:
#
# PCOD8157661 Si02
#       5
#     4   4   4   4   4
#     4  11  23  42  70 104 136 188 243 300 361 437
#     4  11  23  43  73  99 138 188 242 300 367 442
#     4  11  25  46  71  98 147 184 247 303 371 437
#     4  12  27  45  73 107 148 193 244 304 363 439
#     4  11  26  46  67 108 141 193 240 307 370 437
#
# _framework density 23.094888000000001
#
# number of rings (size 3 to 8) (size 9 to 14) (size 15 to 20)
#    0.000    0.800    4.000    2.400    5.600    4.800 
#    0.000    0.000    0.000    0.000    0.000    0.000 
#    0.000    0.000    0.000    0.000    0.000    0.000 
#
# Total GULP energy -247762.948270 kJ/mol
# GULP energy per Si atom -12388.147413 kJ/mol
# Density = 2.304232 g / cm^3
# Si number density = 23.094888 Si / 1000 Ang^3
#
#
#
# Elastic Constant Matrix: (Units=GPa)
#
#
# Indices 1 2 3 4 5 6 
#
# 1 58.0522 0.5735 10.4967 0.0000 0.0000 0.0000
# 2 0.5735 76.4211 8.4877 0.0000 0.0000 0.0000
# 3 10.4967 8.4877 124.1188 0.0000 0.0000 0.0000
# 4 0.0000 0.0000 0.0000 17.9340 0.0000 0.0000
# 5 0.0000 0.0000 0.0000 0.0000 45.1760 0.0000
# 6 0.0000 0.0000 0.0000 0.0000 0.0000 29.4945
#
#
#
# Elastic Compliance Matrix: (Units=1/GPa)
#
#
# Indices 1 2 3 4 5 6 
#
# 1 0.017493 0.000033 -0.001482 0.000000 0.000000 0.000000
# 2 0.000033 0.013186 -0.000904 0.000000 0.000000 0.000000
# 3 -0.001482 -0.000904 0.008244 0.000000 0.000000 0.000000
# 4 0.000000 0.000000 0.000000 0.055760 0.000000 0.000000
# 5 0.000000 0.000000 0.000000 0.000000 0.022136 0.000000
# 6 0.000000 0.000000 0.000000 0.000000 0.000000 0.033905
#
#
# Mechanical properties :
#
#
# Convention : Reuss Voigt Hill
#
# Bulk Modulus (GPa) = 29.22505 33.07864 31.15185
# Shear Modulus (GPa) = 29.96976 34.45653 32.21315
#
# Velocity S-wave (km/s) = 3.60624 3.86677 3.73878
# Velocity P-wave (km/s) = 5.47921 5.85576 5.67061
#
# Compressibility (1/GPa) = 0.03421722
#
# Stress axis : x y z
#
# Youngs Moduli (GPa) = 57.16426 75.84027 121.30104
#
# Poissons Ratio (x) = -0.00252 0.17973
# Poissons Ratio (y) = -0.00190 0.10972
# Poissons Ratio (z) = 0.08470 0.06860
#
# Static dielectric constant tensor:
#      x y z
#    x 3.852840 0.000000 0.000000 
#    y 0.000000 4.358500 0.000000 
#    z 0.000000 0.000000 4.292840 
# 
# 
# High freq. dielectric constant tensor:
#      x y z
#    x 1.900280 0.000000 0.000000 
#    y 0.000000 1.910620 0.000000 
#    z 0.000000 0.000000 1.930320 
# 
# From -- ./inp_files/310.got.cif
#   From: 2010.03.12/outbox.cif.g09.slc.cpg/sg19_1_cif.got.tgz:310.got - 2010.04.10 18:59:41.
