data_PCOD8157457
_publ_section_title
;
Structure prediction by ZEFSAII (Michael W. Deem and Ramdas Pophale) SiO2 
 PCOD8157457
Probable space group: P 21 21 21
;
_chemical_formula_sum "Si O2"
_cell_formula_units_Z 24
_cell_length_a 17.839022
_cell_length_b 5.549057
_cell_length_c 9.541546
_cell_angle_alpha 90.000000
_cell_angle_beta 90.000000
_cell_angle_gamma 90.000000
_cell_volume 944.515252
_symmetry_space_group_name_H-M "P 21 21 21"
_symmetry_group_IT_number 19
_symmetry_cell_setting 'orthorhombic'
loop_
_space_group_symop_operation_xyz
x,y,z
1/2-x,-y,1/2+z
1/2+x,1/2-y,-z
-x,1/2+y,1/2-z
loop_
_atom_site_type_symbol
_atom_site_label
_atom_site_fract_x
_atom_site_fract_y
_atom_site_fract_z
Si Si1 0.556243 0.278342 0.384082
Si Si2 0.082369 0.399721 0.332514
Si Si3 0.905101 0.009559 0.625963
Si Si4 0.319889 0.115729 0.206440
Si Si5 0.813341 0.618039 0.507419
Si Si6 0.406928 0.104383 0.705580
O O1 0.592011 0.098893 0.498920
O O2 0.472126 0.334923 0.442543
O O3 0.607464 0.515130 0.373337
O O4 0.548843 0.162267 0.232010
O O5 0.121271 0.648198 0.280097
O O6 0.995757 0.401651 0.290701
O O7 0.121056 0.150078 0.276809
O O8 0.841104 0.138326 0.716607
O O9 0.865074 0.858423 0.503197
O O10 0.291317 0.934897 0.330485
O O11 0.257873 0.161219 0.089539
O O12 0.865615 0.398827 0.447309
#
# Coordination Sequence:
#
# PCOD8157457 Si02
#       6
#     4   4   4   4   4   4
#     4  11  24  43  76 113 148 208 267 335 396 481
#     4  10  24  41  74 110 154 198 261 331 395 469
#     4  11  25  46  79 111 150 211 271 337 396 491
#     4  11  27  50  74 109 159 200 274 322 412 482
#     4  11  28  48  75 109 155 214 259 337 408 493
#     4  10  24  44  70 112 150 203 256 324 401 472
#
# _framework density 25.409856000000001
#
# number of rings (size 3 to 8) (size 9 to 14) (size 15 to 20)
#    0.000    1.333    1.667    1.000   16.333    2.667 
#    0.000    0.000    0.000    0.000    0.000    0.000 
#    0.000    0.000    0.000    0.000    0.000    0.000 
#
# Total GULP energy -297555.598852 kJ/mol
# GULP energy per Si atom -12398.149952 kJ/mol
# Density = 2.535202 g / cm^3
# Si number density = 25.409856 Si / 1000 Ang^3
#
#
#
# Elastic Constant Matrix: (Units=GPa)
#
#
# Indices 1 2 3 4 5 6 
#
# 1 105.4719 35.1755 41.7405 0.0000 0.0000 0.0000
# 2 35.1755 145.6299 46.7717 0.0000 0.0000 0.0000
# 3 41.7405 46.7717 103.5573 0.0000 0.0000 0.0000
# 4 0.0000 0.0000 0.0000 50.0388 0.0000 0.0000
# 5 0.0000 0.0000 0.0000 0.0000 49.3704 0.0000
# 6 0.0000 0.0000 0.0000 0.0000 0.0000 30.5683
#
#
#
# Elastic Compliance Matrix: (Units=1/GPa)
#
#
# Indices 1 2 3 4 5 6 
#
# 1 0.011560 -0.001516 -0.003975 0.000000 0.000000 0.000000
# 2 -0.001516 0.008230 -0.003106 0.000000 0.000000 0.000000
# 3 -0.003975 -0.003106 0.012662 0.000000 0.000000 0.000000
# 4 0.000000 0.000000 0.000000 0.019984 0.000000 0.000000
# 5 0.000000 0.000000 0.000000 0.000000 0.020255 0.000000
# 6 0.000000 0.000000 0.000000 0.000000 0.000000 0.032714
#
#
# Mechanical properties :
#
#
# Convention : Reuss Voigt Hill
#
# Bulk Modulus (GPa) = 65.53863 66.89274 66.21568
# Shear Modulus (GPa) = 39.15898 41.39358 40.27628
#
# Velocity S-wave (km/s) = 3.92994 4.04051 3.98561
# Velocity P-wave (km/s) = 6.81477 6.93904 6.87719
#
# Compressibility (1/GPa) = 0.01525818
#
# Stress axis : x y z
#
# Youngs Moduli (GPa) = 86.50763 121.49966 78.97878
#
# Poissons Ratio (x) = 0.18414 0.31393
# Poissons Ratio (y) = 0.13111 0.24534
# Poissons Ratio (z) = 0.34385 0.37743
#
# Static dielectric constant tensor:
#      x y z
#    x 4.166940 0.000000 0.000000 
#    y 0.000000 4.891890 0.000000 
#    z 0.000000 0.000000 4.680380 
# 
# 
# High freq. dielectric constant tensor:
#      x y z
#    x 1.990530 0.000000 0.000000 
#    y 0.000000 2.018920 0.000000 
#    z 0.000000 0.000000 2.026870 
# 
# From -- ./inp_files/4094.got.cif
#   From: 2010.03.12/outbox.cif.g09.slc.cpg/sg19_3_cif.got.tgz:4094.got - 2010.04.10 18:59:41.
