data_PCOD8157610
_publ_section_title
;
Structure prediction by ZEFSAII (Michael W. Deem and Ramdas Pophale) SiO2 
 PCOD8157610
Probable space group: P 21 21 21
;
_chemical_formula_sum "Si O2"
_cell_formula_units_Z 28
_cell_length_a 5.392335
_cell_length_b 14.746843
_cell_length_c 14.868814
_cell_angle_alpha 90.000000
_cell_angle_beta 90.000000
_cell_angle_gamma 90.000000
_cell_volume 1182.366865
_symmetry_space_group_name_H-M "P 21 21 21"
_symmetry_group_IT_number 19
_symmetry_cell_setting 'orthorhombic'
loop_
_space_group_symop_operation_xyz
x,y,z
1/2-x,-y,1/2+z
1/2+x,1/2-y,-z
-x,1/2+y,1/2-z
loop_
_atom_site_type_symbol
_atom_site_label
_atom_site_fract_x
_atom_site_fract_y
_atom_site_fract_z
Si Si1 0.733732 0.315931 0.226850
Si Si2 0.908036 0.765765 0.553317
Si Si3 0.791059 0.502393 0.304595
Si Si4 0.698436 0.029176 0.090086
Si Si5 0.050576 0.740350 0.903058
Si Si6 0.286743 0.388999 0.550632
Si Si7 0.566961 0.326714 0.711505
O O1 0.557005 0.300114 0.140414
O O2 0.812168 0.421578 0.230694
O O3 0.631536 0.289840 0.324160
O O4 0.951446 0.240503 0.213201
O O5 0.675659 0.729131 0.494672
O O6 0.833670 0.864705 0.585787
O O7 0.545615 0.484777 0.364240
O O8 0.749119 0.601499 0.258995
O O9 0.051680 0.503346 0.356944
O O10 0.735108 0.990351 0.988793
O O11 0.974537 0.836614 0.947148
O O12 0.315914 0.756187 0.858885
O O13 0.040019 0.665488 0.980321
O O14 0.383518 0.390997 0.653179
#
# Coordination Sequence:
#
# PCOD8157610 Si02
#       7
#     4   4   4   4   4   4   4
#     4  11  26  47  73 105 146 198 247 303 377 440
#     4  12  29  51  77 105 149 201 252 303 363 443
#     4  12  27  46  75 104 143 198 243 302 362 437
#     4  12  27  50  71 107 146 190 248 302 364 432
#     4  11  22  43  70 106 146 185 233 307 378 433
#     4  11  24  39  70 106 144 182 236 303 374 427
#     4  11  25  44  70 105 146 188 243 300 366 446
#
# _framework density 23.681314
#
# number of rings (size 3 to 8) (size 9 to 14) (size 15 to 20)
#    0.000    0.571    4.286    2.571   10.000    1.143 
#    0.000    0.000    0.000    0.000    0.000    0.000 
#    0.000    0.000    0.000    0.000    0.000    0.000 
#
# Total GULP energy -346977.233374 kJ/mol
# GULP energy per Si atom -12392.044049 kJ/mol
# Density = 2.362741 g / cm^3
# Si number density = 23.681314 Si / 1000 Ang^3
#
#
#
# Elastic Constant Matrix: (Units=GPa)
#
#
# Indices 1 2 3 4 5 6 
#
# 1 92.9130 0.0689 8.9758 0.0000 0.0000 0.0000
# 2 0.0689 99.2483 -1.1201 0.0000 0.0000 0.0000
# 3 8.9758 -1.1201 42.2355 0.0000 0.0000 0.0000
# 4 0.0000 0.0000 0.0000 44.8512 0.0000 0.0000
# 5 0.0000 0.0000 0.0000 0.0000 21.8544 0.0000
# 6 0.0000 0.0000 0.0000 0.0000 0.0000 25.1923
#
#
#
# Elastic Compliance Matrix: (Units=1/GPa)
#
#
# Indices 1 2 3 4 5 6 
#
# 1 0.010988 -0.000034 -0.002336 0.000000 0.000000 0.000000
# 2 -0.000034 0.010079 0.000275 0.000000 0.000000 0.000000
# 3 -0.002336 0.000275 0.024180 0.000000 0.000000 0.000000
# 4 0.000000 0.000000 0.000000 0.022296 0.000000 0.000000
# 5 0.000000 0.000000 0.000000 0.000000 0.045757 0.000000
# 6 0.000000 0.000000 0.000000 0.000000 0.000000 0.039695
#
#
# Mechanical properties :
#
#
# Convention : Reuss Voigt Hill
#
# Bulk Modulus (GPa) = 24.35664 27.80513 26.08088
# Shear Modulus (GPa) = 29.26157 33.47774 31.36965
#
# Velocity S-wave (km/s) = 3.51898 3.76397 3.64353
# Velocity P-wave (km/s) = 5.17865 5.53686 5.36075
#
# Compressibility (1/GPa) = 0.04105656
#
# Stress axis : x y z
#
# Youngs Moduli (GPa) = 91.00456 99.21753 41.35564
#
# Poissons Ratio (x) = 0.00337 0.09661
# Poissons Ratio (y) = 0.00309 -0.01135
# Poissons Ratio (z) = 0.21260 -0.02724
#
# Static dielectric constant tensor:
#      x y z
#    x 4.273080 0.000000 0.000000 
#    y 0.000000 4.370250 0.000000 
#    z 0.000000 0.000000 4.328290 
# 
# 
# High freq. dielectric constant tensor:
#      x y z
#    x 1.931450 0.000000 0.000000 
#    y 0.000000 1.943120 0.000000 
#    z 0.000000 0.000000 1.941840 
# 
# From -- ./inp_files/1476.got.cif
#   From: 2010.03.12/outbox.cif.g09.slc.cpg/sg19_1_cif.got.tgz:1476.got - 2010.04.10 18:59:41.
