data_PCOD8157990
_publ_section_title
;
Structure prediction by ZEFSAII (Michael W. Deem and Ramdas Pophale) SiO2 
 PCOD8157990
Probable space group: C 2 2 21
;
_chemical_formula_sum "Si O2"
_cell_formula_units_Z 48
_cell_length_a 30.169460
_cell_length_b 17.882893
_cell_length_c 5.001929
_cell_angle_alpha 90.000000
_cell_angle_beta 90.000000
_cell_angle_gamma 90.000000
_cell_volume 2698.626854
_symmetry_space_group_name_H-M "C 2 2 21"
_symmetry_group_IT_number 20
_symmetry_cell_setting 'orthorhombic'
loop_
_space_group_symop_operation_xyz
x,y,z
-x,-y,1/2+z
x,-y,-z
-x,y,1/2-z
1/2+x,1/2+y,z
1/2-x,1/2-y,1/2+z
1/2+x,1/2-y,-z
1/2-x,1/2+y,1/2-z
loop_
_atom_site_type_symbol
_atom_site_label
_atom_site_fract_x
_atom_site_fract_y
_atom_site_fract_z
Si Si1 0.640309 0.221775 0.284287
Si Si2 0.769064 0.210793 0.699849
Si Si3 0.045608 0.280264 0.819502
Si Si4 0.640243 0.119462 0.784623
Si Si5 0.768873 0.452186 0.249165
Si Si6 0.954413 0.621390 0.819641
O O1 0.677968 0.283129 0.232452
O O2 0.592044 0.262063 0.244203
O O3 0.645553 0.189051 0.581584
O O4 0.645091 0.151886 0.082489
O O5 0.755383 0.232247 0.399940
O O6 0.755566 0.126690 0.761653
O O7 0.044834 0.354002 0.628249
O O8 0.000000 0.234011 0.750000
O O9 0.045027 0.304848 0.128367
O O10 0.678010 0.058202 0.739434
O O11 0.592044 0.078958 0.742408
O O12 0.753870 0.500000 0.500000
O O13 0.752624 0.500000 0.000000
O O14 0.000000 0.575036 0.750000
#
# Coordination Sequence:
#
# PCOD8157990 Si02
#       6
#     8   8   8   8   8   8
#     4  10  17  30  50  72  92 124 165 200 238 289
#     4  12  21  36  55  74  98 131 170 210 243 294
#     4   8  14  23  39  66  96 116 142 193 248 283
#     4  10  18  31  49  68  94 126 163 202 241 286
#     4  12  24  36  50  72 102 131 166 208 254 294
#     4   8  14  24  41  64  88 118 154 195 240 278
#
# _framework density 17.786825
#
# number of rings (size 3 to 8) (size 9 to 14) (size 15 to 20)
#    0.000    2.000    3.333    2.000    0.000    0.000 
#    0.000    0.000    0.000    1.000    0.000    0.000 
#    0.000    1.333    0.000    0.000    0.000    1.667 
#
# Total GULP energy -297371.410826 kJ/mol
# GULP energy per Si atom -12390.475451 kJ/mol
# Density = 1.774634 g / cm^3
# Si number density = 17.786825 Si / 1000 Ang^3
#
#
#
# Elastic Constant Matrix: (Units=GPa)
#
#
# Indices 1 2 3 4 5 6 
#
# 1 112.5154 26.1995 12.6457 0.0000 0.0000 0.0000
# 2 26.1995 58.8093 16.7692 0.0000 0.0000 0.0000
# 3 12.6457 16.7692 85.2227 0.0000 0.0000 0.0000
# 4 0.0000 0.0000 0.0000 19.0408 0.0000 0.0000
# 5 0.0000 0.0000 0.0000 0.0000 25.2087 0.0000
# 6 0.0000 0.0000 0.0000 0.0000 0.0000 13.7308
#
#
#
# Elastic Compliance Matrix: (Units=1/GPa)
#
#
# Indices 1 2 3 4 5 6 
#
# 1 0.009949 -0.004250 -0.000640 0.000000 0.000000 0.000000
# 2 -0.004250 0.019830 -0.003271 0.000000 0.000000 0.000000
# 3 -0.000640 -0.003271 0.012473 0.000000 0.000000 0.000000
# 4 0.000000 0.000000 0.000000 0.052519 0.000000 0.000000
# 5 0.000000 0.000000 0.000000 0.000000 0.039669 0.000000
# 6 0.000000 0.000000 0.000000 0.000000 0.000000 0.072829
#
#
# Mechanical properties :
#
#
# Convention : Reuss Voigt Hill
#
# Bulk Modulus (GPa) = 38.56611 40.86404 39.71508
# Shear Modulus (GPa) = 21.52999 24.99160 23.26079
#
# Velocity S-wave (km/s) = 3.48292 3.75248 3.62021
# Velocity P-wave (km/s) = 6.15661 6.46522 6.31280
#
# Compressibility (1/GPa) = 0.02592950
#
# Stress axis : x y z
#
# Youngs Moduli (GPa) = 100.51060 50.42809 80.17544
#
# Poissons Ratio (x) = 0.21431 0.05132
# Poissons Ratio (y) = 0.42715 0.26228
# Poissons Ratio (z) = 0.06433 0.16497
#
# Static dielectric constant tensor:
#      x y z
#    x 3.983890 0.000000 0.000000 
#    y 0.000000 2.561440 0.000000 
#    z 0.000000 0.000000 3.529470 
# 
# 
# High freq. dielectric constant tensor:
#      x y z
#    x 1.713390 0.000000 0.000000 
#    y 0.000000 1.588930 0.000000 
#    z 0.000000 0.000000 1.720360 
# 
# From -- ./inp_files/4624.got.cif
#   From: 2010.03.12/outbox.cif.g09.slc.cpg/sg20_3_cif.got.tgz:4624.got - 2010.04.14 01:38:04.
