data_PCOD8157377
_publ_section_title
;
Structure prediction by ZEFSAII (Michael W. Deem and Ramdas Pophale) SiO2 
 PCOD8157377
Probable space group: P 21 21 21
;
_chemical_formula_sum "Si O2"
_cell_formula_units_Z 32
_cell_length_a 17.757363
_cell_length_b 5.325548
_cell_length_c 15.309639
_cell_angle_alpha 90.000000
_cell_angle_beta 90.000000
_cell_angle_gamma 90.000000
_cell_volume 1447.797180
_symmetry_space_group_name_H-M "P 21 21 21"
_symmetry_group_IT_number 19
_symmetry_cell_setting 'orthorhombic'
loop_
_space_group_symop_operation_xyz
x,y,z
1/2-x,-y,1/2+z
1/2+x,1/2-y,-z
-x,1/2+y,1/2-z
loop_
_atom_site_type_symbol
_atom_site_label
_atom_site_fract_x
_atom_site_fract_y
_atom_site_fract_z
Si Si1 0.453223 0.843881 0.943372
Si Si2 0.540394 0.354132 0.355512
Si Si3 0.306958 0.937311 0.602089
Si Si4 0.292433 0.113657 0.932489
Si Si5 0.404738 0.358383 0.226301
Si Si6 0.105211 0.577272 0.137794
Si Si7 0.746313 0.652130 0.224939
Si Si8 0.372715 0.503884 0.828558
O O1 0.521585 0.988607 0.896673
O O2 0.443930 0.584709 0.888290
O O3 0.373611 0.981885 0.937313
O O4 0.475436 0.803994 0.043418
O O5 0.460619 0.346323 0.307712
O O6 0.580504 0.621738 0.338193
O O7 0.591231 0.122729 0.323139
O O8 0.248382 0.894251 0.524154
O O9 0.347193 0.669279 0.614169
O O10 0.254930 0.008521 0.685828
O O11 0.362406 0.175171 0.587279
O O12 0.311915 0.386164 0.895092
O O13 0.232188 0.007712 0.862198
O O14 0.320946 0.349990 0.264726
O O15 0.101113 0.649262 0.241948
O O16 0.829255 0.764846 0.214031
#
# Coordination Sequence:
#
# PCOD8157377 Si02
#       8
#     4   4   4   4   4   4   4   4
#     4  11  27  41  73  98 140 178 235 281 343 413
#     4  10  24  43  64 103 128 177 223 278 339 411
#     4  11  26  45  71 100 142 180 234 283 349 410
#     4  11  25  44  69 104 136 185 233 284 345 414
#     4  10  23  43  69  94 139 172 222 278 346 400
#     4  11  27  48  68 103 139 185 227 289 348 411
#     4  10  23  43  67  97 135 180 221 289 338 411
#     4  10  25  43  67  99 137 179 233 278 348 406
#
# _framework density 22.102543000000001
#
# number of rings (size 3 to 8) (size 9 to 14) (size 15 to 20)
#    0.000    1.500    1.250    0.750   14.000    1.000 
#    2.250    0.000    0.000    0.000    0.000    0.000 
#    0.000    0.000    0.000    0.000    0.000    0.000 
#
# Total GULP energy -396498.196105 kJ/mol
# GULP energy per Si atom -12390.568628 kJ/mol
# Density = 2.205224 g / cm^3
# Si number density = 22.102543 Si / 1000 Ang^3
#
#
#
# Elastic Constant Matrix: (Units=GPa)
#
#
# Indices 1 2 3 4 5 6 
#
# 1 69.4718 20.4271 57.1286 0.0000 0.0000 0.0000
# 2 20.4271 92.4161 33.5995 0.0000 0.0000 0.0000
# 3 57.1286 33.5995 171.7882 0.0000 0.0000 0.0000
# 4 0.0000 0.0000 0.0000 25.2457 0.0000 0.0000
# 5 0.0000 0.0000 0.0000 0.0000 27.4197 0.0000
# 6 0.0000 0.0000 0.0000 0.0000 0.0000 28.9105
#
#
#
# Elastic Compliance Matrix: (Units=1/GPa)
#
#
# Indices 1 2 3 4 5 6 
#
# 1 0.020212 -0.002179 -0.006295 0.000000 0.000000 0.000000
# 2 -0.002179 0.011884 -0.001600 0.000000 0.000000 0.000000
# 3 -0.006295 -0.001600 0.008228 0.000000 0.000000 0.000000
# 4 0.000000 0.000000 0.000000 0.039611 0.000000 0.000000
# 5 0.000000 0.000000 0.000000 0.000000 0.036470 0.000000
# 6 0.000000 0.000000 0.000000 0.000000 0.000000 0.034589
#
#
# Mechanical properties :
#
#
# Convention : Reuss Voigt Hill
#
# Bulk Modulus (GPa) = 49.56513 61.77628 55.67071
# Shear Modulus (GPa) = 28.11101 31.14993 29.63047
#
# Velocity S-wave (km/s) = 3.57016 3.75819 3.66538
# Velocity P-wave (km/s) = 6.28240 6.84416 6.56928
#
# Compressibility (1/GPa) = 0.02017547
#
# Stress axis : x y z
#
# Youngs Moduli (GPa) = 49.47602 84.14802 121.54279
#
# Poissons Ratio (x) = 0.18333 0.76516
# Poissons Ratio (y) = 0.10779 0.19444
# Poissons Ratio (z) = 0.31147 0.13462
#
# Static dielectric constant tensor:
#      x y z
#    x 3.870090 0.000000 0.000000 
#    y 0.000000 3.950490 0.000000 
#    z 0.000000 0.000000 4.386010 
# 
# 
# High freq. dielectric constant tensor:
#      x y z
#    x 1.868960 0.000000 0.000000 
#    y 0.000000 1.861300 0.000000 
#    z 0.000000 0.000000 1.885370 
# 
# From -- ./inp_files/6322.got.cif
#   From: 2010.03.12/outbox.cif.g09.slc.cpg/sg19_4_cif.got.tgz:6322.got - 2010.04.10 18:59:41.
