data_PCOD8157935
_publ_section_title
;
Structure prediction by ZEFSAII (Michael W. Deem and Ramdas Pophale) SiO2 
 PCOD8157935
Probable space group: P 21 21 21
;
_chemical_formula_sum "Si O2"
_cell_formula_units_Z 20
_cell_length_a 9.386898
_cell_length_b 9.816027
_cell_length_c 9.386888
_cell_angle_alpha 90.000000
_cell_angle_beta 90.000000
_cell_angle_gamma 90.000000
_cell_volume 864.927049
_symmetry_space_group_name_H-M "P 21 21 21"
_symmetry_group_IT_number 19
_symmetry_cell_setting 'orthorhombic'
loop_
_space_group_symop_operation_xyz
x,y,z
1/2-x,-y,1/2+z
1/2+x,1/2-y,-z
-x,1/2+y,1/2-z
loop_
_atom_site_type_symbol
_atom_site_label
_atom_site_fract_x
_atom_site_fract_y
_atom_site_fract_z
Si Si1 0.524583 0.811469 0.385915
Si Si2 0.217106 0.127210 0.094503
Si Si3 0.155497 0.622790 0.032895
Si Si4 0.635915 0.061469 0.225416
Si Si5 0.329944 0.875000 0.920056
O O1 0.435673 0.835178 0.529412
O O2 0.681696 0.758498 0.425367
O O3 0.448441 0.703114 0.282324
O O4 0.532324 0.953114 0.301559
O O5 0.194843 0.084389 0.256943
O O6 0.292480 0.002753 0.016586
O O7 0.175366 0.491502 0.931697
O O8 0.233415 0.747246 0.957521
O O9 0.220588 0.585178 0.185673
O O10 0.993057 0.665612 0.055158
#
# Coordination Sequence:
#
# PCOD8157935 Si02
#       5
#     4   4   4   4   4
#     4  12  27  51  79 114 155 204 260 328 393 471
#     4  12  29  50  79 117 154 211 261 326 397 469
#     4  12  29  50  79 117 154 211 261 326 397 469
#     4  12  27  51  79 114 155 204 260 328 393 471
#     4  12  30  50  80 116 156 208 270 322 396 468
#
# _framework density 23.123336999999999
#
# number of rings (size 3 to 8) (size 9 to 14) (size 15 to 20)
#    0.000    0.000    4.000    3.600   11.200    0.000 
#    0.000    0.000    0.000    0.000    0.000    0.000 
#    0.000    0.000    0.000    0.000    0.000    0.000 
#
# Total GULP energy -248199.009546 kJ/mol
# GULP energy per Si atom -12409.950477 kJ/mol
# Density = 2.307071 g / cm^3
# Si number density = 23.123337 Si / 1000 Ang^3
#
#
#
# Elastic Constant Matrix: (Units=GPa)
#
#
# Indices 1 2 3 4 5 6 
#
# 1 117.6659 43.5077 74.0055 0.0000 0.0000 0.0000
# 2 43.5077 109.5705 43.5054 0.0000 0.0000 0.0000
# 3 74.0055 43.5054 117.6612 0.0000 0.0000 0.0000
# 4 0.0000 0.0000 0.0000 34.8083 0.0000 0.0000
# 5 0.0000 0.0000 0.0000 0.0000 48.8290 0.0000
# 6 0.0000 0.0000 0.0000 0.0000 0.0000 34.8083
#
#
#
# Elastic Compliance Matrix: (Units=1/GPa)
#
#
# Indices 1 2 3 4 5 6 
#
# 1 0.014635 -0.002527 -0.008270 0.000000 0.000000 0.000000
# 2 -0.002527 0.011133 -0.002527 0.000000 0.000000 0.000000
# 3 -0.008270 -0.002527 0.014635 0.000000 0.000000 0.000000
# 4 0.000000 0.000000 0.000000 0.028729 0.000000 0.000000
# 5 0.000000 0.000000 0.000000 0.000000 0.020480 0.000000
# 6 0.000000 0.000000 0.000000 0.000000 0.000000 0.028729
#
#
# Mechanical properties :
#
#
# Convention : Reuss Voigt Hill
#
# Bulk Modulus (GPa) = 72.70611 74.10386 73.40499
# Shear Modulus (GPa) = 33.42815 35.94770 34.68793
#
# Velocity S-wave (km/s) = 3.80629 3.94713 3.87735
# Velocity P-wave (km/s) = 7.12938 7.27254 7.20132
#
# Compressibility (1/GPa) = 0.01375400
#
# Stress axis : x y z
#
# Youngs Moduli (GPa) = 68.33063 89.81959 68.32871
#
# Poissons Ratio (x) = 0.22700 0.56510
# Poissons Ratio (y) = 0.17269 0.17267
# Poissons Ratio (z) = 0.56512 0.22697
#
# Static dielectric constant tensor:
#      x y z
#    x 4.331810 0.000000 0.000000 
#    y 0.000000 4.350020 0.000000 
#    z 0.000000 0.000000 4.331800 
# 
# 
# High freq. dielectric constant tensor:
#      x y z
#    x 1.927140 0.000000 0.000000 
#    y 0.000000 1.924480 0.000000 
#    z 0.000000 0.000000 1.927140 
# 
# From -- ./inp_files/2559.got.cif
#   From: 2010.03.12/outbox.cif.g09.slc.cpg/sg19_2_cif.got.tgz:2559.got - 2010.04.10 18:59:41.
