data_PCOD8157778
_publ_section_title
;
Structure prediction by ZEFSAII (Michael W. Deem and Ramdas Pophale) SiO2 
 PCOD8157778
Probable space group: P 21 21 21
;
_chemical_formula_sum "Si O2"
_cell_formula_units_Z 28
_cell_length_a 19.260529
_cell_length_b 5.472797
_cell_length_c 10.885856
_cell_angle_alpha 90.000000
_cell_angle_beta 90.000000
_cell_angle_gamma 90.000000
_cell_volume 1147.466818
_symmetry_space_group_name_H-M "P 21 21 21"
_symmetry_group_IT_number 19
_symmetry_cell_setting 'orthorhombic'
loop_
_space_group_symop_operation_xyz
x,y,z
1/2-x,-y,1/2+z
1/2+x,1/2-y,-z
-x,1/2+y,1/2-z
loop_
_atom_site_type_symbol
_atom_site_label
_atom_site_fract_x
_atom_site_fract_y
_atom_site_fract_z
Si Si1 0.334703 0.658324 0.397060
Si Si2 0.880237 0.599396 0.013290
Si Si3 0.958097 0.713959 0.775985
Si Si4 0.205050 0.385539 0.301952
Si Si5 0.958622 0.434798 0.244689
Si Si6 0.752360 0.551096 0.402416
Si Si7 0.643602 0.822555 0.898972
O O1 0.388498 0.790299 0.306795
O O2 0.267991 0.571216 0.321498
O O3 0.306231 0.831697 0.502633
O O4 0.375576 0.439770 0.469201
O O5 0.833181 0.813209 0.072312
O O6 0.916780 0.437841 0.117253
O O7 0.936274 0.711243 0.919348
O O8 0.827776 0.419100 0.940794
O O9 0.000147 0.465801 0.745843
O O10 0.238801 0.150206 0.235591
O O11 0.143704 0.487734 0.214590
O O12 0.909654 0.393822 0.363693
O O13 0.991316 0.701083 0.264461
O O14 0.776424 0.268949 0.404650
#
# Coordination Sequence:
#
# PCOD8157778 Si02
#       7
#     4   4   4   4   4   4   4
#     4  11  27  46  79 111 159 203 263 328 408 480
#     4  12  27  51  83 113 160 206 267 339 410 481
#     4  12  34  56  78 113 167 228 272 315 399 504
#     4  11  24  47  74 122 145 194 255 340 411 468
#     4  12  29  50  77 115 155 212 272 319 388 477
#     4  11  25  45  81 115 153 190 261 345 417 468
#     4  11  24  47  74 111 151 195 256 332 401 470
#
# _framework density 24.401578000000001
#
# number of rings (size 3 to 8) (size 9 to 14) (size 15 to 20)
#    0.000    0.571    2.857    2.571   12.000    2.286 
#    0.000    0.000    0.000    0.000    0.000    0.000 
#    0.000    0.000    0.000    0.000    0.000    0.000 
#
# Total GULP energy -347096.738290 kJ/mol
# GULP energy per Si atom -12396.312082 kJ/mol
# Density = 2.434604 g / cm^3
# Si number density = 24.401578 Si / 1000 Ang^3
#
#
#
# Elastic Constant Matrix: (Units=GPa)
#
#
# Indices 1 2 3 4 5 6 
#
# 1 102.1306 35.1971 24.9653 0.0000 0.0000 0.0000
# 2 35.1971 90.8474 12.8249 0.0000 0.0000 0.0000
# 3 24.9653 12.8249 91.6715 0.0000 0.0000 0.0000
# 4 0.0000 0.0000 0.0000 37.0863 0.0000 0.0000
# 5 0.0000 0.0000 0.0000 0.0000 56.2907 0.0000
# 6 0.0000 0.0000 0.0000 0.0000 0.0000 36.4739
#
#
#
# Elastic Compliance Matrix: (Units=1/GPa)
#
#
# Indices 1 2 3 4 5 6 
#
# 1 0.011898 -0.004236 -0.002648 0.000000 0.000000 0.000000
# 2 -0.004236 0.012737 -0.000628 0.000000 0.000000 0.000000
# 3 -0.002648 -0.000628 0.011717 0.000000 0.000000 0.000000
# 4 0.000000 0.000000 0.000000 0.026964 0.000000 0.000000
# 5 0.000000 0.000000 0.000000 0.000000 0.017765 0.000000
# 6 0.000000 0.000000 0.000000 0.000000 0.000000 0.027417
#
#
# Mechanical properties :
#
#
# Convention : Reuss Voigt Hill
#
# Bulk Modulus (GPa) = 46.88440 47.84712 47.36576
# Shear Modulus (GPa) = 38.27511 40.08100 39.17805
#
# Velocity S-wave (km/s) = 3.96479 4.05724 4.01128
# Velocity P-wave (km/s) = 6.34151 6.44974 6.39585
#
# Compressibility (1/GPa) = 0.02132905
#
# Stress axis : x y z
#
# Youngs Moduli (GPa) = 84.04435 78.50921 85.34247
#
# Poissons Ratio (x) = 0.33257 0.22596
# Poissons Ratio (y) = 0.35602 0.05362
# Poissons Ratio (z) = 0.22253 0.04933
#
# Static dielectric constant tensor:
#      x y z
#    x 4.465780 0.000000 0.000000 
#    y 0.000000 4.488580 0.000000 
#    z 0.000000 0.000000 4.639700 
# 
# 
# High freq. dielectric constant tensor:
#      x y z
#    x 1.973380 0.000000 0.000000 
#    y 0.000000 1.970340 0.000000 
#    z 0.000000 0.000000 1.983440 
# 
# From -- ./inp_files/5352.got.cif
#   From: 2010.03.12/outbox.cif.g09.slc.cpg/sg19_3_cif.got.tgz:5352.got - 2010.04.10 18:59:41.
