data_PCOD8157771
_publ_section_title
;
Structure prediction by ZEFSAII (Michael W. Deem and Ramdas Pophale) SiO2 
 PCOD8157771
Probable space group: P 21 21 21
;
_chemical_formula_sum "Si O2"
_cell_formula_units_Z 20
_cell_length_a 5.489641
_cell_length_b 15.690604
_cell_length_c 9.591757
_cell_angle_alpha 90.000000
_cell_angle_beta 90.000000
_cell_angle_gamma 90.000000
_cell_volume 826.193500
_symmetry_space_group_name_H-M "P 21 21 21"
_symmetry_group_IT_number 19
_symmetry_cell_setting 'orthorhombic'
loop_
_space_group_symop_operation_xyz
x,y,z
1/2-x,-y,1/2+z
1/2+x,1/2-y,-z
-x,1/2+y,1/2-z
loop_
_atom_site_type_symbol
_atom_site_label
_atom_site_fract_x
_atom_site_fract_y
_atom_site_fract_z
Si Si1 0.663497 0.210179 0.443850
Si Si2 0.138084 0.375031 0.042806
Si Si3 0.525120 0.021751 0.445860
Si Si4 0.594016 0.774788 0.670259
Si Si5 0.251326 0.074689 0.180624
O O1 0.414064 0.254508 0.490967
O O2 0.653099 0.110716 0.480056
O O3 0.680582 0.222325 0.277386
O O4 0.274036 0.455083 0.112472
O O5 0.985595 0.324548 0.160090
O O6 0.330249 0.305556 0.983755
O O7 0.988261 0.408029 0.910673
O O8 0.319507 0.029328 0.326469
O O9 0.423078 0.986935 0.592096
O O10 0.379083 0.836873 0.723975
#
# Coordination Sequence:
#
# PCOD8157771 Si02
#       5
#     4   4   4   4   4
#     4  12  29  52  80 113 167 209 257 330 402 474
#     4  11  24  46  81 107 149 206 265 322 396 475
#     4  11  28  50  77 116 154 210 264 336 393 477
#     4  11  24  49  74 110 149 206 258 324 392 473
#     4  11  25  49  78 108 161 197 268 332 393 471
#
# _framework density 24.207405999999999
#
# number of rings (size 3 to 8) (size 9 to 14) (size 15 to 20)
#    0.000    0.800    4.000    1.200    5.600    3.200 
#    3.600    0.000    0.000    0.000    0.000    0.000 
#    0.000    0.000    0.000    0.000    0.000    0.000 
#
# Total GULP energy -248036.752737 kJ/mol
# GULP energy per Si atom -12401.837637 kJ/mol
# Density = 2.415231 g / cm^3
# Si number density = 24.207406 Si / 1000 Ang^3
#
#
#
# Elastic Constant Matrix: (Units=GPa)
#
#
# Indices 1 2 3 4 5 6 
#
# 1 111.1209 62.3099 27.0412 0.0000 0.0000 0.0000
# 2 62.3099 179.6643 43.8102 0.0000 0.0000 0.0000
# 3 27.0412 43.8102 80.3655 0.0000 0.0000 0.0000
# 4 0.0000 0.0000 0.0000 30.6927 0.0000 0.0000
# 5 0.0000 0.0000 0.0000 0.0000 55.5294 0.0000
# 6 0.0000 0.0000 0.0000 0.0000 0.0000 35.2935
#
#
#
# Elastic Compliance Matrix: (Units=1/GPa)
#
#
# Indices 1 2 3 4 5 6 
#
# 1 0.011429 -0.003490 -0.001943 0.000000 0.000000 0.000000
# 2 -0.003490 0.007485 -0.002906 0.000000 0.000000 0.000000
# 3 -0.001943 -0.002906 0.014681 0.000000 0.000000 0.000000
# 4 0.000000 0.000000 0.000000 0.032581 0.000000 0.000000
# 5 0.000000 0.000000 0.000000 0.000000 0.018008 0.000000
# 6 0.000000 0.000000 0.000000 0.000000 0.000000 0.028334
#
#
# Mechanical properties :
#
#
# Convention : Reuss Voigt Hill
#
# Bulk Modulus (GPa) = 59.11235 70.83037 64.97136
# Shear Modulus (GPa) = 37.08225 40.16909 38.62567
#
# Velocity S-wave (km/s) = 3.91814 4.07796 3.99885
# Velocity P-wave (km/s) = 6.70382 7.17609 6.94397
#
# Compressibility (1/GPa) = 0.01691694
#
# Stress axis : x y z
#
# Youngs Moduli (GPa) = 87.49682 133.60245 68.11464
#
# Poissons Ratio (x) = 0.46626 0.13236
# Poissons Ratio (y) = 0.30536 0.19794
# Poissons Ratio (z) = 0.17002 0.38825
#
# Static dielectric constant tensor:
#      x y z
#    x 4.454570 0.000000 0.000000 
#    y 0.000000 4.500370 0.000000 
#    z 0.000000 0.000000 4.244930 
# 
# 
# High freq. dielectric constant tensor:
#      x y z
#    x 1.970840 0.000000 0.000000 
#    y 0.000000 1.972440 0.000000 
#    z 0.000000 0.000000 1.953960 
# 
# From -- ./inp_files/923.got.cif
#   From: 2010.03.12/outbox.cif.g09.slc.cpg/sg19_1_cif.got.tgz:923.got - 2010.04.10 18:59:41.
