data_PCOD8157051
_publ_section_title
;
Structure prediction by ZEFSAII (Michael W. Deem and Ramdas Pophale) SiO2 
 PCOD8157051
Probable space group: P 21 21 21
;
_chemical_formula_sum "Si O2"
_cell_formula_units_Z 20
_cell_length_a 14.235292
_cell_length_b 8.905226
_cell_length_c 7.490759
_cell_angle_alpha 90.000000
_cell_angle_beta 90.000000
_cell_angle_gamma 90.000000
_cell_volume 949.592226
_symmetry_space_group_name_H-M "P 21 21 21"
_symmetry_group_IT_number 19
_symmetry_cell_setting 'orthorhombic'
loop_
_space_group_symop_operation_xyz
x,y,z
1/2-x,-y,1/2+z
1/2+x,1/2-y,-z
-x,1/2+y,1/2-z
loop_
_atom_site_type_symbol
_atom_site_label
_atom_site_fract_x
_atom_site_fract_y
_atom_site_fract_z
Si Si1 0.517690 0.847713 0.395098
Si Si2 0.589527 0.175993 0.812415
Si Si3 0.725790 0.863562 0.486455
Si Si4 0.167049 0.629409 0.129458
Si Si5 0.487962 0.188697 0.460328
O O1 0.490169 0.741981 0.559607
O O2 0.630100 0.846967 0.377565
O O3 0.477304 0.013674 0.417426
O O4 0.477047 0.778948 0.212586
O O5 0.692728 0.230459 0.882415
O O6 0.566162 0.224483 0.610775
O O7 0.586631 0.993501 0.815604
O O8 0.715627 0.807353 0.690229
O O9 0.755011 0.042047 0.491348
O O10 0.116435 0.762121 0.023106
#
# Coordination Sequence:
#
# PCOD8157051 Si02
#       5
#     4   4   4   4   4
#     4  12  24  42  69 100 139 187 222 276 345 406
#     4  10  23  42  69 101 132 181 229 282 331 403
#     4  10  21  41  70  98 131 186 230 264 351 414
#     4  10  21  40  72  95 132 173 232 281 332 409
#     4  12  23  41  66 104 138 175 231 277 337 400
#
# _framework density 21.061672000000002
#
# number of rings (size 3 to 8) (size 9 to 14) (size 15 to 20)
#    1.200    0.000    4.000    2.400    2.800    0.000 
#    0.000    2.000    4.400    0.000    0.000    0.000 
#    0.000    0.000    0.000    0.000    0.000    0.000 
#
# Total GULP energy -247912.359100 kJ/mol
# GULP energy per Si atom -12395.617955 kJ/mol
# Density = 2.101373 g / cm^3
# Si number density = 21.061672 Si / 1000 Ang^3
#
#
#
# Elastic Constant Matrix: (Units=GPa)
#
#
# Indices 1 2 3 4 5 6 
#
# 1 83.3470 30.2221 18.3562 0.0000 0.0000 0.0000
# 2 30.2221 49.4975 42.7232 0.0000 0.0000 0.0000
# 3 18.3562 42.7232 137.1828 0.0000 0.0000 0.0000
# 4 0.0000 0.0000 0.0000 29.2705 0.0000 0.0000
# 5 0.0000 0.0000 0.0000 0.0000 28.9300 0.0000
# 6 0.0000 0.0000 0.0000 0.0000 0.0000 31.7547
#
#
#
# Elastic Compliance Matrix: (Units=1/GPa)
#
#
# Indices 1 2 3 4 5 6 
#
# 1 0.015552 -0.010530 0.001198 0.000000 0.000000 0.000000
# 2 -0.010530 0.034760 -0.009416 0.000000 0.000000 0.000000
# 3 0.001198 -0.009416 0.010062 0.000000 0.000000 0.000000
# 4 0.000000 0.000000 0.000000 0.034164 0.000000 0.000000
# 5 0.000000 0.000000 0.000000 0.000000 0.034566 0.000000
# 6 0.000000 0.000000 0.000000 0.000000 0.000000 0.031491
#
#
# Mechanical properties :
#
#
# Convention : Reuss Voigt Hill
#
# Bulk Modulus (GPa) = 43.71053 50.29224 47.00139
# Shear Modulus (GPa) = 24.30498 29.90609 27.10554
#
# Velocity S-wave (km/s) = 3.40073 3.77228 3.59131
# Velocity P-wave (km/s) = 6.01819 6.55011 6.28977
#
# Compressibility (1/GPa) = 0.02287778
#
# Stress axis : x y z
#
# Youngs Moduli (GPa) = 64.29842 28.76838 99.38610
#
# Poissons Ratio (x) = 0.30294 -0.11911
# Poissons Ratio (y) = 0.67709 0.93586
# Poissons Ratio (z) = -0.07706 0.27090
#
# Static dielectric constant tensor:
#      x y z
#    x 3.671780 0.000000 0.000000 
#    y 0.000000 3.533600 0.000000 
#    z 0.000000 0.000000 3.861510 
# 
# 
# High freq. dielectric constant tensor:
#      x y z
#    x 1.817090 0.000000 0.000000 
#    y 0.000000 1.787360 0.000000 
#    z 0.000000 0.000000 1.845510 
# 
# From -- ./inp_files/3824.got.cif
#   From: 2010.03.12/outbox.cif.g09.slc.cpg/sg19_2_cif.got.tgz:3824.got - 2010.04.10 18:59:41.
