data_PCOD8157449
_publ_section_title
;
Structure prediction by ZEFSAII (Michael W. Deem and Ramdas Pophale) SiO2 
 PCOD8157449
Probable space group: P 21 21 21
;
_chemical_formula_sum "Si O2"
_cell_formula_units_Z 32
_cell_length_a 11.505498
_cell_length_b 14.850091
_cell_length_c 8.980329
_cell_angle_alpha 90.000000
_cell_angle_beta 90.000000
_cell_angle_gamma 90.000000
_cell_volume 1534.358289
_symmetry_space_group_name_H-M "P 21 21 21"
_symmetry_group_IT_number 19
_symmetry_cell_setting 'orthorhombic'
loop_
_space_group_symop_operation_xyz
x,y,z
1/2-x,-y,1/2+z
1/2+x,1/2-y,-z
-x,1/2+y,1/2-z
loop_
_atom_site_type_symbol
_atom_site_label
_atom_site_fract_x
_atom_site_fract_y
_atom_site_fract_z
Si Si1 0.799807 0.394657 0.237451
Si Si2 0.256609 0.594815 0.871795
Si Si3 0.770670 0.181932 0.191134
Si Si4 0.801985 0.064672 0.935646
Si Si5 0.561256 0.853816 0.942248
Si Si6 0.542865 0.076574 0.269025
Si Si7 0.995845 0.346444 0.444574
Si Si8 0.376696 0.991407 0.037329
O O1 0.768805 0.289856 0.210205
O O2 0.924490 0.401612 0.320462
O O3 0.706014 0.438513 0.348207
O O4 0.804270 0.448298 0.081064
O O5 0.284821 0.592456 0.696904
O O6 0.367263 0.635336 0.951145
O O7 0.234191 0.496185 0.943072
O O8 0.136943 0.648374 0.904870
O O9 0.847745 0.126046 0.310161
O O10 0.639943 0.146102 0.210944
O O11 0.828205 0.155820 0.029941
O O12 0.909504 0.014808 0.852136
O O13 0.510426 0.757254 0.910376
O O14 0.453502 0.921431 0.942607
O O15 0.457270 0.125756 0.388545
O O16 0.463704 0.054126 0.128606
#
# Coordination Sequence:
#
# PCOD8157449 Si02
#       8
#     4   4   4   4   4   4   4   4
#     4  11  28  48  68  96 145 185 231 281 347 424
#     4  11  21  38  67 102 129 176 223 282 340 397
#     4  11  23  44  67 107 138 170 231 295 337 407
#     4  11  20  36  66 102 130 164 219 284 335 390
#     4  11  22  42  69  97 135 178 225 284 342 408
#     4  11  22  40  71  97 137 175 226 284 340 409
#     4  10  24  40  68  96 136 178 223 283 340 403
#     4  12  26  48  68  99 134 194 224 281 353 422
#
# _framework density 20.855625
#
# number of rings (size 3 to 8) (size 9 to 14) (size 15 to 20)
#    0.000    1.000    5.000    1.500    8.750    1.000 
#    4.500    0.000    0.000    0.000    0.000    0.000 
#    0.000    0.000    0.000    0.000    0.000    0.000 
#
# Total GULP energy -396579.227245 kJ/mol
# GULP energy per Si atom -12393.100851 kJ/mol
# Density = 2.080816 g / cm^3
# Si number density = 20.855625 Si / 1000 Ang^3
#
#
#
# Elastic Constant Matrix: (Units=GPa)
#
#
# Indices 1 2 3 4 5 6 
#
# 1 84.3332 47.4924 35.1761 0.0000 0.0000 0.0000
# 2 47.4924 92.0566 56.8551 0.0000 0.0000 0.0000
# 3 35.1761 56.8551 145.7999 0.0000 0.0000 0.0000
# 4 0.0000 0.0000 0.0000 34.1728 0.0000 0.0000
# 5 0.0000 0.0000 0.0000 0.0000 33.7066 0.0000
# 6 0.0000 0.0000 0.0000 0.0000 0.0000 22.0982
#
#
#
# Elastic Compliance Matrix: (Units=1/GPa)
#
#
# Indices 1 2 3 4 5 6 
#
# 1 0.016800 -0.008119 -0.000887 0.000000 0.000000 0.000000
# 2 -0.008119 0.018233 -0.005151 0.000000 0.000000 0.000000
# 3 -0.000887 -0.005151 0.009081 0.000000 0.000000 0.000000
# 4 0.000000 0.000000 0.000000 0.029263 0.000000 0.000000
# 5 0.000000 0.000000 0.000000 0.000000 0.029668 0.000000
# 6 0.000000 0.000000 0.000000 0.000000 0.000000 0.045253
#
#
# Mechanical properties :
#
#
# Convention : Reuss Voigt Hill
#
# Bulk Modulus (GPa) = 63.29323 66.80410 65.04867
# Shear Modulus (GPa) = 27.49065 30.17325 28.83195
#
# Velocity S-wave (km/s) = 3.63456 3.80777 3.72217
# Velocity P-wave (km/s) = 6.93019 7.17170 7.05198
#
# Compressibility (1/GPa) = 0.01579948
#
# Stress axis : x y z
#
# Youngs Moduli (GPa) = 59.52304 54.84518 110.11473
#
# Poissons Ratio (x) = 0.44531 0.09768
# Poissons Ratio (y) = 0.48329 0.56722
# Poissons Ratio (z) = 0.05280 0.28252
#
# Static dielectric constant tensor:
#      x y z
#    x 3.766590 0.000000 0.000000 
#    y 0.000000 3.798570 0.000000 
#    z 0.000000 0.000000 4.222190 
# 
# 
# High freq. dielectric constant tensor:
#      x y z
#    x 1.802750 0.000000 0.000000 
#    y 0.000000 1.812010 0.000000 
#    z 0.000000 0.000000 1.833150 
# 
# From -- ./inp_files/3612.got.cif
#   From: 2010.03.12/outbox.cif.g09.slc.cpg/sg19_2_cif.got.tgz:3612.got - 2010.04.10 18:59:41.
