data_PCOD8157068
_publ_section_title
;
Structure prediction by ZEFSAII (Michael W. Deem and Ramdas Pophale) SiO2 
 PCOD8157068
Probable space group: P 21 21 21
;
_chemical_formula_sum "Si O2"
_cell_formula_units_Z 32
_cell_length_a 19.374601
_cell_length_b 9.022605
_cell_length_c 8.590986
_cell_angle_alpha 90.000000
_cell_angle_beta 90.000000
_cell_angle_gamma 90.000000
_cell_volume 1501.784866
_symmetry_space_group_name_H-M "P 21 21 21"
_symmetry_group_IT_number 19
_symmetry_cell_setting 'orthorhombic'
loop_
_space_group_symop_operation_xyz
x,y,z
1/2-x,-y,1/2+z
1/2+x,1/2-y,-z
-x,1/2+y,1/2-z
loop_
_atom_site_type_symbol
_atom_site_label
_atom_site_fract_x
_atom_site_fract_y
_atom_site_fract_z
Si Si1 0.561383 0.054972 0.283633
Si Si2 0.823580 0.292516 0.199136
Si Si3 0.167070 0.080756 0.451945
Si Si4 0.951867 0.234572 0.599387
Si Si5 0.958252 0.739306 0.205409
Si Si6 0.324068 0.084723 0.466550
Si Si7 0.168142 0.205186 0.789918
Si Si8 0.936241 0.058850 0.131449
O O1 0.494759 0.157382 0.290491
O O2 0.622494 0.148033 0.203700
O O3 0.543314 0.928617 0.164034
O O4 0.579527 0.989288 0.454265
O O5 0.843647 0.402720 0.057656
O O6 0.830029 0.399783 0.348465
O O7 0.745577 0.234487 0.189373
O O8 0.871815 0.149716 0.199028
O O9 0.114331 0.166081 0.339768
O O10 0.246521 0.116722 0.403680
O O11 0.152462 0.125873 0.627204
O O12 0.873332 0.290724 0.606350
O O13 0.983569 0.230539 0.427761
O O14 0.993133 0.656532 0.353975
O O15 0.944402 0.912741 0.239767
O O16 0.348331 0.917553 0.422471
#
# Coordination Sequence:
#
# PCOD8157068 Si02
#       8
#     4   4   4   4   4   4   4   4
#     4  11  25  42  63  91 128 168 210 263 320 378
#     4  10  22  40  66  95 126 164 213 260 316 381
#     4  10  21  41  67  90 125 167 209 260 317 378
#     4  11  23  41  63  93 123 168 212 260 315 377
#     4  11  23  41  63  92 125 165 211 261 321 371
#     4  10  22  41  65  92 127 163 211 262 309 382
#     4  10  21  44  64  91 128 169 210 258 319 380
#     4  11  23  42  63  94 126 166 206 268 315 379
#
# _framework density 21.307979
#
# number of rings (size 3 to 8) (size 9 to 14) (size 15 to 20)
#    0.000    1.500    3.750    1.500    3.500    2.000 
#    2.250    0.000    0.000    0.000    0.000    0.000 
#    0.000    0.000    0.000    0.000    0.000    0.000 
#
# Total GULP energy -396768.617961 kJ/mol
# GULP energy per Si atom -12399.019311 kJ/mol
# Density = 2.125948 g / cm^3
# Si number density = 21.307979 Si / 1000 Ang^3
#
#
#
# Elastic Constant Matrix: (Units=GPa)
#
#
# Indices 1 2 3 4 5 6 
#
# 1 114.5388 52.1796 23.2950 0.0000 0.0000 0.0000
# 2 52.1796 127.6998 31.9160 0.0000 0.0000 0.0000
# 3 23.2950 31.9160 36.2358 0.0000 0.0000 0.0000
# 4 0.0000 0.0000 0.0000 37.3110 0.0000 0.0000
# 5 0.0000 0.0000 0.0000 0.0000 23.8905 0.0000
# 6 0.0000 0.0000 0.0000 0.0000 0.0000 48.1374
#
#
#
# Elastic Compliance Matrix: (Units=1/GPa)
#
#
# Indices 1 2 3 4 5 6 
#
# 1 0.011174 -0.003552 -0.004054 0.000000 0.000000 0.000000
# 2 -0.003552 0.011171 -0.007555 0.000000 0.000000 0.000000
# 3 -0.004054 -0.007555 0.036858 0.000000 0.000000 0.000000
# 4 0.000000 0.000000 0.000000 0.026802 0.000000 0.000000
# 5 0.000000 0.000000 0.000000 0.000000 0.041858 0.000000
# 6 0.000000 0.000000 0.000000 0.000000 0.000000 0.020774
#
#
# Mechanical properties :
#
#
# Convention : Reuss Voigt Hill
#
# Bulk Modulus (GPa) = 34.62800 54.80618 44.71709
# Shear Modulus (GPa) = 26.51316 33.27336 29.89326
#
# Velocity S-wave (km/s) = 3.53127 3.95593 3.74961
# Velocity P-wave (km/s) = 5.73698 6.82954 6.30696
#
# Compressibility (1/GPa) = 0.02887837
#
# Stress axis : x y z
#
# Youngs Moduli (GPa) = 89.49715 89.51994 27.13113
#
# Poissons Ratio (x) = 0.31801 0.11000
# Poissons Ratio (y) = 0.31792 0.20498
# Poissons Ratio (z) = 0.36285 0.67635
#
# Static dielectric constant tensor:
#      x y z
#    x 4.091130 0.000000 0.000000 
#    y 0.000000 3.955220 0.000000 
#    z 0.000000 0.000000 3.704650 
# 
# 
# High freq. dielectric constant tensor:
#      x y z
#    x 1.848720 0.000000 0.000000 
#    y 0.000000 1.838720 0.000000 
#    z 0.000000 0.000000 1.819550 
# 
# From -- ./inp_files/4325.got.cif
#   From: 2010.03.12/outbox.cif.g09.slc.cpg/sg19_3_cif.got.tgz:4325.got - 2010.04.10 18:59:41.
