data_PCOD8157569
_publ_section_title
;
Structure prediction by ZEFSAII (Michael W. Deem and Ramdas Pophale) SiO2 
 PCOD8157569
Probable space group: P 21 21 21
;
_chemical_formula_sum "Si O2"
_cell_formula_units_Z 28
_cell_length_a 5.162028
_cell_length_b 9.144064
_cell_length_c 24.800066
_cell_angle_alpha 90.000000
_cell_angle_beta 90.000000
_cell_angle_gamma 90.000000
_cell_volume 1170.610592
_symmetry_space_group_name_H-M "P 21 21 21"
_symmetry_group_IT_number 19
_symmetry_cell_setting 'orthorhombic'
loop_
_space_group_symop_operation_xyz
x,y,z
1/2-x,-y,1/2+z
1/2+x,1/2-y,-z
-x,1/2+y,1/2-z
loop_
_atom_site_type_symbol
_atom_site_label
_atom_site_fract_x
_atom_site_fract_y
_atom_site_fract_z
Si Si1 0.217471 0.286424 0.761482
Si Si2 0.115839 0.410872 0.067926
Si Si3 0.402241 0.206283 0.135973
Si Si4 0.061422 0.961497 0.119480
Si Si5 0.819012 0.233161 0.463743
Si Si6 0.776862 0.880271 0.222039
Si Si7 0.757762 0.173239 0.047287
O O1 0.491617 0.206907 0.751979
O O2 0.241339 0.460437 0.749938
O O3 0.140055 0.262682 0.824161
O O4 0.988468 0.213638 0.725749
O O5 0.246745 0.356830 0.124180
O O6 0.099875 0.582967 0.064683
O O7 0.830458 0.340622 0.063398
O O8 0.269549 0.346105 0.016381
O O9 0.488367 0.143852 0.077383
O O10 0.231795 0.069337 0.158448
O O11 0.220468 0.836506 0.088144
O O12 0.841176 0.894245 0.158398
O O13 0.960167 0.059372 0.071004
O O14 0.552349 0.219221 0.496636
#
# Coordination Sequence:
#
# PCOD8157569 Si02
#       7
#     4   4   4   4   4   4   4
#     4  12  27  51  79 111 148 195 252 322 383 453
#     4  11  24  39  69 108 141 194 242 294 349 435
#     4  11  24  45  75 103 142 193 250 299 363 448
#     4  11  25  47  74 101 145 202 241 299 382 440
#     4  12  28  45  68 106 154 194 239 302 364 438
#     4  12  27  50  81 112 147 197 256 317 387 457
#     4  11  21  41  72  99 141 191 242 287 350 443
#
# _framework density 23.919142000000001
#
# number of rings (size 3 to 8) (size 9 to 14) (size 15 to 20)
#    0.000    0.571    4.286    3.429    6.000    1.143 
#    2.571    1.429    0.000    0.000    0.000    0.000 
#    0.000    0.000    0.000    0.000    0.000    0.000 
#
# Total GULP energy -347000.158392 kJ/mol
# GULP energy per Si atom -12392.862800 kJ/mol
# Density = 2.386470 g / cm^3
# Si number density = 23.919142 Si / 1000 Ang^3
#
#
#
# Elastic Constant Matrix: (Units=GPa)
#
#
# Indices 1 2 3 4 5 6 
#
# 1 75.8811 16.8021 13.0417 0.0000 0.0000 0.0000
# 2 16.8021 129.1753 30.1593 0.0000 0.0000 0.0000
# 3 13.0417 30.1593 81.0359 0.0000 0.0000 0.0000
# 4 0.0000 0.0000 0.0000 30.6556 0.0000 0.0000
# 5 0.0000 0.0000 0.0000 0.0000 38.6698 0.0000
# 6 0.0000 0.0000 0.0000 0.0000 0.0000 32.3594
#
#
#
# Elastic Compliance Matrix: (Units=1/GPa)
#
#
# Indices 1 2 3 4 5 6 
#
# 1 0.013779 -0.001396 -0.001698 0.000000 0.000000 0.000000
# 2 -0.001396 0.008620 -0.002983 0.000000 0.000000 0.000000
# 3 -0.001698 -0.002983 0.013724 0.000000 0.000000 0.000000
# 4 0.000000 0.000000 0.000000 0.032620 0.000000 0.000000
# 5 0.000000 0.000000 0.000000 0.000000 0.025860 0.000000
# 6 0.000000 0.000000 0.000000 0.000000 0.000000 0.030903
#
#
# Mechanical properties :
#
#
# Convention : Reuss Voigt Hill
#
# Bulk Modulus (GPa) = 41.72192 45.12204 43.42198
# Shear Modulus (GPa) = 34.32885 35.40957 34.86921
#
# Velocity S-wave (km/s) = 3.79252 3.85175 3.82225
# Velocity P-wave (km/s) = 6.05462 6.21986 6.13780
#
# Compressibility (1/GPa) = 0.02396822
#
# Stress axis : x y z
#
# Youngs Moduli (GPa) = 72.57184 116.01594 72.86608
#
# Poissons Ratio (x) = 0.16194 0.12374
# Poissons Ratio (y) = 0.10130 0.21738
# Poissons Ratio (z) = 0.12324 0.34611
#
# Static dielectric constant tensor:
#      x y z
#    x 4.642140 0.000000 0.000000 
#    y 0.000000 4.539040 0.000000 
#    z 0.000000 0.000000 4.204040 
# 
# 
# High freq. dielectric constant tensor:
#      x y z
#    x 1.956700 0.000000 0.000000 
#    y 0.000000 1.953780 0.000000 
#    z 0.000000 0.000000 1.942260 
# 
# From -- ./inp_files/2119.got.cif
#   From: 2010.03.12/outbox.cif.g09.slc.cpg/sg19_2_cif.got.tgz:2119.got - 2010.04.10 18:59:41.
