data_PCOD8157177
_publ_section_title
;
Structure prediction by ZEFSAII (Michael W. Deem and Ramdas Pophale) SiO2 
 PCOD8157177
Probable space group: P 21 21 21
;
_chemical_formula_sum "Si O2"
_cell_formula_units_Z 32
_cell_length_a 10.244768
_cell_length_b 16.898854
_cell_length_c 8.217013
_cell_angle_alpha 90.000000
_cell_angle_beta 90.000000
_cell_angle_gamma 90.000000
_cell_volume 1422.569050
_symmetry_space_group_name_H-M "P 21 21 21"
_symmetry_group_IT_number 19
_symmetry_cell_setting 'orthorhombic'
loop_
_space_group_symop_operation_xyz
x,y,z
1/2-x,-y,1/2+z
1/2+x,1/2-y,-z
-x,1/2+y,1/2-z
loop_
_atom_site_type_symbol
_atom_site_label
_atom_site_fract_x
_atom_site_fract_y
_atom_site_fract_z
Si Si1 0.911759 0.786475 0.344877
Si Si2 0.829113 0.352226 0.276473
Si Si3 0.474945 0.032036 0.517440
Si Si4 0.111877 0.873169 0.727594
Si Si5 0.283977 0.258554 0.427992
Si Si6 0.845830 0.916806 0.567388
Si Si7 0.737545 0.923610 0.924228
Si Si8 0.644870 0.372771 0.994563
O O1 0.854249 0.767287 0.165585
O O2 0.814009 0.852588 0.426291
O O3 0.916008 0.712151 0.464269
O O4 0.065205 0.804147 0.328742
O O5 0.907603 0.431223 0.324697
O O6 0.768591 0.301374 0.422827
O O7 0.703628 0.376603 0.174206
O O8 0.390351 0.060887 0.365856
O O9 0.621805 0.062689 0.503969
O O10 0.470917 0.937007 0.523823
O O11 0.112504 0.783065 0.803365
O O12 0.243322 0.892105 0.634112
O O13 0.988706 0.885552 0.613201
O O14 0.326870 0.344179 0.500110
O O15 0.750871 0.917262 0.726483
O O16 0.851597 0.002568 0.479998
#
# Coordination Sequence:
#
# PCOD8157177 Si02
#       8
#     4   4   4   4   4   4   4   4
#     4  11  23  43  64  97 137 178 235 284 347 420
#     4  11  22  43  69  95 141 180 227 294 348 418
#     4  10  22  40  64  97 138 172 229 282 345 414
#     4   9  21  42  63  92 137 175 228 283 340 417
#     4  10  22  43  68  99 131 185 233 285 352 414
#     4  11  23  43  67  99 143 180 225 297 347 412
#     4  11  23  41  68 100 138 182 228 291 351 418
#     4  11  22  39  67  97 129 184 225 278 348 423
#
# _framework density 22.494513000000001
#
# number of rings (size 3 to 8) (size 9 to 14) (size 15 to 20)
#    0.000    1.500    2.500    2.250    0.000    2.000 
#    4.500    2.500    0.000    0.000    0.000    0.000 
#    0.000    0.000    0.000    0.000    0.000    0.000 
#
# Total GULP energy -396644.651046 kJ/mol
# GULP energy per Si atom -12395.145345 kJ/mol
# Density = 2.244331 g / cm^3
# Si number density = 22.494513 Si / 1000 Ang^3
#
#
#
# Elastic Constant Matrix: (Units=GPa)
#
#
# Indices 1 2 3 4 5 6 
#
# 1 46.6810 26.4485 24.9145 0.0000 0.0000 0.0000
# 2 26.4485 158.0406 37.3957 0.0000 0.0000 0.0000
# 3 24.9145 37.3957 91.3789 0.0000 0.0000 0.0000
# 4 0.0000 0.0000 0.0000 38.9790 0.0000 0.0000
# 5 0.0000 0.0000 0.0000 0.0000 34.1758 0.0000
# 6 0.0000 0.0000 0.0000 0.0000 0.0000 35.6299
#
#
#
# Elastic Compliance Matrix: (Units=1/GPa)
#
#
# Indices 1 2 3 4 5 6 
#
# 1 0.026290 -0.002993 -0.005943 0.000000 0.000000 0.000000
# 2 -0.002993 0.007347 -0.002190 0.000000 0.000000 0.000000
# 3 -0.005943 -0.002190 0.013460 0.000000 0.000000 0.000000
# 4 0.000000 0.000000 0.000000 0.025655 0.000000 0.000000
# 5 0.000000 0.000000 0.000000 0.000000 0.029260 0.000000
# 6 0.000000 0.000000 0.000000 0.000000 0.000000 0.028066
#
#
# Mechanical properties :
#
#
# Convention : Reuss Voigt Hill
#
# Bulk Modulus (GPa) = 40.25236 52.62421 46.43829
# Shear Modulus (GPa) = 31.13071 35.57972 33.35522
#
# Velocity S-wave (km/s) = 3.72415 3.98138 3.85491
# Velocity P-wave (km/s) = 6.03536 6.67684 6.36419
#
# Compressibility (1/GPa) = 0.02484326
#
# Stress axis : x y z
#
# Youngs Moduli (GPa) = 38.03743 136.11466 74.29321
#
# Poissons Ratio (x) = 0.40745 0.44152
# Poissons Ratio (y) = 0.11386 0.16273
# Poissons Ratio (z) = 0.22605 0.29815
#
# Static dielectric constant tensor:
#      x y z
#    x 3.642990 0.000000 0.000000 
#    y 0.000000 4.199000 0.000000 
#    z 0.000000 0.000000 4.399080 
# 
# 
# High freq. dielectric constant tensor:
#      x y z
#    x 1.856300 0.000000 0.000000 
#    y 0.000000 1.893790 0.000000 
#    z 0.000000 0.000000 1.905930 
# 
# From -- ./inp_files/3590.got.cif
#   From: 2010.03.12/outbox.cif.g09.slc.cpg/sg19_2_cif.got.tgz:3590.got - 2010.04.10 18:59:41.
