data_PCOD8157393
_publ_section_title
;
Structure prediction by ZEFSAII (Michael W. Deem and Ramdas Pophale) SiO2 
 PCOD8157393
Probable space group: P 21 21 21
;
_chemical_formula_sum "Si O2"
_cell_formula_units_Z 20
_cell_length_a 4.827426
_cell_length_b 8.150140
_cell_length_c 18.021330
_cell_angle_alpha 90.000000
_cell_angle_beta 90.000000
_cell_angle_gamma 90.000000
_cell_volume 709.034771
_symmetry_space_group_name_H-M "P 21 21 21"
_symmetry_group_IT_number 19
_symmetry_cell_setting 'orthorhombic'
loop_
_space_group_symop_operation_xyz
x,y,z
1/2-x,-y,1/2+z
1/2+x,1/2-y,-z
-x,1/2+y,1/2-z
loop_
_atom_site_type_symbol
_atom_site_label
_atom_site_fract_x
_atom_site_fract_y
_atom_site_fract_z
Si Si1 0.043729 0.640006 0.210298
Si Si2 0.441945 0.306044 0.359419
Si Si3 0.467616 0.091641 0.915660
Si Si4 0.030508 0.434126 0.516640
Si Si5 0.370011 0.936106 0.628684
O O1 0.845116 0.793728 0.186744
O O2 0.941756 0.475109 0.168547
O O3 0.036074 0.597256 0.296570
O O4 0.353313 0.688605 0.187920
O O5 0.557106 0.494583 0.358992
O O6 0.421479 0.234521 0.444340
O O7 0.655747 0.966151 0.961667
O O8 0.615199 0.268063 0.917527
O O9 0.166821 0.084189 0.954446
O O10 0.020430 0.427252 0.425611
#
# Coordination Sequence:
#
# PCOD8157393 Si02
#       5
#     4   4   4   4   4
#     4  10  24  44  65  96 138 176 222 282 344 405
#     4  10  25  44  64  98 139 175 220 284 343 404
#     4  10  23  44  65  95 135 176 224 282 339 408
#     4  10  24  44  65  96 138 175 222 284 344 403
#     4  12  24  42  75 101 130 186 240 280 344 420
#
# _framework density 28.207363999999998
#
# number of rings (size 3 to 8) (size 9 to 14) (size 15 to 20)
#    0.000    1.600    0.000    2.400    0.000   17.600 
#    0.000    0.000    0.000    0.000    0.000    0.000 
#    0.000    0.000    0.000    0.000    0.000    0.000 
#
# Total GULP energy -248038.901943 kJ/mol
# GULP energy per Si atom -12401.945097 kJ/mol
# Density = 2.814316 g / cm^3
# Si number density = 28.207364 Si / 1000 Ang^3
#
#
#
# Elastic Constant Matrix: (Units=GPa)
#
#
# Indices 1 2 3 4 5 6 
#
# 1 79.0714 4.8769 23.2715 0.0000 0.0000 0.0000
# 2 4.8769 119.7649 16.8495 0.0000 0.0000 0.0000
# 3 23.2715 16.8495 177.6584 0.0000 0.0000 0.0000
# 4 0.0000 0.0000 0.0000 28.5242 0.0000 0.0000
# 5 0.0000 0.0000 0.0000 0.0000 20.1480 0.0000
# 6 0.0000 0.0000 0.0000 0.0000 0.0000 48.9606
#
#
#
# Elastic Compliance Matrix: (Units=1/GPa)
#
#
# Indices 1 2 3 4 5 6 
#
# 1 0.013164 -0.000297 -0.001696 0.000000 0.000000 0.000000
# 2 -0.000297 0.008469 -0.000764 0.000000 0.000000 0.000000
# 3 -0.001696 -0.000764 0.005923 0.000000 0.000000 0.000000
# 4 0.000000 0.000000 0.000000 0.035058 0.000000 0.000000
# 5 0.000000 0.000000 0.000000 0.000000 0.049633 0.000000
# 6 0.000000 0.000000 0.000000 0.000000 0.000000 0.020425
#
#
# Mechanical properties :
#
#
# Convention : Reuss Voigt Hill
#
# Bulk Modulus (GPa) = 45.36934 51.83228 48.60081
# Shear Modulus (GPa) = 34.35593 41.62635 37.99114
#
# Velocity S-wave (km/s) = 3.49374 3.84569 3.67393
# Velocity P-wave (km/s) = 5.69158 6.17531 5.93837
#
# Compressibility (1/GPa) = 0.02204132
#
# Stress axis : x y z
#
# Youngs Moduli (GPa) = 75.96271 118.07313 168.82049
#
# Poissons Ratio (x) = 0.03512 0.28635
# Poissons Ratio (y) = 0.02259 0.12903
# Poissons Ratio (z) = 0.12885 0.09024
#
# Static dielectric constant tensor:
#      x y z
#    x 4.967550 0.000000 0.000000 
#    y 0.000000 5.157440 0.000000 
#    z 0.000000 0.000000 5.207040 
# 
# 
# High freq. dielectric constant tensor:
#      x y z
#    x 2.141700 0.000000 0.000000 
#    y 0.000000 2.142200 0.000000 
#    z 0.000000 0.000000 2.155820 
# 
# From -- ./inp_files/6379.got.cif
#   From: 2010.03.12/outbox.cif.g09.slc.cpg/sg19_4_cif.got.tgz:6379.got - 2010.04.10 18:59:41.
