data_PCOD8157374
_publ_section_title
;
Structure prediction by ZEFSAII (Michael W. Deem and Ramdas Pophale) SiO2 
 PCOD8157374
Probable space group: P 21 21 21
;
_chemical_formula_sum "Si O2"
_cell_formula_units_Z 28
_cell_length_a 22.955249
_cell_length_b 9.125193
_cell_length_c 5.230741
_cell_angle_alpha 90.000000
_cell_angle_beta 90.000000
_cell_angle_gamma 90.000000
_cell_volume 1095.688953
_symmetry_space_group_name_H-M "P 21 21 21"
_symmetry_group_IT_number 19
_symmetry_cell_setting 'orthorhombic'
loop_
_space_group_symop_operation_xyz
x,y,z
1/2-x,-y,1/2+z
1/2+x,1/2-y,-z
-x,1/2+y,1/2-z
loop_
_atom_site_type_symbol
_atom_site_label
_atom_site_fract_x
_atom_site_fract_y
_atom_site_fract_z
Si Si1 0.051722 0.879565 0.186990
Si Si2 0.615072 0.333007 0.975981
Si Si3 0.761613 0.591206 0.686113
Si Si4 0.679150 0.095067 0.735197
Si Si5 0.800315 0.170855 0.925605
Si Si6 0.024709 0.383827 0.813825
Si Si7 0.112174 0.626631 0.945168
O O1 0.023933 0.887458 0.465550
O O2 0.094092 0.016729 0.147360
O O3 0.088931 0.729220 0.173779
O O4 0.003536 0.872640 0.964568
O O5 0.630700 0.223863 0.737602
O O6 0.672219 0.352975 0.153163
O O7 0.565091 0.258936 0.148052
O O8 0.745372 0.474994 0.466148
O O9 0.714486 0.724857 0.667051
O O10 0.741453 0.170760 0.761665
O O11 0.680481 0.997337 0.481602
O O12 0.662541 0.983492 0.962289
O O13 0.855418 0.231665 0.763615
O O14 0.059180 0.536775 0.821431
#
# Coordination Sequence:
#
# PCOD8157374 Si02
#       7
#     4   4   4   4   4   4   4
#     4  12  26  47  70 101 139 182 245 302 355 420
#     4  10  25  47  70 107 141 194 234 304 365 430
#     4  11  27  46  71 111 156 192 235 296 369 447
#     4  10  23  43  67 104 142 182 235 288 357 438
#     4  11  23  42  73 102 146 190 240 289 357 449
#     4  11  27  47  69 101 138 186 245 300 353 422
#     4  11  25  42  72 100 134 192 232 293 362 426
#
# _framework density 25.554694999999999
#
# number of rings (size 3 to 8) (size 9 to 14) (size 15 to 20)
#    0.000    1.143    1.429    2.571   10.000    2.286 
#    2.571    0.000    0.000    0.000    0.000    0.000 
#    0.000    0.000    0.000    0.000    0.000    0.000 
#
# Total GULP energy -347145.451212 kJ/mol
# GULP energy per Si atom -12398.051829 kJ/mol
# Density = 2.549653 g / cm^3
# Si number density = 25.554695 Si / 1000 Ang^3
#
#
#
# Elastic Constant Matrix: (Units=GPa)
#
#
# Indices 1 2 3 4 5 6 
#
# 1 85.8004 24.3382 8.2148 0.0000 0.0000 0.0000
# 2 24.3382 107.8275 -8.9670 0.0000 0.0000 0.0000
# 3 8.2148 -8.9670 40.4250 0.0000 0.0000 0.0000
# 4 0.0000 0.0000 0.0000 38.2327 0.0000 0.0000
# 5 0.0000 0.0000 0.0000 0.0000 33.7891 0.0000
# 6 0.0000 0.0000 0.0000 0.0000 0.0000 42.0207
#
#
#
# Elastic Compliance Matrix: (Units=1/GPa)
#
#
# Indices 1 2 3 4 5 6 
#
# 1 0.012876 -0.003183 -0.003322 0.000000 0.000000 0.000000
# 2 -0.003183 0.010235 0.002917 0.000000 0.000000 0.000000
# 3 -0.003322 0.002917 0.026059 0.000000 0.000000 0.000000
# 4 0.000000 0.000000 0.000000 0.026156 0.000000 0.000000
# 5 0.000000 0.000000 0.000000 0.000000 0.029595 0.000000
# 6 0.000000 0.000000 0.000000 0.000000 0.000000 0.023798
#
#
# Mechanical properties :
#
#
# Convention : Reuss Voigt Hill
#
# Bulk Modulus (GPa) = 23.81278 31.24721 27.53000
# Shear Modulus (GPa) = 33.35713 36.83962 35.09837
#
# Velocity S-wave (km/s) = 3.61684 3.80096 3.71004
# Velocity P-wave (km/s) = 5.17500 5.61402 5.39897
#
# Compressibility (1/GPa) = 0.04199425
#
# Stress axis : x y z
#
# Youngs Moduli (GPa) = 77.66494 97.70395 38.37393
#
# Poissons Ratio (x) = 0.31095 0.12750
# Poissons Ratio (y) = 0.24717 -0.11194
# Poissons Ratio (z) = 0.25804 -0.28501
#
# Static dielectric constant tensor:
#      x y z
#    x 4.830490 0.000000 0.000000 
#    y 0.000000 4.954550 0.000000 
#    z 0.000000 0.000000 4.234280 
# 
# 
# High freq. dielectric constant tensor:
#      x y z
#    x 2.038360 0.000000 0.000000 
#    y 0.000000 2.032070 0.000000 
#    z 0.000000 0.000000 2.002980 
# 
# From -- ./inp_files/2150.got.cif
#   From: 2010.03.12/outbox.cif.g09.slc.cpg/sg19_2_cif.got.tgz:2150.got - 2010.04.10 18:59:41.
