data_PCOD8157300
_publ_section_title
;
Structure prediction by ZEFSAII (Michael W. Deem and Ramdas Pophale) SiO2 
 PCOD8157300
Probable space group: P 21 21 21
;
_chemical_formula_sum "Si O2"
_cell_formula_units_Z 32
_cell_length_a 8.254333
_cell_length_b 15.241348
_cell_length_c 11.544995
_cell_angle_alpha 90.000000
_cell_angle_beta 90.000000
_cell_angle_gamma 90.000000
_cell_volume 1452.443053
_symmetry_space_group_name_H-M "P 21 21 21"
_symmetry_group_IT_number 19
_symmetry_cell_setting 'orthorhombic'
loop_
_space_group_symop_operation_xyz
x,y,z
1/2-x,-y,1/2+z
1/2+x,1/2-y,-z
-x,1/2+y,1/2-z
loop_
_atom_site_type_symbol
_atom_site_label
_atom_site_fract_x
_atom_site_fract_y
_atom_site_fract_z
Si Si1 0.313974 0.661446 0.547594
Si Si2 0.051868 0.896872 0.782220
Si Si3 0.886954 0.797676 0.981482
Si Si4 0.060646 0.391309 0.280997
Si Si5 0.185795 0.981071 0.370511
Si Si6 0.831775 0.344398 0.950451
Si Si7 0.038305 0.619200 0.012610
Si Si8 0.709963 0.023549 0.127512
O O1 0.315723 0.649946 0.685963
O O2 0.488787 0.653979 0.495251
O O3 0.247800 0.754772 0.508481
O O4 0.224073 0.581111 0.481943
O O5 0.145946 0.982603 0.823862
O O6 0.170305 0.850065 0.688896
O O7 0.017333 0.833972 0.890001
O O8 0.880197 0.920233 0.724976
O O9 0.705338 0.830702 0.948230
O O10 0.946034 0.826335 0.109790
O O11 0.904638 0.691890 0.975379
O O12 0.126936 0.485489 0.319538
O O13 0.886165 0.410688 0.222451
O O14 0.049362 0.056938 0.392144
O O15 0.244204 0.929995 0.487329
O O16 0.087900 0.555135 0.908069
#
# Coordination Sequence:
#
# PCOD8157300 Si02
#       8
#     4   4   4   4   4   4   4   4
#     4  10  22  45  63  95 129 164 221 264 325 379
#     4  11  24  41  66  98 132 172 217 265 333 387
#     4  11  26  40  67 100 128 176 216 268 333 393
#     4  10  23  42  66  95 127 174 214 269 325 383
#     4  11  23  44  66  95 136 169 216 273 321 397
#     4  10  24  44  64  96 127 174 214 272 322 384
#     4  11  22  46  64  95 136 165 222 267 328 394
#     4  10  22  44  68  90 129 174 214 270 323 389
#
# _framework density 22.031844
#
# number of rings (size 3 to 8) (size 9 to 14) (size 15 to 20)
#    0.000    1.500    3.750    1.500    8.750    3.000 
#   13.500    0.000    0.000    0.000    0.000    0.000 
#    0.000    0.000    0.000    0.000    0.000    0.000 
#
# Total GULP energy -396589.027795 kJ/mol
# GULP energy per Si atom -12393.407119 kJ/mol
# Density = 2.198170 g / cm^3
# Si number density = 22.031844 Si / 1000 Ang^3
#
#
#
# Elastic Constant Matrix: (Units=GPa)
#
#
# Indices 1 2 3 4 5 6 
#
# 1 13.8821 8.7041 15.0584 0.0000 0.0000 0.0000
# 2 8.7041 127.2335 46.6541 0.0000 0.0000 0.0000
# 3 15.0584 46.6541 133.9039 0.0000 0.0000 0.0000
# 4 0.0000 0.0000 0.0000 4.4869 0.0000 0.0000
# 5 0.0000 0.0000 0.0000 0.0000 18.7571 0.0000
# 6 0.0000 0.0000 0.0000 0.0000 0.0000 38.9991
#
#
#
# Elastic Compliance Matrix: (Units=1/GPa)
#
#
# Indices 1 2 3 4 5 6 
#
# 1 0.082775 -0.002579 -0.008410 0.000000 0.000000 0.000000
# 2 -0.002579 0.009091 -0.002877 0.000000 0.000000 0.000000
# 3 -0.008410 -0.002877 0.009416 0.000000 0.000000 0.000000
# 4 0.000000 0.000000 0.000000 0.222872 0.000000 0.000000
# 5 0.000000 0.000000 0.000000 0.000000 0.053313 0.000000
# 6 0.000000 0.000000 0.000000 0.000000 0.000000 0.025642
#
#
# Mechanical properties :
#
#
# Convention : Reuss Voigt Hill
#
# Bulk Modulus (GPa) = 13.59626 46.20586 29.90106
# Shear Modulus (GPa) = 10.98035 26.08881 18.53458
#
# Velocity S-wave (km/s) = 2.23488 3.44487 2.90360
# Velocity P-wave (km/s) = 3.58387 6.06965 4.98422
#
# Compressibility (1/GPa) = 0.07354964
#
# Stress axis : x y z
#
# Youngs Moduli (GPa) = 12.08095 109.99777 106.19806
#
# Poissons Ratio (x) = 0.28366 0.89314
# Poissons Ratio (y) = 0.03115 0.30558
# Poissons Ratio (z) = 0.10160 0.31651
#
# Static dielectric constant tensor:
#      x y z
#    x 3.728030 0.000000 0.000000 
#    y 0.000000 3.795630 0.000000 
#    z 0.000000 0.000000 4.429730 
# 
# 
# High freq. dielectric constant tensor:
#      x y z
#    x 1.846270 0.000000 0.000000 
#    y 0.000000 1.872470 0.000000 
#    z 0.000000 0.000000 1.871200 
# 
# From -- ./inp_files/4750.got.cif
#   From: 2010.03.12/outbox.cif.g09.slc.cpg/sg19_3_cif.got.tgz:4750.got - 2010.04.10 18:59:41.
