data_PCOD8157186
_publ_section_title
;
Structure prediction by ZEFSAII (Michael W. Deem and Ramdas Pophale) SiO2 
 PCOD8157186
Probable space group: P 21 21 21
;
_chemical_formula_sum "Si O2"
_cell_formula_units_Z 24
_cell_length_a 8.677121
_cell_length_b 14.318408
_cell_length_c 9.333247
_cell_angle_alpha 90.000000
_cell_angle_beta 90.000000
_cell_angle_gamma 90.000000
_cell_volume 1159.586489
_symmetry_space_group_name_H-M "P 21 21 21"
_symmetry_group_IT_number 19
_symmetry_cell_setting 'orthorhombic'
loop_
_space_group_symop_operation_xyz
x,y,z
1/2-x,-y,1/2+z
1/2+x,1/2-y,-z
-x,1/2+y,1/2-z
loop_
_atom_site_type_symbol
_atom_site_label
_atom_site_fract_x
_atom_site_fract_y
_atom_site_fract_z
Si Si1 0.135423 0.657208 0.068417
Si Si2 0.950982 0.927448 0.949412
Si Si3 0.072974 0.754713 0.796441
Si Si4 0.406099 0.804965 0.707022
Si Si5 0.126681 0.841073 0.210028
Si Si6 0.593920 0.379020 0.101003
O O1 0.264973 0.579242 0.037822
O O2 0.210250 0.757360 0.119589
O O3 0.008046 0.626448 0.188103
O O4 0.044740 0.678306 0.921367
O O5 0.993708 0.853190 0.827873
O O6 0.990396 0.028999 0.889525
O O7 0.038634 0.909985 0.099974
O O8 0.253376 0.773787 0.786605
O O9 0.003076 0.710385 0.652802
O O10 0.503258 0.708884 0.683520
O O11 0.362708 0.858464 0.562780
O O12 0.251754 0.895822 0.305222
#
# Coordination Sequence:
#
# PCOD8157186 Si02
#       6
#     4   4   4   4   4   4
#     4   9  19  43  65  86 122 175 219 258 334 396
#     4  11  23  40  65  96 130 175 224 262 328 406
#     4  11  20  42  67  91 126 182 215 271 341 382
#     4  10  22  40  68  91 126 174 219 279 332 392
#     4   9  21  43  62  90 130 175 213 272 329 391
#     4  12  25  38  65 102 134 169 224 280 326 395
#
# _framework density 20.697033999999999
#
# number of rings (size 3 to 8) (size 9 to 14) (size 15 to 20)
#    1.000    0.667    3.333    1.000    4.667    1.333 
#    0.000    0.000    0.000    0.000    0.000    0.000 
#    0.000    0.000    0.000    0.000    0.000    0.000 
#
# Total GULP energy -297433.281249 kJ/mol
# GULP energy per Si atom -12393.053385 kJ/mol
# Density = 2.064993 g / cm^3
# Si number density = 20.697034 Si / 1000 Ang^3
#
#
#
# Elastic Constant Matrix: (Units=GPa)
#
#
# Indices 1 2 3 4 5 6 
#
# 1 85.8212 5.1578 32.5563 0.0000 0.0000 0.0000
# 2 5.1578 60.1022 19.5029 0.0000 0.0000 0.0000
# 3 32.5563 19.5029 103.8907 0.0000 0.0000 0.0000
# 4 0.0000 0.0000 0.0000 19.0399 0.0000 0.0000
# 5 0.0000 0.0000 0.0000 0.0000 30.4761 0.0000
# 6 0.0000 0.0000 0.0000 0.0000 0.0000 19.6867
#
#
#
# Elastic Compliance Matrix: (Units=1/GPa)
#
#
# Indices 1 2 3 4 5 6 
#
# 1 0.013227 0.000224 -0.004187 0.000000 0.000000 0.000000
# 2 0.000224 0.017721 -0.003397 0.000000 0.000000 0.000000
# 3 -0.004187 -0.003397 0.011575 0.000000 0.000000 0.000000
# 4 0.000000 0.000000 0.000000 0.052521 0.000000 0.000000
# 5 0.000000 0.000000 0.000000 0.000000 0.032813 0.000000
# 6 0.000000 0.000000 0.000000 0.000000 0.000000 0.050796
#
#
# Mechanical properties :
#
#
# Convention : Reuss Voigt Hill
#
# Bulk Modulus (GPa) = 35.96702 40.47203 38.21953
# Shear Modulus (GPa) = 24.67414 26.68035 25.67724
#
# Velocity S-wave (km/s) = 3.45651 3.59429 3.52607
# Velocity P-wave (km/s) = 5.77456 6.06813 5.92316
#
# Compressibility (1/GPa) = 0.02780325
#
# Stress axis : x y z
#
# Youngs Moduli (GPa) = 75.60287 56.42900 86.39140
#
# Poissons Ratio (x) = -0.01261 0.36171
# Poissons Ratio (y) = -0.01690 0.29346
# Poissons Ratio (z) = 0.31654 0.19168
#
# Static dielectric constant tensor:
#      x y z
#    x 3.660070 0.000000 0.000000 
#    y 0.000000 3.327390 0.000000 
#    z 0.000000 0.000000 3.606930 
# 
# 
# High freq. dielectric constant tensor:
#      x y z
#    x 1.815140 0.000000 0.000000 
#    y 0.000000 1.773460 0.000000 
#    z 0.000000 0.000000 1.807520 
# 
# From -- ./inp_files/2798.got.cif
#   From: 2010.03.12/outbox.cif.g09.slc.cpg/sg19_2_cif.got.tgz:2798.got - 2010.04.10 18:59:41.
