data_PCOD8157565
_publ_section_title
;
Structure prediction by ZEFSAII (Michael W. Deem and Ramdas Pophale) SiO2 
 PCOD8157565
Probable space group: P 21 21 21
;
_chemical_formula_sum "Si O2"
_cell_formula_units_Z 32
_cell_length_a 5.202431
_cell_length_b 28.518959
_cell_length_c 9.383559
_cell_angle_alpha 90.000000
_cell_angle_beta 90.000000
_cell_angle_gamma 90.000000
_cell_volume 1392.219097
_symmetry_space_group_name_H-M "P 21 21 21"
_symmetry_group_IT_number 19
_symmetry_cell_setting 'orthorhombic'
loop_
_space_group_symop_operation_xyz
x,y,z
1/2-x,-y,1/2+z
1/2+x,1/2-y,-z
-x,1/2+y,1/2-z
loop_
_atom_site_type_symbol
_atom_site_label
_atom_site_fract_x
_atom_site_fract_y
_atom_site_fract_z
Si Si1 0.167187 0.748175 0.096678
Si Si2 0.341489 0.069404 0.869059
Si Si3 0.469897 0.023402 0.360823
Si Si4 0.774858 0.971654 0.163817
Si Si5 0.608232 0.652495 0.820270
Si Si6 0.913930 0.115367 0.551789
Si Si7 0.674184 0.851015 0.757069
Si Si8 0.826579 0.396298 0.825090
O O1 0.130313 0.791815 0.205785
O O2 0.145072 0.702255 0.192985
O O3 0.945638 0.750055 0.977350
O O4 0.361437 0.070324 0.038698
O O5 0.609473 0.058227 0.793908
O O6 0.271362 0.121732 0.810363
O O7 0.161059 0.026277 0.825478
O O8 0.539268 0.022400 0.527453
O O9 0.311452 0.069889 0.316303
O O10 0.696341 0.020962 0.238132
O O11 0.544267 0.938252 0.104633
O O12 0.314444 0.640901 0.859329
O O13 0.812427 0.642012 0.948081
O O14 0.813332 0.113729 0.390835
O O15 0.431953 0.865798 0.660426
O O16 0.939478 0.859194 0.674068
#
# Coordination Sequence:
#
# PCOD8157565 Si02
#       8
#     4   4   4   4   4   4   4   4
#     4  12  22  40  73 107 139 173 231 293 351 411
#     4  11  27  44  67  96 141 189 234 281 354 420
#     4  12  25  43  70 100 137 188 237 295 342 420
#     4  11  25  41  68  99 136 180 241 285 349 409
#     4  11  22  42  69 103 133 180 223 290 343 411
#     4  11  21  40  68 100 138 169 224 287 343 397
#     4  12  25  44  67 105 141 179 232 289 352 406
#     4  12  29  44  68  98 147 184 230 286 348 416
#
# _framework density 22.984888000000002
#
# number of rings (size 3 to 8) (size 9 to 14) (size 15 to 20)
#    0.000    0.500    5.000    3.000    7.000    1.000 
#    0.000    1.250    0.000    0.000    0.000    0.000 
#    0.000    0.000    0.000    0.000    0.000    0.000 
#
# Total GULP energy -396489.314522 kJ/mol
# GULP energy per Si atom -12390.291079 kJ/mol
# Density = 2.293257 g / cm^3
# Si number density = 22.984888 Si / 1000 Ang^3
#
#
#
# Elastic Constant Matrix: (Units=GPa)
#
#
# Indices 1 2 3 4 5 6 
#
# 1 96.6373 24.0742 8.6390 0.0000 0.0000 0.0000
# 2 24.0742 119.4791 19.3885 0.0000 0.0000 0.0000
# 3 8.6390 19.3885 65.5491 0.0000 0.0000 0.0000
# 4 0.0000 0.0000 0.0000 40.3471 0.0000 0.0000
# 5 0.0000 0.0000 0.0000 0.0000 25.0570 0.0000
# 6 0.0000 0.0000 0.0000 0.0000 0.0000 28.7047
#
#
#
# Elastic Compliance Matrix: (Units=1/GPa)
#
#
# Indices 1 2 3 4 5 6 
#
# 1 0.010938 -0.002069 -0.000829 0.000000 0.000000 0.000000
# 2 -0.002069 0.009183 -0.002444 0.000000 0.000000 0.000000
# 3 -0.000829 -0.002444 0.016088 0.000000 0.000000 0.000000
# 4 0.000000 0.000000 0.000000 0.024785 0.000000 0.000000
# 5 0.000000 0.000000 0.000000 0.000000 0.039909 0.000000
# 6 0.000000 0.000000 0.000000 0.000000 0.000000 0.034838
#
#
# Mechanical properties :
#
#
# Convention : Reuss Voigt Hill
#
# Bulk Modulus (GPa) = 39.17867 42.87431 41.02649
# Shear Modulus (GPa) = 32.27213 34.12602 33.19907
#
# Velocity S-wave (km/s) = 3.75114 3.85738 3.80463
# Velocity P-wave (km/s) = 5.98697 6.20749 6.09823
#
# Compressibility (1/GPa) = 0.02552409
#
# Stress axis : x y z
#
# Youngs Moduli (GPa) = 91.42767 108.89531 62.15887
#
# Poissons Ratio (x) = 0.22533 0.05156
# Poissons Ratio (y) = 0.18919 0.15189
# Poissons Ratio (z) = 0.07583 0.26609
#
# Static dielectric constant tensor:
#      x y z
#    x 4.234220 0.000000 0.000000 
#    y 0.000000 4.409430 0.000000 
#    z 0.000000 0.000000 3.983770 
# 
# 
# High freq. dielectric constant tensor:
#      x y z
#    x 1.915680 0.000000 0.000000 
#    y 0.000000 1.912380 0.000000 
#    z 0.000000 0.000000 1.886600 
# 
# From -- ./inp_files/2520.got.cif
#   From: 2010.03.12/outbox.cif.g09.slc.cpg/sg19_2_cif.got.tgz:2520.got - 2010.04.10 18:59:41.
