data_PCOD8157865
_publ_section_title
;
Structure prediction by ZEFSAII (Michael W. Deem and Ramdas Pophale) SiO2 
 PCOD8157865
Probable space group: P 21 21 21
;
_chemical_formula_sum "Si O2"
_cell_formula_units_Z 32
_cell_length_a 18.711360
_cell_length_b 4.994223
_cell_length_c 15.333072
_cell_angle_alpha 90.000000
_cell_angle_beta 90.000000
_cell_angle_gamma 90.000000
_cell_volume 1432.855714
_symmetry_space_group_name_H-M "P 21 21 21"
_symmetry_group_IT_number 19
_symmetry_cell_setting 'orthorhombic'
loop_
_space_group_symop_operation_xyz
x,y,z
1/2-x,-y,1/2+z
1/2+x,1/2-y,-z
-x,1/2+y,1/2-z
loop_
_atom_site_type_symbol
_atom_site_label
_atom_site_fract_x
_atom_site_fract_y
_atom_site_fract_z
Si Si1 0.270014 0.931514 0.322123
Si Si2 0.657392 0.556166 0.355185
Si Si3 0.993194 0.251461 0.807958
Si Si4 0.181499 0.440096 0.352810
Si Si5 0.548164 0.931095 0.756292
Si Si6 0.287138 0.554853 0.051972
Si Si7 0.893994 0.584251 0.548513
Si Si8 0.877589 0.093752 0.439108
O O1 0.234878 0.643628 0.303023
O O2 0.314401 0.926239 0.411666
O O3 0.323215 0.007910 0.245054
O O4 0.205394 0.140318 0.330866
O O5 0.576806 0.661076 0.360322
O O6 0.661490 0.279097 0.407289
O O7 0.709517 0.776586 0.396020
O O8 0.025465 0.503317 0.755337
O O9 0.051088 0.155377 0.876569
O O10 0.100595 0.477605 0.321234
O O11 0.185582 0.501551 0.454920
O O12 0.508415 0.664437 0.724717
O O13 0.593255 0.865509 0.842436
O O14 0.206404 0.658853 0.058703
O O15 0.915081 0.301124 0.505703
O O16 0.895133 0.797180 0.470794
#
# Coordination Sequence:
#
# PCOD8157865 Si02
#       8
#     4   4   4   4   4   4   4   4
#     4  12  22  45  71 106 136 188 230 292 356 424
#     4  12  26  41  70 102 148 178 224 285 351 429
#     4  12  26  44  66 101 147 190 228 272 351 445
#     4  12  26  47  75 103 141 183 245 297 363 421
#     4  12  28  50  75 105 147 199 244 301 361 440
#     4  12  25  45  70 109 138 178 237 303 359 405
#     4  12  24  43  75 103 142 191 235 291 358 428
#     4  12  25  47  74 107 141 185 251 303 351 426
#
# _framework density 22.333022
#
# number of rings (size 3 to 8) (size 9 to 14) (size 15 to 20)
#    0.000    0.000    3.750    6.750    1.750    3.000 
#    0.000    0.000    0.000    0.000    0.000    0.000 
#    0.000    0.000    0.000    0.000    0.000    0.000 
#
# Total GULP energy -397136.474604 kJ/mol
# GULP energy per Si atom -12410.514831 kJ/mol
# Density = 2.228219 g / cm^3
# Si number density = 22.333022 Si / 1000 Ang^3
#
#
#
# Elastic Constant Matrix: (Units=GPa)
#
#
# Indices 1 2 3 4 5 6 
#
# 1 81.9634 12.4515 46.4248 0.0000 0.0000 0.0000
# 2 12.4515 102.8042 30.8642 0.0000 0.0000 0.0000
# 3 46.4248 30.8642 101.7059 0.0000 0.0000 0.0000
# 4 0.0000 0.0000 0.0000 45.5820 0.0000 0.0000
# 5 0.0000 0.0000 0.0000 0.0000 28.0425 0.0000
# 6 0.0000 0.0000 0.0000 0.0000 0.0000 40.4113
#
#
#
# Elastic Compliance Matrix: (Units=1/GPa)
#
#
# Indices 1 2 3 4 5 6 
#
# 1 0.016463 0.000288 -0.007602 0.000000 0.000000 0.000000
# 2 0.000288 0.010707 -0.003381 0.000000 0.000000 0.000000
# 3 -0.007602 -0.003381 0.014328 0.000000 0.000000 0.000000
# 4 0.000000 0.000000 0.000000 0.021938 0.000000 0.000000
# 5 0.000000 0.000000 0.000000 0.000000 0.035660 0.000000
# 6 0.000000 0.000000 0.000000 0.000000 0.000000 0.024746
#
#
# Mechanical properties :
#
#
# Convention : Reuss Voigt Hill
#
# Bulk Modulus (GPa) = 49.72887 51.77271 50.75079
# Shear Modulus (GPa) = 32.90888 35.92270 34.41579
#
# Velocity S-wave (km/s) = 3.84285 4.01496 3.92985
# Velocity P-wave (km/s) = 6.48115 6.68773 6.58525
#
# Compressibility (1/GPa) = 0.02010904
#
# Stress axis : x y z
#
# Youngs Moduli (GPa) = 60.74367 93.39395 69.79190
#
# Poissons Ratio (x) = -0.02693 0.53056
# Poissons Ratio (y) = -0.01752 0.23596
# Poissons Ratio (z) = 0.46178 0.31576
#
# Static dielectric constant tensor:
#      x y z
#    x 3.902970 0.000000 0.000000 
#    y 0.000000 4.242490 0.000000 
#    z 0.000000 0.000000 4.047680 
# 
# 
# High freq. dielectric constant tensor:
#      x y z
#    x 1.877180 0.000000 0.000000 
#    y 0.000000 1.900250 0.000000 
#    z 0.000000 0.000000 1.887270 
# 
# From -- ./inp_files/6334.got.cif
#   From: 2010.03.12/outbox.cif.g09.slc.cpg/sg19_4_cif.got.tgz:6334.got - 2010.04.10 18:59:41.
