data_PCOD8157259
_publ_section_title
;
Structure prediction by ZEFSAII (Michael W. Deem and Ramdas Pophale) SiO2 
 PCOD8157259
Probable space group: P 21 21 21
;
_chemical_formula_sum "Si O2"
_cell_formula_units_Z 28
_cell_length_a 6.921306
_cell_length_b 12.297048
_cell_length_c 13.453830
_cell_angle_alpha 90.000000
_cell_angle_beta 90.000000
_cell_angle_gamma 90.000000
_cell_volume 1145.077429
_symmetry_space_group_name_H-M "P 21 21 21"
_symmetry_group_IT_number 19
_symmetry_cell_setting 'orthorhombic'
loop_
_space_group_symop_operation_xyz
x,y,z
1/2-x,-y,1/2+z
1/2+x,1/2-y,-z
-x,1/2+y,1/2-z
loop_
_atom_site_type_symbol
_atom_site_label
_atom_site_fract_x
_atom_site_fract_y
_atom_site_fract_z
Si Si1 0.995852 0.601968 0.299008
Si Si2 0.642725 0.207550 0.906336
Si Si3 0.321965 0.458392 0.223641
Si Si4 0.527878 0.165668 0.123598
Si Si5 0.290363 0.967152 0.086203
Si Si6 0.184034 0.927484 0.869909
Si Si7 0.524015 0.274504 0.322582
O O1 0.027796 0.720262 0.353451
O O2 0.912393 0.511991 0.374438
O O3 0.856958 0.605029 0.203853
O O4 0.215341 0.561859 0.275000
O O5 0.815724 0.287002 0.882191
O O6 0.672824 0.087024 0.861020
O O7 0.640408 0.198043 0.024981
O O8 0.532736 0.486789 0.177392
O O9 0.350458 0.356937 0.296836
O O10 0.616452 0.216166 0.224899
O O11 0.478869 0.035034 0.128592
O O12 0.310111 0.841288 0.119260
O O13 0.282198 0.978253 0.967112
O O14 0.063699 0.818005 0.894889
#
# Coordination Sequence:
#
# PCOD8157259 Si02
#       7
#     4   4   4   4   4   4   4
#     4  11  24  46  70 109 142 188 251 298 371 436
#     4  10  23  42  69 110 136 183 252 294 358 447
#     4  11  24  45  74 101 148 191 236 310 364 436
#     4  10  22  42  70 105 139 183 244 300 361 426
#     4  11  25  45  74 103 147 195 237 307 367 448
#     4  12  25  50  70 104 152 192 247 302 371 437
#     4  11  23  48  71 102 150 188 239 309 370 432
#
# _framework density 24.452494999999999
#
# number of rings (size 3 to 8) (size 9 to 14) (size 15 to 20)
#    0.000    1.143    5.714    0.857    8.000    5.714 
#    7.714    0.000    0.000    0.000    0.000    0.000 
#    0.000    0.000    0.000    0.000    0.000    0.000 
#
# Total GULP energy -347016.351074 kJ/mol
# GULP energy per Si atom -12393.441110 kJ/mol
# Density = 2.439684 g / cm^3
# Si number density = 24.452495 Si / 1000 Ang^3
#
#
#
# Elastic Constant Matrix: (Units=GPa)
#
#
# Indices 1 2 3 4 5 6 
#
# 1 66.2687 15.1415 10.1902 0.0000 0.0000 0.0000
# 2 15.1415 105.4495 7.2305 0.0000 0.0000 0.0000
# 3 10.1902 7.2305 101.1864 0.0000 0.0000 0.0000
# 4 0.0000 0.0000 0.0000 35.9179 0.0000 0.0000
# 5 0.0000 0.0000 0.0000 0.0000 27.9487 0.0000
# 6 0.0000 0.0000 0.0000 0.0000 0.0000 32.9030
#
#
#
# Elastic Compliance Matrix: (Units=1/GPa)
#
#
# Indices 1 2 3 4 5 6 
#
# 1 0.015807 -0.002171 -0.001437 0.000000 0.000000 0.000000
# 2 -0.002171 0.009828 -0.000484 0.000000 0.000000 0.000000
# 3 -0.001437 -0.000484 0.010062 0.000000 0.000000 0.000000
# 4 0.000000 0.000000 0.000000 0.027841 0.000000 0.000000
# 5 0.000000 0.000000 0.000000 0.000000 0.035780 0.000000
# 6 0.000000 0.000000 0.000000 0.000000 0.000000 0.030392
#
#
# Mechanical properties :
#
#
# Convention : Reuss Voigt Hill
#
# Bulk Modulus (GPa) = 36.34508 37.55878 36.95193
# Shear Modulus (GPa) = 33.99852 35.37676 34.68764
#
# Velocity S-wave (km/s) = 3.73284 3.80775 3.77048
# Velocity P-wave (km/s) = 5.78572 5.89281 5.83951
#
# Compressibility (1/GPa) = 0.02751404
#
# Stress axis : x y z
#
# Youngs Moduli (GPa) = 63.26273 101.74864 99.38379
#
# Poissons Ratio (x) = 0.22092 0.14279
# Poissons Ratio (y) = 0.13736 0.04806
# Poissons Ratio (z) = 0.09089 0.04921
#
# Static dielectric constant tensor:
#      x y z
#    x 4.319170 0.000000 0.000000 
#    y 0.000000 4.875620 0.000000 
#    z 0.000000 0.000000 4.774840 
# 
# 
# High freq. dielectric constant tensor:
#      x y z
#    x 1.966250 0.000000 0.000000 
#    y 0.000000 1.990740 0.000000 
#    z 0.000000 0.000000 1.965180 
# 
# From -- ./inp_files/4601.got.cif
#   From: 2010.03.12/outbox.cif.g09.slc.cpg/sg19_3_cif.got.tgz:4601.got - 2010.04.10 18:59:41.
