data_PCOD8157852
_publ_section_title
;
Structure prediction by ZEFSAII (Michael W. Deem and Ramdas Pophale) SiO2 
 PCOD8157852
Probable space group: P 21 21 21
;
_chemical_formula_sum "Si O2"
_cell_formula_units_Z 20
_cell_length_a 4.992692
_cell_length_b 16.707767
_cell_length_c 8.128809
_cell_angle_alpha 90.000000
_cell_angle_beta 90.000000
_cell_angle_gamma 90.000000
_cell_volume 678.078703
_symmetry_space_group_name_H-M "P 21 21 21"
_symmetry_group_IT_number 19
_symmetry_cell_setting 'orthorhombic'
loop_
_space_group_symop_operation_xyz
x,y,z
1/2-x,-y,1/2+z
1/2+x,1/2-y,-z
-x,1/2+y,1/2-z
loop_
_atom_site_type_symbol
_atom_site_label
_atom_site_fract_x
_atom_site_fract_y
_atom_site_fract_z
Si Si1 0.389375 0.011598 0.515847
Si Si2 0.750670 0.800805 0.469004
Si Si3 0.353845 0.881700 0.264006
Si Si4 0.091599 0.742127 0.107392
Si Si5 0.727156 0.912248 0.747872
O O1 0.148174 0.065527 0.594108
O O2 0.555907 0.059106 0.379090
O O3 0.271371 0.933485 0.424875
O O4 0.563541 0.987804 0.676930
O O5 0.969311 0.731565 0.449251
O O6 0.648827 0.841488 0.295150
O O7 0.869563 0.867467 0.593812
O O8 0.127765 0.811654 0.247715
O O9 0.024175 0.653590 0.174274
O O10 0.385894 0.733068 0.030116
#
# Coordination Sequence:
#
# PCOD8157852 Si02
#       5
#     4   4   4   4   4
#     4  11  28  50  78 120 167 218 264 341 412 484
#     4  11  26  50  86 120 159 210 276 339 396 476
#     4  11  27  52  80 119 165 214 273 333 408 484
#     4  12  28  50  84 118 160 212 274 336 398 480
#     4  11  27  52  80 119 165 214 273 333 408 484
#
# _framework density 29.495100999999998
#
# number of rings (size 3 to 8) (size 9 to 14) (size 15 to 20)
#    0.000    0.800    4.000    0.000    8.400    6.400 
#    0.000    0.000    0.000    0.000    0.000    0.000 
#    0.000    0.000    0.000    0.000    0.000    0.000 
#
# Total GULP energy -247804.689978 kJ/mol
# GULP energy per Si atom -12390.234499 kJ/mol
# Density = 2.942797 g / cm^3
# Si number density = 29.495101 Si / 1000 Ang^3
#
#
#
# Elastic Constant Matrix: (Units=GPa)
#
#
# Indices 1 2 3 4 5 6 
#
# 1 87.0399 52.3152 45.4346 0.0000 0.0000 0.0000
# 2 52.3152 154.5784 78.7907 0.0000 0.0000 0.0000
# 3 45.4346 78.7907 146.8060 0.0000 0.0000 0.0000
# 4 0.0000 0.0000 0.0000 79.3390 0.0000 0.0000
# 5 0.0000 0.0000 0.0000 0.0000 57.4406 0.0000
# 6 0.0000 0.0000 0.0000 0.0000 0.0000 4.6964
#
#
#
# Elastic Compliance Matrix: (Units=1/GPa)
#
#
# Indices 1 2 3 4 5 6 
#
# 1 0.015144 -0.003767 -0.002665 0.000000 0.000000 0.000000
# 2 -0.003767 0.009842 -0.004117 0.000000 0.000000 0.000000
# 3 -0.002665 -0.004117 0.009846 0.000000 0.000000 0.000000
# 4 0.000000 0.000000 0.000000 0.012604 0.000000 0.000000
# 5 0.000000 0.000000 0.000000 0.000000 0.017409 0.000000
# 6 0.000000 0.000000 0.000000 0.000000 0.000000 0.212928
#
#
# Mechanical properties :
#
#
# Convention : Reuss Voigt Hill
#
# Bulk Modulus (GPa) = 72.80606 82.38947 77.59776
# Shear Modulus (GPa) = 16.47720 42.42079 29.44899
#
# Velocity S-wave (km/s) = 2.36612 3.79652 3.16323
# Velocity P-wave (km/s) = 5.67472 6.87110 6.30136
#
# Compressibility (1/GPa) = 0.01373512
#
# Stress axis : x y z
#
# Youngs Moduli (GPa) = 66.03128 101.60184 101.56459
#
# Poissons Ratio (x) = 0.38272 0.27070
# Poissons Ratio (y) = 0.24873 0.41810
# Poissons Ratio (z) = 0.17599 0.41825
#
# Static dielectric constant tensor:
#      x y z
#    x 4.928510 0.000000 0.000000 
#    y 0.000000 6.092850 0.000000 
#    z 0.000000 0.000000 5.787300 
# 
# 
# High freq. dielectric constant tensor:
#      x y z
#    x 2.171860 0.000000 0.000000 
#    y 0.000000 2.222790 0.000000 
#    z 0.000000 0.000000 2.230000 
# 
# From -- ./inp_files/2367.got.cif
#   From: 2010.03.12/outbox.cif.g09.slc.cpg/sg19_2_cif.got.tgz:2367.got - 2010.04.10 18:59:41.
