data_PCOD8157546
_publ_section_title
;
Structure prediction by ZEFSAII (Michael W. Deem and Ramdas Pophale) SiO2 
 PCOD8157546
Probable space group: P 21 21 21
;
_chemical_formula_sum "Si O2"
_cell_formula_units_Z 24
_cell_length_a 12.387636
_cell_length_b 9.061482
_cell_length_c 9.426061
_cell_angle_alpha 90.000000
_cell_angle_beta 90.000000
_cell_angle_gamma 90.000000
_cell_volume 1058.078558
_symmetry_space_group_name_H-M "P 21 21 21"
_symmetry_group_IT_number 19
_symmetry_cell_setting 'orthorhombic'
loop_
_space_group_symop_operation_xyz
x,y,z
1/2-x,-y,1/2+z
1/2+x,1/2-y,-z
-x,1/2+y,1/2-z
loop_
_atom_site_type_symbol
_atom_site_label
_atom_site_fract_x
_atom_site_fract_y
_atom_site_fract_z
Si Si1 0.258029 0.333886 0.790378
Si Si2 0.671403 0.613402 0.473847
Si Si3 0.870500 0.707326 0.943291
Si Si4 0.091429 0.131747 0.112151
Si Si5 0.468891 0.741928 0.336117
Si Si6 0.422731 0.590077 0.797973
O O1 0.240974 0.256428 0.636242
O O2 0.319843 0.486379 0.768910
O O3 0.137829 0.364183 0.855278
O O4 0.325180 0.224607 0.893491
O O5 0.646847 0.446697 0.526046
O O6 0.780739 0.608891 0.382471
O O7 0.580377 0.658392 0.360610
O O8 0.964955 0.690558 0.823139
O O9 0.906321 0.830143 0.053118
O O10 0.063061 0.293941 0.172053
O O11 0.032221 0.005093 0.201540
O O12 0.045416 0.126496 0.951170
#
# Coordination Sequence:
#
# PCOD8157546 Si02
#       6
#     4   4   4   4   4   4
#     4   9  24  45  69 103 143 182 244 285 358 420
#     4  11  23  46  72 104 143 182 240 298 353 420
#     4  10  27  43  74 104 136 194 239 290 354 434
#     4  11  28  44  72 102 147 186 233 303 361 423
#     4   9  23  43  73  99 141 182 240 290 348 429
#     4  12  27  47  70 106 146 190 236 300 360 434
#
# _framework density 22.682625000000002
#
# number of rings (size 3 to 8) (size 9 to 14) (size 15 to 20)
#    1.000    0.667    1.667    0.000   14.000    1.333 
#    3.000    0.000    0.000    0.000    0.000    0.000 
#    0.000    0.000    0.000    0.000    0.000    0.000 
#
# Total GULP energy -297494.077616 kJ/mol
# GULP energy per Si atom -12395.586567 kJ/mol
# Density = 2.263100 g / cm^3
# Si number density = 22.682625 Si / 1000 Ang^3
#
#
#
# Elastic Constant Matrix: (Units=GPa)
#
#
# Indices 1 2 3 4 5 6 
#
# 1 111.7975 34.8865 1.3178 0.0000 0.0000 0.0000
# 2 34.8865 126.2296 22.3611 0.0000 0.0000 0.0000
# 3 1.3178 22.3611 71.1231 0.0000 0.0000 0.0000
# 4 0.0000 0.0000 0.0000 31.9235 0.0000 0.0000
# 5 0.0000 0.0000 0.0000 0.0000 16.9476 0.0000
# 6 0.0000 0.0000 0.0000 0.0000 0.0000 32.9929
#
#
#
# Elastic Compliance Matrix: (Units=1/GPa)
#
#
# Indices 1 2 3 4 5 6 
#
# 1 0.009823 -0.002841 0.000711 0.000000 0.000000 0.000000
# 2 -0.002841 0.009211 -0.002843 0.000000 0.000000 0.000000
# 3 0.000711 -0.002843 0.014941 0.000000 0.000000 0.000000
# 4 0.000000 0.000000 0.000000 0.031325 0.000000 0.000000
# 5 0.000000 0.000000 0.000000 0.000000 0.059006 0.000000
# 6 0.000000 0.000000 0.000000 0.000000 0.000000 0.030310
#
#
# Mechanical properties :
#
#
# Convention : Reuss Voigt Hill
#
# Bulk Modulus (GPa) = 41.61671 47.36455 44.49063
# Shear Modulus (GPa) = 28.97377 33.07845 31.02611
#
# Velocity S-wave (km/s) = 3.57789 3.82293 3.70244
# Velocity P-wave (km/s) = 5.95446 6.35714 6.15909
#
# Compressibility (1/GPa) = 0.02402881
#
# Stress axis : x y z
#
# Youngs Moduli (GPa) = 101.80385 108.56761 66.93044
#
# Poissons Ratio (x) = 0.30841 -0.04760
# Poissons Ratio (y) = 0.28920 0.19030
# Poissons Ratio (z) = -0.07240 0.30869
#
# Static dielectric constant tensor:
#      x y z
#    x 4.058250 0.000000 0.000000 
#    y 0.000000 3.849760 0.000000 
#    z 0.000000 0.000000 3.930910 
# 
# 
# High freq. dielectric constant tensor:
#      x y z
#    x 1.898260 0.000000 0.000000 
#    y 0.000000 1.882440 0.000000 
#    z 0.000000 0.000000 1.891310 
# 
# From -- ./inp_files/4918.got.cif
#   From: 2010.03.12/outbox.cif.g09.slc.cpg/sg19_3_cif.got.tgz:4918.got - 2010.04.10 18:59:41.
