data_PCOD8157943
_publ_section_title
;
Structure prediction by ZEFSAII (Michael W. Deem and Ramdas Pophale) SiO2 
 PCOD8157943
Probable space group: P 21 21 21
;
_chemical_formula_sum "Si O2"
_cell_formula_units_Z 16
_cell_length_a 12.272944
_cell_length_b 9.061474
_cell_length_c 5.278185
_cell_angle_alpha 90.000000
_cell_angle_beta 90.000000
_cell_angle_gamma 90.000000
_cell_volume 586.992037
_symmetry_space_group_name_H-M "P 21 21 21"
_symmetry_group_IT_number 19
_symmetry_cell_setting 'orthorhombic'
loop_
_space_group_symop_operation_xyz
x,y,z
1/2-x,-y,1/2+z
1/2+x,1/2-y,-z
-x,1/2+y,1/2-z
loop_
_atom_site_type_symbol
_atom_site_label
_atom_site_fract_x
_atom_site_fract_y
_atom_site_fract_z
Si Si1 0.903347 0.089432 0.241757
Si Si2 0.996433 0.826562 0.933674
Si Si3 0.769838 0.408396 0.725276
Si Si4 0.823894 0.825742 0.537845
O O1 0.797621 0.174744 0.146118
O O2 0.988653 0.212809 0.333787
O O3 0.864936 0.989524 0.477439
O O4 0.959570 0.987489 0.031100
O O5 0.907092 0.757693 0.742776
O O6 0.108645 0.843547 0.781091
O O7 0.736779 0.475297 0.455577
O O8 0.683812 0.276360 0.786046
#
# Coordination Sequence:
#
# PCOD8157943 Si02
#       4
#     4   4   4   4
#     4  12  29  55  87 126 179 239 303 372 449 546
#     4  12  32  53  88 128 177 244 297 371 463 529
#     4  12  32  56  87 135 180 232 303 375 443 546
#     4  12  29  54  84 127 178 231 303 372 457 531
#
# _framework density 27.25761
#
# number of rings (size 3 to 8) (size 9 to 14) (size 15 to 20)
#    0.000    0.000    2.500    3.000   17.500    0.000 
#    0.000    0.000    0.000    0.000    0.000    0.000 
#    0.000    0.000    0.000    0.000    0.000    0.000 
#
# Total GULP energy -198526.199053 kJ/mol
# GULP energy per Si atom -12407.887441 kJ/mol
# Density = 2.719557 g / cm^3
# Si number density = 27.257610 Si / 1000 Ang^3
#
#
#
# Elastic Constant Matrix: (Units=GPa)
#
#
# Indices 1 2 3 4 5 6 
#
# 1 162.0611 39.9119 44.3038 0.0000 0.0000 0.0000
# 2 39.9119 89.1143 7.6790 0.0000 0.0000 0.0000
# 3 44.3038 7.6790 88.9103 0.0000 0.0000 0.0000
# 4 0.0000 0.0000 0.0000 59.1943 0.0000 0.0000
# 5 0.0000 0.0000 0.0000 0.0000 61.5714 0.0000
# 6 0.0000 0.0000 0.0000 0.0000 0.0000 23.2528
#
#
#
# Elastic Compliance Matrix: (Units=1/GPa)
#
#
# Indices 1 2 3 4 5 6 
#
# 1 0.007983 -0.003257 -0.003697 0.000000 0.000000 0.000000
# 2 -0.003257 0.012634 0.000532 0.000000 0.000000 0.000000
# 3 -0.003697 0.000532 0.013043 0.000000 0.000000 0.000000
# 4 0.000000 0.000000 0.000000 0.016894 0.000000 0.000000
# 5 0.000000 0.000000 0.000000 0.000000 0.016241 0.000000
# 6 0.000000 0.000000 0.000000 0.000000 0.000000 0.043006
#
#
# Mechanical properties :
#
#
# Convention : Reuss Voigt Hill
#
# Bulk Modulus (GPa) = 48.03721 58.20834 53.12278
# Shear Modulus (GPa) = 38.58486 45.34975 41.96730
#
# Velocity S-wave (km/s) = 3.76648 4.08333 3.92810
# Velocity P-wave (km/s) = 6.04788 6.60551 6.33283
#
# Compressibility (1/GPa) = 0.02081720
#
# Stress axis : x y z
#
# Youngs Moduli (GPa) = 125.26274 79.14892 76.66687
#
# Poissons Ratio (x) = 0.25778 0.28342
# Poissons Ratio (y) = 0.40797 -0.04076
# Poissons Ratio (z) = 0.46306 -0.04208
#
# Static dielectric constant tensor:
#      x y z
#    x 5.086330 0.000000 0.000000 
#    y 0.000000 4.954170 0.000000 
#    z 0.000000 0.000000 4.918870 
# 
# 
# High freq. dielectric constant tensor:
#      x y z
#    x 2.122850 0.000000 0.000000 
#    y 0.000000 2.102450 0.000000 
#    z 0.000000 0.000000 2.104830 
# 
# From -- ./inp_files/285.got.cif
#   From: 2010.03.12/outbox.cif.g09.slc.cpg/sg19_1_cif.got.tgz:285.got - 2010.04.10 18:59:41.
