data_PCOD8157528
_publ_section_title
;
Structure prediction by ZEFSAII (Michael W. Deem and Ramdas Pophale) SiO2 
 PCOD8157528
Probable space group: P 21 21 21
;
_chemical_formula_sum "Si O2"
_cell_formula_units_Z 24
_cell_length_a 8.924402
_cell_length_b 10.400401
_cell_length_c 10.575431
_cell_angle_alpha 90.000000
_cell_angle_beta 90.000000
_cell_angle_gamma 90.000000
_cell_volume 981.583581
_symmetry_space_group_name_H-M "P 21 21 21"
_symmetry_group_IT_number 19
_symmetry_cell_setting 'orthorhombic'
loop_
_space_group_symop_operation_xyz
x,y,z
1/2-x,-y,1/2+z
1/2+x,1/2-y,-z
-x,1/2+y,1/2-z
loop_
_atom_site_type_symbol
_atom_site_label
_atom_site_fract_x
_atom_site_fract_y
_atom_site_fract_z
Si Si1 0.795417 0.542220 0.908548
Si Si2 0.998290 0.570630 0.126558
Si Si3 0.676771 0.743841 0.356843
Si Si4 0.167790 0.303664 0.901589
Si Si5 0.615476 0.916576 0.135426
Si Si6 0.579137 0.677800 0.751944
O O1 0.758001 0.399835 0.858177
O O2 0.649812 0.628687 0.884159
O O3 0.939279 0.591772 0.827865
O O4 0.836730 0.550714 0.057425
O O5 0.987051 0.691432 0.222490
O O6 0.028260 0.435414 0.198853
O O7 0.126206 0.598369 0.018798
O O8 0.503417 0.745563 0.402367
O O9 0.779476 0.824619 0.453637
O O10 0.698272 0.807378 0.217219
O O11 0.178718 0.441354 0.829582
O O12 0.281590 0.202642 0.840931
#
# Coordination Sequence:
#
# PCOD8157528 Si02
#       6
#     4   4   4   4   4   4
#     4   9  22  44  70 100 141 191 241 301 375 424
#     4  10  25  47  68 110 142 190 254 294 371 448
#     4  11  22  45  75 103 150 194 244 311 370 443
#     4  11  22  42  74 106 143 195 243 300 379 439
#     4   9  22  44  69 106 141 184 247 292 365 452
#     4  12  23  48  72  99 153 188 249 314 360 448
#
# _framework density 24.450285999999998
#
# number of rings (size 3 to 8) (size 9 to 14) (size 15 to 20)
#    1.000    0.667    3.333    0.000    2.333    4.000 
#    3.000    5.000    0.000    0.000    0.000    0.000 
#    0.000    0.000    0.000    0.000    0.000    0.000 
#
# Total GULP energy -297325.517693 kJ/mol
# GULP energy per Si atom -12388.563237 kJ/mol
# Density = 2.439464 g / cm^3
# Si number density = 24.450286 Si / 1000 Ang^3
#
#
#
# Elastic Constant Matrix: (Units=GPa)
#
#
# Indices 1 2 3 4 5 6 
#
# 1 40.3158 34.2841 4.8248 0.0000 0.0000 0.0000
# 2 34.2841 157.5545 54.5612 0.0000 0.0000 0.0000
# 3 4.8248 54.5612 86.6471 0.0000 0.0000 0.0000
# 4 0.0000 0.0000 0.0000 43.9388 0.0000 0.0000
# 5 0.0000 0.0000 0.0000 0.0000 17.7110 0.0000
# 6 0.0000 0.0000 0.0000 0.0000 0.0000 40.0324
#
#
#
# Elastic Compliance Matrix: (Units=1/GPa)
#
#
# Indices 1 2 3 4 5 6 
#
# 1 0.031131 -0.007896 0.003238 0.000000 0.000000 0.000000
# 2 -0.007896 0.010120 -0.005933 0.000000 0.000000 0.000000
# 3 0.003238 -0.005933 0.015096 0.000000 0.000000 0.000000
# 4 0.000000 0.000000 0.000000 0.022759 0.000000 0.000000
# 5 0.000000 0.000000 0.000000 0.000000 0.056462 0.000000
# 6 0.000000 0.000000 0.000000 0.000000 0.000000 0.024980
#
#
# Mechanical properties :
#
#
# Convention : Reuss Voigt Hill
#
# Bulk Modulus (GPa) = 28.43552 52.42861 40.43206
# Shear Modulus (GPa) = 25.84653 33.05962 29.45307
#
# Velocity S-wave (km/s) = 3.25484 3.68110 3.47452
# Velocity P-wave (km/s) = 5.07745 6.28942 5.71565
#
# Compressibility (1/GPa) = 0.03516729
#
# Stress axis : x y z
#
# Youngs Moduli (GPa) = 32.12242 98.81868 66.24075
#
# Poissons Ratio (x) = 0.78023 -0.21451
# Poissons Ratio (y) = 0.25362 0.39298
# Poissons Ratio (z) = -0.10402 0.58625
#
# Static dielectric constant tensor:
#      x y z
#    x 3.988790 0.000000 0.000000 
#    y 0.000000 4.212530 0.000000 
#    z 0.000000 0.000000 4.166400 
# 
# 
# High freq. dielectric constant tensor:
#      x y z
#    x 1.953890 0.000000 0.000000 
#    y 0.000000 1.975240 0.000000 
#    z 0.000000 0.000000 1.958160 
# 
# From -- ./inp_files/4931.got.cif
#   From: 2010.03.12/outbox.cif.g09.slc.cpg/sg19_3_cif.got.tgz:4931.got - 2010.04.10 18:59:41.
