data_PCOD8157797
_publ_section_title
;
Structure prediction by ZEFSAII (Michael W. Deem and Ramdas Pophale) SiO2 
 PCOD8157797
Probable space group: P 21 21 21
;
_chemical_formula_sum "Si O2"
_cell_formula_units_Z 28
_cell_length_a 5.552194
_cell_length_b 21.810478
_cell_length_c 8.946491
_cell_angle_alpha 90.000000
_cell_angle_beta 90.000000
_cell_angle_gamma 90.000000
_cell_volume 1083.384320
_symmetry_space_group_name_H-M "P 21 21 21"
_symmetry_group_IT_number 19
_symmetry_cell_setting 'orthorhombic'
loop_
_space_group_symop_operation_xyz
x,y,z
1/2-x,-y,1/2+z
1/2+x,1/2-y,-z
-x,1/2+y,1/2-z
loop_
_atom_site_type_symbol
_atom_site_label
_atom_site_fract_x
_atom_site_fract_y
_atom_site_fract_z
Si Si1 0.980079 0.368745 0.281000
Si Si2 0.357800 0.342959 0.530167
Si Si3 0.679155 0.729606 0.428278
Si Si4 0.122588 0.233279 0.675399
Si Si5 0.426356 0.097187 0.042335
Si Si6 0.925200 0.483996 0.438921
Si Si7 0.748821 0.049024 0.288450
O O1 0.823840 0.307663 0.239783
O O2 0.824619 0.417404 0.384355
O O3 0.217970 0.355687 0.375725
O O4 0.048866 0.397736 0.120696
O O5 0.587853 0.302574 0.482219
O O6 0.424145 0.406740 0.612405
O O7 0.206681 0.302146 0.646022
O O8 0.413161 0.736747 0.507269
O O9 0.627947 0.760492 0.267069
O O10 0.737104 0.656853 0.420715
O O11 0.279221 0.034188 0.048068
O O12 0.628089 0.093628 0.167848
O O13 0.057277 0.481952 0.599298
O O14 0.105414 0.498399 0.301362
#
# Coordination Sequence:
#
# PCOD8157797 Si02
#       7
#     4   4   4   4   4   4   4
#     4  11  25  47  70 108 143 205 249 321 384 472
#     4  11  25  43  72 105 147 201 251 315 389 463
#     4  12  28  49  79 120 161 210 267 327 401 474
#     4  12  24  44  75 106 156 196 262 318 397 468
#     4  12  25  45  77 106 153 195 264 320 397 461
#     4  11  27  47  75 106 151 199 262 322 400 472
#     4  11  26  47  72 109 147 204 257 329 392 480
#
# _framework density 25.844937000000002
#
# number of rings (size 3 to 8) (size 9 to 14) (size 15 to 20)
#    0.000    0.571    4.286    2.571    2.000   10.286 
#    0.000    0.000    0.000    0.000    0.000    0.000 
#    0.000    0.000    0.000    0.000    0.000    0.000 
#
# Total GULP energy -347052.169655 kJ/mol
# GULP energy per Si atom -12394.720345 kJ/mol
# Density = 2.578611 g / cm^3
# Si number density = 25.844937 Si / 1000 Ang^3
#
#
#
# Elastic Constant Matrix: (Units=GPa)
#
#
# Indices 1 2 3 4 5 6 
#
# 1 35.2316 -9.7017 12.5536 0.0000 0.0000 0.0000
# 2 -9.7017 91.5233 26.5803 0.0000 0.0000 0.0000
# 3 12.5536 26.5803 130.2191 0.0000 0.0000 0.0000
# 4 0.0000 0.0000 0.0000 47.6028 0.0000 0.0000
# 5 0.0000 0.0000 0.0000 0.0000 38.7625 0.0000
# 6 0.0000 0.0000 0.0000 0.0000 0.0000 32.9941
#
#
#
# Elastic Compliance Matrix: (Units=1/GPa)
#
#
# Indices 1 2 3 4 5 6 
#
# 1 0.030984 0.004414 -0.003888 0.000000 0.000000 0.000000
# 2 0.004414 0.012243 -0.002925 0.000000 0.000000 0.000000
# 3 -0.003888 -0.002925 0.008651 0.000000 0.000000 0.000000
# 4 0.000000 0.000000 0.000000 0.021007 0.000000 0.000000
# 5 0.000000 0.000000 0.000000 0.000000 0.025798 0.000000
# 6 0.000000 0.000000 0.000000 0.000000 0.000000 0.030308
#
#
# Mechanical properties :
#
#
# Convention : Reuss Voigt Hill
#
# Bulk Modulus (GPa) = 21.24002 35.09314 28.16658
# Shear Modulus (GPa) = 33.44839 39.04135 36.24487
#
# Velocity S-wave (km/s) = 3.60139 3.89086 3.74892
# Velocity P-wave (km/s) = 5.05267 5.81316 5.44621
#
# Compressibility (1/GPa) = 0.04708093
#
# Stress axis : x y z
#
# Youngs Moduli (GPa) = 32.27443 81.67674 115.59170
#
# Poissons Ratio (x) = -0.36048 0.44941
# Poissons Ratio (y) = -0.14244 0.33806
# Poissons Ratio (z) = 0.12548 0.23887
#
# Static dielectric constant tensor:
#      x y z
#    x 4.199730 0.000000 0.000000 
#    y 0.000000 5.036050 0.000000 
#    z 0.000000 0.000000 5.030820 
# 
# 
# High freq. dielectric constant tensor:
#      x y z
#    x 1.994020 0.000000 0.000000 
#    y 0.000000 2.061210 0.000000 
#    z 0.000000 0.000000 2.060420 
# 
# From -- ./inp_files/2132.got.cif
#   From: 2010.03.12/outbox.cif.g09.slc.cpg/sg19_2_cif.got.tgz:2132.got - 2010.04.10 18:59:41.
