data_PCOD8157909
_publ_section_title
;
Structure prediction by ZEFSAII (Michael W. Deem and Ramdas Pophale) SiO2 
 PCOD8157909
Probable space group: P 21 21 21
;
_chemical_formula_sum "Si O2"
_cell_formula_units_Z 24
_cell_length_a 8.053960
_cell_length_b 13.867864
_cell_length_c 9.022310
_cell_angle_alpha 90.000000
_cell_angle_beta 90.000000
_cell_angle_gamma 90.000000
_cell_volume 1007.712829
_symmetry_space_group_name_H-M "P 21 21 21"
_symmetry_group_IT_number 19
_symmetry_cell_setting 'orthorhombic'
loop_
_space_group_symop_operation_xyz
x,y,z
1/2-x,-y,1/2+z
1/2+x,1/2-y,-z
-x,1/2+y,1/2-z
loop_
_atom_site_type_symbol
_atom_site_label
_atom_site_fract_x
_atom_site_fract_y
_atom_site_fract_z
Si Si1 0.724863 0.460639 0.606150
Si Si2 0.338877 0.877928 0.574546
Si Si3 0.462026 0.165989 0.567542
Si Si4 0.748201 0.834848 0.831079
Si Si5 0.397034 0.539193 0.662654
Si Si6 0.702211 0.808530 0.523181
O O1 0.843669 0.551772 0.568843
O O2 0.713413 0.437917 0.780257
O O3 0.792868 0.371278 0.510876
O O4 0.542298 0.498166 0.554586
O O5 0.518956 0.830265 0.584494
O O6 0.202925 0.793148 0.561299
O O7 0.609920 0.173471 0.451578
O O8 0.416311 0.273572 0.622017
O O9 0.520589 0.094561 0.698038
O O10 0.813308 0.794439 0.672692
O O11 0.705579 0.945380 0.789846
O O12 0.271069 0.608116 0.579802
#
# Coordination Sequence:
#
# PCOD8157909 Si02
#       6
#     4   4   4   4   4   4
#     4  12  25  50  76 112 156 203 256 322 381 465
#     4  12  27  51  77 113 157 204 262 316 395 456
#     4  12  28  47  78 114 155 206 259 321 389 461
#     4  12  26  48  73 112 153 204 256 322 386 463
#     4  12  26  50  76 108 156 201 263 319 382 462
#     4  12  28  50  78 113 153 208 258 324 383 467
#
# _framework density 23.816309
#
# number of rings (size 3 to 8) (size 9 to 14) (size 15 to 20)
#    0.000    0.000    3.333    6.000    7.000    0.000 
#    3.000    0.000    0.000    0.000    0.000    0.000 
#    0.000    0.000    0.000    0.000    0.000    0.000 
#
# Total GULP energy -297495.100663 kJ/mol
# GULP energy per Si atom -12395.629194 kJ/mol
# Density = 2.376210 g / cm^3
# Si number density = 23.816309 Si / 1000 Ang^3
#
#
#
# Elastic Constant Matrix: (Units=GPa)
#
#
# Indices 1 2 3 4 5 6 
#
# 1 64.5796 26.4022 48.7426 0.0000 0.0000 0.0000
# 2 26.4022 156.5692 60.5245 0.0000 0.0000 0.0000
# 3 48.7426 60.5245 112.3779 0.0000 0.0000 0.0000
# 4 0.0000 0.0000 0.0000 36.1961 0.0000 0.0000
# 5 0.0000 0.0000 0.0000 0.0000 40.3615 0.0000
# 6 0.0000 0.0000 0.0000 0.0000 0.0000 43.8088
#
#
#
# Elastic Compliance Matrix: (Units=1/GPa)
#
#
# Indices 1 2 3 4 5 6 
#
# 1 0.023021 -0.000028 -0.009970 0.000000 0.000000 0.000000
# 2 -0.000028 0.008066 -0.004332 0.000000 0.000000 0.000000
# 3 -0.009970 -0.004332 0.015556 0.000000 0.000000 0.000000
# 4 0.000000 0.000000 0.000000 0.027627 0.000000 0.000000
# 5 0.000000 0.000000 0.000000 0.000000 0.024776 0.000000
# 6 0.000000 0.000000 0.000000 0.000000 0.000000 0.022826
#
#
# Mechanical properties :
#
#
# Convention : Reuss Voigt Hill
#
# Bulk Modulus (GPa) = 55.60746 67.20726 61.40736
# Shear Modulus (GPa) = 31.94296 37.26378 34.60337
#
# Velocity S-wave (km/s) = 3.66624 3.95984 3.81586
# Velocity P-wave (km/s) = 6.42814 7.01337 6.72712
#
# Compressibility (1/GPa) = 0.01798320
#
# Stress axis : x y z
#
# Youngs Moduli (GPa) = 43.43794 123.97133 64.28271
#
# Poissons Ratio (x) = 0.00346 0.64091
# Poissons Ratio (y) = 0.00121 0.27849
# Poissons Ratio (z) = 0.43308 0.53708
#
# Static dielectric constant tensor:
#      x y z
#    x 4.311340 0.000000 0.000000 
#    y 0.000000 4.643820 0.000000 
#    z 0.000000 0.000000 4.355980 
# 
# 
# High freq. dielectric constant tensor:
#      x y z
#    x 1.938420 0.000000 0.000000 
#    y 0.000000 1.970880 0.000000 
#    z 0.000000 0.000000 1.946520 
# 
# From -- ./inp_files/2779.got.cif
#   From: 2010.03.12/outbox.cif.g09.slc.cpg/sg19_2_cif.got.tgz:2779.got - 2010.04.10 18:59:41.
