data_PCOD8157001
_publ_section_title
;
Structure prediction by ZEFSAII (Michael W. Deem and Ramdas Pophale) SiO2 
 PCOD8157001
Probable space group: P 21 21 21
;
_chemical_formula_sum "Si O2"
_cell_formula_units_Z 32
_cell_length_a 8.345411
_cell_length_b 12.465850
_cell_length_c 15.495524
_cell_angle_alpha 90.000000
_cell_angle_beta 90.000000
_cell_angle_gamma 90.000000
_cell_volume 1612.040296
_symmetry_space_group_name_H-M "P 21 21 21"
_symmetry_group_IT_number 19
_symmetry_cell_setting 'orthorhombic'
loop_
_space_group_symop_operation_xyz
x,y,z
1/2-x,-y,1/2+z
1/2+x,1/2-y,-z
-x,1/2+y,1/2-z
loop_
_atom_site_type_symbol
_atom_site_label
_atom_site_fract_x
_atom_site_fract_y
_atom_site_fract_z
Si Si1 0.320943 0.316188 0.093838
Si Si2 0.610274 0.528281 0.620640
Si Si3 0.060197 0.765296 0.918469
Si Si4 0.395753 0.645601 0.749638
Si Si5 0.065998 0.208921 0.400360
Si Si6 0.597579 0.952710 0.166425
Si Si7 0.479275 0.010870 0.347804
Si Si8 0.948649 0.860620 0.533747
O O1 0.211813 0.292657 0.177961
O O2 0.397328 0.434318 0.102010
O O3 0.462296 0.229257 0.090512
O O4 0.212503 0.312003 0.008108
O O5 0.539005 0.578272 0.707825
O O6 0.519355 0.415414 0.607372
O O7 0.799773 0.517606 0.625233
O O8 0.571504 0.602870 0.539708
O O9 0.246982 0.780888 0.912791
O O10 0.011898 0.655536 0.869498
O O11 0.974182 0.867099 0.873439
O O12 0.020969 0.763347 0.019351
O O13 0.482372 0.731331 0.811864
O O14 0.280682 0.567907 0.805132
O O15 0.492378 0.996316 0.245338
O O16 0.602726 0.040855 0.092591
#
# Coordination Sequence:
#
# PCOD8157001 Si02
#       8
#     4   4   4   4   4   4   4   4
#     4  10  23  41  62  88 125 163 205 256 305 365
#     4  10  21  42  58  92 121 161 201 255 307 361
#     4  10  22  38  63  89 122 158 205 250 306 358
#     4   9  22  41  60  87 124 162 203 250 305 363
#     4  10  21  39  61  89 121 158 202 254 299 365
#     4  10  22  39  62  89 118 166 198 252 308 364
#     4  10  23  39  62  91 126 157 205 252 306 369
#     4  11  22  41  64  87 123 163 207 253 306 373
#
# _framework density 19.850621
#
# number of rings (size 3 to 8) (size 9 to 14) (size 15 to 20)
#    0.000    2.000    1.250    0.750   10.500    2.000 
#    6.750    0.000    0.000    0.000    0.000    0.000 
#    0.000    0.000    0.000    0.000    0.000    0.000 
#
# Total GULP energy -396868.535241 kJ/mol
# GULP energy per Si atom -12402.141726 kJ/mol
# Density = 1.980544 g / cm^3
# Si number density = 19.850621 Si / 1000 Ang^3
#
#
#
# Elastic Constant Matrix: (Units=GPa)
#
#
# Indices 1 2 3 4 5 6 
#
# 1 31.5671 12.6309 20.3611 0.0000 0.0000 0.0000
# 2 12.6309 117.0170 54.8272 0.0000 0.0000 0.0000
# 3 20.3611 54.8272 112.6944 0.0000 0.0000 0.0000
# 4 0.0000 0.0000 0.0000 39.8534 0.0000 0.0000
# 5 0.0000 0.0000 0.0000 0.0000 30.9421 0.0000
# 6 0.0000 0.0000 0.0000 0.0000 0.0000 39.6442
#
#
#
# Elastic Compliance Matrix: (Units=1/GPa)
#
#
# Indices 1 2 3 4 5 6 
#
# 1 0.035963 -0.001085 -0.005970 0.000000 0.000000 0.000000
# 2 -0.001085 0.011102 -0.005205 0.000000 0.000000 0.000000
# 3 -0.005970 -0.005205 0.012485 0.000000 0.000000 0.000000
# 4 0.000000 0.000000 0.000000 0.025092 0.000000 0.000000
# 5 0.000000 0.000000 0.000000 0.000000 0.032318 0.000000
# 6 0.000000 0.000000 0.000000 0.000000 0.000000 0.025224
#
#
# Mechanical properties :
#
#
# Convention : Reuss Voigt Hill
#
# Bulk Modulus (GPa) = 28.54705 48.54633 38.54669
# Shear Modulus (GPa) = 28.02996 33.65188 30.84092
#
# Velocity S-wave (km/s) = 3.76179 4.12182 3.94591
# Velocity P-wave (km/s) = 5.76891 6.86742 6.34199
#
# Compressibility (1/GPa) = 0.03502989
#
# Stress axis : x y z
#
# Youngs Moduli (GPa) = 27.80612 90.07660 80.09907
#
# Poissons Ratio (x) = 0.09771 0.47819
# Poissons Ratio (y) = 0.03016 0.41692
# Poissons Ratio (z) = 0.16600 0.46886
#
# Static dielectric constant tensor:
#      x y z
#    x 3.418610 0.000000 0.000000 
#    y 0.000000 3.886730 0.000000 
#    z 0.000000 0.000000 3.587830 
# 
# 
# High freq. dielectric constant tensor:
#      x y z
#    x 1.763970 0.000000 0.000000 
#    y 0.000000 1.779900 0.000000 
#    z 0.000000 0.000000 1.783580 
# 
# From -- ./inp_files/3933.got.cif
#   From: 2010.03.12/outbox.cif.g09.slc.cpg/sg19_2_cif.got.tgz:3933.got - 2010.04.10 18:59:41.
