data_PCOD8157735
_publ_section_title
;
Structure prediction by ZEFSAII (Michael W. Deem and Ramdas Pophale) SiO2 
 PCOD8157735
Probable space group: P 21 21 21
;
_chemical_formula_sum "Si O2"
_cell_formula_units_Z 24
_cell_length_a 6.873472
_cell_length_b 12.919093
_cell_length_c 12.919223
_cell_angle_alpha 90.000000
_cell_angle_beta 90.000000
_cell_angle_gamma 90.000000
_cell_volume 1147.214393
_symmetry_space_group_name_H-M "P 21 21 21"
_symmetry_group_IT_number 19
_symmetry_cell_setting 'orthorhombic'
loop_
_space_group_symop_operation_xyz
x,y,z
1/2-x,-y,1/2+z
1/2+x,1/2-y,-z
-x,1/2+y,1/2-z
loop_
_atom_site_type_symbol
_atom_site_label
_atom_site_fract_x
_atom_site_fract_y
_atom_site_fract_z
Si Si1 0.394379 0.491274 0.578018
Si Si2 0.355627 0.328018 0.741278
Si Si3 0.967775 0.724916 0.646870
Si Si4 0.904433 0.006214 0.096102
Si Si5 0.217781 0.896874 0.525087
Si Si6 0.654439 0.153900 0.756220
O O1 0.375003 0.376604 0.626607
O O2 0.196334 0.516320 0.515816
O O3 0.583748 0.505503 0.507311
O O4 0.446260 0.574206 0.666246
O O5 0.303733 0.416249 0.824205
O O6 0.553674 0.265820 0.766328
O O7 0.166267 0.257305 0.755509
O O8 0.083860 0.815731 0.587103
O O9 0.122525 0.655146 0.707611
O O10 0.833866 0.662904 0.565720
O O11 0.874997 0.889344 0.139349
O O12 0.127468 0.042383 0.094855
#
# Coordination Sequence:
#
# PCOD8157735 Si02
#       6
#     4   4   4   4   4   4
#     4  11  24  44  67  99 130 168 220 269 323 387
#     4  11  24  44  67  99 130 168 220 269 323 387
#     4  12  22  40  74  96 126 172 224 270 318 378
#     4  11  24  44  67  99 130 168 220 269 323 387
#     4  12  22  40  74  96 126 172 224 270 318 378
#     4  11  24  44  67  99 130 168 220 269 323 387
#
# _framework density 20.920238999999999
#
# number of rings (size 3 to 8) (size 9 to 14) (size 15 to 20)
#    0.000    0.667    6.667    2.000    0.000    2.667 
#    6.000    0.000    0.000    0.000    0.000    0.000 
#    0.000    0.000    0.000    0.000    0.000    0.000 
#
# Total GULP energy -297436.487628 kJ/mol
# GULP energy per Si atom -12393.186984 kJ/mol
# Density = 2.087262 g / cm^3
# Si number density = 20.920239 Si / 1000 Ang^3
#
#
#
# Elastic Constant Matrix: (Units=GPa)
#
#
# Indices 1 2 3 4 5 6 
#
# 1 113.1104 31.0599 31.0652 0.0000 0.0000 0.0000
# 2 31.0599 74.4228 38.9815 0.0000 0.0000 0.0000
# 3 31.0652 38.9815 74.4359 0.0000 0.0000 0.0000
# 4 0.0000 0.0000 0.0000 36.4966 0.0000 0.0000
# 5 0.0000 0.0000 0.0000 0.0000 28.5910 0.0000
# 6 0.0000 0.0000 0.0000 0.0000 0.0000 28.5893
#
#
#
# Elastic Compliance Matrix: (Units=1/GPa)
#
#
# Indices 1 2 3 4 5 6 
#
# 1 0.010406 -0.002850 -0.002851 0.000000 0.000000 0.000000
# 2 -0.002850 0.019296 -0.008916 0.000000 0.000000 0.000000
# 3 -0.002851 -0.008916 0.019293 0.000000 0.000000 0.000000
# 4 0.000000 0.000000 0.000000 0.027400 0.000000 0.000000
# 5 0.000000 0.000000 0.000000 0.000000 0.034976 0.000000
# 6 0.000000 0.000000 0.000000 0.000000 0.000000 0.034978
#
#
# Mechanical properties :
#
#
# Convention : Reuss Voigt Hill
#
# Bulk Modulus (GPa) = 50.59941 51.57577 51.08759
# Shear Modulus (GPa) = 27.44689 29.45954 28.45321
#
# Velocity S-wave (km/s) = 3.62605 3.75665 3.69193
# Velocity P-wave (km/s) = 6.46300 6.59724 6.53046
#
# Compressibility (1/GPa) = 0.01976308
#
# Stress axis : x y z
#
# Youngs Moduli (GPa) = 96.09468 51.82385 51.83186
#
# Poissons Ratio (x) = 0.14770 0.14775
# Poissons Ratio (y) = 0.27387 0.46212
# Poissons Ratio (z) = 0.27392 0.46205
#
# Static dielectric constant tensor:
#      x y z
#    x 3.850010 0.000000 0.000000 
#    y 0.000000 3.785470 0.000000 
#    z 0.000000 0.000000 3.785490 
# 
# 
# High freq. dielectric constant tensor:
#      x y z
#    x 1.831520 0.000000 0.000000 
#    y 0.000000 1.807000 0.000000 
#    z 0.000000 0.000000 1.807000 
# 
# From -- ./inp_files/1433.got.cif
#   From: 2010.03.12/outbox.cif.g09.slc.cpg/sg19_1_cif.got.tgz:1433.got - 2010.04.10 18:59:41.
