data_PCOD8157726
_publ_section_title
;
Structure prediction by ZEFSAII (Michael W. Deem and Ramdas Pophale) SiO2 
 PCOD8157726
Probable space group: P 21 21 21
;
_chemical_formula_sum "Si O2"
_cell_formula_units_Z 20
_cell_length_a 17.357961
_cell_length_b 9.694343
_cell_length_c 5.032954
_cell_angle_alpha 90.000000
_cell_angle_beta 90.000000
_cell_angle_gamma 90.000000
_cell_volume 846.915441
_symmetry_space_group_name_H-M "P 21 21 21"
_symmetry_group_IT_number 19
_symmetry_cell_setting 'orthorhombic'
loop_
_space_group_symop_operation_xyz
x,y,z
1/2-x,-y,1/2+z
1/2+x,1/2-y,-z
-x,1/2+y,1/2-z
loop_
_atom_site_type_symbol
_atom_site_label
_atom_site_fract_x
_atom_site_fract_y
_atom_site_fract_z
Si Si1 0.393973 0.947348 0.220427
Si Si2 0.514149 0.045448 0.854032
Si Si3 0.905819 0.230264 0.331514
Si Si4 0.187648 0.783325 0.668606
Si Si5 0.865627 0.727880 0.283118
O O1 0.395479 0.891114 0.518750
O O2 0.321420 0.051180 0.196670
O O3 0.384217 0.820461 0.015248
O O4 0.472901 0.030038 0.144393
O O5 0.453143 0.125244 0.663673
O O6 0.592889 0.130839 0.867688
O O7 0.534634 0.891484 0.754411
O O8 0.866293 0.206511 0.615716
O O9 0.837651 0.232832 0.119541
O O10 0.275633 0.741173 0.697529
#
# Coordination Sequence:
#
# PCOD8157726 Si02
#       5
#     4   4   4   4   4
#     4  11  24  42  71 100 143 183 238 284 351 425
#     4  11  26  45  72 105 140 189 236 292 353 419
#     4  11  26  45  70 101 144 182 236 290 354 421
#     4  11  25  44  71 102 143 184 234 293 353 424
#     4  12  25  44  72 104 140 188 234 291 357 417
#
# _framework density 23.615110999999999
#
# number of rings (size 3 to 8) (size 9 to 14) (size 15 to 20)
#    0.000    0.800    2.000    4.800    5.600    6.400 
#    0.000    0.000    0.000    0.000    0.000    0.000 
#    0.000    0.000    0.000    0.000    0.000    0.000 
#
# Total GULP energy -248035.765842 kJ/mol
# GULP energy per Si atom -12401.788292 kJ/mol
# Density = 2.356136 g / cm^3
# Si number density = 23.615111 Si / 1000 Ang^3
#
#
#
# Elastic Constant Matrix: (Units=GPa)
#
#
# Indices 1 2 3 4 5 6 
#
# 1 138.7886 40.9168 16.5724 0.0000 0.0000 0.0000
# 2 40.9168 96.9507 12.1699 0.0000 0.0000 0.0000
# 3 16.5724 12.1699 71.1693 0.0000 0.0000 0.0000
# 4 0.0000 0.0000 0.0000 28.5049 0.0000 0.0000
# 5 0.0000 0.0000 0.0000 0.0000 27.6745 0.0000
# 6 0.0000 0.0000 0.0000 0.0000 0.0000 35.4652
#
#
#
# Elastic Compliance Matrix: (Units=1/GPa)
#
#
# Indices 1 2 3 4 5 6 
#
# 1 0.008358 -0.003355 -0.001373 0.000000 0.000000 0.000000
# 2 -0.003355 0.011888 -0.001251 0.000000 0.000000 0.000000
# 3 -0.001373 -0.001251 0.014585 0.000000 0.000000 0.000000
# 4 0.000000 0.000000 0.000000 0.035082 0.000000 0.000000
# 5 0.000000 0.000000 0.000000 0.000000 0.036134 0.000000
# 6 0.000000 0.000000 0.000000 0.000000 0.000000 0.028197
#
#
# Mechanical properties :
#
#
# Convention : Reuss Voigt Hill
#
# Bulk Modulus (GPa) = 43.72155 49.58074 46.65114
# Shear Modulus (GPa) = 32.50432 34.14555 33.32493
#
# Velocity S-wave (km/s) = 3.71404 3.80665 3.76063
# Velocity P-wave (km/s) = 6.07837 6.35309 6.21724
#
# Compressibility (1/GPa) = 0.02287202
#
# Stress axis : x y z
#
# Youngs Moduli (GPa) = 119.64215 84.12101 68.56538
#
# Poissons Ratio (x) = 0.28224 0.09411
# Poissons Ratio (y) = 0.40142 0.08581
# Poissons Ratio (z) = 0.16422 0.10528
#
# Static dielectric constant tensor:
#      x y z
#    x 4.249130 0.000000 0.000000 
#    y 0.000000 4.198700 0.000000 
#    z 0.000000 0.000000 4.078920 
# 
# 
# High freq. dielectric constant tensor:
#      x y z
#    x 1.943840 0.000000 0.000000 
#    y 0.000000 1.927050 0.000000 
#    z 0.000000 0.000000 1.935930 
# 
# From -- ./inp_files/349.got.cif
#   From: 2010.03.12/outbox.cif.g09.slc.cpg/sg19_1_cif.got.tgz:349.got - 2010.04.10 18:59:41.
