data_PCOD8157036
_publ_section_title
;
Structure prediction by ZEFSAII (Michael W. Deem and Ramdas Pophale) SiO2 
 PCOD8157036
Probable space group: P 21 21 21
;
_chemical_formula_sum "Si O2"
_cell_formula_units_Z 28
_cell_length_a 15.421394
_cell_length_b 5.194462
_cell_length_c 15.207781
_cell_angle_alpha 90.000000
_cell_angle_beta 90.000000
_cell_angle_gamma 90.000000
_cell_volume 1218.232149
_symmetry_space_group_name_H-M "P 21 21 21"
_symmetry_group_IT_number 19
_symmetry_cell_setting 'orthorhombic'
loop_
_space_group_symop_operation_xyz
x,y,z
1/2-x,-y,1/2+z
1/2+x,1/2-y,-z
-x,1/2+y,1/2-z
loop_
_atom_site_type_symbol
_atom_site_label
_atom_site_fract_x
_atom_site_fract_y
_atom_site_fract_z
Si Si1 0.861008 0.060873 0.252832
Si Si2 0.722455 0.688888 0.505763
Si Si3 0.000269 0.263868 0.144321
Si Si4 0.247069 0.698067 0.880205
Si Si5 0.639887 0.602831 0.904121
Si Si6 0.466711 0.202715 0.052287
Si Si7 0.563745 0.722301 0.084234
O O1 0.811966 0.218141 0.330614
O O2 0.899096 0.230414 0.171899
O O3 0.950936 0.962660 0.293953
O O4 0.798141 0.844910 0.211784
O O5 0.710445 0.436741 0.567599
O O6 0.797561 0.630934 0.433987
O O7 0.636373 0.741649 0.448504
O O8 0.748922 0.938333 0.561535
O O9 0.054247 0.998429 0.145253
O O10 0.999131 0.362735 0.045054
O O11 0.147651 0.763471 0.851534
O O12 0.609799 0.761707 0.989236
O O13 0.513302 0.453459 0.092665
O O14 0.497027 0.952347 0.107546
#
# Coordination Sequence:
#
# PCOD8157036 Si02
#       7
#     4   4   4   4   4   4   4
#     4  12  23  35  60  94 135 173 203 263 325 398
#     4  11  24  40  61  94 126 176 219 259 312 384
#     4  11  22  35  56  90 134 167 200 251 329 389
#     4  11  24  39  60  92 132 170 217 261 318 388
#     4  10  23  38  57  88 135 169 205 257 319 388
#     4  11  21  39  63  88 125 165 219 262 308 375
#     4  10  21  40  59  86 123 170 211 261 309 372
#
# _framework density 22.984124999999999
#
# number of rings (size 3 to 8) (size 9 to 14) (size 15 to 20)
#    0.000    1.143    4.286    3.429    8.000    0.000 
#    0.000    0.000    0.000    0.000    3.714    0.000 
#    0.000    0.000    0.000    0.000    0.000    0.000 
#
# Total GULP energy -347029.573362 kJ/mol
# GULP energy per Si atom -12393.913334 kJ/mol
# Density = 2.293181 g / cm^3
# Si number density = 22.984125 Si / 1000 Ang^3
#
#
#
# Elastic Constant Matrix: (Units=GPa)
#
#
# Indices 1 2 3 4 5 6 
#
# 1 79.5737 14.9602 -0.4583 0.0000 0.0000 0.0000
# 2 14.9602 118.3241 11.0894 0.0000 0.0000 0.0000
# 3 -0.4583 11.0894 30.1607 0.0000 0.0000 0.0000
# 4 0.0000 0.0000 0.0000 20.3646 0.0000 0.0000
# 5 0.0000 0.0000 0.0000 0.0000 19.9377 0.0000
# 6 0.0000 0.0000 0.0000 0.0000 0.0000 41.8473
#
#
#
# Elastic Compliance Matrix: (Units=1/GPa)
#
#
# Indices 1 2 3 4 5 6 
#
# 1 0.012893 -0.001707 0.000824 0.000000 0.000000 0.000000
# 2 -0.001707 0.008979 -0.003327 0.000000 0.000000 0.000000
# 3 0.000824 -0.003327 0.034392 0.000000 0.000000 0.000000
# 4 0.000000 0.000000 0.000000 0.049105 0.000000 0.000000
# 5 0.000000 0.000000 0.000000 0.000000 0.050156 0.000000
# 6 0.000000 0.000000 0.000000 0.000000 0.000000 0.023896
#
#
# Mechanical properties :
#
#
# Convention : Reuss Voigt Hill
#
# Bulk Modulus (GPa) = 20.90238 31.02678 25.96458
# Shear Modulus (GPa) = 24.53509 29.92775 27.23142
#
# Velocity S-wave (km/s) = 3.27078 3.61238 3.44582
# Velocity P-wave (km/s) = 4.83508 5.56126 5.21083
#
# Compressibility (1/GPa) = 0.04784143
#
# Stress axis : x y z
#
# Youngs Moduli (GPa) = 77.56342 111.37022 29.07684
#
# Poissons Ratio (x) = 0.19014 -0.02395
# Poissons Ratio (y) = 0.13242 0.09675
# Poissons Ratio (z) = -0.06388 0.37057
#
# Static dielectric constant tensor:
#      x y z
#    x 4.249880 0.000000 0.000000 
#    y 0.000000 4.153300 0.000000 
#    z 0.000000 0.000000 3.956720 
# 
# 
# High freq. dielectric constant tensor:
#      x y z
#    x 1.906720 0.000000 0.000000 
#    y 0.000000 1.915870 0.000000 
#    z 0.000000 0.000000 1.869360 
# 
# From -- ./inp_files/6249.got.cif
#   From: 2010.03.12/outbox.cif.g09.slc.cpg/sg19_4_cif.got.tgz:6249.got - 2010.04.10 18:59:41.
