data_PCOD8157160
_publ_section_title
;
Structure prediction by ZEFSAII (Michael W. Deem and Ramdas Pophale) SiO2 
 PCOD8157160
Probable space group: P 21 21 21
;
_chemical_formula_sum "Si O2"
_cell_formula_units_Z 24
_cell_length_a 13.675947
_cell_length_b 4.996173
_cell_length_c 14.175619
_cell_angle_alpha 90.000000
_cell_angle_beta 90.000000
_cell_angle_gamma 90.000000
_cell_volume 968.583149
_symmetry_space_group_name_H-M "P 21 21 21"
_symmetry_group_IT_number 19
_symmetry_cell_setting 'orthorhombic'
loop_
_space_group_symop_operation_xyz
x,y,z
1/2-x,-y,1/2+z
1/2+x,1/2-y,-z
-x,1/2+y,1/2-z
loop_
_atom_site_type_symbol
_atom_site_label
_atom_site_fract_x
_atom_site_fract_y
_atom_site_fract_z
Si Si1 0.193639 0.794167 0.368097
Si Si2 0.215241 0.952320 0.155863
Si Si3 0.405825 0.261668 0.162794
Si Si4 0.492966 0.883251 0.687640
Si Si5 0.478244 0.263491 0.373324
Si Si6 0.718963 0.790376 0.035215
O O1 0.220510 0.800823 0.256700
O O2 0.261610 0.585712 0.423904
O O3 0.079627 0.714855 0.381654
O O4 0.209290 0.085675 0.411334
O O5 0.292601 0.193585 0.146677
O O6 0.110487 0.089209 0.134905
O O7 0.237261 0.727662 0.076785
O O8 0.424950 0.242687 0.273405
O O9 0.473954 0.049928 0.108705
O O10 0.433452 0.549250 0.119787
O O11 0.476800 0.671470 0.771505
O O12 0.394592 0.212421 0.450006
#
# Coordination Sequence:
#
# PCOD8157160 Si02
#       6
#     4   4   4   4   4   4
#     4  11  25  47  70 101 144 178 232 289 346 409
#     4  11  26  45  73 104 138 185 237 279 351 412
#     4  10  22  39  69  93 134 181 218 279 339 406
#     4  10  23  43  70  99 133 186 228 287 344 405
#     4  10  22  41  63  99 133 178 224 274 343 399
#     4  12  26  43  73 104 140 186 227 290 339 417
#
# _framework density 24.778459999999999
#
# number of rings (size 3 to 8) (size 9 to 14) (size 15 to 20)
#    0.000    1.333    1.667    3.000    4.667    9.333 
#    0.000    0.000    0.000    0.000    0.000    0.000 
#    0.000    0.000    0.000    0.000    0.000    0.000 
#
# Total GULP energy -297673.076103 kJ/mol
# GULP energy per Si atom -12403.044838 kJ/mol
# Density = 2.472206 g / cm^3
# Si number density = 24.778460 Si / 1000 Ang^3
#
#
#
# Elastic Constant Matrix: (Units=GPa)
#
#
# Indices 1 2 3 4 5 6 
#
# 1 114.0612 -14.1130 2.6727 0.0000 0.0000 0.0000
# 2 -14.1130 59.5356 2.7113 0.0000 0.0000 0.0000
# 3 2.6727 2.7113 78.5173 0.0000 0.0000 0.0000
# 4 0.0000 0.0000 0.0000 13.0122 0.0000 0.0000
# 5 0.0000 0.0000 0.0000 0.0000 14.6965 0.0000
# 6 0.0000 0.0000 0.0000 0.0000 0.0000 24.6607
#
#
#
# Elastic Compliance Matrix: (Units=1/GPa)
#
#
# Indices 1 2 3 4 5 6 
#
# 1 0.009044 0.002161 -0.000382 0.000000 0.000000 0.000000
# 2 0.002161 0.017340 -0.000672 0.000000 0.000000 0.000000
# 3 -0.000382 -0.000672 0.012772 0.000000 0.000000 0.000000
# 4 0.000000 0.000000 0.000000 0.076851 0.000000 0.000000
# 5 0.000000 0.000000 0.000000 0.000000 0.068043 0.000000
# 6 0.000000 0.000000 0.000000 0.000000 0.000000 0.040550
#
#
# Mechanical properties :
#
#
# Convention : Reuss Voigt Hill
#
# Bulk Modulus (GPa) = 24.17309 26.07291 25.12300
# Shear Modulus (GPa) = 21.17061 27.86344 24.51702
#
# Velocity S-wave (km/s) = 2.92618 3.35700 3.14896
# Velocity P-wave (km/s) = 4.60364 5.05679 4.83553
#
# Compressibility (1/GPa) = 0.04136831
#
# Stress axis : x y z
#
# Youngs Moduli (GPa) = 110.57548 57.67144 78.29458
#
# Poissons Ratio (x) = -0.12464 0.02995
# Poissons Ratio (y) = -0.23898 0.05264
# Poissons Ratio (z) = 0.04229 0.03877
#
# Static dielectric constant tensor:
#      x y z
#    x 4.613130 0.000000 0.000000 
#    y 0.000000 4.394050 0.000000 
#    z 0.000000 0.000000 4.236610 
# 
# 
# High freq. dielectric constant tensor:
#      x y z
#    x 2.001520 0.000000 0.000000 
#    y 0.000000 1.990510 0.000000 
#    z 0.000000 0.000000 1.965540 
# 
# From -- ./inp_files/6044.got.cif
#   From: 2010.03.12/outbox.cif.g09.slc.cpg/sg19_4_cif.got.tgz:6044.got - 2010.04.10 18:59:41.
