data_PCOD8157268
_publ_section_title
;
Structure prediction by ZEFSAII (Michael W. Deem and Ramdas Pophale) SiO2 
 PCOD8157268
Probable space group: P 21 21 21
;
_chemical_formula_sum "Si O2"
_cell_formula_units_Z 24
_cell_length_a 11.635049
_cell_length_b 7.681087
_cell_length_c 12.952414
_cell_angle_alpha 90.000000
_cell_angle_beta 90.000000
_cell_angle_gamma 90.000000
_cell_volume 1157.554955
_symmetry_space_group_name_H-M "P 21 21 21"
_symmetry_group_IT_number 19
_symmetry_cell_setting 'orthorhombic'
loop_
_space_group_symop_operation_xyz
x,y,z
1/2-x,-y,1/2+z
1/2+x,1/2-y,-z
-x,1/2+y,1/2-z
loop_
_atom_site_type_symbol
_atom_site_label
_atom_site_fract_x
_atom_site_fract_y
_atom_site_fract_z
Si Si1 0.844089 0.152634 0.758505
Si Si2 0.727963 0.159769 0.551637
Si Si3 0.162634 0.587976 0.159430
Si Si4 0.533349 0.128583 0.143001
Si Si5 0.061051 0.032187 0.443328
Si Si6 0.778418 0.226935 0.126467
O O1 0.803906 0.230352 0.648181
O O2 0.912625 0.287115 0.828183
O O3 0.733572 0.090708 0.823529
O O4 0.927485 0.988668 0.739403
O O5 0.797257 0.182441 0.445447
O O6 0.615105 0.277598 0.543415
O O7 0.691938 0.958581 0.572365
O O8 0.181550 0.719929 0.254353
O O9 0.027981 0.537732 0.152216
O O10 0.640077 0.259737 0.119420
O O11 0.514276 0.008175 0.044062
O O12 0.157451 0.884580 0.428753
#
# Coordination Sequence:
#
# PCOD8157268 Si02
#       6
#     4   4   4   4   4   4
#     4  10  23  41  66  94 130 165 219 266 315 382
#     4  10  23  44  62  95 130 168 217 260 316 383
#     4  10  22  43  64  95 134 162 217 273 308 387
#     4  10  23  42  66  92 128 169 212 265 315 389
#     4  12  24  42  69  93 129 171 212 260 338 371
#     4  10  25  44  61 101 129 165 219 264 318 382
#
# _framework density 20.733356000000001
#
# number of rings (size 3 to 8) (size 9 to 14) (size 15 to 20)
#    0.000    2.000    3.333    1.000   11.667    0.000 
#    3.000    0.000    0.000    0.000    0.000    0.000 
#    0.000    0.000    0.000    0.000    0.000    0.000 
#
# Total GULP energy -297535.510932 kJ/mol
# GULP energy per Si atom -12397.312955 kJ/mol
# Density = 2.068617 g / cm^3
# Si number density = 20.733356 Si / 1000 Ang^3
#
#
#
# Elastic Constant Matrix: (Units=GPa)
#
#
# Indices 1 2 3 4 5 6 
#
# 1 84.2076 21.3892 26.2282 0.0000 0.0000 0.0000
# 2 21.3892 47.8549 18.1119 0.0000 0.0000 0.0000
# 3 26.2282 18.1119 82.3508 0.0000 0.0000 0.0000
# 4 0.0000 0.0000 0.0000 13.7718 0.0000 0.0000
# 5 0.0000 0.0000 0.0000 0.0000 36.3951 0.0000
# 6 0.0000 0.0000 0.0000 0.0000 0.0000 37.8637
#
#
#
# Elastic Compliance Matrix: (Units=1/GPa)
#
#
# Indices 1 2 3 4 5 6 
#
# 1 0.014226 -0.005065 -0.003417 0.000000 0.000000 0.000000
# 2 -0.005065 0.024597 -0.003797 0.000000 0.000000 0.000000
# 3 -0.003417 -0.003797 0.014066 0.000000 0.000000 0.000000
# 4 0.000000 0.000000 0.000000 0.072612 0.000000 0.000000
# 5 0.000000 0.000000 0.000000 0.000000 0.027476 0.000000
# 6 0.000000 0.000000 0.000000 0.000000 0.000000 0.026411
#
#
# Mechanical properties :
#
#
# Convention : Reuss Voigt Hill
#
# Bulk Modulus (GPa) = 35.29521 38.43020 36.86271
# Shear Modulus (GPa) = 23.43117 27.51838 25.47478
#
# Velocity S-wave (km/s) = 3.36537 3.64710 3.50906
# Velocity P-wave (km/s) = 5.67110 6.02584 5.85116
#
# Compressibility (1/GPa) = 0.02833245
#
# Stress axis : x y z
#
# Youngs Moduli (GPa) = 70.29225 40.65466 71.09119
#
# Poissons Ratio (x) = 0.20593 0.24291
# Poissons Ratio (y) = 0.35606 0.26990
# Poissons Ratio (z) = 0.24018 0.15435
#
# Static dielectric constant tensor:
#      x y z
#    x 3.863550 0.000000 0.000000 
#    y 0.000000 3.405680 0.000000 
#    z 0.000000 0.000000 3.863620 
# 
# 
# High freq. dielectric constant tensor:
#      x y z
#    x 1.820770 0.000000 0.000000 
#    y 0.000000 1.780490 0.000000 
#    z 0.000000 0.000000 1.820900 
# 
# From -- ./inp_files/3413.got.cif
#   From: 2010.03.12/outbox.cif.g09.slc.cpg/sg19_2_cif.got.tgz:3413.got - 2010.04.10 18:59:41.
