data_PCOD8157629
_publ_section_title
;
Structure prediction by ZEFSAII (Michael W. Deem and Ramdas Pophale) SiO2 
 PCOD8157629
Probable space group: P 21 21 21
;
_chemical_formula_sum "Si O2"
_cell_formula_units_Z 24
_cell_length_a 6.736227
_cell_length_b 11.383794
_cell_length_c 13.873753
_cell_angle_alpha 90.000000
_cell_angle_beta 90.000000
_cell_angle_gamma 90.000000
_cell_volume 1063.892385
_symmetry_space_group_name_H-M "P 21 21 21"
_symmetry_group_IT_number 19
_symmetry_cell_setting 'orthorhombic'
loop_
_space_group_symop_operation_xyz
x,y,z
1/2-x,-y,1/2+z
1/2+x,1/2-y,-z
-x,1/2+y,1/2-z
loop_
_atom_site_type_symbol
_atom_site_label
_atom_site_fract_x
_atom_site_fract_y
_atom_site_fract_z
Si Si1 0.612996 0.781110 0.101457
Si Si2 0.503580 0.377701 0.077782
Si Si3 0.492598 0.261545 0.710102
Si Si4 0.676357 0.427501 0.276591
Si Si5 0.729820 0.336387 0.882816
Si Si6 0.271942 0.602079 0.081502
O O1 0.516238 0.863908 0.181250
O O2 0.482399 0.667576 0.078514
O O3 0.821767 0.735732 0.139321
O O4 0.632677 0.856341 0.004971
O O5 0.649290 0.423746 0.161621
O O6 0.416793 0.248078 0.096621
O O7 0.313694 0.463965 0.070899
O O8 0.633995 0.381582 0.981300
O O9 0.378052 0.138984 0.694360
O O10 0.556790 0.273283 0.821269
O O11 0.345959 0.369204 0.680759
O O12 0.685814 0.558682 0.317018
#
# Coordination Sequence:
#
# PCOD8157629 Si02
#       6
#     4   4   4   4   4   4
#     4  11  22  45  73 110 137 191 247 302 363 438
#     4  12  28  48  71 111 151 197 247 313 381 452
#     4  11  24  47  74 105 140 196 249 309 367 440
#     4  11  27  47  74 101 147 193 250 303 368 452
#     4  12  28  48  75 108 157 198 249 313 388 449
#     4  11  25  41  77 107 144 185 250 308 365 437
#
# _framework density 22.558671
#
# number of rings (size 3 to 8) (size 9 to 14) (size 15 to 20)
#    0.000    0.667    3.333    3.000    9.333    2.667 
#    0.000    0.000    0.000    0.000    0.000    0.000 
#    0.000    0.000    0.000    0.000    0.000    0.000 
#
# Total GULP energy -297749.048441 kJ/mol
# GULP energy per Si atom -12406.210352 kJ/mol
# Density = 2.250733 g / cm^3
# Si number density = 22.558671 Si / 1000 Ang^3
#
#
#
# Elastic Constant Matrix: (Units=GPa)
#
#
# Indices 1 2 3 4 5 6 
#
# 1 85.3801 25.3581 34.3134 0.0000 0.0000 0.0000
# 2 25.3581 108.5791 25.6754 0.0000 0.0000 0.0000
# 3 34.3134 25.6754 136.1799 0.0000 0.0000 0.0000
# 4 0.0000 0.0000 0.0000 33.7121 0.0000 0.0000
# 5 0.0000 0.0000 0.0000 0.0000 46.0384 0.0000
# 6 0.0000 0.0000 0.0000 0.0000 0.0000 27.8999
#
#
#
# Elastic Compliance Matrix: (Units=1/GPa)
#
#
# Indices 1 2 3 4 5 6 
#
# 1 0.013644 -0.002484 -0.002969 0.000000 0.000000 0.000000
# 2 -0.002484 0.010092 -0.001277 0.000000 0.000000 0.000000
# 3 -0.002969 -0.001277 0.008332 0.000000 0.000000 0.000000
# 4 0.000000 0.000000 0.000000 0.029663 0.000000 0.000000
# 5 0.000000 0.000000 0.000000 0.000000 0.021721 0.000000
# 6 0.000000 0.000000 0.000000 0.000000 0.000000 0.035842
#
#
# Mechanical properties :
#
#
# Convention : Reuss Voigt Hill
#
# Bulk Modulus (GPa) = 53.74366 55.64809 54.69588
# Shear Modulus (GPa) = 35.98231 37.84954 36.91592
#
# Velocity S-wave (km/s) = 3.99815 4.10057 4.04968
# Velocity P-wave (km/s) = 6.72229 6.86595 6.79450
#
# Compressibility (1/GPa) = 0.01860685
#
# Stress axis : x y z
#
# Youngs Moduli (GPa) = 73.29486 99.08866 120.01692
#
# Poissons Ratio (x) = 0.24616 0.35638
# Poissons Ratio (y) = 0.18208 0.15324
# Poissons Ratio (z) = 0.21764 0.12652
#
# Static dielectric constant tensor:
#      x y z
#    x 3.994190 0.000000 0.000000 
#    y 0.000000 4.060540 0.000000 
#    z 0.000000 0.000000 4.254730 
# 
# 
# High freq. dielectric constant tensor:
#      x y z
#    x 1.895270 0.000000 0.000000 
#    y 0.000000 1.887880 0.000000 
#    z 0.000000 0.000000 1.903530 
# 
# From -- ./inp_files/893.got.cif
#   From: 2010.03.12/outbox.cif.g09.slc.cpg/sg19_1_cif.got.tgz:893.got - 2010.04.10 18:59:41.
