data_PCOD8157034
_publ_section_title
;
Structure prediction by ZEFSAII (Michael W. Deem and Ramdas Pophale) SiO2 
 PCOD8157034
Probable space group: P 21 21 21
;
_chemical_formula_sum "Si O2"
_cell_formula_units_Z 32
_cell_length_a 16.246878
_cell_length_b 16.323519
_cell_length_c 5.284475
_cell_angle_alpha 90.000000
_cell_angle_beta 90.000000
_cell_angle_gamma 90.000000
_cell_volume 1401.475649
_symmetry_space_group_name_H-M "P 21 21 21"
_symmetry_group_IT_number 19
_symmetry_cell_setting 'orthorhombic'
loop_
_space_group_symop_operation_xyz
x,y,z
1/2-x,-y,1/2+z
1/2+x,1/2-y,-z
-x,1/2+y,1/2-z
loop_
_atom_site_type_symbol
_atom_site_label
_atom_site_fract_x
_atom_site_fract_y
_atom_site_fract_z
Si Si1 0.085070 0.123119 0.574262
Si Si2 0.233775 0.128427 0.886783
Si Si3 0.611734 0.682144 0.400595
Si Si4 0.323930 0.422974 0.703639
Si Si5 0.149899 0.994681 0.196212
Si Si6 0.027323 0.967766 0.807844
Si Si7 0.850060 0.976857 0.794484
Si Si8 0.061620 0.727014 0.111900
O O1 0.154422 0.170578 0.749116
O O2 0.142369 0.062220 0.414346
O O3 0.029656 0.186683 0.415522
O O4 0.022478 0.063663 0.724096
O O5 0.309693 0.095358 0.718412
O O6 0.286903 0.189167 0.072034
O O7 0.202795 0.041314 0.986645
O O8 0.586671 0.585540 0.377294
O O9 0.560471 0.717186 0.638369
O O10 0.582667 0.725904 0.145190
O O11 0.351713 0.483265 0.482302
O O12 0.224797 0.412794 0.683743
O O13 0.365590 0.336410 0.663289
O O14 0.346829 0.456242 0.981162
O O15 0.059785 0.970591 0.093683
O O16 0.936311 0.928610 0.816499
#
# Coordination Sequence:
#
# PCOD8157034 Si02
#       8
#     4   4   4   4   4   4   4   4
#     4  11  24  41  77 101 134 184 245 292 336 438
#     4  11  22  41  68 105 135 178 229 296 358 417
#     4  12  28  45  67  97 152 190 223 288 369 428
#     4  10  21  42  69  99 130 178 230 295 340 402
#     4  11  20  38  74 106 133 171 233 297 362 400
#     4  11  23  41  70 103 134 181 233 301 339 416
#     4  10  21  39  73 101 127 166 245 296 332 389
#     4  12  27  47  66 100 145 196 226 283 368 420
#
# _framework density 22.833075000000001
#
# number of rings (size 3 to 8) (size 9 to 14) (size 15 to 20)
#    0.000    1.000    3.750    3.000    5.250    0.000 
#    2.250    0.000    2.750    0.000    0.000    0.000 
#    0.000    0.000    0.000    0.000    0.000    0.000 
#
# Total GULP energy -396427.385085 kJ/mol
# GULP energy per Si atom -12388.355784 kJ/mol
# Density = 2.278111 g / cm^3
# Si number density = 22.833075 Si / 1000 Ang^3
#
#
#
# Elastic Constant Matrix: (Units=GPa)
#
#
# Indices 1 2 3 4 5 6 
#
# 1 142.8216 15.2786 17.2435 0.0000 0.0000 0.0000
# 2 15.2786 52.0421 15.2772 0.0000 0.0000 0.0000
# 3 17.2435 15.2772 94.3364 0.0000 0.0000 0.0000
# 4 0.0000 0.0000 0.0000 25.0559 0.0000 0.0000
# 5 0.0000 0.0000 0.0000 0.0000 31.0232 0.0000
# 6 0.0000 0.0000 0.0000 0.0000 0.0000 21.0524
#
#
#
# Elastic Compliance Matrix: (Units=1/GPa)
#
#
# Indices 1 2 3 4 5 6 
#
# 1 0.007325 -0.001845 -0.001040 0.000000 0.000000 0.000000
# 2 -0.001845 0.020639 -0.003005 0.000000 0.000000 0.000000
# 3 -0.001040 -0.003005 0.011277 0.000000 0.000000 0.000000
# 4 0.000000 0.000000 0.000000 0.039911 0.000000 0.000000
# 5 0.000000 0.000000 0.000000 0.000000 0.032234 0.000000
# 6 0.000000 0.000000 0.000000 0.000000 0.000000 0.047501
#
#
# Mechanical properties :
#
#
# Convention : Reuss Voigt Hill
#
# Bulk Modulus (GPa) = 36.41609 42.75539 39.58574
# Shear Modulus (GPa) = 27.80557 31.51968 29.66263
#
# Velocity S-wave (km/s) = 3.49345 3.71946 3.60822
# Velocity P-wave (km/s) = 5.67941 6.10014 5.89353
#
# Compressibility (1/GPa) = 0.02746039
#
# Stress axis : x y z
#
# Youngs Moduli (GPa) = 136.52447 48.45181 88.67499
#
# Poissons Ratio (x) = 0.08940 0.09223
# Poissons Ratio (y) = 0.25190 0.26648
# Poissons Ratio (z) = 0.14199 0.14560
#
# Static dielectric constant tensor:
#      x y z
#    x 4.421570 0.000000 0.000000 
#    y 0.000000 3.811130 0.000000 
#    z 0.000000 0.000000 4.364130 
# 
# 
# High freq. dielectric constant tensor:
#      x y z
#    x 1.918550 0.000000 0.000000 
#    y 0.000000 1.860930 0.000000 
#    z 0.000000 0.000000 1.915420 
# 
# From -- ./inp_files/1607.got.cif
#   From: 2010.03.12/outbox.cif.g09.slc.cpg/sg19_1_cif.got.tgz:1607.got - 2010.04.10 18:59:41.
