data_PCOD8157127
_publ_section_title
;
Structure prediction by ZEFSAII (Michael W. Deem and Ramdas Pophale) SiO2 
 PCOD8157127
Probable space group: P 21 21 21
;
_chemical_formula_sum "Si O2"
_cell_formula_units_Z 28
_cell_length_a 14.692867
_cell_length_b 8.419791
_cell_length_c 10.191441
_cell_angle_alpha 90.000000
_cell_angle_beta 90.000000
_cell_angle_gamma 90.000000
_cell_volume 1260.792026
_symmetry_space_group_name_H-M "P 21 21 21"
_symmetry_group_IT_number 19
_symmetry_cell_setting 'orthorhombic'
loop_
_space_group_symop_operation_xyz
x,y,z
1/2-x,-y,1/2+z
1/2+x,1/2-y,-z
-x,1/2+y,1/2-z
loop_
_atom_site_type_symbol
_atom_site_label
_atom_site_fract_x
_atom_site_fract_y
_atom_site_fract_z
Si Si1 0.379078 0.158518 0.746971
Si Si2 0.116490 0.430345 0.804827
Si Si3 0.754837 0.822320 0.258750
Si Si4 0.161907 0.874527 0.962520
Si Si5 0.014092 0.213409 0.608014
Si Si6 0.264731 0.783969 0.460369
Si Si7 0.067415 0.193782 0.319906
O O1 0.319987 0.173111 0.613730
O O2 0.322837 0.231763 0.867024
O O3 0.469087 0.264294 0.735762
O O4 0.401943 0.973755 0.761679
O O5 0.200924 0.512081 0.727242
O O6 0.036995 0.554100 0.842176
O O7 0.161564 0.356058 0.935846
O O8 0.079451 0.283602 0.719446
O O9 0.721055 0.736966 0.128296
O O10 0.731403 0.723783 0.389860
O O11 0.863788 0.831023 0.234858
O O12 0.055902 0.852379 0.929269
O O13 0.185780 0.053092 0.929241
O O14 0.071858 0.175315 0.477696
#
# Coordination Sequence:
#
# PCOD8157127 Si02
#       7
#     4   4   4   4   4   4   4
#     4  11  26  42  72 101 139 185 232 291 351 419
#     4  11  27  43  70 102 140 184 237 288 351 425
#     4  11  26  45  70 103 140 177 238 286 351 420
#     4  10  21  47  68  98 134 180 233 282 352 420
#     4  10  25  45  70  99 142 184 230 292 353 419
#     4  12  24  42  70 101 135 182 230 293 343 420
#     4  11  25  44  70 102 140 184 234 290 351 419
#
# _framework density 22.208262999999999
#
# number of rings (size 3 to 8) (size 9 to 14) (size 15 to 20)
#    0.000    1.143    2.857    0.857    8.000    5.714 
#    0.000    0.000    0.000    0.000    0.000    0.000 
#    0.000    0.000    0.000    0.000    0.000    0.000 
#
# Total GULP energy -347203.476810 kJ/mol
# GULP energy per Si atom -12400.124172 kJ/mol
# Density = 2.215772 g / cm^3
# Si number density = 22.208263 Si / 1000 Ang^3
#
#
#
# Elastic Constant Matrix: (Units=GPa)
#
#
# Indices 1 2 3 4 5 6 
#
# 1 96.1470 46.9747 70.6988 0.0000 0.0000 0.0000
# 2 46.9747 67.8015 22.5466 0.0000 0.0000 0.0000
# 3 70.6988 22.5466 147.3343 0.0000 0.0000 0.0000
# 4 0.0000 0.0000 0.0000 31.7431 0.0000 0.0000
# 5 0.0000 0.0000 0.0000 0.0000 35.1009 0.0000
# 6 0.0000 0.0000 0.0000 0.0000 0.0000 31.1519
#
#
#
# Elastic Compliance Matrix: (Units=1/GPa)
#
#
# Indices 1 2 3 4 5 6 
#
# 1 0.023862 -0.013407 -0.009399 0.000000 0.000000 0.000000
# 2 -0.013407 0.023072 0.002903 0.000000 0.000000 0.000000
# 3 -0.009399 0.002903 0.010853 0.000000 0.000000 0.000000
# 4 0.000000 0.000000 0.000000 0.031503 0.000000 0.000000
# 5 0.000000 0.000000 0.000000 0.000000 0.028489 0.000000
# 6 0.000000 0.000000 0.000000 0.000000 0.000000 0.032101
#
#
# Mechanical properties :
#
#
# Convention : Reuss Voigt Hill
#
# Bulk Modulus (GPa) = 55.61235 65.74701 60.67968
# Shear Modulus (GPa) = 25.55197 31.00334 28.27765
#
# Velocity S-wave (km/s) = 3.39567 3.74040 3.57220
# Velocity P-wave (km/s) = 6.36159 6.95148 6.66307
#
# Compressibility (1/GPa) = 0.01798162
#
# Stress axis : x y z
#
# Youngs Moduli (GPa) = 41.90792 43.34195 92.14017
#
# Poissons Ratio (x) = 0.58108 0.86598
# Poissons Ratio (y) = 0.56185 -0.26744
# Poissons Ratio (z) = 0.39387 -0.12580
#
# Static dielectric constant tensor:
#      x y z
#    x 4.269840 0.000000 0.000000 
#    y 0.000000 4.163790 0.000000 
#    z 0.000000 0.000000 4.098790 
# 
# 
# High freq. dielectric constant tensor:
#      x y z
#    x 1.880080 0.000000 0.000000 
#    y 0.000000 1.872030 0.000000 
#    z 0.000000 0.000000 1.884500 
# 
# From -- ./inp_files/3855.got.cif
#   From: 2010.03.12/outbox.cif.g09.slc.cpg/sg19_2_cif.got.tgz:3855.got - 2010.04.10 18:59:41.
