data_PCOD8157067
_publ_section_title
;
Structure prediction by ZEFSAII (Michael W. Deem and Ramdas Pophale) SiO2 
 PCOD8157067
Probable space group: P 21 21 21
;
_chemical_formula_sum "Si O2"
_cell_formula_units_Z 20
_cell_length_a 9.355316
_cell_length_b 5.335440
_cell_length_c 14.597898
_cell_angle_alpha 90.000000
_cell_angle_beta 90.000000
_cell_angle_gamma 90.000000
_cell_volume 728.650096
_symmetry_space_group_name_H-M "P 21 21 21"
_symmetry_group_IT_number 19
_symmetry_cell_setting 'orthorhombic'
loop_
_space_group_symop_operation_xyz
x,y,z
1/2-x,-y,1/2+z
1/2+x,1/2-y,-z
-x,1/2+y,1/2-z
loop_
_atom_site_type_symbol
_atom_site_label
_atom_site_fract_x
_atom_site_fract_y
_atom_site_fract_z
Si Si1 0.914383 0.424010 0.632992
Si Si2 0.482180 0.025154 0.694706
Si Si3 0.637052 0.065627 0.513816
Si Si4 0.291783 0.068467 0.078328
Si Si5 0.412205 0.577377 0.310883
O O1 0.824321 0.673160 0.659442
O O2 0.978595 0.433457 0.531907
O O3 0.054307 0.425058 0.702890
O O4 0.824665 0.170112 0.655149
O O5 0.471456 0.303938 0.736740
O O6 0.607615 0.031850 0.620192
O O7 0.328655 0.954761 0.654343
O O8 0.715895 0.333553 0.494104
O O9 0.729967 0.829700 0.477007
O O10 0.442186 0.070220 0.129993
#
# Coordination Sequence:
#
# PCOD8157067 Si02
#       5
#     4   4   4   4   4
#     4   8  14  27  50  81 117 154 201 265 318 375
#     4  12  26  46  70 102 144 186 229 290 355 421
#     4  10  21  41  66  96 131 178 233 284 330 421
#     4  10  21  41  69  93 135 178 226 279 344 417
#     4   8  14  27  51  82 117 154 199 260 325 378
#
# _framework density 27.448018999999999
#
# number of rings (size 3 to 8) (size 9 to 14) (size 15 to 20)
#    0.000    2.400    0.000    2.400    0.000    0.000 
#    7.200    0.000   17.600    0.000    0.000    0.000 
#    0.000    0.000    0.000    0.000    0.000    0.000 
#
# Total GULP energy -247888.322727 kJ/mol
# GULP energy per Si atom -12394.416136 kJ/mol
# Density = 2.738555 g / cm^3
# Si number density = 27.448019 Si / 1000 Ang^3
#
#
#
# Elastic Constant Matrix: (Units=GPa)
#
#
# Indices 1 2 3 4 5 6 
#
# 1 43.7406 -6.5037 29.7209 0.0000 0.0000 0.0000
# 2 -6.5037 258.2885 71.0816 0.0000 0.0000 0.0000
# 3 29.7209 71.0816 84.3125 0.0000 0.0000 0.0000
# 4 0.0000 0.0000 0.0000 150.8682 0.0000 0.0000
# 5 0.0000 0.0000 0.0000 0.0000 26.8382 0.0000
# 6 0.0000 0.0000 0.0000 0.0000 0.0000 22.0388
#
#
#
# Elastic Compliance Matrix: (Units=1/GPa)
#
#
# Indices 1 2 3 4 5 6 
#
# 1 0.035408 0.005634 -0.017231 0.000000 0.000000 0.000000
# 2 0.005634 0.005938 -0.006992 0.000000 0.000000 0.000000
# 3 -0.017231 -0.006992 0.023829 0.000000 0.000000 0.000000
# 4 0.000000 0.000000 0.000000 0.006628 0.000000 0.000000
# 5 0.000000 0.000000 0.000000 0.000000 0.037260 0.000000
# 6 0.000000 0.000000 0.000000 0.000000 0.000000 0.045374
#
#
# Mechanical properties :
#
#
# Convention : Reuss Voigt Hill
#
# Bulk Modulus (GPa) = 35.71900 63.88213 49.80056
# Shear Modulus (GPa) = 24.88197 59.41857 42.15027
#
# Velocity S-wave (km/s) = 3.01410 4.65775 3.92298
# Velocity P-wave (km/s) = 5.01544 7.22846 6.22114
#
# Compressibility (1/GPa) = 0.02799630
#
# Stress axis : x y z
#
# Youngs Moduli (GPa) = 28.24227 168.41689 41.96504
#
# Poissons Ratio (x) = -0.94880 0.72311
# Poissons Ratio (y) = -0.15911 0.29341
# Poissons Ratio (z) = 0.48665 1.17753
#
# Static dielectric constant tensor:
#      x y z
#    x 4.288210 0.000000 0.000000 
#    y 0.000000 6.543740 0.000000 
#    z 0.000000 0.000000 5.097780 
# 
# 
# High freq. dielectric constant tensor:
#      x y z
#    x 2.078310 0.000000 0.000000 
#    y 0.000000 2.143830 0.000000 
#    z 0.000000 0.000000 2.120410 
# 
# From -- ./inp_files/1395.got.cif
#   From: 2010.03.12/outbox.cif.g09.slc.cpg/sg19_1_cif.got.tgz:1395.got - 2010.04.10 18:59:41.
