data_PCOD8157695
_publ_section_title
;
Structure prediction by ZEFSAII (Michael W. Deem and Ramdas Pophale) SiO2 
 PCOD8157695
Probable space group: P 21 21 21
;
_chemical_formula_sum "Si O2"
_cell_formula_units_Z 32
_cell_length_a 8.852796
_cell_length_b 8.545224
_cell_length_c 19.004388
_cell_angle_alpha 90.000000
_cell_angle_beta 90.000000
_cell_angle_gamma 90.000000
_cell_volume 1437.665320
_symmetry_space_group_name_H-M "P 21 21 21"
_symmetry_group_IT_number 19
_symmetry_cell_setting 'orthorhombic'
loop_
_space_group_symop_operation_xyz
x,y,z
1/2-x,-y,1/2+z
1/2+x,1/2-y,-z
-x,1/2+y,1/2-z
loop_
_atom_site_type_symbol
_atom_site_label
_atom_site_fract_x
_atom_site_fract_y
_atom_site_fract_z
Si Si1 0.738839 0.612120 0.335519
Si Si2 0.415490 0.322416 0.058148
Si Si3 0.187968 0.188556 0.841448
Si Si4 0.721417 0.872227 0.935704
Si Si5 0.206673 0.839158 0.817399
Si Si6 0.046230 0.620186 0.408728
Si Si7 0.878631 0.732647 0.811789
Si Si8 0.094150 0.268330 0.441051
O O1 0.656848 0.673803 0.404706
O O2 0.722248 0.715012 0.264222
O O3 0.656578 0.448491 0.322773
O O4 0.916495 0.621802 0.350727
O O5 0.559539 0.367753 0.104604
O O6 0.283538 0.453322 0.052791
O O7 0.474294 0.276080 0.979918
O O8 0.301388 0.316059 0.873244
O O9 0.124515 0.272941 0.771290
O O10 0.258947 0.021261 0.821181
O O11 0.751713 0.826339 0.854755
O O12 0.541523 0.857216 0.947667
O O13 0.800277 0.749166 0.989923
O O14 0.318978 0.748480 0.867799
O O15 0.038540 0.791926 0.842509
O O16 0.041140 0.446174 0.439733
#
# Coordination Sequence:
#
# PCOD8157695 Si02
#       8
#     4   4   4   4   4   4   4   4
#     4  11  25  44  69 102 139 184 231 288 353 417
#     4  11  24  45  68 101 135 185 229 284 353 414
#     4  11  25  43  69 102 139 178 230 286 353 418
#     4  11  24  45  70  98 140 183 237 282 348 418
#     4  11  25  43  71 102 135 185 232 288 353 412
#     4  11  26  43  66 103 142 180 230 287 352 425
#     4  11  23  46  71  96 136 187 232 288 346 423
#     4  11  26  45  68 102 138 186 231 287 348 423
#
# _framework density 22.258308
#
# number of rings (size 3 to 8) (size 9 to 14) (size 15 to 20)
#    0.000    1.000    3.750    1.500    7.000    2.000 
#    0.000    0.000    0.000    0.000    0.000    0.000 
#    0.000    0.000    0.000    0.000    0.000    0.000 
#
# Total GULP energy -396596.264407 kJ/mol
# GULP energy per Si atom -12393.633263 kJ/mol
# Density = 2.220765 g / cm^3
# Si number density = 22.258308 Si / 1000 Ang^3
#
#
#
# Elastic Constant Matrix: (Units=GPa)
#
#
# Indices 1 2 3 4 5 6 
#
# 1 98.6583 19.2087 39.7021 0.0000 0.0000 0.0000
# 2 19.2087 48.6696 13.2820 0.0000 0.0000 0.0000
# 3 39.7021 13.2820 114.3219 0.0000 0.0000 0.0000
# 4 0.0000 0.0000 0.0000 32.1340 0.0000 0.0000
# 5 0.0000 0.0000 0.0000 0.0000 35.5352 0.0000
# 6 0.0000 0.0000 0.0000 0.0000 0.0000 34.2499
#
#
#
# Elastic Compliance Matrix: (Units=1/GPa)
#
#
# Indices 1 2 3 4 5 6 
#
# 1 0.012446 -0.003855 -0.003874 0.000000 0.000000 0.000000
# 2 -0.003855 0.022413 -0.001265 0.000000 0.000000 0.000000
# 3 -0.003874 -0.001265 0.010240 0.000000 0.000000 0.000000
# 4 0.000000 0.000000 0.000000 0.031120 0.000000 0.000000
# 5 0.000000 0.000000 0.000000 0.000000 0.028141 0.000000
# 6 0.000000 0.000000 0.000000 0.000000 0.000000 0.029197
#
#
# Mechanical properties :
#
#
# Convention : Reuss Voigt Hill
#
# Bulk Modulus (GPa) = 36.88670 45.11505 41.00088
# Shear Modulus (GPa) = 31.13674 33.01427 32.07551
#
# Velocity S-wave (km/s) = 3.74422 3.85546 3.80024
# Velocity P-wave (km/s) = 5.94141 6.33500 6.14136
#
# Compressibility (1/GPa) = 0.02711004
#
# Stress axis : x y z
#
# Youngs Moduli (GPa) = 80.34975 44.61628 97.65888
#
# Poissons Ratio (x) = 0.17198 0.37836
# Poissons Ratio (y) = 0.30972 0.12357
# Poissons Ratio (z) = 0.31130 0.05645
#
# Static dielectric constant tensor:
#      x y z
#    x 4.107700 0.000000 0.000000 
#    y 0.000000 3.745570 0.000000 
#    z 0.000000 0.000000 4.803330 
# 
# 
# High freq. dielectric constant tensor:
#      x y z
#    x 1.872370 0.000000 0.000000 
#    y 0.000000 1.859190 0.000000 
#    z 0.000000 0.000000 1.901510 
# 
# From -- ./inp_files/7040.got.cif
#   From: 2010.03.12/outbox.cif.g09.slc.cpg/sg19_4_cif.got.tgz:7040.got - 2010.04.10 18:59:41.
