data_PCOD8157376
_publ_section_title
;
Structure prediction by ZEFSAII (Michael W. Deem and Ramdas Pophale) SiO2 
 PCOD8157376
Probable space group: P 21 21 21
;
_chemical_formula_sum "Si O2"
_cell_formula_units_Z 32
_cell_length_a 18.075565
_cell_length_b 9.081427
_cell_length_c 8.526647
_cell_angle_alpha 90.000000
_cell_angle_beta 90.000000
_cell_angle_gamma 90.000000
_cell_volume 1399.665511
_symmetry_space_group_name_H-M "P 21 21 21"
_symmetry_group_IT_number 19
_symmetry_cell_setting 'orthorhombic'
loop_
_space_group_symop_operation_xyz
x,y,z
1/2-x,-y,1/2+z
1/2+x,1/2-y,-z
-x,1/2+y,1/2-z
loop_
_atom_site_type_symbol
_atom_site_label
_atom_site_fract_x
_atom_site_fract_y
_atom_site_fract_z
Si Si1 0.799481 0.038994 0.283560
Si Si2 0.813676 0.341993 0.419886
Si Si3 0.027708 0.921080 0.077727
Si Si4 0.564697 0.314479 0.448635
Si Si5 0.540098 0.024677 0.895969
Si Si6 0.194743 0.994494 0.410003
Si Si7 0.087994 0.204658 0.917726
Si Si8 0.750049 0.205904 0.991839
O O1 0.777411 0.182383 0.387062
O O2 0.775069 0.075697 0.108460
O O3 0.886899 0.015591 0.298360
O O4 0.758298 0.886137 0.331005
O O5 0.899764 0.323709 0.463022
O O6 0.770976 0.417376 0.563216
O O7 0.807353 0.453210 0.271875
O O8 0.019580 0.923920 0.266541
O O9 0.952325 0.854742 0.999460
O O10 0.042952 0.083302 0.013586
O O11 0.488638 0.388991 0.502987
O O12 0.630448 0.392790 0.542616
O O13 0.579318 0.325023 0.265578
O O14 0.551283 0.144299 0.030476
O O15 0.190901 0.840722 0.512312
O O16 0.174705 0.212321 0.956694
#
# Coordination Sequence:
#
# PCOD8157376 Si02
#       8
#     4   4   4   4   4   4   4   4
#     4  10  23  43  67  96 141 178 232 287 347 418
#     4  11  23  43  67 104 136 184 234 291 351 418
#     4  12  24  44  71  99 139 186 236 291 355 426
#     4  12  24  44  67 104 139 184 232 297 355 420
#     4  11  24  43  70  99 136 185 238 288 352 429
#     4  11  24  41  72 100 142 180 240 285 353 420
#     4  11  25  45  67 102 141 181 239 296 356 424
#     4  10  23  45  67 102 140 186 231 291 347 421
#
# _framework density 22.862603
#
# number of rings (size 3 to 8) (size 9 to 14) (size 15 to 20)
#    0.000    1.000    3.750    3.000    0.000    3.000 
#    0.000    1.250    0.000    0.000    0.000    0.000 
#    0.000    0.000    0.000    0.000    0.000    0.000 
#
# Total GULP energy -396641.327350 kJ/mol
# GULP energy per Si atom -12395.041480 kJ/mol
# Density = 2.281057 g / cm^3
# Si number density = 22.862603 Si / 1000 Ang^3
#
#
#
# Elastic Constant Matrix: (Units=GPa)
#
#
# Indices 1 2 3 4 5 6 
#
# 1 87.2351 51.3216 28.1998 0.0000 0.0000 0.0000
# 2 51.3216 77.0115 17.3135 0.0000 0.0000 0.0000
# 3 28.1998 17.3135 57.3691 0.0000 0.0000 0.0000
# 4 0.0000 0.0000 0.0000 41.4878 0.0000 0.0000
# 5 0.0000 0.0000 0.0000 0.0000 28.0722 0.0000
# 6 0.0000 0.0000 0.0000 0.0000 0.0000 43.4758
#
#
#
# Elastic Compliance Matrix: (Units=1/GPa)
#
#
# Indices 1 2 3 4 5 6 
#
# 1 0.020902 -0.012465 -0.006512 0.000000 0.000000 0.000000
# 2 -0.012465 0.021364 -0.000320 0.000000 0.000000 0.000000
# 3 -0.006512 -0.000320 0.020729 0.000000 0.000000 0.000000
# 4 0.000000 0.000000 0.000000 0.024103 0.000000 0.000000
# 5 0.000000 0.000000 0.000000 0.000000 0.035622 0.000000
# 6 0.000000 0.000000 0.000000 0.000000 0.000000 0.023001
#
#
# Mechanical properties :
#
#
# Convention : Reuss Voigt Hill
#
# Bulk Modulus (GPa) = 40.98520 46.14283 43.56401
# Shear Modulus (GPa) = 25.98061 30.92588 28.45325
#
# Velocity S-wave (km/s) = 3.37468 3.68188 3.53162
# Velocity P-wave (km/s) = 5.75763 6.18881 5.97711
#
# Compressibility (1/GPa) = 0.02439905
#
# Stress axis : x y z
#
# Youngs Moduli (GPa) = 47.84218 46.80739 48.24201
#
# Poissons Ratio (x) = 0.58347 0.31418
# Poissons Ratio (y) = 0.59637 0.01545
# Poissons Ratio (z) = 0.31157 0.01499
#
# Static dielectric constant tensor:
#      x y z
#    x 4.203210 0.000000 0.000000 
#    y 0.000000 4.359770 0.000000 
#    z 0.000000 0.000000 3.910000 
# 
# 
# High freq. dielectric constant tensor:
#      x y z
#    x 1.900730 0.000000 0.000000 
#    y 0.000000 1.923100 0.000000 
#    z 0.000000 0.000000 1.885930 
# 
# From -- ./inp_files/4324.got.cif
#   From: 2010.03.12/outbox.cif.g09.slc.cpg/sg19_3_cif.got.tgz:4324.got - 2010.04.10 18:59:41.
