data_PCOD8157350
_publ_section_title
;
Structure prediction by ZEFSAII (Michael W. Deem and Ramdas Pophale) SiO2 
 PCOD8157350
Probable space group: P 21 21 21
;
_chemical_formula_sum "Si O2"
_cell_formula_units_Z 32
_cell_length_a 12.136400
_cell_length_b 6.876900
_cell_length_c 17.023003
_cell_angle_alpha 90.000000
_cell_angle_beta 90.000000
_cell_angle_gamma 90.000000
_cell_volume 1420.753605
_symmetry_space_group_name_H-M "P 21 21 21"
_symmetry_group_IT_number 19
_symmetry_cell_setting 'orthorhombic'
loop_
_space_group_symop_operation_xyz
x,y,z
1/2-x,-y,1/2+z
1/2+x,1/2-y,-z
-x,1/2+y,1/2-z
loop_
_atom_site_type_symbol
_atom_site_label
_atom_site_fract_x
_atom_site_fract_y
_atom_site_fract_z
Si Si1 0.901026 0.586164 0.476924
Si Si2 0.363734 0.993925 0.199280
Si Si3 0.902778 0.142615 0.701536
Si Si4 0.594465 0.753994 0.440333
Si Si5 0.274637 0.351280 0.751025
Si Si6 0.813044 0.209175 0.541558
Si Si7 0.203809 0.443692 0.099930
Si Si8 0.876892 0.059227 0.091935
O O1 0.813765 0.432328 0.511814
O O2 0.836370 0.725548 0.417290
O O3 0.963323 0.698980 0.550084
O O4 0.997283 0.488305 0.422978
O O5 0.472252 0.883412 0.230460
O O6 0.257364 0.856881 0.212220
O O7 0.343627 0.186746 0.249924
O O8 0.384214 0.053937 0.107361
O O9 0.904994 0.191962 0.608919
O O10 0.836667 0.944705 0.715506
O O11 0.661143 0.931868 0.396686
O O12 0.649478 0.765598 0.528659
O O13 0.335351 0.478282 0.684089
O O14 0.360721 0.341383 0.823038
O O15 0.697344 0.134146 0.578275
O O16 0.846196 0.079821 0.467208
#
# Coordination Sequence:
#
# PCOD8157350 Si02
#       8
#     4   4   4   4   4   4   4   4
#     4  10  23  46  69  94 139 186 228 296 341 410
#     4  12  23  38  66  99 139 182 223 295 361 412
#     4  11  24  38  63 104 134 173 231 286 363 419
#     4   9  22  43  67  95 139 177 228 291 344 414
#     4  11  24  44  65  98 143 181 233 290 345 422
#     4  10  23  41  71 100 131 183 234 281 350 425
#     4  11  23  44  67 101 135 178 242 283 341 433
#     4   8  22  48  66 101 146 176 235 294 343 423
#
# _framework density 22.523257999999998
#
# number of rings (size 3 to 8) (size 9 to 14) (size 15 to 20)
#    0.750    1.000    2.500    0.750    5.250    3.000 
#    4.500    1.250    0.000    0.000    0.000    0.000 
#    0.000    0.000    0.000    0.000    0.000    0.000 
#
# Total GULP energy -396421.152330 kJ/mol
# GULP energy per Si atom -12388.161010 kJ/mol
# Density = 2.247199 g / cm^3
# Si number density = 22.523258 Si / 1000 Ang^3
#
#
#
# Elastic Constant Matrix: (Units=GPa)
#
#
# Indices 1 2 3 4 5 6 
#
# 1 49.1441 24.5511 15.3434 0.0000 0.0000 0.0000
# 2 24.5511 113.4696 48.2684 0.0000 0.0000 0.0000
# 3 15.3434 48.2684 129.0470 0.0000 0.0000 0.0000
# 4 0.0000 0.0000 0.0000 42.8796 0.0000 0.0000
# 5 0.0000 0.0000 0.0000 0.0000 22.2984 0.0000
# 6 0.0000 0.0000 0.0000 0.0000 0.0000 28.4537
#
#
#
# Elastic Compliance Matrix: (Units=1/GPa)
#
#
# Indices 1 2 3 4 5 6 
#
# 1 0.022930 -0.004521 -0.001035 0.000000 0.000000 0.000000
# 2 -0.004521 0.011372 -0.003716 0.000000 0.000000 0.000000
# 3 -0.001035 -0.003716 0.009262 0.000000 0.000000 0.000000
# 4 0.000000 0.000000 0.000000 0.023321 0.000000 0.000000
# 5 0.000000 0.000000 0.000000 0.000000 0.044846 0.000000
# 6 0.000000 0.000000 0.000000 0.000000 0.000000 0.035145
#
#
# Mechanical properties :
#
#
# Convention : Reuss Voigt Hill
#
# Bulk Modulus (GPa) = 39.96860 51.99849 45.98355
# Shear Modulus (GPa) = 28.77522 32.29285 30.53403
#
# Velocity S-wave (km/s) = 3.57820 3.79060 3.68593
# Velocity P-wave (km/s) = 5.90384 6.50346 6.21089
#
# Compressibility (1/GPa) = 0.02501964
#
# Stress axis : x y z
#
# Youngs Moduli (GPa) = 43.61078 87.93657 107.96654
#
# Poissons Ratio (x) = 0.39755 0.11178
# Poissons Ratio (y) = 0.19716 0.40120
# Poissons Ratio (z) = 0.04515 0.32677
#
# Static dielectric constant tensor:
#      x y z
#    x 3.809880 0.000000 0.000000 
#    y 0.000000 3.768380 0.000000 
#    z 0.000000 0.000000 4.179630 
# 
# 
# High freq. dielectric constant tensor:
#      x y z
#    x 1.861630 0.000000 0.000000 
#    y 0.000000 1.867620 0.000000 
#    z 0.000000 0.000000 1.895730 
# 
# From -- ./inp_files/6819.got.cif
#   From: 2010.03.12/outbox.cif.g09.slc.cpg/sg19_4_cif.got.tgz:6819.got - 2010.04.10 18:59:41.
