data_PCOD8157598
_publ_section_title
;
Structure prediction by ZEFSAII (Michael W. Deem and Ramdas Pophale) SiO2 
 PCOD8157598
Probable space group: P 21 21 21
;
_chemical_formula_sum "Si O2"
_cell_formula_units_Z 32
_cell_length_a 9.301995
_cell_length_b 18.012584
_cell_length_c 8.807565
_cell_angle_alpha 90.000000
_cell_angle_beta 90.000000
_cell_angle_gamma 90.000000
_cell_volume 1475.733642
_symmetry_space_group_name_H-M "P 21 21 21"
_symmetry_group_IT_number 19
_symmetry_cell_setting 'orthorhombic'
loop_
_space_group_symop_operation_xyz
x,y,z
1/2-x,-y,1/2+z
1/2+x,1/2-y,-z
-x,1/2+y,1/2-z
loop_
_atom_site_type_symbol
_atom_site_label
_atom_site_fract_x
_atom_site_fract_y
_atom_site_fract_z
Si Si1 0.918158 0.612771 0.583384
Si Si2 0.139312 0.498497 0.028786
Si Si3 0.851235 0.380578 0.289655
Si Si4 0.865365 0.240823 0.865405
Si Si5 0.928142 0.830659 0.425941
Si Si6 0.929232 0.978025 0.807494
Si Si7 0.646018 0.641067 0.127941
Si Si8 0.099389 0.050477 0.240686
O O1 0.768516 0.638239 0.660994
O O2 0.922412 0.608696 0.398987
O O3 0.046065 0.664845 0.643729
O O4 0.942604 0.529185 0.634650
O O5 0.123163 0.410488 0.021069
O O6 0.298955 0.520671 0.074136
O O7 0.033803 0.543499 0.141637
O O8 0.115402 0.516095 0.851954
O O9 0.827324 0.342633 0.450999
O O10 0.864802 0.468506 0.319139
O O11 0.001434 0.343576 0.238383
O O12 0.704974 0.226020 0.928837
O O13 0.844575 0.277358 0.700710
O O14 0.946107 0.300378 0.967879
O O15 0.993768 0.894797 0.816380
O O16 0.768609 0.583351 0.170041
#
# Coordination Sequence:
#
# PCOD8157598 Si02
#       8
#     4   4   4   4   4   4   4   4
#     4  12  24  43  72 102 141 182 230 288 352 416
#     4  11  25  41  70 103 137 171 231 294 349 401
#     4  11  23  41  68 100 132 175 231 292 333 405
#     4  12  26  45  66  98 138 189 227 281 354 428
#     4  11  24  44  67  94 136 179 228 278 342 419
#     4  12  23  43  67 102 134 178 228 293 343 409
#     4  12  25  42  70  98 136 183 231 279 350 416
#     4  11  22  41  68 103 130 177 230 285 339 416
#
# _framework density 21.684128999999999
#
# number of rings (size 3 to 8) (size 9 to 14) (size 15 to 20)
#    0.000    0.500    5.000    3.750    3.500    1.000 
#    0.000    1.250    0.000    0.000    0.000    0.000 
#    0.000    0.000    0.000    0.000    0.000    0.000 
#
# Total GULP energy -396640.392980 kJ/mol
# GULP energy per Si atom -12395.012281 kJ/mol
# Density = 2.163477 g / cm^3
# Si number density = 21.684129 Si / 1000 Ang^3
#
#
#
# Elastic Constant Matrix: (Units=GPa)
#
#
# Indices 1 2 3 4 5 6 
#
# 1 111.2704 25.8327 17.2318 0.0000 0.0000 0.0000
# 2 25.8327 50.5890 4.9465 0.0000 0.0000 0.0000
# 3 17.2318 4.9465 84.6310 0.0000 0.0000 0.0000
# 4 0.0000 0.0000 0.0000 -2.5741 0.0000 0.0000
# 5 0.0000 0.0000 0.0000 0.0000 32.2622 0.0000
# 6 0.0000 0.0000 0.0000 0.0000 0.0000 23.7182
#
#
#
# Elastic Compliance Matrix: (Units=1/GPa)
#
#
# Indices 1 2 3 4 5 6 
#
# 1 0.010470 -0.005168 -0.001830 0.000000 0.000000 0.000000
# 2 -0.005168 0.022431 -0.000259 0.000000 0.000000 0.000000
# 3 -0.001830 -0.000259 0.012204 0.000000 0.000000 0.000000
# 4 0.000000 0.000000 0.000000 -0.388485 0.000000 0.000000
# 5 0.000000 0.000000 0.000000 0.000000 0.030996 0.000000
# 6 0.000000 0.000000 0.000000 0.000000 0.000000 0.042162
#
#
# Mechanical properties :
#
#
# Convention : Reuss Voigt Hill
#
# Bulk Modulus (GPa) = 32.68767 38.05694 35.37230
# Shear Modulus (GPa) = -20.36558 23.91323 1.77383
#
# Velocity S-wave (km/s) = -3.06795 3.32444 0.90543
# Velocity P-wave (km/s) = 1.59920 5.68547 4.17624
#
# Compressibility (1/GPa) = 0.03059258
#
# Stress axis : x y z
#
# Youngs Moduli (GPa) = 95.50921 44.58073 81.94237
#
# Poissons Ratio (x) = 0.23037 0.14994
# Poissons Ratio (y) = 0.49355 0.02121
# Poissons Ratio (z) = 0.17476 0.01154
#
# Static dielectric constant tensor:
#      x y z
#    x 3.989030 0.000000 0.000000 
#    y 0.000000 3.767220 0.000000 
#    z 0.000000 0.000000 4.097800 
# 
# 
# High freq. dielectric constant tensor:
#      x y z
#    x 1.861970 0.000000 0.000000 
#    y 0.000000 1.842770 0.000000 
#    z 0.000000 0.000000 1.857360 
# 
# From -- ./inp_files/3184.got.cif
#   From: 2010.03.12/outbox.cif.g09.slc.cpg/sg19_2_cif.got.tgz:3184.got - 2010.04.10 18:59:41.
