data_PCOD8157745
_publ_section_title
;
Structure prediction by ZEFSAII (Michael W. Deem and Ramdas Pophale) SiO2 
 PCOD8157745
Probable space group: P 21 21 21
;
_chemical_formula_sum "Si O2"
_cell_formula_units_Z 16
_cell_length_a 4.733210
_cell_length_b 24.453704
_cell_length_c 5.010726
_cell_angle_alpha 90.000000
_cell_angle_beta 90.000000
_cell_angle_gamma 90.000000
_cell_volume 579.964057
_symmetry_space_group_name_H-M "P 21 21 21"
_symmetry_group_IT_number 19
_symmetry_cell_setting 'orthorhombic'
loop_
_space_group_symop_operation_xyz
x,y,z
1/2-x,-y,1/2+z
1/2+x,1/2-y,-z
-x,1/2+y,1/2-z
loop_
_atom_site_type_symbol
_atom_site_label
_atom_site_fract_x
_atom_site_fract_y
_atom_site_fract_z
Si Si1 0.849539 0.113428 0.265302
Si Si2 0.134026 0.214083 0.973696
Si Si3 0.292029 0.965128 0.479565
Si Si4 0.331237 0.124123 0.619877
O O1 0.526818 0.121118 0.356380
O O2 0.977281 0.170022 0.156638
O O3 0.908050 0.063120 0.062246
O O4 0.023753 0.101511 0.536023
O O5 0.382726 0.246250 0.131772
O O6 0.299937 0.185853 0.726465
O O7 0.079885 0.917713 0.360193
O O8 0.349724 0.010276 0.249618
#
# Coordination Sequence:
#
# PCOD8157745 Si02
#       4
#     4   4   4   4
#     4  11  25  48  76 114 162 209 266 331 398 480
#     4  11  24  44  76 116 160 212 268 331 402 476
#     4  11  24  52  78 122 162 216 264 333 398 478
#     4  11  25  48  76 114 162 209 266 331 398 480
#
# _framework density 27.587916
#
# number of rings (size 3 to 8) (size 9 to 14) (size 15 to 20)
#    0.000    1.000    2.500    3.000    0.000   10.000 
#    9.000    0.000    0.000    0.000    0.000    0.000 
#    0.000    0.000    0.000    0.000    0.000    0.000 
#
# Total GULP energy -198253.057785 kJ/mol
# GULP energy per Si atom -12390.816112 kJ/mol
# Density = 2.752513 g / cm^3
# Si number density = 27.587916 Si / 1000 Ang^3
#
#
#
# Elastic Constant Matrix: (Units=GPa)
#
#
# Indices 1 2 3 4 5 6 
#
# 1 75.5668 19.7269 3.9583 0.0000 0.0000 0.0000
# 2 19.7269 126.9814 26.7184 0.0000 0.0000 0.0000
# 3 3.9583 26.7184 116.2089 0.0000 0.0000 0.0000
# 4 0.0000 0.0000 0.0000 34.1481 0.0000 0.0000
# 5 0.0000 0.0000 0.0000 0.0000 48.1711 0.0000
# 6 0.0000 0.0000 0.0000 0.0000 0.0000 23.1747
#
#
#
# Elastic Compliance Matrix: (Units=1/GPa)
#
#
# Indices 1 2 3 4 5 6 
#
# 1 0.013793 -0.002148 0.000024 0.000000 0.000000 0.000000
# 2 -0.002148 0.008610 -0.001906 0.000000 0.000000 0.000000
# 3 0.000024 -0.001906 0.009043 0.000000 0.000000 0.000000
# 4 0.000000 0.000000 0.000000 0.029284 0.000000 0.000000
# 5 0.000000 0.000000 0.000000 0.000000 0.020759 0.000000
# 6 0.000000 0.000000 0.000000 0.000000 0.000000 0.043150
#
#
# Mechanical properties :
#
#
# Convention : Reuss Voigt Hill
#
# Bulk Modulus (GPa) = 42.76247 46.61828 44.69038
# Shear Modulus (GPa) = 35.58849 38.98902 37.28875
#
# Velocity S-wave (km/s) = 3.59556 3.76342 3.68045
# Velocity P-wave (km/s) = 5.72464 5.98491 5.85622
#
# Compressibility (1/GPa) = 0.02338499
#
# Stress axis : x y z
#
# Youngs Moduli (GPa) = 72.50186 116.14438 110.58652
#
# Poissons Ratio (x) = 0.24945 -0.00266
# Poissons Ratio (y) = 0.15572 0.21082
# Poissons Ratio (z) = -0.00174 0.22142
#
# Static dielectric constant tensor:
#      x y z
#    x 4.680890 0.000000 0.000000 
#    y 0.000000 5.397480 0.000000 
#    z 0.000000 0.000000 4.997240 
# 
# 
# High freq. dielectric constant tensor:
#      x y z
#    x 2.096090 0.000000 0.000000 
#    y 0.000000 2.129420 0.000000 
#    z 0.000000 0.000000 2.118940 
# 
# From -- ./inp_files/136.got.cif
#   From: 2010.03.12/outbox.cif.g09.slc.cpg/sg19_1_cif.got.tgz:136.got - 2010.04.10 18:59:41.
