data_PCOD8157856
_publ_section_title
;
Structure prediction by ZEFSAII (Michael W. Deem and Ramdas Pophale) SiO2 
 PCOD8157856
Probable space group: P 21 21 21
;
_chemical_formula_sum "Si O2"
_cell_formula_units_Z 24
_cell_length_a 5.268925
_cell_length_b 9.779345
_cell_length_c 18.320214
_cell_angle_alpha 90.000000
_cell_angle_beta 90.000000
_cell_angle_gamma 90.000000
_cell_volume 943.978986
_symmetry_space_group_name_H-M "P 21 21 21"
_symmetry_group_IT_number 19
_symmetry_cell_setting 'orthorhombic'
loop_
_space_group_symop_operation_xyz
x,y,z
1/2-x,-y,1/2+z
1/2+x,1/2-y,-z
-x,1/2+y,1/2-z
loop_
_atom_site_type_symbol
_atom_site_label
_atom_site_fract_x
_atom_site_fract_y
_atom_site_fract_z
Si Si1 0.218327 0.924102 0.757776
Si Si2 0.651005 0.024964 0.136050
Si Si3 0.152853 0.661840 0.000308
Si Si4 0.784882 0.727055 0.544180
Si Si5 0.411851 0.642845 0.738645
Si Si6 0.594640 0.991010 0.379110
O O1 0.427693 0.802756 0.759541
O O2 0.318548 0.075668 0.780599
O O3 0.104590 0.931030 0.677237
O O4 0.016621 0.894806 0.822869
O O5 0.832789 0.947831 0.191921
O O6 0.784341 0.164815 0.108177
O O7 0.578813 0.927234 0.069502
O O8 0.201290 0.565319 0.069942
O O9 0.411288 0.743939 0.982244
O O10 0.525147 0.706888 0.499285
O O11 0.873199 0.578477 0.572411
O O12 0.228842 0.626736 0.668978
#
# Coordination Sequence:
#
# PCOD8157856 Si02
#       6
#     4   4   4   4   4   4
#     4  11  27  47  79 112 156 202 264 319 390 456
#     4  11  27  49  73 113 151 201 257 320 384 461
#     4  12  30  50  79 113 157 202 256 319 394 465
#     4  12  28  48  81 114 154 201 258 319 388 461
#     4  11  27  47  78 111 154 206 259 324 383 463
#     4  11  27  49  76 111 152 202 260 321 389 462
#
# _framework density 25.424296999999999
#
# number of rings (size 3 to 8) (size 9 to 14) (size 15 to 20)
#    0.000    0.667    3.333    1.000   16.333    1.333 
#    0.000    0.000    0.000    0.000    0.000    0.000 
#    0.000    0.000    0.000    0.000    0.000    0.000 
#
# Total GULP energy -297589.573883 kJ/mol
# GULP energy per Si atom -12399.565578 kJ/mol
# Density = 2.536643 g / cm^3
# Si number density = 25.424297 Si / 1000 Ang^3
#
#
#
# Elastic Constant Matrix: (Units=GPa)
#
#
# Indices 1 2 3 4 5 6 
#
# 1 82.7208 18.2811 28.9110 0.0000 0.0000 0.0000
# 2 18.2811 114.9352 38.4926 0.0000 0.0000 0.0000
# 3 28.9110 38.4926 130.3689 0.0000 0.0000 0.0000
# 4 0.0000 0.0000 0.0000 23.8951 0.0000 0.0000
# 5 0.0000 0.0000 0.0000 0.0000 22.0108 0.0000
# 6 0.0000 0.0000 0.0000 0.0000 0.0000 45.5724
#
#
#
# Elastic Compliance Matrix: (Units=1/GPa)
#
#
# Indices 1 2 3 4 5 6 
#
# 1 0.013264 -0.001248 -0.002573 0.000000 0.000000 0.000000
# 2 -0.001248 0.009773 -0.002609 0.000000 0.000000 0.000000
# 3 -0.002573 -0.002609 0.009011 0.000000 0.000000 0.000000
# 4 0.000000 0.000000 0.000000 0.041850 0.000000 0.000000
# 5 0.000000 0.000000 0.000000 0.000000 0.045432 0.000000
# 6 0.000000 0.000000 0.000000 0.000000 0.000000 0.021943
#
#
# Mechanical properties :
#
#
# Convention : Reuss Voigt Hill
#
# Bulk Modulus (GPa) = 52.11415 55.48827 53.80121
# Shear Modulus (GPa) = 31.14710 34.45166 32.79938
#
# Velocity S-wave (km/s) = 3.50393 3.68512 3.59567
# Velocity P-wave (km/s) = 6.07555 6.32290 6.20046
#
# Compressibility (1/GPa) = 0.01918865
#
# Stress axis : x y z
#
# Youngs Moduli (GPa) = 75.39250 102.32547 110.97073
#
# Poissons Ratio (x) = 0.12770 0.28552
# Poissons Ratio (y) = 0.09409 0.28949
# Poissons Ratio (z) = 0.19398 0.26694
#
# Static dielectric constant tensor:
#      x y z
#    x 4.431330 0.000000 0.000000 
#    y 0.000000 4.516220 0.000000 
#    z 0.000000 0.000000 4.834810 
# 
# 
# High freq. dielectric constant tensor:
#      x y z
#    x 2.005910 0.000000 0.000000 
#    y 0.000000 2.017630 0.000000 
#    z 0.000000 0.000000 2.036310 
# 
# From -- ./inp_files/2390.got.cif
#   From: 2010.03.12/outbox.cif.g09.slc.cpg/sg19_2_cif.got.tgz:2390.got - 2010.04.10 18:59:41.
