data_PCOD8157823
_publ_section_title
;
Structure prediction by ZEFSAII (Michael W. Deem and Ramdas Pophale) SiO2 
 PCOD8157823
Probable space group: P 21 21 21
;
_chemical_formula_sum "Si O2"
_cell_formula_units_Z 20
_cell_length_a 9.162947
_cell_length_b 9.177954
_cell_length_c 9.674636
_cell_angle_alpha 90.000000
_cell_angle_beta 90.000000
_cell_angle_gamma 90.000000
_cell_volume 813.608890
_symmetry_space_group_name_H-M "P 21 21 21"
_symmetry_group_IT_number 19
_symmetry_cell_setting 'orthorhombic'
loop_
_space_group_symop_operation_xyz
x,y,z
1/2-x,-y,1/2+z
1/2+x,1/2-y,-z
-x,1/2+y,1/2-z
loop_
_atom_site_type_symbol
_atom_site_label
_atom_site_fract_x
_atom_site_fract_y
_atom_site_fract_z
Si Si1 0.389544 0.882395 0.273141
Si Si2 0.295103 0.338943 0.157062
Si Si3 0.908257 0.697292 0.130984
Si Si4 0.235390 0.662148 0.116226
Si Si5 0.303127 0.064586 0.011141
O O1 0.564071 0.879174 0.249124
O O2 0.328410 0.718223 0.248512
O O3 0.354069 0.935887 0.429813
O O4 0.308392 0.984039 0.159568
O O5 0.169119 0.239326 0.225829
O O6 0.222152 0.488163 0.108675
O O7 0.351499 0.233878 0.031659
O O8 0.077762 0.739534 0.128739
O O9 0.817439 0.788447 0.020447
O O10 0.905506 0.524057 0.095972
#
# Coordination Sequence:
#
# PCOD8157823 Si02
#       5
#     4   4   4   4   4
#     4  11  26  48  78 111 152 204 249 327 384 460
#     4  12  27  47  80 108 151 202 263 307 393 462
#     4  11  26  49  68 117 152 200 249 326 372 465
#     4  11  28  45  78 104 158 197 258 313 386 459
#     4  11  25  47  78 106 155 197 253 317 381 450
#
# _framework density 24.581835999999999
#
# number of rings (size 3 to 8) (size 9 to 14) (size 15 to 20)
#    0.000    0.800    2.000    3.600   14.000    0.000 
#    0.000    0.000    0.000    0.000    0.000    0.000 
#    0.000    0.000    0.000    0.000    0.000    0.000 
#
# Total GULP energy -247780.116463 kJ/mol
# GULP energy per Si atom -12389.005823 kJ/mol
# Density = 2.452589 g / cm^3
# Si number density = 24.581836 Si / 1000 Ang^3
#
#
#
# Elastic Constant Matrix: (Units=GPa)
#
#
# Indices 1 2 3 4 5 6 
#
# 1 133.3882 16.7960 -1.4747 0.0000 0.0000 0.0000
# 2 16.7960 120.9349 -8.9966 0.0000 0.0000 0.0000
# 3 -1.4747 -8.9966 15.9725 0.0000 0.0000 0.0000
# 4 0.0000 0.0000 0.0000 41.7212 0.0000 0.0000
# 5 0.0000 0.0000 0.0000 0.0000 28.2330 0.0000
# 6 0.0000 0.0000 0.0000 0.0000 0.0000 31.0774
#
#
#
# Elastic Compliance Matrix: (Units=1/GPa)
#
#
# Indices 1 2 3 4 5 6 
#
# 1 0.007631 -0.001051 0.000112 0.000000 0.000000 0.000000
# 2 -0.001051 0.008775 0.004846 0.000000 0.000000 0.000000
# 3 0.000112 0.004846 0.065347 0.000000 0.000000 0.000000
# 4 0.000000 0.000000 0.000000 0.023969 0.000000 0.000000
# 5 0.000000 0.000000 0.000000 0.000000 0.035420 0.000000
# 6 0.000000 0.000000 0.000000 0.000000 0.000000 0.032178
#
#
# Mechanical properties :
#
#
# Convention : Reuss Voigt Hill
#
# Bulk Modulus (GPa) = 11.16487 31.43834 21.30161
# Shear Modulus (GPa) = 25.59356 37.80437 31.69896
#
# Velocity S-wave (km/s) = 3.23020 3.92586 3.59490
# Velocity P-wave (km/s) = 4.29698 5.77640 5.09072
#
# Compressibility (1/GPa) = 0.08956661
#
# Stress axis : x y z
#
# Youngs Moduli (GPa) = 131.05216 113.95470 15.30282
#
# Poissons Ratio (x) = 0.11981 -0.00172
# Poissons Ratio (y) = 0.13779 -0.07415
# Poissons Ratio (z) = -0.01472 -0.55219
#
# Static dielectric constant tensor:
#      x y z
#    x 4.177710 0.000000 0.000000 
#    y 0.000000 4.768800 0.000000 
#    z 0.000000 0.000000 4.360150 
# 
# 
# High freq. dielectric constant tensor:
#      x y z
#    x 1.970380 0.000000 0.000000 
#    y 0.000000 1.990040 0.000000 
#    z 0.000000 0.000000 1.963920 
# 
# From -- ./inp_files/2565.got.cif
#   From: 2010.03.12/outbox.cif.g09.slc.cpg/sg19_2_cif.got.tgz:2565.got - 2010.04.10 18:59:41.
