data_PCOD8157868
_publ_section_title
;
Structure prediction by ZEFSAII (Michael W. Deem and Ramdas Pophale) SiO2 
 PCOD8157868
Probable space group: P 21 21 21
;
_chemical_formula_sum "Si O2"
_cell_formula_units_Z 32
_cell_length_a 18.837801
_cell_length_b 11.978528
_cell_length_c 6.709103
_cell_angle_alpha 90.000000
_cell_angle_beta 90.000000
_cell_angle_gamma 90.000000
_cell_volume 1513.903233
_symmetry_space_group_name_H-M "P 21 21 21"
_symmetry_group_IT_number 19
_symmetry_cell_setting 'orthorhombic'
loop_
_space_group_symop_operation_xyz
x,y,z
1/2-x,-y,1/2+z
1/2+x,1/2-y,-z
-x,1/2+y,1/2-z
loop_
_atom_site_type_symbol
_atom_site_label
_atom_site_fract_x
_atom_site_fract_y
_atom_site_fract_z
Si Si1 0.896632 0.685297 0.266451
Si Si2 0.236942 0.333314 0.205165
Si Si3 0.539751 0.011224 0.134295
Si Si4 0.566857 0.566203 0.703449
Si Si5 0.358462 0.284560 0.913903
Si Si6 0.979317 0.833988 0.953471
Si Si7 0.180243 0.563781 0.053322
Si Si8 0.999314 0.177108 0.882405
O O1 0.817132 0.730626 0.274524
O O2 0.896842 0.554787 0.210422
O O3 0.936324 0.750669 0.091416
O O4 0.933104 0.707425 0.480650
O O5 0.200406 0.435404 0.089821
O O6 0.260191 0.378688 0.419267
O O7 0.304829 0.281473 0.097048
O O8 0.571739 0.090339 0.311201
O O9 0.483834 0.932383 0.251277
O O10 0.496363 0.074889 0.960325
O O11 0.602995 0.936783 0.047518
O O12 0.627070 0.658166 0.659415
O O13 0.532469 0.590450 0.918184
O O14 0.322787 0.361597 0.748646
O O15 0.432505 0.342894 0.972397
O O16 0.022961 0.769937 0.780736
#
# Coordination Sequence:
#
# PCOD8157868 Si02
#       8
#     4   4   4   4   4   4   4   4
#     4  12  27  46  69 109 148 188 245 304 365 443
#     4  12  28  47  70 102 145 192 250 303 371 436
#     4  12  24  41  74 106 141 182 236 305 363 430
#     4  12  25  46  69 107 147 187 241 296 364 437
#     4  12  26  47  72 104 144 190 247 297 369 436
#     4  12  23  41  74 103 141 181 233 299 366 426
#     4  12  26  47  73 104 141 191 247 308 368 434
#     4  12  23  43  73 107 139 183 239 302 368 424
#
# _framework density 21.137412999999999
#
# number of rings (size 3 to 8) (size 9 to 14) (size 15 to 20)
#    0.000    0.000    7.500    3.000    3.500    1.000 
#    2.250    0.000    0.000    0.000    0.000    0.000 
#    0.000    0.000    0.000    0.000    0.000    0.000 
#
# Total GULP energy -396722.097502 kJ/mol
# GULP energy per Si atom -12397.565547 kJ/mol
# Density = 2.108930 g / cm^3
# Si number density = 21.137413 Si / 1000 Ang^3
#
#
#
# Elastic Constant Matrix: (Units=GPa)
#
#
# Indices 1 2 3 4 5 6 
#
# 1 70.9883 18.3366 14.8500 0.0000 0.0000 0.0000
# 2 18.3366 99.3188 27.7243 0.0000 0.0000 0.0000
# 3 14.8500 27.7243 105.6225 0.0000 0.0000 0.0000
# 4 0.0000 0.0000 0.0000 46.4762 0.0000 0.0000
# 5 0.0000 0.0000 0.0000 0.0000 32.6083 0.0000
# 6 0.0000 0.0000 0.0000 0.0000 0.0000 39.0094
#
#
#
# Elastic Compliance Matrix: (Units=1/GPa)
#
#
# Indices 1 2 3 4 5 6 
#
# 1 0.015007 -0.002354 -0.001492 0.000000 0.000000 0.000000
# 2 -0.002354 0.011234 -0.002618 0.000000 0.000000 0.000000
# 3 -0.001492 -0.002618 0.010365 0.000000 0.000000 0.000000
# 4 0.000000 0.000000 0.000000 0.021516 0.000000 0.000000
# 5 0.000000 0.000000 0.000000 0.000000 0.030667 0.000000
# 6 0.000000 0.000000 0.000000 0.000000 0.000000 0.025635
#
#
# Mechanical properties :
#
#
# Convention : Reuss Voigt Hill
#
# Bulk Modulus (GPa) = 42.23378 44.19460 43.21419
# Shear Modulus (GPa) = 36.97015 37.95335 37.46175
#
# Velocity S-wave (km/s) = 4.18669 4.24199 4.21443
# Velocity P-wave (km/s) = 6.58750 6.70420 6.64610
#
# Compressibility (1/GPa) = 0.02367773
#
# Stress axis : x y z
#
# Youngs Moduli (GPa) = 66.63543 89.01581 96.48254
#
# Poissons Ratio (x) = 0.20956 0.14395
# Poissons Ratio (y) = 0.15687 0.25257
# Poissons Ratio (z) = 0.09942 0.23302
#
# Static dielectric constant tensor:
#      x y z
#    x 3.542490 0.000000 0.000000 
#    y 0.000000 4.084530 0.000000 
#    z 0.000000 0.000000 4.128880 
# 
# 
# High freq. dielectric constant tensor:
#      x y z
#    x 1.794180 0.000000 0.000000 
#    y 0.000000 1.845840 0.000000 
#    z 0.000000 0.000000 1.855990 
# 
# From -- ./inp_files/2035.got.cif
#   From: 2010.03.12/outbox.cif.g09.slc.cpg/sg19_2_cif.got.tgz:2035.got - 2010.04.10 18:59:41.
