data_PCOD8157148
_publ_section_title
;
Structure prediction by ZEFSAII (Michael W. Deem and Ramdas Pophale) SiO2 
 PCOD8157148
Probable space group: P 21 21 21
;
_chemical_formula_sum "Si O2"
_cell_formula_units_Z 32
_cell_length_a 11.282925
_cell_length_b 5.372607
_cell_length_c 22.990073
_cell_angle_alpha 90.000000
_cell_angle_beta 90.000000
_cell_angle_gamma 90.000000
_cell_volume 1393.628840
_symmetry_space_group_name_H-M "P 21 21 21"
_symmetry_group_IT_number 19
_symmetry_cell_setting 'orthorhombic'
loop_
_space_group_symop_operation_xyz
x,y,z
1/2-x,-y,1/2+z
1/2+x,1/2-y,-z
-x,1/2+y,1/2-z
loop_
_atom_site_type_symbol
_atom_site_label
_atom_site_fract_x
_atom_site_fract_y
_atom_site_fract_z
Si Si1 0.430599 0.933982 0.230690
Si Si2 0.158554 0.902455 0.271651
Si Si3 0.447794 0.599303 0.817500
Si Si4 0.584895 0.331075 0.400952
Si Si5 0.658081 0.609949 0.516050
Si Si6 0.112723 0.847521 0.974441
Si Si7 0.722925 0.015634 0.943051
Si Si8 0.469666 0.856129 0.574136
O O1 0.501898 0.679246 0.245463
O O2 0.422177 0.966306 0.160895
O O3 0.297348 0.918056 0.255693
O O4 0.124994 0.146075 0.309705
O O5 0.071900 0.906150 0.216555
O O6 0.134438 0.641216 0.304206
O O7 0.490488 0.578000 0.884075
O O8 0.609311 0.512058 0.454546
O O9 0.455041 0.219490 0.415165
O O10 0.689276 0.124745 0.398741
O O11 0.755806 0.428075 0.543538
O O12 0.709619 0.879760 0.499621
O O13 0.567974 0.639168 0.569513
O O14 0.120695 0.651039 0.027530
O O15 0.040571 0.066406 0.006317
O O16 0.656169 0.233218 0.905795
#
# Coordination Sequence:
#
# PCOD8157148 Si02
#       8
#     4   4   4   4   4   4   4   4
#     4  12  30  51  75 103 139 196 257 300 350 431
#     4  10  24  49  67 107 135 183 251 289 369 410
#     4  10  24  43  77 100 143 182 227 319 353 414
#     4  11  24  44  72  95 143 186 229 296 353 415
#     4  10  22  40  64 103 138 178 220 281 355 438
#     4  10  22  40  63 102 136 178 225 272 349 443
#     4  10  22  39  64 100 134 178 222 275 347 432
#     4  11  22  38  68 104 138 173 233 278 366 427
#
# _framework density 22.961635999999999
#
# number of rings (size 3 to 8) (size 9 to 14) (size 15 to 20)
#    0.000    1.500    2.500    0.750    8.750    3.000 
#    4.500    0.000    0.000    0.000    0.000    0.000 
#    0.000    0.000    0.000    0.000    0.000    0.000 
#
# Total GULP energy -396474.425423 kJ/mol
# GULP energy per Si atom -12389.825794 kJ/mol
# Density = 2.290937 g / cm^3
# Si number density = 22.961636 Si / 1000 Ang^3
#
#
#
# Elastic Constant Matrix: (Units=GPa)
#
#
# Indices 1 2 3 4 5 6 
#
# 1 115.2023 36.2847 29.3296 0.0000 0.0000 0.0000
# 2 36.2847 97.1075 0.9221 0.0000 0.0000 0.0000
# 3 29.3296 0.9221 49.4152 0.0000 0.0000 0.0000
# 4 0.0000 0.0000 0.0000 28.2833 0.0000 0.0000
# 5 0.0000 0.0000 0.0000 0.0000 22.9104 0.0000
# 6 0.0000 0.0000 0.0000 0.0000 0.0000 33.0045
#
#
#
# Elastic Compliance Matrix: (Units=1/GPa)
#
#
# Indices 1 2 3 4 5 6 
#
# 1 0.011815 -0.004349 -0.006931 0.000000 0.000000 0.000000
# 2 -0.004349 0.011900 0.002359 0.000000 0.000000 0.000000
# 3 -0.006931 0.002359 0.024307 0.000000 0.000000 0.000000
# 4 0.000000 0.000000 0.000000 0.035357 0.000000 0.000000
# 5 0.000000 0.000000 0.000000 0.000000 0.043648 0.000000
# 6 0.000000 0.000000 0.000000 0.000000 0.000000 0.030299
#
#
# Mechanical properties :
#
#
# Convention : Reuss Voigt Hill
#
# Bulk Modulus (GPa) = 33.13479 43.86642 38.50060
# Shear Modulus (GPa) = 26.99382 29.85220 28.42301
#
# Velocity S-wave (km/s) = 3.43243 3.60959 3.52212
# Velocity P-wave (km/s) = 5.49278 6.04300 5.77445
#
# Compressibility (1/GPa) = 0.03017976
#
# Stress axis : x y z
#
# Youngs Moduli (GPa) = 84.63990 84.03063 41.14104
#
# Poissons Ratio (x) = 0.36543 0.28516
# Poissons Ratio (y) = 0.36808 -0.09706
# Poissons Ratio (z) = 0.58666 -0.19824
#
# Static dielectric constant tensor:
#      x y z
#    x 4.451620 0.000000 0.000000 
#    y 0.000000 4.321850 0.000000 
#    z 0.000000 0.000000 3.733720 
# 
# 
# High freq. dielectric constant tensor:
#      x y z
#    x 1.927430 0.000000 0.000000 
#    y 0.000000 1.918700 0.000000 
#    z 0.000000 0.000000 1.874700 
# 
# From -- ./inp_files/7187.got.cif
#   From: 2010.03.12/outbox.cif.g09.slc.cpg/sg19_4_cif.got.tgz:7187.got - 2010.04.10 18:59:41.
