data_PCOD8157018
_publ_section_title
;
Structure prediction by ZEFSAII (Michael W. Deem and Ramdas Pophale) SiO2 
 PCOD8157018
Probable space group: P 21 21 21
;
_chemical_formula_sum "Si O2"
_cell_formula_units_Z 32
_cell_length_a 9.287695
_cell_length_b 19.749450
_cell_length_c 8.891006
_cell_angle_alpha 90.000000
_cell_angle_beta 90.000000
_cell_angle_gamma 90.000000
_cell_volume 1630.849384
_symmetry_space_group_name_H-M "P 21 21 21"
_symmetry_group_IT_number 19
_symmetry_cell_setting 'orthorhombic'
loop_
_space_group_symop_operation_xyz
x,y,z
1/2-x,-y,1/2+z
1/2+x,1/2-y,-z
-x,1/2+y,1/2-z
loop_
_atom_site_type_symbol
_atom_site_label
_atom_site_fract_x
_atom_site_fract_y
_atom_site_fract_z
Si Si1 0.136343 0.200003 0.796415
Si Si2 0.309557 0.107437 0.976294
Si Si3 0.583003 0.864522 0.074498
Si Si4 0.730521 0.897148 0.368357
Si Si5 0.454638 0.710520 0.552340
Si Si6 0.005485 0.087255 0.106234
Si Si7 0.478436 0.496289 0.616504
Si Si8 0.879990 0.209502 0.282373
O O1 0.245876 0.138256 0.822869
O O2 0.216883 0.268535 0.749853
O O3 0.035863 0.174043 0.668170
O O4 0.055394 0.220640 0.952745
O O5 0.431118 0.160918 0.031930
O O6 0.380069 0.035490 0.940714
O O7 0.176765 0.101106 0.092824
O O8 0.708659 0.887921 0.188937
O O9 0.623445 0.804376 0.960182
O O10 0.526446 0.929837 0.986293
O O11 0.801313 0.827513 0.430871
O O12 0.575753 0.915855 0.444411
O O13 0.835833 0.959143 0.403857
O O14 0.509246 0.733140 0.719206
O O15 0.915502 0.140281 0.201426
O O16 0.993768 0.018981 0.205482
#
# Coordination Sequence:
#
# PCOD8157018 Si02
#       8
#     4   4   4   4   4   4   4   4
#     4  11  21  40  63  93 121 162 208 251 315 375
#     4  10  22  38  64  87 117 161 206 254 300 364
#     4  11  24  38  64  92 126 164 200 269 310 357
#     4  11  21  41  66  86 119 166 210 250 307 370
#     4  10  21  39  65  90 119 161 209 247 306 388
#     4  11  20  39  65  84 118 164 203 252 302 375
#     4  10  25  41  59  90 125 157 215 256 307 360
#     4  10  22  38  58  94 127 153 201 255 309 367
#
# _framework density 19.621677999999999
#
# number of rings (size 3 to 8) (size 9 to 14) (size 15 to 20)
#    0.000    1.500    3.750    0.750    5.250    0.000 
#    2.250    0.000    2.750    0.000    0.000    0.000 
#    0.000    0.000    0.000    0.000    0.000    0.000 
#
# Total GULP energy -396519.061089 kJ/mol
# GULP energy per Si atom -12391.220659 kJ/mol
# Density = 1.957702 g / cm^3
# Si number density = 19.621678 Si / 1000 Ang^3
#
#
#
# Elastic Constant Matrix: (Units=GPa)
#
#
# Indices 1 2 3 4 5 6 
#
# 1 84.4115 34.4698 39.4782 0.0000 0.0000 0.0000
# 2 34.4698 86.7100 39.4060 0.0000 0.0000 0.0000
# 3 39.4782 39.4060 113.1138 0.0000 0.0000 0.0000
# 4 0.0000 0.0000 0.0000 32.8318 0.0000 0.0000
# 5 0.0000 0.0000 0.0000 0.0000 26.2708 0.0000
# 6 0.0000 0.0000 0.0000 0.0000 0.0000 28.7530
#
#
#
# Elastic Compliance Matrix: (Units=1/GPa)
#
#
# Indices 1 2 3 4 5 6 
#
# 1 0.015443 -0.004384 -0.003863 0.000000 0.000000 0.000000
# 2 -0.004384 0.014946 -0.003677 0.000000 0.000000 0.000000
# 3 -0.003863 -0.003677 0.011470 0.000000 0.000000 0.000000
# 4 0.000000 0.000000 0.000000 0.030458 0.000000 0.000000
# 5 0.000000 0.000000 0.000000 0.000000 0.038065 0.000000
# 6 0.000000 0.000000 0.000000 0.000000 0.000000 0.034779
#
#
# Mechanical properties :
#
#
# Convention : Reuss Voigt Hill
#
# Bulk Modulus (GPa) = 55.51663 56.77148 56.14405
# Shear Modulus (GPa) = 28.56928 28.96319 28.76624
#
# Velocity S-wave (km/s) = 3.81990 3.84615 3.83305
# Velocity P-wave (km/s) = 6.91451 6.97995 6.94731
#
# Compressibility (1/GPa) = 0.01801262
#
# Stress axis : x y z
#
# Youngs Moduli (GPa) = 64.75243 66.90572 87.18568
#
# Poissons Ratio (x) = 0.29330 0.33678
# Poissons Ratio (y) = 0.28386 0.32058
# Poissons Ratio (z) = 0.25012 0.24601
#
# Static dielectric constant tensor:
#      x y z
#    x 3.649950 0.000000 0.000000 
#    y 0.000000 3.686830 0.000000 
#    z 0.000000 0.000000 3.710570 
# 
# 
# High freq. dielectric constant tensor:
#      x y z
#    x 1.768290 0.000000 0.000000 
#    y 0.000000 1.771200 0.000000 
#    z 0.000000 0.000000 1.751770 
# 
# From -- ./inp_files/3113.got.cif
#   From: 2010.03.12/outbox.cif.g09.slc.cpg/sg19_2_cif.got.tgz:3113.got - 2010.04.10 18:59:41.
