data_PCOD8157253
_publ_section_title
;
Structure prediction by ZEFSAII (Michael W. Deem and Ramdas Pophale) SiO2 
 PCOD8157253
Probable space group: P 21 21 21
;
_chemical_formula_sum "Si O2"
_cell_formula_units_Z 32
_cell_length_a 14.890833
_cell_length_b 9.173891
_cell_length_c 10.908919
_cell_angle_alpha 90.000000
_cell_angle_beta 90.000000
_cell_angle_gamma 90.000000
_cell_volume 1490.233376
_symmetry_space_group_name_H-M "P 21 21 21"
_symmetry_group_IT_number 19
_symmetry_cell_setting 'orthorhombic'
loop_
_space_group_symop_operation_xyz
x,y,z
1/2-x,-y,1/2+z
1/2+x,1/2-y,-z
-x,1/2+y,1/2-z
loop_
_atom_site_type_symbol
_atom_site_label
_atom_site_fract_x
_atom_site_fract_y
_atom_site_fract_z
Si Si1 0.009919 0.220077 0.010564
Si Si2 0.056426 0.420848 0.598522
Si Si3 0.483367 0.354136 0.722775
Si Si4 0.408637 0.275569 0.479384
Si Si5 0.121639 0.422654 0.870982
Si Si6 0.212308 0.224080 0.542003
Si Si7 0.115812 0.952873 0.430329
Si Si8 0.794485 0.195734 0.203945
O O1 0.030031 0.220441 0.158069
O O2 0.941000 0.350796 0.978344
O O3 0.095590 0.265127 0.929572
O O4 0.970148 0.066566 0.971577
O O5 0.086208 0.455113 0.735565
O O6 0.135679 0.345952 0.517597
O O7 0.968753 0.317262 0.613976
O O8 0.455322 0.242711 0.612286
O O9 0.550323 0.477176 0.673324
O O10 0.382738 0.402816 0.766805
O O11 0.415575 0.448589 0.456967
O O12 0.303744 0.235284 0.462897
O O13 0.230060 0.414572 0.870617
O O14 0.239091 0.241831 0.681994
O O15 0.168154 0.068987 0.512286
O O16 0.184986 0.844876 0.365966
#
# Coordination Sequence:
#
# PCOD8157253 Si02
#       8
#     4   4   4   4   4   4   4   4
#     4  11  25  39  75  96 130 178 224 275 336 410
#     4  11  24  43  67  96 136 176 231 275 340 407
#     4  10  22  42  67  95 133 176 224 271 342 395
#     4  11  23  43  69  94 138 179 224 277 350 403
#     4  11  23  46  63 101 134 181 215 291 337 407
#     4  10  23  43  65  94 134 178 220 289 333 405
#     4  11  22  44  65  97 132 180 225 283 337 405
#     4   9  24  40  65  97 137 166 233 283 335 404
#
# _framework density 21.473147999999998
#
# number of rings (size 3 to 8) (size 9 to 14) (size 15 to 20)
#    0.000    1.500    2.500    0.750   10.500    1.000 
#    2.250    0.000    0.000    0.000    0.000    0.000 
#    0.000    0.000    0.000    0.000    0.000    0.000 
#
# Total GULP energy -396421.416347 kJ/mol
# GULP energy per Si atom -12388.169261 kJ/mol
# Density = 2.142427 g / cm^3
# Si number density = 21.473148 Si / 1000 Ang^3
#
#
#
# Elastic Constant Matrix: (Units=GPa)
#
#
# Indices 1 2 3 4 5 6 
#
# 1 104.4552 31.0919 25.9408 0.0000 0.0000 0.0000
# 2 31.0919 89.4955 15.2967 0.0000 0.0000 0.0000
# 3 25.9408 15.2967 57.0298 0.0000 0.0000 0.0000
# 4 0.0000 0.0000 0.0000 25.5616 0.0000 0.0000
# 5 0.0000 0.0000 0.0000 0.0000 31.3595 0.0000
# 6 0.0000 0.0000 0.0000 0.0000 0.0000 41.5113
#
#
#
# Elastic Compliance Matrix: (Units=1/GPa)
#
#
# Indices 1 2 3 4 5 6 
#
# 1 0.011650 -0.003293 -0.004416 0.000000 0.000000 0.000000
# 2 -0.003293 0.012641 -0.001893 0.000000 0.000000 0.000000
# 3 -0.004416 -0.001893 0.020051 0.000000 0.000000 0.000000
# 4 0.000000 0.000000 0.000000 0.039121 0.000000 0.000000
# 5 0.000000 0.000000 0.000000 0.000000 0.031888 0.000000
# 6 0.000000 0.000000 0.000000 0.000000 0.000000 0.024090
#
#
# Mechanical properties :
#
#
# Convention : Reuss Voigt Hill
#
# Bulk Modulus (GPa) = 39.77855 43.95993 41.86924
# Shear Modulus (GPa) = 29.93562 31.59656 30.76609
#
# Velocity S-wave (km/s) = 3.73781 3.84010 3.78930
# Velocity P-wave (km/s) = 6.09863 6.33864 6.21979
#
# Compressibility (1/GPa) = 0.02513918
#
# Stress axis : x y z
#
# Youngs Moduli (GPa) = 85.83481 79.10638 49.87245
#
# Poissons Ratio (x) = 0.26047 0.22024
# Poissons Ratio (y) = 0.28262 0.09441
# Poissons Ratio (z) = 0.37906 0.14975
#
# Static dielectric constant tensor:
#      x y z
#    x 4.370920 0.000000 0.000000 
#    y 0.000000 3.691600 0.000000 
#    z 0.000000 0.000000 3.841680 
# 
# 
# High freq. dielectric constant tensor:
#      x y z
#    x 1.857300 0.000000 0.000000 
#    y 0.000000 1.832400 0.000000 
#    z 0.000000 0.000000 1.836710 
# 
# From -- ./inp_files/3584.got.cif
#   From: 2010.03.12/outbox.cif.g09.slc.cpg/sg19_2_cif.got.tgz:3584.got - 2010.04.10 18:59:41.
