data_PCOD8157062
_publ_section_title
;
Structure prediction by ZEFSAII (Michael W. Deem and Ramdas Pophale) SiO2 
 PCOD8157062
Probable space group: P 21 21 21
;
_chemical_formula_sum "Si O2"
_cell_formula_units_Z 24
_cell_length_a 13.762644
_cell_length_b 14.574522
_cell_length_c 4.933865
_cell_angle_alpha 90.000000
_cell_angle_beta 90.000000
_cell_angle_gamma 90.000000
_cell_volume 989.654169
_symmetry_space_group_name_H-M "P 21 21 21"
_symmetry_group_IT_number 19
_symmetry_cell_setting 'orthorhombic'
loop_
_space_group_symop_operation_xyz
x,y,z
1/2-x,-y,1/2+z
1/2+x,1/2-y,-z
-x,1/2+y,1/2-z
loop_
_atom_site_type_symbol
_atom_site_label
_atom_site_fract_x
_atom_site_fract_y
_atom_site_fract_z
Si Si1 0.339569 0.417265 0.868248
Si Si2 0.539013 0.207462 0.126797
Si Si3 0.678755 0.715486 0.465349
Si Si4 0.867383 0.703411 0.128521
Si Si5 0.735908 0.440739 0.334033
Si Si6 0.875928 0.985939 0.625973
O O1 0.318878 0.310225 0.876624
O O2 0.564835 0.284245 0.895234
O O3 0.400008 0.437370 0.598057
O O4 0.238268 0.469504 0.862636
O O5 0.743035 0.279000 0.724142
O O6 0.597143 0.224705 0.404477
O O7 0.568442 0.105821 0.038692
O O8 0.424715 0.204749 0.179954
O O9 0.697964 0.636356 0.688204
O O10 0.092430 0.537746 0.600605
O O11 0.861417 0.603832 0.974915
O O12 0.792892 0.488947 0.589159
#
# Coordination Sequence:
#
# PCOD8157062 Si02
#       6
#     4   4   4   4   4   4
#     4  10  22  39  71  98 140 188 236 307 375 441
#     4  12  27  46  77 110 156 204 257 313 383 464
#     4  12  28  48  79 110 157 207 259 310 394 456
#     4  12  25  49  74 109 153 199 255 315 390 444
#     4  12  25  49  78 105 147 210 258 320 382 453
#     4  10  21  41  65 104 139 184 241 305 374 438
#
# _framework density 24.250893999999999
#
# number of rings (size 3 to 8) (size 9 to 14) (size 15 to 20)
#    0.000    0.667    5.000    1.000    9.333    0.000 
#    9.000    0.000    0.000    0.000    0.000    0.000 
#    0.000    0.000    0.000    0.000    0.000    0.000 
#
# Total GULP energy -297364.050148 kJ/mol
# GULP energy per Si atom -12390.168756 kJ/mol
# Density = 2.419570 g / cm^3
# Si number density = 24.250894 Si / 1000 Ang^3
#
#
#
# Elastic Constant Matrix: (Units=GPa)
#
#
# Indices 1 2 3 4 5 6 
#
# 1 80.5240 5.7804 51.7101 0.0000 0.0000 0.0000
# 2 5.7804 84.4787 23.8516 0.0000 0.0000 0.0000
# 3 51.7101 23.8516 113.8541 0.0000 0.0000 0.0000
# 4 0.0000 0.0000 0.0000 40.9693 0.0000 0.0000
# 5 0.0000 0.0000 0.0000 0.0000 15.7174 0.0000
# 6 0.0000 0.0000 0.0000 0.0000 0.0000 10.8538
#
#
#
# Elastic Compliance Matrix: (Units=1/GPa)
#
#
# Indices 1 2 3 4 5 6 
#
# 1 0.017631 0.001121 -0.008243 0.000000 0.000000 0.000000
# 2 0.001121 0.012653 -0.003160 0.000000 0.000000 0.000000
# 3 -0.008243 -0.003160 0.013189 0.000000 0.000000 0.000000
# 4 0.000000 0.000000 0.000000 0.024409 0.000000 0.000000
# 5 0.000000 0.000000 0.000000 0.000000 0.063624 0.000000
# 6 0.000000 0.000000 0.000000 0.000000 0.000000 0.092134
#
#
# Mechanical properties :
#
#
# Convention : Reuss Voigt Hill
#
# Bulk Modulus (GPa) = 43.64942 49.06011 46.35477
# Shear Modulus (GPa) = 19.85398 26.67572 23.26485
#
# Velocity S-wave (km/s) = 2.86438 3.32021 3.10068
# Velocity P-wave (km/s) = 5.38310 5.91376 5.65466
#
# Compressibility (1/GPa) = 0.02290981
#
# Stress axis : x y z
#
# Youngs Moduli (GPa) = 56.71712 79.03436 75.82237
#
# Poissons Ratio (x) = -0.08858 0.62497
# Poissons Ratio (y) = -0.06357 0.23958
# Poissons Ratio (z) = 0.46750 0.24972
#
# Static dielectric constant tensor:
#      x y z
#    x 4.160060 0.000000 0.000000 
#    y 0.000000 4.537010 0.000000 
#    z 0.000000 0.000000 4.982050 
# 
# 
# High freq. dielectric constant tensor:
#      x y z
#    x 1.924180 0.000000 0.000000 
#    y 0.000000 1.971020 0.000000 
#    z 0.000000 0.000000 1.987810 
# 
# From -- ./inp_files/952.got.cif
#   From: 2010.03.12/outbox.cif.g09.slc.cpg/sg19_1_cif.got.tgz:952.got - 2010.04.10 18:59:41.
