data_PCOD8157190
_publ_section_title
;
Structure prediction by ZEFSAII (Michael W. Deem and Ramdas Pophale) SiO2 
 PCOD8157190
Probable space group: P 21 21 21
;
_chemical_formula_sum "Si O2"
_cell_formula_units_Z 32
_cell_length_a 11.480567
_cell_length_b 9.148515
_cell_length_c 14.373068
_cell_angle_alpha 90.000000
_cell_angle_beta 90.000000
_cell_angle_gamma 90.000000
_cell_volume 1509.605336
_symmetry_space_group_name_H-M "P 21 21 21"
_symmetry_group_IT_number 19
_symmetry_cell_setting 'orthorhombic'
loop_
_space_group_symop_operation_xyz
x,y,z
1/2-x,-y,1/2+z
1/2+x,1/2-y,-z
-x,1/2+y,1/2-z
loop_
_atom_site_type_symbol
_atom_site_label
_atom_site_fract_x
_atom_site_fract_y
_atom_site_fract_z
Si Si1 0.978053 0.382793 0.573509
Si Si2 0.423647 0.809153 0.355358
Si Si3 0.252071 0.172255 0.310003
Si Si4 0.841277 0.673158 0.839954
Si Si5 0.932692 0.902386 0.119956
Si Si6 0.142524 0.854280 0.616206
Si Si7 0.375098 0.116326 0.763138
Si Si8 0.823547 0.203841 0.077646
O O1 0.974372 0.558635 0.582643
O O2 0.864644 0.313587 0.622616
O O3 0.098543 0.313394 0.613022
O O4 0.981648 0.348933 0.463133
O O5 0.415205 0.872266 0.251259
O O6 0.508794 0.671291 0.358557
O O7 0.304783 0.736803 0.387171
O O8 0.153457 0.276260 0.348916
O O9 0.280930 0.207279 0.202346
O O10 0.202107 0.009028 0.311945
O O11 0.839769 0.527246 0.904155
O O12 0.707969 0.707923 0.808815
O O13 0.012853 0.944952 0.208578
O O14 0.853525 0.033534 0.081738
O O15 0.173765 0.762634 0.526036
O O16 0.413799 0.217558 0.850327
#
# Coordination Sequence:
#
# PCOD8157190 Si02
#       8
#     4   4   4   4   4   4   4   4
#     4  12  24  42  69  99 140 175 234 287 350 418
#     4  11  21  43  65  96 134 172 229 291 337 408
#     4  11  25  45  69 101 136 184 231 290 360 408
#     4  10  22  40  69  99 126 181 226 284 348 408
#     4  12  28  43  68 104 145 182 232 293 351 430
#     4  11  23  41  71  95 132 176 226 290 339 419
#     4  10  24  47  69  93 141 184 225 292 349 415
#     4  11  25  43  68 101 132 188 235 275 354 422
#
# _framework density 21.197595
#
# number of rings (size 3 to 8) (size 9 to 14) (size 15 to 20)
#    0.000    1.000    6.250    0.750    8.750    3.000 
#    0.000    1.250    0.000    0.000    0.000    0.000 
#    0.000    0.000    0.000    0.000    0.000    0.000 
#
# Total GULP energy -396650.645928 kJ/mol
# GULP energy per Si atom -12395.332685 kJ/mol
# Density = 2.114935 g / cm^3
# Si number density = 21.197595 Si / 1000 Ang^3
#
#
#
# Elastic Constant Matrix: (Units=GPa)
#
#
# Indices 1 2 3 4 5 6 
#
# 1 64.8807 28.6929 32.2328 0.0000 0.0000 0.0000
# 2 28.6929 51.0992 35.1407 0.0000 0.0000 0.0000
# 3 32.2328 35.1407 109.7181 0.0000 0.0000 0.0000
# 4 0.0000 0.0000 0.0000 28.4825 0.0000 0.0000
# 5 0.0000 0.0000 0.0000 0.0000 27.7098 0.0000
# 6 0.0000 0.0000 0.0000 0.0000 0.0000 35.4691
#
#
#
# Elastic Compliance Matrix: (Units=1/GPa)
#
#
# Indices 1 2 3 4 5 6 
#
# 1 0.021303 -0.009821 -0.003113 0.000000 0.000000 0.000000
# 2 -0.009821 0.029625 -0.006603 0.000000 0.000000 0.000000
# 3 -0.003113 -0.006603 0.012144 0.000000 0.000000 0.000000
# 4 0.000000 0.000000 0.000000 0.035109 0.000000 0.000000
# 5 0.000000 0.000000 0.000000 0.000000 0.036088 0.000000
# 6 0.000000 0.000000 0.000000 0.000000 0.000000 0.028194
#
#
# Mechanical properties :
#
#
# Convention : Reuss Voigt Hill
#
# Bulk Modulus (GPa) = 41.67095 46.42565 44.04830
# Shear Modulus (GPa) = 23.86221 26.97437 25.41829
#
# Velocity S-wave (km/s) = 3.35879 3.57111 3.46658
# Velocity P-wave (km/s) = 5.89432 6.24121 6.07024
#
# Compressibility (1/GPa) = 0.02399753
#
# Stress axis : x y z
#
# Youngs Moduli (GPa) = 46.94261 33.75472 82.34766
#
# Poissons Ratio (x) = 0.33151 0.25633
# Poissons Ratio (y) = 0.46103 0.54377
# Poissons Ratio (z) = 0.14612 0.22289
#
# Static dielectric constant tensor:
#      x y z
#    x 3.956270 0.000000 0.000000 
#    y 0.000000 3.734450 0.000000 
#    z 0.000000 0.000000 4.180500 
# 
# 
# High freq. dielectric constant tensor:
#      x y z
#    x 1.829570 0.000000 0.000000 
#    y 0.000000 1.819550 0.000000 
#    z 0.000000 0.000000 1.840760 
# 
# From -- ./inp_files/6117.got.cif
#   From: 2010.03.12/outbox.cif.g09.slc.cpg/sg19_4_cif.got.tgz:6117.got - 2010.04.10 18:59:41.
