data_PCOD8157217
_publ_section_title
;
Structure prediction by ZEFSAII (Michael W. Deem and Ramdas Pophale) SiO2 
 PCOD8157217
Probable space group: P 21 21 21
;
_chemical_formula_sum "Si O2"
_cell_formula_units_Z 28
_cell_length_a 13.989633
_cell_length_b 8.384030
_cell_length_c 10.754000
_cell_angle_alpha 90.000000
_cell_angle_beta 90.000000
_cell_angle_gamma 90.000000
_cell_volume 1261.331313
_symmetry_space_group_name_H-M "P 21 21 21"
_symmetry_group_IT_number 19
_symmetry_cell_setting 'orthorhombic'
loop_
_space_group_symop_operation_xyz
x,y,z
1/2-x,-y,1/2+z
1/2+x,1/2-y,-z
-x,1/2+y,1/2-z
loop_
_atom_site_type_symbol
_atom_site_label
_atom_site_fract_x
_atom_site_fract_y
_atom_site_fract_z
Si Si1 0.956390 0.450523 0.153066
Si Si2 0.851162 0.627444 0.958796
Si Si3 0.879207 0.137100 0.057738
Si Si4 0.253540 0.835599 0.620835
Si Si5 0.935977 0.494875 0.437755
Si Si6 0.243267 0.359136 0.368166
Si Si7 0.061298 0.650073 0.970637
O O1 0.864198 0.535394 0.090926
O O2 0.968607 0.492841 0.294930
O O3 0.050957 0.515681 0.079253
O O4 0.937266 0.262739 0.142114
O O5 0.790069 0.782576 0.998489
O O6 0.956984 0.670341 0.903953
O O7 0.798891 0.508473 0.861298
O O8 0.811621 0.213601 0.954499
O O9 0.816715 0.021929 0.146801
O O10 0.966792 0.043374 0.988961
O O11 0.277317 0.757521 0.753080
O O12 0.351008 0.876077 0.545535
O O13 0.902319 0.320747 0.479043
O O14 0.355991 0.403604 0.375159
#
# Coordination Sequence:
#
# PCOD8157217 Si02
#       7
#     4   4   4   4   4   4   4
#     4   9  21  40  64  98 128 175 220 285 338 387
#     4   9  20  45  62  98 135 171 231 284 329 411
#     4  11  26  39  65 106 139 168 234 289 336 418
#     4  11  25  44  69  98 144 180 227 291 353 411
#     4  12  21  40  73  97 131 183 229 293 339 390
#     4  12  23  45  69 105 136 187 228 279 358 411
#     4  10  22  41  68  94 137 174 223 285 335 416
#
# _framework density 22.198767
#
# number of rings (size 3 to 8) (size 9 to 14) (size 15 to 20)
#    0.857    0.571    4.286    0.857    4.000    1.143 
#    2.571    0.000    0.000    0.000    0.000    0.000 
#    0.000    0.000    0.000    0.000    0.000    0.000 
#
# Total GULP energy -346868.832593 kJ/mol
# GULP energy per Si atom -12388.172593 kJ/mol
# Density = 2.214824 g / cm^3
# Si number density = 22.198767 Si / 1000 Ang^3
#
#
#
# Elastic Constant Matrix: (Units=GPa)
#
#
# Indices 1 2 3 4 5 6 
#
# 1 159.3498 53.2942 24.5722 0.0000 0.0000 0.0000
# 2 53.2942 124.1047 29.4579 0.0000 0.0000 0.0000
# 3 24.5722 29.4579 27.1865 0.0000 0.0000 0.0000
# 4 0.0000 0.0000 0.0000 23.8173 0.0000 0.0000
# 5 0.0000 0.0000 0.0000 0.0000 27.2467 0.0000
# 6 0.0000 0.0000 0.0000 0.0000 0.0000 50.8066
#
#
#
# Elastic Compliance Matrix: (Units=1/GPa)
#
#
# Indices 1 2 3 4 5 6 
#
# 1 0.007726 -0.002235 -0.004561 0.000000 0.000000 0.000000
# 2 -0.002235 0.011494 -0.010434 0.000000 0.000000 0.000000
# 3 -0.004561 -0.010434 0.052212 0.000000 0.000000 0.000000
# 4 0.000000 0.000000 0.000000 0.041986 0.000000 0.000000
# 5 0.000000 0.000000 0.000000 0.000000 0.036702 0.000000
# 6 0.000000 0.000000 0.000000 0.000000 0.000000 0.019682
#
#
# Mechanical properties :
#
#
# Convention : Reuss Voigt Hill
#
# Bulk Modulus (GPa) = 27.04853 58.36550 42.70702
# Shear Modulus (GPa) = 23.08518 33.92855 28.50687
#
# Velocity S-wave (km/s) = 3.22829 3.91371 3.58741
# Velocity P-wave (km/s) = 5.10950 6.83902 6.03652
#
# Compressibility (1/GPa) = 0.03697059
#
# Stress axis : x y z
#
# Youngs Moduli (GPa) = 129.42527 86.99933 19.15268
#
# Poissons Ratio (x) = 0.19446 0.08736
# Poissons Ratio (y) = 0.28930 0.19985
# Poissons Ratio (z) = 0.59037 0.90779
#
# Static dielectric constant tensor:
#      x y z
#    x 4.129150 0.000000 0.000000 
#    y 0.000000 4.143330 0.000000 
#    z 0.000000 0.000000 3.287300 
# 
# 
# High freq. dielectric constant tensor:
#      x y z
#    x 1.892780 0.000000 0.000000 
#    y 0.000000 1.885750 0.000000 
#    z 0.000000 0.000000 1.809580 
# 
# From -- ./inp_files/5192.got.cif
#   From: 2010.03.12/outbox.cif.g09.slc.cpg/sg19_3_cif.got.tgz:5192.got - 2010.04.10 18:59:41.
