data_PCOD8157388
_publ_section_title
;
Structure prediction by ZEFSAII (Michael W. Deem and Ramdas Pophale) SiO2 
 PCOD8157388
Probable space group: P 21 21 21
;
_chemical_formula_sum "Si O2"
_cell_formula_units_Z 28
_cell_length_a 18.860387
_cell_length_b 11.111649
_cell_length_c 6.152551
_cell_angle_alpha 90.000000
_cell_angle_beta 90.000000
_cell_angle_gamma 90.000000
_cell_volume 1289.390115
_symmetry_space_group_name_H-M "P 21 21 21"
_symmetry_group_IT_number 19
_symmetry_cell_setting 'orthorhombic'
loop_
_space_group_symop_operation_xyz
x,y,z
1/2-x,-y,1/2+z
1/2+x,1/2-y,-z
-x,1/2+y,1/2-z
loop_
_atom_site_type_symbol
_atom_site_label
_atom_site_fract_x
_atom_site_fract_y
_atom_site_fract_z
Si Si1 0.490392 0.210478 0.882386
Si Si2 0.627493 0.775117 0.933599
Si Si3 0.576610 0.574675 0.241655
Si Si4 0.895191 0.691641 0.698673
Si Si5 0.746226 0.181559 0.125608
Si Si6 0.674211 0.945599 0.286584
Si Si7 0.063851 0.400334 0.497351
O O1 0.443667 0.288592 0.712840
O O2 0.541435 0.117342 0.752912
O O3 0.433255 0.137256 0.024658
O O4 0.540068 0.295945 0.027629
O O5 0.698764 0.760107 0.794123
O O6 0.623360 0.656323 0.081977
O O7 0.629195 0.893979 0.084554
O O8 0.614002 0.445953 0.272069
O O9 0.499754 0.551591 0.142736
O O10 0.821400 0.733357 0.591318
O O11 0.909333 0.771970 0.910949
O O12 0.726276 0.048631 0.205416
O O13 0.781902 0.165108 0.889185
O O14 0.624176 0.998418 0.478468
#
# Coordination Sequence:
#
# PCOD8157388 Si02
#       7
#     4   4   4   4   4   4   4
#     4  10  23  45  70 102 133 181 222 287 344 404
#     4  11  24  44  64 102 134 179 231 277 359 399
#     4  10  23  44  62  96 138 175 223 281 338 410
#     4  10  24  45  64 103 136 175 236 277 337 417
#     4  11  24  42  70  97 135 183 224 291 339 409
#     4  11  23  42  69 102 136 171 232 285 344 410
#     4   9  23  38  69 102 130 172 220 284 339 399
#
# _framework density 21.715693000000002
#
# number of rings (size 3 to 8) (size 9 to 14) (size 15 to 20)
#    0.000    1.714    1.429    0.857   10.000    3.429 
#   10.286    0.000    0.000    0.000    0.000    0.000 
#    0.000    0.000    0.000    0.000    0.000    0.000 
#
# Total GULP energy -347267.124099 kJ/mol
# GULP energy per Si atom -12402.397289 kJ/mol
# Density = 2.166627 g / cm^3
# Si number density = 21.715693 Si / 1000 Ang^3
#
#
#
# Elastic Constant Matrix: (Units=GPa)
#
#
# Indices 1 2 3 4 5 6 
#
# 1 109.5851 52.7488 43.6378 0.0000 0.0000 0.0000
# 2 52.7488 81.1849 31.2991 0.0000 0.0000 0.0000
# 3 43.6378 31.2991 102.1163 0.0000 0.0000 0.0000
# 4 0.0000 0.0000 0.0000 22.5568 0.0000 0.0000
# 5 0.0000 0.0000 0.0000 0.0000 35.2582 0.0000
# 6 0.0000 0.0000 0.0000 0.0000 0.0000 35.1212
#
#
#
# Elastic Compliance Matrix: (Units=1/GPa)
#
#
# Indices 1 2 3 4 5 6 
#
# 1 0.014434 -0.007938 -0.003735 0.000000 0.000000 0.000000
# 2 -0.007938 0.018334 -0.002227 0.000000 0.000000 0.000000
# 3 -0.003735 -0.002227 0.012071 0.000000 0.000000 0.000000
# 4 0.000000 0.000000 0.000000 0.044333 0.000000 0.000000
# 5 0.000000 0.000000 0.000000 0.000000 0.028362 0.000000
# 6 0.000000 0.000000 0.000000 0.000000 0.000000 0.028473
#
#
# Mechanical properties :
#
#
# Convention : Reuss Voigt Hill
#
# Bulk Modulus (GPa) = 58.69055 60.91752 59.80403
# Shear Modulus (GPa) = 27.85723 29.60060 28.72892
#
# Velocity S-wave (km/s) = 3.58553 3.69602 3.64119
# Velocity P-wave (km/s) = 6.65032 6.80642 6.72882
#
# Compressibility (1/GPa) = 0.01703852
#
# Stress axis : x y z
#
# Youngs Moduli (GPa) = 69.28266 54.54370 82.84015
#
# Poissons Ratio (x) = 0.43298 0.30940
# Poissons Ratio (y) = 0.54998 0.18450
# Poissons Ratio (z) = 0.25876 0.12148
#
# Static dielectric constant tensor:
#      x y z
#    x 3.985690 0.000000 0.000000 
#    y 0.000000 3.656690 0.000000 
#    z 0.000000 0.000000 3.985690 
# 
# 
# High freq. dielectric constant tensor:
#      x y z
#    x 1.855400 0.000000 0.000000 
#    y 0.000000 1.838090 0.000000 
#    z 0.000000 0.000000 1.856110 
# 
# From -- ./inp_files/1736.got.cif
#   From: 2010.03.12/outbox.cif.g09.slc.cpg/sg19_1_cif.got.tgz:1736.got - 2010.04.10 18:59:41.
