data_PCOD8157988
_publ_section_title
;
Structure prediction by ZEFSAII (Michael W. Deem and Ramdas Pophale) SiO2 
 PCOD8157988
Probable space group: C 2 2 21
;
_chemical_formula_sum "Si O2"
_cell_formula_units_Z 48
_cell_length_a 13.521035
_cell_length_b 17.493282
_cell_length_c 9.336629
_cell_angle_alpha 90.000000
_cell_angle_beta 90.000000
_cell_angle_gamma 90.000000
_cell_volume 2208.367445
_symmetry_space_group_name_H-M "C 2 2 21"
_symmetry_group_IT_number 20
_symmetry_cell_setting 'orthorhombic'
loop_
_space_group_symop_operation_xyz
x,y,z
-x,-y,1/2+z
x,-y,-z
-x,y,1/2-z
1/2+x,1/2+y,z
1/2-x,1/2-y,1/2+z
1/2+x,1/2-y,-z
1/2-x,1/2+y,1/2-z
loop_
_atom_site_type_symbol
_atom_site_label
_atom_site_fract_x
_atom_site_fract_y
_atom_site_fract_z
Si Si1 0.396732 0.834841 0.751833
Si Si2 0.534217 0.572303 0.415581
Si Si3 0.750948 0.882929 0.956193
Si Si4 0.102244 0.353617 0.193328
Si Si5 0.582384 0.714895 0.992332
Si Si6 0.204152 0.706215 0.530140
O O1 0.500000 0.880886 0.750000
O O2 0.312751 0.889985 0.689274
O O3 0.412456 0.755719 0.662656
O O4 0.378131 0.814715 0.915566
O O5 0.487749 0.500000 0.500000
O O6 0.500000 0.571342 0.250000
O O7 0.653204 0.564280 0.436810
O O8 0.500523 0.649981 0.494203
O O9 0.674560 0.903437 0.087576
O O10 0.788445 0.796900 0.966386
O O11 0.061843 0.278380 0.112968
O O12 0.174428 0.329602 0.320011
O O13 0.000000 0.395141 0.250000
O O14 0.688629 0.673791 0.017208
#
# Coordination Sequence:
#
# PCOD8157988 Si02
#       6
#     8   8   8   8   8   8
#     4  10  18  29  53  84 112 140 180 236 291 343
#     4  12  26  42  59  79 114 161 205 247 293 354
#     4  10  20  35  52  78 113 149 187 232 289 347
#     4  10  18  31  55  84 116 147 181 232 292 347
#     4  10  20  34  51  78 117 151 185 228 288 353
#     4  10  17  29  52  81 113 148 182 231 286 342
#
# _framework density 21.735512
#
# number of rings (size 3 to 8) (size 9 to 14) (size 15 to 20)
#    0.000    2.000    0.000   10.500    0.000    3.333 
#    0.000    0.000    0.000    1.000    0.000    2.333 
#    0.000    0.000    0.000    0.000    0.000    0.000 
#
# Total GULP energy -297353.156695 kJ/mol
# GULP energy per Si atom -12389.714862 kJ/mol
# Density = 2.168604 g / cm^3
# Si number density = 21.735512 Si / 1000 Ang^3
#
#
#
# Elastic Constant Matrix: (Units=GPa)
#
#
# Indices 1 2 3 4 5 6 
#
# 1 126.8228 13.4542 18.2911 0.0000 0.0000 0.0000
# 2 13.4542 36.0637 17.1543 0.0000 0.0000 0.0000
# 3 18.2911 17.1543 110.8237 0.0000 0.0000 0.0000
# 4 0.0000 0.0000 0.0000 11.9343 0.0000 0.0000
# 5 0.0000 0.0000 0.0000 0.0000 48.4038 0.0000
# 6 0.0000 0.0000 0.0000 0.0000 0.0000 12.3112
#
#
#
# Elastic Compliance Matrix: (Units=1/GPa)
#
#
# Indices 1 2 3 4 5 6 
#
# 1 0.008304 -0.002640 -0.000962 0.000000 0.000000 0.000000
# 2 -0.002640 0.030772 -0.004327 0.000000 0.000000 0.000000
# 3 -0.000962 -0.004327 0.009852 0.000000 0.000000 0.000000
# 4 0.000000 0.000000 0.000000 0.083792 0.000000 0.000000
# 5 0.000000 0.000000 0.000000 0.000000 0.020660 0.000000
# 6 0.000000 0.000000 0.000000 0.000000 0.000000 0.081227
#
#
# Mechanical properties :
#
#
# Convention : Reuss Voigt Hill
#
# Bulk Modulus (GPa) = 30.24007 41.27883 35.75945
# Shear Modulus (GPa) = 19.12130 29.51724 24.31927
#
# Velocity S-wave (km/s) = 2.96924 3.68913 3.34858
# Velocity P-wave (km/s) = 5.06933 6.09745 5.60700
#
# Compressibility (1/GPa) = 0.03306871
#
# Stress axis : x y z
#
# Youngs Moduli (GPa) = 120.42611 32.49687 101.50308
#
# Poissons Ratio (x) = 0.08580 0.09763
# Poissons Ratio (y) = 0.31797 0.43924
# Poissons Ratio (z) = 0.11583 0.14063
#
# Static dielectric constant tensor:
#      x y z
#    x 4.820490 0.000000 0.000000 
#    y 0.000000 3.185640 0.000000 
#    z 0.000000 0.000000 4.043400 
# 
# 
# High freq. dielectric constant tensor:
#      x y z
#    x 1.888350 0.000000 0.000000 
#    y 0.000000 1.777520 0.000000 
#    z 0.000000 0.000000 1.865820 
# 
# From -- ./inp_files/8450.got.cif
#   From: 2010.03.12/outbox.cif.g09.slc.cpg/sg20_5_cif.got.tgz:8450.got - 2010.04.14 01:38:04.
