data_PCOD8157213
_publ_section_title
;
Structure prediction by ZEFSAII (Michael W. Deem and Ramdas Pophale) SiO2 
 PCOD8157213
Probable space group: P 21 21 21
;
_chemical_formula_sum "Si O2"
_cell_formula_units_Z 32
_cell_length_a 16.054924
_cell_length_b 15.136792
_cell_length_c 6.407430
_cell_angle_alpha 90.000000
_cell_angle_beta 90.000000
_cell_angle_gamma 90.000000
_cell_volume 1557.133928
_symmetry_space_group_name_H-M "P 21 21 21"
_symmetry_group_IT_number 19
_symmetry_cell_setting 'orthorhombic'
loop_
_space_group_symop_operation_xyz
x,y,z
1/2-x,-y,1/2+z
1/2+x,1/2-y,-z
-x,1/2+y,1/2-z
loop_
_atom_site_type_symbol
_atom_site_label
_atom_site_fract_x
_atom_site_fract_y
_atom_site_fract_z
Si Si1 0.028673 0.545434 0.688324
Si Si2 0.279937 0.126742 0.488832
Si Si3 0.620368 0.805361 0.540226
Si Si4 0.252397 0.682923 0.802235
Si Si5 0.133199 0.581226 0.073680
Si Si6 0.593264 0.075721 0.659263
Si Si7 0.414724 0.116816 0.832799
Si Si8 0.850898 0.507789 0.823065
O O1 0.050437 0.636445 0.573313
O O2 0.073001 0.461198 0.574004
O O3 0.929333 0.533332 0.678413
O O4 0.054508 0.555957 0.929340
O O5 0.262394 0.223546 0.406232
O O6 0.363807 0.129903 0.621799
O O7 0.201926 0.095797 0.629267
O O8 0.291086 0.059858 0.297339
O O9 0.711508 0.817087 0.430186
O O10 0.620205 0.832126 0.783304
O O11 0.592093 0.703898 0.522745
O O12 0.350926 0.664000 0.821961
O O13 0.211461 0.601512 0.928160
O O14 0.148492 0.498533 0.223962
O O15 0.509634 0.098211 0.779500
O O16 0.380279 0.034075 0.960143
#
# Coordination Sequence:
#
# PCOD8157213 Si02
#       8
#     4   4   4   4   4   4   4   4
#     4  10  23  44  67 100 130 177 223 273 338 404
#     4  12  25  45  69  95 131 179 224 282 337 394
#     4  10  23  43  68  95 137 177 217 277 339 395
#     4  11  25  43  65 100 136 175 225 274 336 405
#     4  10  22  41  67  94 134 175 215 270 337 396
#     4  11  25  41  68  99 132 181 223 271 340 413
#     4  12  23  46  66  94 137 177 221 280 335 394
#     4  12  24  45  70  93 133 177 230 277 336 403
#
# _framework density 20.550577000000001
#
# number of rings (size 3 to 8) (size 9 to 14) (size 15 to 20)
#    0.000    1.000    6.250    0.000    5.250    1.000 
#    6.750    0.000    0.000    0.000    0.000    0.000 
#    0.000    0.000    0.000    0.000    0.000    0.000 
#
# Total GULP energy -396789.355400 kJ/mol
# GULP energy per Si atom -12399.667356 kJ/mol
# Density = 2.050380 g / cm^3
# Si number density = 20.550577 Si / 1000 Ang^3
#
#
#
# Elastic Constant Matrix: (Units=GPa)
#
#
# Indices 1 2 3 4 5 6 
#
# 1 111.9152 52.0932 38.0389 0.0000 0.0000 0.0000
# 2 52.0932 77.8178 29.9436 0.0000 0.0000 0.0000
# 3 38.0389 29.9436 95.0566 0.0000 0.0000 0.0000
# 4 0.0000 0.0000 0.0000 39.9702 0.0000 0.0000
# 5 0.0000 0.0000 0.0000 0.0000 36.1199 0.0000
# 6 0.0000 0.0000 0.0000 0.0000 0.0000 30.1408
#
#
#
# Elastic Compliance Matrix: (Units=1/GPa)
#
#
# Indices 1 2 3 4 5 6 
#
# 1 0.013667 -0.008016 -0.002944 0.000000 0.000000 0.000000
# 2 -0.008016 0.019325 -0.002880 0.000000 0.000000 0.000000
# 3 -0.002944 -0.002880 0.012605 0.000000 0.000000 0.000000
# 4 0.000000 0.000000 0.000000 0.025019 0.000000 0.000000
# 5 0.000000 0.000000 0.000000 0.000000 0.027686 0.000000
# 6 0.000000 0.000000 0.000000 0.000000 0.000000 0.033178
#
#
# Mechanical properties :
#
#
# Convention : Reuss Voigt Hill
#
# Bulk Modulus (GPa) = 55.81141 58.32679 57.06910
# Shear Modulus (GPa) = 30.27877 32.22711 31.25294
#
# Velocity S-wave (km/s) = 3.84263 3.96433 3.90395
# Velocity P-wave (km/s) = 6.84870 7.02839 6.93913
#
# Compressibility (1/GPa) = 0.01791748
#
# Stress axis : x y z
#
# Youngs Moduli (GPa) = 73.16666 51.74645 79.33192
#
# Poissons Ratio (x) = 0.41482 0.23356
# Poissons Ratio (y) = 0.58654 0.22844
# Poissons Ratio (z) = 0.21541 0.14901
#
# Static dielectric constant tensor:
#      x y z
#    x 3.668230 0.000000 0.000000 
#    y 0.000000 3.752950 0.000000 
#    z 0.000000 0.000000 3.869530 
# 
# 
# High freq. dielectric constant tensor:
#      x y z
#    x 1.796630 0.000000 0.000000 
#    y 0.000000 1.806420 0.000000 
#    z 0.000000 0.000000 1.811140 
# 
# From -- ./inp_files/1611.got.cif
#   From: 2010.03.12/outbox.cif.g09.slc.cpg/sg19_1_cif.got.tgz:1611.got - 2010.04.10 18:59:41.
