data_PCOD8157937
_publ_section_title
;
Structure prediction by ZEFSAII (Michael W. Deem and Ramdas Pophale) SiO2 
 PCOD8157937
Probable space group: P 21 21 21
;
_chemical_formula_sum "Si O2"
_cell_formula_units_Z 20
_cell_length_a 5.024071
_cell_length_b 16.445262
_cell_length_c 9.913728
_cell_angle_alpha 90.000000
_cell_angle_beta 90.000000
_cell_angle_gamma 90.000000
_cell_volume 819.093660
_symmetry_space_group_name_H-M "P 21 21 21"
_symmetry_group_IT_number 19
_symmetry_cell_setting 'orthorhombic'
loop_
_space_group_symop_operation_xyz
x,y,z
1/2-x,-y,1/2+z
1/2+x,1/2-y,-z
-x,1/2+y,1/2-z
loop_
_atom_site_type_symbol
_atom_site_label
_atom_site_fract_x
_atom_site_fract_y
_atom_site_fract_z
Si Si1 0.251662 0.799782 0.466801
Si Si2 0.449859 0.137585 0.409800
Si Si3 0.778006 0.049618 0.602865
Si Si4 0.284433 0.945072 0.658277
Si Si5 0.625120 0.312462 0.326707
O O1 0.470942 0.728555 0.473435
O O2 0.363343 0.874752 0.553723
O O3 0.210370 0.824755 0.310878
O O4 0.692762 0.077791 0.451309
O O5 0.262160 0.090493 0.306549
O O6 0.555599 0.218221 0.339559
O O7 0.293857 0.158427 0.546043
O O8 0.859576 0.132053 0.683251
O O9 0.527935 0.007215 0.675101
O O10 0.026399 0.988992 0.596529
#
# Coordination Sequence:
#
# PCOD8157937 Si02
#       5
#     4   4   4   4   4
#     4  12  29  52  78 114 159 211 258 324 396 479
#     4  12  28  51  83 116 159 206 273 324 389 481
#     4  12  29  49  79 117 160 204 258 332 397 461
#     4  12  30  51  78 119 162 206 262 328 406 462
#     4  12  28  49  84 116 154 209 273 322 392 469
#
# _framework density 24.417233
#
# number of rings (size 3 to 8) (size 9 to 14) (size 15 to 20)
#    0.000    0.000    6.000    1.200   11.200    1.600 
#    0.000    0.000    0.000    0.000    0.000    0.000 
#    0.000    0.000    0.000    0.000    0.000    0.000 
#
# Total GULP energy -248085.567746 kJ/mol
# GULP energy per Si atom -12404.278387 kJ/mol
# Density = 2.436166 g / cm^3
# Si number density = 24.417233 Si / 1000 Ang^3
#
#
#
# Elastic Constant Matrix: (Units=GPa)
#
#
# Indices 1 2 3 4 5 6 
#
# 1 117.4965 26.6240 23.4870 0.0000 0.0000 0.0000
# 2 26.6240 89.5254 26.3574 0.0000 0.0000 0.0000
# 3 23.4870 26.3574 134.5578 0.0000 0.0000 0.0000
# 4 0.0000 0.0000 0.0000 24.9358 0.0000 0.0000
# 5 0.0000 0.0000 0.0000 0.0000 32.1955 0.0000
# 6 0.0000 0.0000 0.0000 0.0000 0.0000 44.0592
#
#
#
# Elastic Compliance Matrix: (Units=1/GPa)
#
#
# Indices 1 2 3 4 5 6 
#
# 1 0.009290 -0.002425 -0.001146 0.000000 0.000000 0.000000
# 2 -0.002425 0.012487 -0.002023 0.000000 0.000000 0.000000
# 3 -0.001146 -0.002023 0.008028 0.000000 0.000000 0.000000
# 4 0.000000 0.000000 0.000000 0.040103 0.000000 0.000000
# 5 0.000000 0.000000 0.000000 0.000000 0.031060 0.000000
# 6 0.000000 0.000000 0.000000 0.000000 0.000000 0.022697
#
#
# Mechanical properties :
#
#
# Convention : Reuss Voigt Hill
#
# Bulk Modulus (GPa) = 53.71728 54.94628 54.33178
# Shear Modulus (GPa) = 35.44641 37.91218 36.67929
#
# Velocity S-wave (km/s) = 3.81425 3.94468 3.88001
# Velocity P-wave (km/s) = 6.43782 6.58022 6.50941
#
# Compressibility (1/GPa) = 0.01861598
#
# Stress axis : x y z
#
# Youngs Moduli (GPa) = 107.64756 80.08521 124.56310
#
# Poissons Ratio (x) = 0.19421 0.14281
# Poissons Ratio (y) = 0.26106 0.25194
# Poissons Ratio (z) = 0.12341 0.16198
#
# Static dielectric constant tensor:
#      x y z
#    x 4.757590 0.000000 0.000000 
#    y 0.000000 5.012030 0.000000 
#    z 0.000000 0.000000 4.299730 
# 
# 
# High freq. dielectric constant tensor:
#      x y z
#    x 1.973680 0.000000 0.000000 
#    y 0.000000 1.991210 0.000000 
#    z 0.000000 0.000000 1.972610 
# 
# From -- ./inp_files/2378.got.cif
#   From: 2010.03.12/outbox.cif.g09.slc.cpg/sg19_2_cif.got.tgz:2378.got - 2010.04.10 18:59:41.
