data_PCOD8157464
_publ_section_title
;
Structure prediction by ZEFSAII (Michael W. Deem and Ramdas Pophale) SiO2 
 PCOD8157464
Probable space group: P 21 21 21
;
_chemical_formula_sum "Si O2"
_cell_formula_units_Z 32
_cell_length_a 15.163046
_cell_length_b 8.552828
_cell_length_c 11.490752
_cell_angle_alpha 90.000000
_cell_angle_beta 90.000000
_cell_angle_gamma 90.000000
_cell_volume 1490.200286
_symmetry_space_group_name_H-M "P 21 21 21"
_symmetry_group_IT_number 19
_symmetry_cell_setting 'orthorhombic'
loop_
_space_group_symop_operation_xyz
x,y,z
1/2-x,-y,1/2+z
1/2+x,1/2-y,-z
-x,1/2+y,1/2-z
loop_
_atom_site_type_symbol
_atom_site_label
_atom_site_fract_x
_atom_site_fract_y
_atom_site_fract_z
Si Si1 0.065743 0.119081 0.182784
Si Si2 0.588761 0.700013 0.226614
Si Si3 0.594200 0.656184 0.662219
Si Si4 0.597754 0.068635 0.192170
Si Si5 0.831945 0.890044 0.433587
Si Si6 0.808684 0.326363 0.948256
Si Si7 0.728578 0.813433 0.817861
Si Si8 0.664351 0.573556 0.989552
O O1 0.137903 0.250759 0.153650
O O2 0.974597 0.208686 0.190889
O O3 0.072627 0.023563 0.303928
O O4 0.079795 0.978607 0.089036
O O5 0.491447 0.651672 0.266918
O O6 0.662156 0.637298 0.317058
O O7 0.618300 0.621033 0.108094
O O8 0.591322 0.885700 0.216066
O O9 0.602918 0.654547 0.523259
O O10 0.686457 0.709880 0.716459
O O11 0.674769 0.139561 0.273483
O O12 0.612322 0.096345 0.053287
O O13 0.729519 0.850655 0.461604
O O14 0.834192 0.041883 0.352766
O O15 0.731670 0.431884 0.003587
O O16 0.726096 0.709507 0.935245
#
# Coordination Sequence:
#
# PCOD8157464 Si02
#       8
#     4   4   4   4   4   4   4   4
#     4  10  24  42  69  98 140 176 224 292 345 417
#     4  12  28  46  71 105 142 192 235 293 356 424
#     4  11  23  43  68 102 132 184 226 284 354 416
#     4  12  27  44  72 103 145 185 239 293 357 427
#     4  11  22  45  68 100 138 179 230 291 343 420
#     4  11  25  41  73  95 137 180 233 285 347 411
#     4  11  23  45  70 101 136 183 231 291 348 418
#     4  10  26  44  69 100 140 179 238 283 350 421
#
# _framework density 21.473623
#
# number of rings (size 3 to 8) (size 9 to 14) (size 15 to 20)
#    0.000    1.000    3.750    1.500   12.250    0.000 
#    0.000    0.000    0.000    0.000    0.000    0.000 
#    0.000    0.000    0.000    0.000    0.000    0.000 
#
# Total GULP energy -396477.543817 kJ/mol
# GULP energy per Si atom -12389.923244 kJ/mol
# Density = 2.142475 g / cm^3
# Si number density = 21.473623 Si / 1000 Ang^3
#
#
#
# Elastic Constant Matrix: (Units=GPa)
#
#
# Indices 1 2 3 4 5 6 
#
# 1 97.9091 32.1788 26.4963 0.0000 0.0000 0.0000
# 2 32.1788 104.8284 24.2553 0.0000 0.0000 0.0000
# 3 26.4963 24.2553 72.9407 0.0000 0.0000 0.0000
# 4 0.0000 0.0000 0.0000 29.4022 0.0000 0.0000
# 5 0.0000 0.0000 0.0000 0.0000 28.6698 0.0000
# 6 0.0000 0.0000 0.0000 0.0000 0.0000 37.9432
#
#
#
# Elastic Compliance Matrix: (Units=1/GPa)
#
#
# Indices 1 2 3 4 5 6 
#
# 1 0.012101 -0.002922 -0.003424 0.000000 0.000000 0.000000
# 2 -0.002922 0.011040 -0.002610 0.000000 0.000000 0.000000
# 3 -0.003424 -0.002610 0.015821 0.000000 0.000000 0.000000
# 4 0.000000 0.000000 0.000000 0.034011 0.000000 0.000000
# 5 0.000000 0.000000 0.000000 0.000000 0.034880 0.000000
# 6 0.000000 0.000000 0.000000 0.000000 0.000000 0.026355
#
#
# Mechanical properties :
#
#
# Convention : Reuss Voigt Hill
#
# Bulk Modulus (GPa) = 47.50495 49.05991 48.28243
# Shear Modulus (GPa) = 31.41949 32.05289 31.73619
#
# Velocity S-wave (km/s) = 3.82929 3.86769 3.84854
# Velocity P-wave (km/s) = 6.45924 6.54535 6.50243
#
# Compressibility (1/GPa) = 0.02105044
#
# Stress axis : x y z
#
# Youngs Moduli (GPa) = 82.64082 90.57744 63.20572
#
# Poissons Ratio (x) = 0.26469 0.21641
# Poissons Ratio (y) = 0.24150 0.16495
# Poissons Ratio (z) = 0.28295 0.23638
#
# Static dielectric constant tensor:
#      x y z
#    x 3.907570 0.000000 0.000000 
#    y 0.000000 4.154860 0.000000 
#    z 0.000000 0.000000 4.057050 
# 
# 
# High freq. dielectric constant tensor:
#      x y z
#    x 1.840160 0.000000 0.000000 
#    y 0.000000 1.857670 0.000000 
#    z 0.000000 0.000000 1.847830 
# 
# From -- ./inp_files/4736.got.cif
#   From: 2010.03.12/outbox.cif.g09.slc.cpg/sg19_3_cif.got.tgz:4736.got - 2010.04.10 18:59:41.
