data_PCOD8157754
_publ_section_title
;
Structure prediction by ZEFSAII (Michael W. Deem and Ramdas Pophale) SiO2 
 PCOD8157754
Probable space group: P 21 21 21
;
_chemical_formula_sum "Si O2"
_cell_formula_units_Z 24
_cell_length_a 8.940389
_cell_length_b 9.603458
_cell_length_c 12.634688
_cell_angle_alpha 90.000000
_cell_angle_beta 90.000000
_cell_angle_gamma 90.000000
_cell_volume 1084.797258
_symmetry_space_group_name_H-M "P 21 21 21"
_symmetry_group_IT_number 19
_symmetry_cell_setting 'orthorhombic'
loop_
_space_group_symop_operation_xyz
x,y,z
1/2-x,-y,1/2+z
1/2+x,1/2-y,-z
-x,1/2+y,1/2-z
loop_
_atom_site_type_symbol
_atom_site_label
_atom_site_fract_x
_atom_site_fract_y
_atom_site_fract_z
Si Si1 0.022568 0.187587 0.326778
Si Si2 0.687336 0.121081 0.319120
Si Si3 0.931414 0.491463 0.360549
Si Si4 0.087275 0.373127 0.916023
Si Si5 0.875677 0.619249 0.949109
Si Si6 0.375014 0.376372 0.041749
O O1 0.098454 0.110744 0.226986
O O2 0.129376 0.160202 0.427207
O O3 0.861196 0.121380 0.349706
O O4 0.001566 0.353023 0.305606
O O5 0.670151 0.144912 0.195047
O O6 0.600616 0.242442 0.380788
O O7 0.618836 0.974077 0.354937
O O8 0.776625 0.459166 0.419167
O O9 0.049680 0.545310 0.444361
O O10 0.205121 0.342212 0.008868
O O11 0.020362 0.526681 0.925184
O O12 0.952373 0.266194 0.927498
#
# Coordination Sequence:
#
# PCOD8157754 Si02
#       6
#     4   4   4   4   4   4
#     4  11  24  45  73 105 147 189 242 292 371 421
#     4  11  24  48  72 103 143 191 240 297 363 425
#     4  11  26  45  75 103 144 196 236 301 360 429
#     4  12  26  44  72 107 144 187 245 292 364 428
#     4  11  25  45  70 108 141 185 243 298 351 439
#     4  12  25  47  72 106 147 188 240 306 359 430
#
# _framework density 22.123950000000001
#
# number of rings (size 3 to 8) (size 9 to 14) (size 15 to 20)
#    0.000    0.667    5.000    2.000    2.333    5.333 
#    3.000    0.000    0.000    0.000    0.000    0.000 
#    0.000    0.000    0.000    0.000    0.000    0.000 
#
# Total GULP energy -297760.475924 kJ/mol
# GULP energy per Si atom -12406.686497 kJ/mol
# Density = 2.207359 g / cm^3
# Si number density = 22.123950 Si / 1000 Ang^3
#
#
#
# Elastic Constant Matrix: (Units=GPa)
#
#
# Indices 1 2 3 4 5 6 
#
# 1 80.1700 27.3197 23.6695 0.0000 0.0000 0.0000
# 2 27.3197 81.8355 35.3373 0.0000 0.0000 0.0000
# 3 23.6695 35.3373 98.3505 0.0000 0.0000 0.0000
# 4 0.0000 0.0000 0.0000 42.3441 0.0000 0.0000
# 5 0.0000 0.0000 0.0000 0.0000 39.9894 0.0000
# 6 0.0000 0.0000 0.0000 0.0000 0.0000 38.0805
#
#
#
# Elastic Compliance Matrix: (Units=1/GPa)
#
#
# Indices 1 2 3 4 5 6 
#
# 1 0.014419 -0.003924 -0.002060 0.000000 0.000000 0.000000
# 2 -0.003924 0.015532 -0.004636 0.000000 0.000000 0.000000
# 3 -0.002060 -0.004636 0.012329 0.000000 0.000000 0.000000
# 4 0.000000 0.000000 0.000000 0.023616 0.000000 0.000000
# 5 0.000000 0.000000 0.000000 0.000000 0.025007 0.000000
# 6 0.000000 0.000000 0.000000 0.000000 0.000000 0.026260
#
#
# Mechanical properties :
#
#
# Convention : Reuss Voigt Hill
#
# Bulk Modulus (GPa) = 47.53050 48.11212 47.82131
# Shear Modulus (GPa) = 34.38405 35.68475 35.03440
#
# Velocity S-wave (km/s) = 3.94655 4.02051 3.98370
# Velocity P-wave (km/s) = 6.50365 6.58380 6.54385
#
# Compressibility (1/GPa) = 0.02103912
#
# Stress axis : x y z
#
# Youngs Moduli (GPa) = 69.35328 64.38523 81.10762
#
# Poissons Ratio (x) = 0.25264 0.16710
# Poissons Ratio (y) = 0.27214 0.37602
# Poissons Ratio (z) = 0.14289 0.29850
#
# Static dielectric constant tensor:
#      x y z
#    x 3.895990 0.000000 0.000000 
#    y 0.000000 4.175270 0.000000 
#    z 0.000000 0.000000 3.972340 
# 
# 
# High freq. dielectric constant tensor:
#      x y z
#    x 1.870640 0.000000 0.000000 
#    y 0.000000 1.885710 0.000000 
#    z 0.000000 0.000000 1.873780 
# 
# From -- ./inp_files/2669.got.cif
#   From: 2010.03.12/outbox.cif.g09.slc.cpg/sg19_2_cif.got.tgz:2669.got - 2010.04.10 18:59:41.
