data_PCOD8157637
_publ_section_title
;
Structure prediction by ZEFSAII (Michael W. Deem and Ramdas Pophale) SiO2 
 PCOD8157637
Probable space group: P 21 21 21
;
_chemical_formula_sum "Si O2"
_cell_formula_units_Z 24
_cell_length_a 9.233598
_cell_length_b 14.871526
_cell_length_c 6.866652
_cell_angle_alpha 90.000000
_cell_angle_beta 90.000000
_cell_angle_gamma 90.000000
_cell_volume 942.912809
_symmetry_space_group_name_H-M "P 21 21 21"
_symmetry_group_IT_number 19
_symmetry_cell_setting 'orthorhombic'
loop_
_space_group_symop_operation_xyz
x,y,z
1/2-x,-y,1/2+z
1/2+x,1/2-y,-z
-x,1/2+y,1/2-z
loop_
_atom_site_type_symbol
_atom_site_label
_atom_site_fract_x
_atom_site_fract_y
_atom_site_fract_z
Si Si1 0.621472 0.010157 0.404574
Si Si2 0.081739 0.956964 0.234617
Si Si3 0.802972 0.277903 0.913097
Si Si4 0.688359 0.373137 0.551166
Si Si5 0.435913 0.833687 0.324921
Si Si6 0.626615 0.103554 0.017046
O O1 0.519334 0.926671 0.346601
O O2 0.789238 0.985029 0.436242
O O3 0.563341 0.048925 0.606781
O O4 0.606759 0.090366 0.247922
O O5 0.036754 0.893720 0.421517
O O6 0.104731 0.057945 0.310524
O O7 0.214872 0.926900 0.104111
O O8 0.775260 0.306021 0.690147
O O9 0.976665 0.252728 0.920490
O O10 0.723519 0.344370 0.069914
O O11 0.726762 0.185018 0.961594
O O12 0.582008 0.316730 0.408296
#
# Coordination Sequence:
#
# PCOD8157637 Si02
#       6
#     4   4   4   4   4   4
#     4  11  22  47  74 105 145 196 253 313 374 469
#     4  12  26  44  78 105 149 200 258 307 383 466
#     4  11  29  46  74 110 154 199 250 326 391 460
#     4  12  28  46  75 110 152 203 254 319 380 464
#     4  11  26  49  71 106 154 193 256 315 381 466
#     4  11  25  44  76 108 146 199 253 312 391 457
#
# _framework density 25.453040999999999
#
# number of rings (size 3 to 8) (size 9 to 14) (size 15 to 20)
#    0.000    0.667    5.000    1.000    7.000    0.000 
#    0.000    0.000    0.000    0.000    0.000    0.000 
#    0.000    0.000    0.000    0.000    0.000    0.000 
#
# Total GULP energy -297488.008681 kJ/mol
# GULP energy per Si atom -12395.333695 kJ/mol
# Density = 2.539511 g / cm^3
# Si number density = 25.453041 Si / 1000 Ang^3
#
#
#
# Elastic Constant Matrix: (Units=GPa)
#
#
# Indices 1 2 3 4 5 6 
#
# 1 103.0643 -3.1474 34.1861 0.0000 0.0000 0.0000
# 2 -3.1474 41.8236 27.1333 0.0000 0.0000 0.0000
# 3 34.1861 27.1333 145.1968 0.0000 0.0000 0.0000
# 4 0.0000 0.0000 0.0000 24.5264 0.0000 0.0000
# 5 0.0000 0.0000 0.0000 0.0000 51.0144 0.0000
# 6 0.0000 0.0000 0.0000 0.0000 0.0000 26.6243
#
#
#
# Elastic Compliance Matrix: (Units=1/GPa)
#
#
# Indices 1 2 3 4 5 6 
#
# 1 0.010806 0.002804 -0.003068 0.000000 0.000000 0.000000
# 2 0.002804 0.027936 -0.005881 0.000000 0.000000 0.000000
# 3 -0.003068 -0.005881 0.008709 0.000000 0.000000 0.000000
# 4 0.000000 0.000000 0.000000 0.040772 0.000000 0.000000
# 5 0.000000 0.000000 0.000000 0.000000 0.019602 0.000000
# 6 0.000000 0.000000 0.000000 0.000000 0.000000 0.037560
#
#
# Mechanical properties :
#
#
# Convention : Reuss Voigt Hill
#
# Bulk Modulus (GPa) = 28.44112 45.15873 36.79993
# Shear Modulus (GPa) = 29.51680 35.89388 32.70534
#
# Velocity S-wave (km/s) = 3.40907 3.75934 3.58848
# Velocity P-wave (km/s) = 5.16661 6.05177 5.62663
#
# Compressibility (1/GPa) = 0.03516036
#
# Stress axis : x y z
#
# Youngs Moduli (GPa) = 92.54114 35.79616 114.83018
#
# Poissons Ratio (x) = -0.10036 0.35232
# Poissons Ratio (y) = -0.25946 0.67527
# Poissons Ratio (z) = 0.28393 0.21050
#
# Static dielectric constant tensor:
#      x y z
#    x 5.267810 0.000000 0.000000 
#    y 0.000000 4.660880 0.000000 
#    z 0.000000 0.000000 5.038850 
# 
# 
# High freq. dielectric constant tensor:
#      x y z
#    x 2.039770 0.000000 0.000000 
#    y 0.000000 2.012250 0.000000 
#    z 0.000000 0.000000 2.033130 
# 
# From -- ./inp_files/421.got.cif
#   From: 2010.03.12/outbox.cif.g09.slc.cpg/sg19_1_cif.got.tgz:421.got - 2010.04.10 18:59:41.
