data_PCOD8157465
_publ_section_title
;
Structure prediction by ZEFSAII (Michael W. Deem and Ramdas Pophale) SiO2 
 PCOD8157465
Probable space group: P 21 21 21
;
_chemical_formula_sum "Si O2"
_cell_formula_units_Z 28
_cell_length_a 18.353836
_cell_length_b 7.801100
_cell_length_c 9.059694
_cell_angle_alpha 90.000000
_cell_angle_beta 90.000000
_cell_angle_gamma 90.000000
_cell_volume 1297.167984
_symmetry_space_group_name_H-M "P 21 21 21"
_symmetry_group_IT_number 19
_symmetry_cell_setting 'orthorhombic'
loop_
_space_group_symop_operation_xyz
x,y,z
1/2-x,-y,1/2+z
1/2+x,1/2-y,-z
-x,1/2+y,1/2-z
loop_
_atom_site_type_symbol
_atom_site_label
_atom_site_fract_x
_atom_site_fract_y
_atom_site_fract_z
Si Si1 0.090469 0.235751 0.998113
Si Si2 0.027539 0.332550 0.470196
Si Si3 0.048918 0.049607 0.264852
Si Si4 0.170912 0.475468 0.552721
Si Si5 0.179682 0.551447 0.887067
Si Si6 0.921013 0.307599 0.990756
Si Si7 0.600345 0.596688 0.172345
O O1 0.128815 0.418445 0.976909
O O2 0.004337 0.250228 0.967367
O O3 0.125628 0.086056 0.895201
O O4 0.102265 0.173872 0.169312
O O5 0.112038 0.327893 0.516843
O O6 0.011096 0.478179 0.348048
O O7 0.981326 0.361465 0.617571
O O8 0.007070 0.152478 0.394044
O O9 0.092299 0.901876 0.352538
O O10 0.189606 0.476503 0.724503
O O11 0.242569 0.437282 0.462076
O O12 0.133966 0.651208 0.503231
O O13 0.148992 0.744881 0.885517
O O14 0.899522 0.423165 0.848926
#
# Coordination Sequence:
#
# PCOD8157465 Si02
#       7
#     4   4   4   4   4   4   4
#     4  11  23  43  68 101 137 180 228 281 348 404
#     4  11  21  40  65 101 129 177 228 279 345 393
#     4  11  22  36  67 100 135 169 228 291 327 404
#     4  11  25  46  66  99 138 185 224 283 352 416
#     4  11  27  45  69  99 142 181 225 288 351 412
#     4  11  22  42  66 103 134 176 235 282 338 413
#     4  10  24  42  69  99 135 176 232 282 339 406
#
# _framework density 21.585484000000001
#
# number of rings (size 3 to 8) (size 9 to 14) (size 15 to 20)
#    0.000    1.143    4.286    1.714    8.000    2.286 
#    2.571    0.000    0.000    0.000    0.000    0.000 
#    0.000    0.000    0.000    0.000    0.000    0.000 
#
# Total GULP energy -347068.112592 kJ/mol
# GULP energy per Si atom -12395.289735 kJ/mol
# Density = 2.153635 g / cm^3
# Si number density = 21.585484 Si / 1000 Ang^3
#
#
#
# Elastic Constant Matrix: (Units=GPa)
#
#
# Indices 1 2 3 4 5 6 
#
# 1 100.7817 20.0614 28.1405 0.0000 0.0000 0.0000
# 2 20.0614 51.5703 12.8350 0.0000 0.0000 0.0000
# 3 28.1405 12.8350 98.3298 0.0000 0.0000 0.0000
# 4 0.0000 0.0000 0.0000 42.1022 0.0000 0.0000
# 5 0.0000 0.0000 0.0000 0.0000 27.0781 0.0000
# 6 0.0000 0.0000 0.0000 0.0000 0.0000 26.3076
#
#
#
# Elastic Compliance Matrix: (Units=1/GPa)
#
#
# Indices 1 2 3 4 5 6 
#
# 1 0.011449 -0.003760 -0.002786 0.000000 0.000000 0.000000
# 2 -0.003760 0.021277 -0.001701 0.000000 0.000000 0.000000
# 3 -0.002786 -0.001701 0.011189 0.000000 0.000000 0.000000
# 4 0.000000 0.000000 0.000000 0.023752 0.000000 0.000000
# 5 0.000000 0.000000 0.000000 0.000000 0.036930 0.000000
# 6 0.000000 0.000000 0.000000 0.000000 0.000000 0.038012
#
#
# Mechanical properties :
#
#
# Convention : Reuss Voigt Hill
#
# Bulk Modulus (GPa) = 36.46869 41.41728 38.94298
# Shear Modulus (GPa) = 29.71883 31.74057 30.72970
#
# Velocity S-wave (km/s) = 3.71455 3.83882 3.77719
# Velocity P-wave (km/s) = 5.94381 6.23521 6.09125
#
# Compressibility (1/GPa) = 0.02742078
#
# Stress axis : x y z
#
# Youngs Moduli (GPa) = 87.34554 46.99855 89.37260
#
# Poissons Ratio (x) = 0.17673 0.24896
# Poissons Ratio (y) = 0.32845 0.15204
# Poissons Ratio (z) = 0.24331 0.07995
#
# Static dielectric constant tensor:
#      x y z
#    x 3.545930 0.000000 0.000000 
#    y 0.000000 4.201030 0.000000 
#    z 0.000000 0.000000 4.214860 
# 
# 
# High freq. dielectric constant tensor:
#      x y z
#    x 1.803930 0.000000 0.000000 
#    y 0.000000 1.863210 0.000000 
#    z 0.000000 0.000000 1.867750 
# 
# From -- ./inp_files/4304.got.cif
#   From: 2010.03.12/outbox.cif.g09.slc.cpg/sg19_3_cif.got.tgz:4304.got - 2010.04.10 18:59:41.
