data_PCOD8157468
_publ_section_title
;
Structure prediction by ZEFSAII (Michael W. Deem and Ramdas Pophale) SiO2 
 PCOD8157468
Probable space group: P 21 21 21
;
_chemical_formula_sum "Si O2"
_cell_formula_units_Z 24
_cell_length_a 12.313986
_cell_length_b 8.072976
_cell_length_c 11.411930
_cell_angle_alpha 90.000000
_cell_angle_beta 90.000000
_cell_angle_gamma 90.000000
_cell_volume 1134.465821
_symmetry_space_group_name_H-M "P 21 21 21"
_symmetry_group_IT_number 19
_symmetry_cell_setting 'orthorhombic'
loop_
_space_group_symop_operation_xyz
x,y,z
1/2-x,-y,1/2+z
1/2+x,1/2-y,-z
-x,1/2+y,1/2-z
loop_
_atom_site_type_symbol
_atom_site_label
_atom_site_fract_x
_atom_site_fract_y
_atom_site_fract_z
Si Si1 0.075762 0.606958 0.498326
Si Si2 0.362044 0.038314 0.013097
Si Si3 0.951106 0.168205 0.617401
Si Si4 0.881118 0.893503 0.788200
Si Si5 0.669381 0.722110 0.708450
Si Si6 0.867753 0.412575 0.442218
O O1 0.087311 0.787456 0.559598
O O2 0.137286 0.476523 0.583009
O O3 0.126188 0.618931 0.366407
O O4 0.950211 0.555907 0.483538
O O5 0.452940 0.899199 0.032503
O O6 0.250642 0.992039 0.078979
O O7 0.329422 0.060221 0.875909
O O8 0.864446 0.267159 0.538985
O O9 0.006574 0.291352 0.711215
O O10 0.886315 0.027840 0.685554
O O11 0.786648 0.765332 0.760130
O O12 0.594652 0.671665 0.819322
#
# Coordination Sequence:
#
# PCOD8157468 Si02
#       6
#     4   4   4   4   4   4
#     4   9  25  43  65  98 134 172 225 270 344 393
#     4  10  24  43  64  99 132 175 223 269 334 398
#     4  11  25  39  72  94 136 173 227 273 333 401
#     4  11  23  44  67 100 130 177 220 279 333 404
#     4  10  25  40  68  93 138 168 220 274 334 398
#     4  11  24  45  66 100 132 177 221 275 336 404
#
# _framework density 21.155331
#
# number of rings (size 3 to 8) (size 9 to 14) (size 15 to 20)
#    1.000    0.667    1.667    1.000   11.667    1.333 
#    3.000    0.000    0.000    0.000    0.000    0.000 
#    0.000    0.000    0.000    0.000    0.000    0.000 
#
# Total GULP energy -297409.024546 kJ/mol
# GULP energy per Si atom -12392.042689 kJ/mol
# Density = 2.110718 g / cm^3
# Si number density = 21.155331 Si / 1000 Ang^3
#
#
#
# Elastic Constant Matrix: (Units=GPa)
#
#
# Indices 1 2 3 4 5 6 
#
# 1 70.5241 29.7847 34.3902 0.0000 0.0000 0.0000
# 2 29.7847 87.5571 45.2999 0.0000 0.0000 0.0000
# 3 34.3902 45.2999 104.7340 0.0000 0.0000 0.0000
# 4 0.0000 0.0000 0.0000 44.0134 0.0000 0.0000
# 5 0.0000 0.0000 0.0000 0.0000 32.3584 0.0000
# 6 0.0000 0.0000 0.0000 0.0000 0.0000 39.4830
#
#
#
# Elastic Compliance Matrix: (Units=1/GPa)
#
#
# Indices 1 2 3 4 5 6 
#
# 1 0.017870 -0.003920 -0.004172 0.000000 0.000000 0.000000
# 2 -0.003920 0.015574 -0.005449 0.000000 0.000000 0.000000
# 3 -0.004172 -0.005449 0.013275 0.000000 0.000000 0.000000
# 4 0.000000 0.000000 0.000000 0.022720 0.000000 0.000000
# 5 0.000000 0.000000 0.000000 0.000000 0.030904 0.000000
# 6 0.000000 0.000000 0.000000 0.000000 0.000000 0.025327
#
#
# Mechanical properties :
#
#
# Convention : Reuss Voigt Hill
#
# Bulk Modulus (GPa) = 50.92714 53.52943 52.22829
# Shear Modulus (GPa) = 31.38789 33.39365 32.39077
#
# Velocity S-wave (km/s) = 3.85604 3.97734 3.91716
# Velocity P-wave (km/s) = 6.62953 6.81545 6.72313
#
# Compressibility (1/GPa) = 0.01963590
#
# Stress axis : x y z
#
# Youngs Moduli (GPa) = 55.96076 64.21054 75.33168
#
# Poissons Ratio (x) = 0.25172 0.31429
# Poissons Ratio (y) = 0.21938 0.41046
# Poissons Ratio (z) = 0.23347 0.34987
#
# Static dielectric constant tensor:
#      x y z
#    x 3.420680 0.000000 0.000000 
#    y 0.000000 3.825190 0.000000 
#    z 0.000000 0.000000 3.868220 
# 
# 
# High freq. dielectric constant tensor:
#      x y z
#    x 1.806730 0.000000 0.000000 
#    y 0.000000 1.830990 0.000000 
#    z 0.000000 0.000000 1.836170 
# 
# From -- ./inp_files/4904.got.cif
#   From: 2010.03.12/outbox.cif.g09.slc.cpg/sg19_3_cif.got.tgz:4904.got - 2010.04.10 18:59:41.
