data_PCOD8157617
_publ_section_title
;
Structure prediction by ZEFSAII (Michael W. Deem and Ramdas Pophale) SiO2 
 PCOD8157617
Probable space group: P 21 21 21
;
_chemical_formula_sum "Si O2"
_cell_formula_units_Z 28
_cell_length_a 6.544610
_cell_length_b 13.959750
_cell_length_c 14.703696
_cell_angle_alpha 90.000000
_cell_angle_beta 90.000000
_cell_angle_gamma 90.000000
_cell_volume 1343.346127
_symmetry_space_group_name_H-M "P 21 21 21"
_symmetry_group_IT_number 19
_symmetry_cell_setting 'orthorhombic'
loop_
_space_group_symop_operation_xyz
x,y,z
1/2-x,-y,1/2+z
1/2+x,1/2-y,-z
-x,1/2+y,1/2-z
loop_
_atom_site_type_symbol
_atom_site_label
_atom_site_fract_x
_atom_site_fract_y
_atom_site_fract_z
Si Si1 0.976349 0.031185 0.174284
Si Si2 0.208034 0.590693 0.692706
Si Si3 0.436426 0.344972 0.469731
Si Si4 0.042822 0.237972 0.245178
Si Si5 0.220498 0.843393 0.904208
Si Si6 0.905187 0.979355 0.975128
Si Si7 0.693298 0.380733 0.292775
O O1 0.964238 0.143273 0.196264
O O2 0.180115 0.980047 0.212631
O O3 0.785609 0.977935 0.224254
O O4 0.987371 0.033491 0.064237
O O5 0.352279 0.683550 0.680370
O O6 0.227792 0.544270 0.592582
O O7 0.972126 0.620399 0.711369
O O8 0.393115 0.232072 0.469268
O O9 0.556010 0.372041 0.560912
O O10 0.222220 0.397309 0.474751
O O11 0.572413 0.378954 0.386327
O O12 0.235365 0.207692 0.308747
O O13 0.845552 0.288776 0.291377
O O14 0.079655 0.937368 0.907441
#
# Coordination Sequence:
#
# PCOD8157617 Si02
#       7
#     4   4   4   4   4   4   4
#     4  11  24  46  65  96 135 175 223 274 334 396
#     4  11  25  45  66  98 133 177 225 271 336 405
#     4  12  21  37  65  99 129 162 217 277 336 388
#     4  11  25  43  67  96 134 179 224 277 331 405
#     4  12  22  37  67 102 127 166 217 279 340 384
#     4  12  25  42  67  98 136 177 221 278 333 401
#     4  11  22  44  67  95 136 170 221 282 328 397
#
# _framework density 20.843472999999999
#
# number of rings (size 3 to 8) (size 9 to 14) (size 15 to 20)
#    0.000    0.571    5.714    3.429    2.000    2.286 
#    2.571    0.000    0.000    0.000    0.000    0.000 
#    0.000    0.000    0.000    0.000    0.000    0.000 
#
# Total GULP energy -347030.794876 kJ/mol
# GULP energy per Si atom -12393.956960 kJ/mol
# Density = 2.079603 g / cm^3
# Si number density = 20.843473 Si / 1000 Ang^3
#
#
#
# Elastic Constant Matrix: (Units=GPa)
#
#
# Indices 1 2 3 4 5 6 
#
# 1 92.6764 34.2954 30.2773 0.0000 0.0000 0.0000
# 2 34.2954 119.7368 39.8737 0.0000 0.0000 0.0000
# 3 30.2773 39.8737 72.1511 0.0000 0.0000 0.0000
# 4 0.0000 0.0000 0.0000 29.8413 0.0000 0.0000
# 5 0.0000 0.0000 0.0000 0.0000 32.8270 0.0000
# 6 0.0000 0.0000 0.0000 0.0000 0.0000 29.2053
#
#
#
# Elastic Compliance Matrix: (Units=1/GPa)
#
#
# Indices 1 2 3 4 5 6 
#
# 1 0.013019 -0.002340 -0.004170 0.000000 0.000000 0.000000
# 2 -0.002340 0.010656 -0.004907 0.000000 0.000000 0.000000
# 3 -0.004170 -0.004907 0.018321 0.000000 0.000000 0.000000
# 4 0.000000 0.000000 0.000000 0.033511 0.000000 0.000000
# 5 0.000000 0.000000 0.000000 0.000000 0.030463 0.000000
# 6 0.000000 0.000000 0.000000 0.000000 0.000000 0.034240
#
#
# Mechanical properties :
#
#
# Convention : Reuss Voigt Hill
#
# Bulk Modulus (GPa) = 52.18635 54.82855 53.50745
# Shear Modulus (GPa) = 29.51061 30.38259 29.94660
#
# Velocity S-wave (km/s) = 3.76682 3.82207 3.79454
# Velocity P-wave (km/s) = 6.63402 6.77049 6.70260
#
# Compressibility (1/GPa) = 0.01916210
#
# Stress axis : x y z
#
# Youngs Moduli (GPa) = 76.81375 93.84386 54.58121
#
# Poissons Ratio (x) = 0.21962 0.22759
# Poissons Ratio (y) = 0.17976 0.26782
# Poissons Ratio (z) = 0.32029 0.46048
#
# Static dielectric constant tensor:
#      x y z
#    x 4.020830 0.000000 0.000000 
#    y 0.000000 3.747050 0.000000 
#    z 0.000000 0.000000 3.585950 
# 
# 
# High freq. dielectric constant tensor:
#      x y z
#    x 1.830200 0.000000 0.000000 
#    y 0.000000 1.810290 0.000000 
#    z 0.000000 0.000000 1.799520 
# 
# From -- ./inp_files/5699.got.cif
#   From: 2010.03.12/outbox.cif.g09.slc.cpg/sg19_3_cif.got.tgz:5699.got - 2010.04.10 18:59:41.
