data_PCOD8157496
_publ_section_title
;
Structure prediction by ZEFSAII (Michael W. Deem and Ramdas Pophale) SiO2 
 PCOD8157496
Probable space group: P 21 21 21
;
_chemical_formula_sum "Si O2"
_cell_formula_units_Z 28
_cell_length_a 12.509994
_cell_length_b 14.908402
_cell_length_c 6.664079
_cell_angle_alpha 90.000000
_cell_angle_beta 90.000000
_cell_angle_gamma 90.000000
_cell_volume 1242.877520
_symmetry_space_group_name_H-M "P 21 21 21"
_symmetry_group_IT_number 19
_symmetry_cell_setting 'orthorhombic'
loop_
_space_group_symop_operation_xyz
x,y,z
1/2-x,-y,1/2+z
1/2+x,1/2-y,-z
-x,1/2+y,1/2-z
loop_
_atom_site_type_symbol
_atom_site_label
_atom_site_fract_x
_atom_site_fract_y
_atom_site_fract_z
Si Si1 0.761824 0.781118 0.905422
Si Si2 0.335955 0.091391 0.541085
Si Si3 0.800901 0.847601 0.326861
Si Si4 0.105961 0.638184 0.412857
Si Si5 0.508685 0.022530 0.822330
Si Si6 0.373284 0.976622 0.192812
Si Si7 0.597480 0.292316 0.087935
O O1 0.716300 0.688028 0.985953
O O2 0.666686 0.823274 0.777991
O O3 0.872882 0.769364 0.781218
O O4 0.790410 0.846037 0.087741
O O5 0.421147 0.088040 0.722010
O O6 0.241730 0.020178 0.586152
O O7 0.388791 0.065462 0.327841
O O8 0.690847 0.886755 0.415494
O O9 0.892279 0.917035 0.390632
O O10 0.827019 0.747160 0.410038
O O11 0.040337 0.551313 0.343191
O O12 0.024755 0.711539 0.510471
O O13 0.464584 0.973795 0.022424
O O14 0.377152 0.893622 0.348336
#
# Coordination Sequence:
#
# PCOD8157496 Si02
#       7
#     4   4   4   4   4   4   4
#     4  10  26  44  74 100 142 189 233 299 367 421
#     4  11  23  43  71 105 136 178 241 296 355 428
#     4  11  28  47  71 103 147 187 247 292 352 447
#     4  11  26  45  70 102 142 189 240 294 354 437
#     4  12  27  44  71 107 144 190 239 292 369 421
#     4  11  24  41  72 103 140 182 232 304 354 419
#     4  10  24  46  69 102 137 183 238 293 355 423
#
# _framework density 22.528365000000001
#
# number of rings (size 3 to 8) (size 9 to 14) (size 15 to 20)
#    0.000    1.143    2.857    0.857   10.000    5.714 
#    0.000    0.000    0.000    0.000    0.000    0.000 
#    0.000    0.000    0.000    0.000    0.000    0.000 
#
# Total GULP energy -347187.565744 kJ/mol
# GULP energy per Si atom -12399.555919 kJ/mol
# Density = 2.247709 g / cm^3
# Si number density = 22.528365 Si / 1000 Ang^3
#
#
#
# Elastic Constant Matrix: (Units=GPa)
#
#
# Indices 1 2 3 4 5 6 
#
# 1 127.2493 27.3069 59.4014 0.0000 0.0000 0.0000
# 2 27.3069 54.4284 32.1577 0.0000 0.0000 0.0000
# 3 59.4014 32.1577 132.1692 0.0000 0.0000 0.0000
# 4 0.0000 0.0000 0.0000 31.2754 0.0000 0.0000
# 5 0.0000 0.0000 0.0000 0.0000 44.5803 0.0000
# 6 0.0000 0.0000 0.0000 0.0000 0.0000 34.7580
#
#
#
# Elastic Compliance Matrix: (Units=1/GPa)
#
#
# Indices 1 2 3 4 5 6 
#
# 1 0.010309 -0.002843 -0.003941 0.000000 0.000000 0.000000
# 2 -0.002843 0.022241 -0.004134 0.000000 0.000000 0.000000
# 3 -0.003941 -0.004134 0.010343 0.000000 0.000000 0.000000
# 4 0.000000 0.000000 0.000000 0.031974 0.000000 0.000000
# 5 0.000000 0.000000 0.000000 0.000000 0.022431 0.000000
# 6 0.000000 0.000000 0.000000 0.000000 0.000000 0.028770
#
#
# Mechanical properties :
#
#
# Convention : Reuss Voigt Hill
#
# Bulk Modulus (GPa) = 47.49039 61.28656 54.38847
# Shear Modulus (GPa) = 32.27383 35.12145 33.69764
#
# Velocity S-wave (km/s) = 3.78906 3.95269 3.87174
# Velocity P-wave (km/s) = 6.34576 6.93505 6.64694
#
# Compressibility (1/GPa) = 0.02105689
#
# Stress axis : x y z
#
# Youngs Moduli (GPa) = 97.00687 44.96100 96.68242
#
# Poissons Ratio (x) = 0.12783 0.38105
# Poissons Ratio (y) = 0.27581 0.39965
# Poissons Ratio (z) = 0.38233 0.18585
#
# Static dielectric constant tensor:
#      x y z
#    x 4.128390 0.000000 0.000000 
#    y 0.000000 3.769650 0.000000 
#    z 0.000000 0.000000 4.133530 
# 
# 
# High freq. dielectric constant tensor:
#      x y z
#    x 1.893540 0.000000 0.000000 
#    y 0.000000 1.870500 0.000000 
#    z 0.000000 0.000000 1.899870 
# 
# From -- ./inp_files/1052.got.cif
#   From: 2010.03.12/outbox.cif.g09.slc.cpg/sg19_1_cif.got.tgz:1052.got - 2010.04.10 18:59:41.
