data_PCOD8157290
_publ_section_title
;
Structure prediction by ZEFSAII (Michael W. Deem and Ramdas Pophale) SiO2 
 PCOD8157290
Probable space group: P 21 21 21
;
_chemical_formula_sum "Si O2"
_cell_formula_units_Z 28
_cell_length_a 9.287431
_cell_length_b 9.706978
_cell_length_c 12.260270
_cell_angle_alpha 90.000000
_cell_angle_beta 90.000000
_cell_angle_gamma 90.000000
_cell_volume 1105.298753
_symmetry_space_group_name_H-M "P 21 21 21"
_symmetry_group_IT_number 19
_symmetry_cell_setting 'orthorhombic'
loop_
_space_group_symop_operation_xyz
x,y,z
1/2-x,-y,1/2+z
1/2+x,1/2-y,-z
-x,1/2+y,1/2-z
loop_
_atom_site_type_symbol
_atom_site_label
_atom_site_fract_x
_atom_site_fract_y
_atom_site_fract_z
Si Si1 0.803756 0.639444 0.310577
Si Si2 0.676986 0.880901 0.203457
Si Si3 0.963469 0.269850 0.063790
Si Si4 0.005624 0.543475 0.603907
Si Si5 0.604893 0.894939 0.761220
Si Si6 0.205435 0.022561 0.493821
Si Si7 0.263658 0.668582 0.026352
O O1 0.688915 0.719102 0.235659
O O2 0.737933 0.515439 0.380145
O O3 0.871113 0.750274 0.397661
O O4 0.931689 0.580126 0.232458
O O5 0.539081 0.946538 0.265792
O O6 0.666180 0.892731 0.072897
O O7 0.821248 0.957277 0.245044
O O8 0.859328 0.202913 0.156979
O O9 0.943519 0.187487 0.950186
O O10 0.929997 0.430915 0.046301
O O11 0.095974 0.422325 0.547308
O O12 0.838573 0.511791 0.586640
O O13 0.660226 0.819830 0.869775
O O14 0.170975 0.183726 0.492156
#
# Coordination Sequence:
#
# PCOD8157290 Si02
#       7
#     4   4   4   4   4   4   4
#     4   9  21  36  69  94 131 173 218 272 321 397
#     4  11  20  41  65  93 129 177 217 270 339 391
#     4   9  19  42  65  94 127 173 217 267 332 391
#     4  10  22  44  62  93 134 174 213 274 335 392
#     4   9  22  38  64  93 128 170 217 266 321 395
#     4  11  22  42  66  99 138 164 223 284 324 399
#     4  11  24  39  65  98 129 173 223 273 326 389
#
# _framework density 25.332515999999998
#
# number of rings (size 3 to 8) (size 9 to 14) (size 15 to 20)
#    0.857    1.143    2.857    0.000    4.000    2.286 
#    7.714    0.000    0.000    0.000    0.000    0.000 
#    0.000    0.000    0.000    0.000    0.000    0.000 
#
# Total GULP energy -347117.090976 kJ/mol
# GULP energy per Si atom -12397.038963 kJ/mol
# Density = 2.527486 g / cm^3
# Si number density = 25.332516 Si / 1000 Ang^3
#
#
#
# Elastic Constant Matrix: (Units=GPa)
#
#
# Indices 1 2 3 4 5 6 
#
# 1 20.0492 -11.7141 -6.7448 0.0000 0.0000 0.0000
# 2 -11.7141 102.5824 17.2093 0.0000 0.0000 0.0000
# 3 -6.7448 17.2093 78.0603 0.0000 0.0000 0.0000
# 4 0.0000 0.0000 0.0000 34.9978 0.0000 0.0000
# 5 0.0000 0.0000 0.0000 0.0000 15.4234 0.0000
# 6 0.0000 0.0000 0.0000 0.0000 0.0000 23.1950
#
#
#
# Elastic Compliance Matrix: (Units=1/GPa)
#
#
# Indices 1 2 3 4 5 6 
#
# 1 0.054325 0.005624 0.003454 0.000000 0.000000 0.000000
# 2 0.005624 0.010705 -0.001874 0.000000 0.000000 0.000000
# 3 0.003454 -0.001874 0.013522 0.000000 0.000000 0.000000
# 4 0.000000 0.000000 0.000000 0.028573 0.000000 0.000000
# 5 0.000000 0.000000 0.000000 0.000000 0.064837 0.000000
# 6 0.000000 0.000000 0.000000 0.000000 0.000000 0.043113
#
#
# Mechanical properties :
#
#
# Convention : Reuss Voigt Hill
#
# Bulk Modulus (GPa) = 10.75729 22.02142 16.38936
# Shear Modulus (GPa) = 21.58396 28.18601 24.88499
#
# Velocity S-wave (km/s) = 2.92212 3.33925 3.13762
# Velocity P-wave (km/s) = 3.95483 4.85585 4.42831
#
# Compressibility (1/GPa) = 0.09296023
#
# Stress axis : x y z
#
# Youngs Moduli (GPa) = 18.40769 93.41538 73.95240
#
# Poissons Ratio (x) = -0.52537 -0.25544
# Poissons Ratio (y) = -0.10353 0.13859
# Poissons Ratio (z) = -0.06358 0.17507
#
# Static dielectric constant tensor:
#      x y z
#    x 3.984510 0.000000 0.000000 
#    y 0.000000 4.275110 0.000000 
#    z 0.000000 0.000000 4.715680 
# 
# 
# High freq. dielectric constant tensor:
#      x y z
#    x 1.979700 0.000000 0.000000 
#    y 0.000000 2.005420 0.000000 
#    z 0.000000 0.000000 2.025570 
# 
# From -- ./inp_files/5009.got.cif
#   From: 2010.03.12/outbox.cif.g09.slc.cpg/sg19_3_cif.got.tgz:5009.got - 2010.04.10 18:59:41.
