data_PCOD8157365
_publ_section_title
;
Structure prediction by ZEFSAII (Michael W. Deem and Ramdas Pophale) SiO2 
 PCOD8157365
Probable space group: P 21 21 21
;
_chemical_formula_sum "Si O2"
_cell_formula_units_Z 20
_cell_length_a 12.771701
_cell_length_b 8.261147
_cell_length_c 7.615851
_cell_angle_alpha 90.000000
_cell_angle_beta 90.000000
_cell_angle_gamma 90.000000
_cell_volume 803.540057
_symmetry_space_group_name_H-M "P 21 21 21"
_symmetry_group_IT_number 19
_symmetry_cell_setting 'orthorhombic'
loop_
_space_group_symop_operation_xyz
x,y,z
1/2-x,-y,1/2+z
1/2+x,1/2-y,-z
-x,1/2+y,1/2-z
loop_
_atom_site_type_symbol
_atom_site_label
_atom_site_fract_x
_atom_site_fract_y
_atom_site_fract_z
Si Si1 0.465506 0.245592 0.778112
Si Si2 0.199251 0.251760 0.144924
Si Si3 0.808908 0.008048 0.080380
Si Si4 0.605551 0.551460 0.400814
Si Si5 0.536051 0.191294 0.396117
O O1 0.579580 0.303077 0.847107
O O2 0.388536 0.398579 0.789543
O O3 0.469695 0.188874 0.576885
O O4 0.426179 0.097579 0.900333
O O5 0.233336 0.350389 0.319664
O O6 0.272382 0.094325 0.129443
O O7 0.216442 0.372531 0.979108
O O8 0.873594 0.946121 0.908745
O O9 0.591895 0.363188 0.366753
O O10 0.537539 0.658460 0.267933
#
# Coordination Sequence:
#
# PCOD8157365 Si02
#       5
#     4   4   4   4   4
#     4  10  23  46  69  97 138 176 224 283 338 393
#     4  10  23  42  69 103 129 181 225 269 347 403
#     4  10  23  43  69  99 134 180 219 282 338 398
#     4  11  24  43  70 101 135 178 227 276 338 407
#     4  11  23  44  67  98 140 177 221 284 335 393
#
# _framework density 24.889862999999998
#
# number of rings (size 3 to 8) (size 9 to 14) (size 15 to 20)
#    0.000    1.600    0.000    4.800    8.400    0.000 
#   14.400    0.000    0.000    0.000    0.000    0.000 
#    0.000    0.000    0.000    0.000    0.000    0.000 
#
# Total GULP energy -248051.918206 kJ/mol
# GULP energy per Si atom -12402.595910 kJ/mol
# Density = 2.483321 g / cm^3
# Si number density = 24.889863 Si / 1000 Ang^3
#
#
#
# Elastic Constant Matrix: (Units=GPa)
#
#
# Indices 1 2 3 4 5 6 
#
# 1 49.8744 -8.4333 14.7547 0.0000 0.0000 0.0000
# 2 -8.4333 69.2032 6.3154 0.0000 0.0000 0.0000
# 3 14.7547 6.3154 85.9160 0.0000 0.0000 0.0000
# 4 0.0000 0.0000 0.0000 35.2354 0.0000 0.0000
# 5 0.0000 0.0000 0.0000 0.0000 24.6275 0.0000
# 6 0.0000 0.0000 0.0000 0.0000 0.0000 26.4968
#
#
#
# Elastic Compliance Matrix: (Units=1/GPa)
#
#
# Indices 1 2 3 4 5 6 
#
# 1 0.021728 0.003009 -0.003953 0.000000 0.000000 0.000000
# 2 0.003009 0.014964 -0.001617 0.000000 0.000000 0.000000
# 3 -0.003953 -0.001617 0.012437 0.000000 0.000000 0.000000
# 4 0.000000 0.000000 0.000000 0.028381 0.000000 0.000000
# 5 0.000000 0.000000 0.000000 0.000000 0.040605 0.000000
# 6 0.000000 0.000000 0.000000 0.000000 0.000000 0.037740
#
#
# Mechanical properties :
#
#
# Convention : Reuss Voigt Hill
#
# Bulk Modulus (GPa) = 22.72300 25.58525 24.15413
# Shear Modulus (GPa) = 28.46625 30.09572 29.28098
#
# Velocity S-wave (km/s) = 3.38552 3.48106 3.43362
# Velocity P-wave (km/s) = 4.94283 5.14381 5.04432
#
# Compressibility (1/GPa) = 0.04400826
#
# Stress axis : x y z
#
# Youngs Moduli (GPa) = 46.02262 66.82539 80.40574
#
# Poissons Ratio (x) = -0.20105 0.31782
# Poissons Ratio (y) = -0.13846 0.12999
# Poissons Ratio (z) = 0.18191 0.10803
#
# Static dielectric constant tensor:
#      x y z
#    x 4.436280 0.000000 0.000000 
#    y 0.000000 4.402960 0.000000 
#    z 0.000000 0.000000 4.559880 
# 
# 
# High freq. dielectric constant tensor:
#      x y z
#    x 1.983770 0.000000 0.000000 
#    y 0.000000 1.995360 0.000000 
#    z 0.000000 0.000000 1.994330 
# 
# From -- ./inp_files/2625.got.cif
#   From: 2010.03.12/outbox.cif.g09.slc.cpg/sg19_2_cif.got.tgz:2625.got - 2010.04.10 18:59:41.
