data_PCOD8157443
_publ_section_title
;
Structure prediction by ZEFSAII (Michael W. Deem and Ramdas Pophale) SiO2 
 PCOD8157443
Probable space group: P 21 21 21
;
_chemical_formula_sum "Si O2"
_cell_formula_units_Z 28
_cell_length_a 12.607100
_cell_length_b 5.138509
_cell_length_c 17.569828
_cell_angle_alpha 90.000000
_cell_angle_beta 90.000000
_cell_angle_gamma 90.000000
_cell_volume 1138.203271
_symmetry_space_group_name_H-M "P 21 21 21"
_symmetry_group_IT_number 19
_symmetry_cell_setting 'orthorhombic'
loop_
_space_group_symop_operation_xyz
x,y,z
1/2-x,-y,1/2+z
1/2+x,1/2-y,-z
-x,1/2+y,1/2-z
loop_
_atom_site_type_symbol
_atom_site_label
_atom_site_fract_x
_atom_site_fract_y
_atom_site_fract_z
Si Si1 0.852255 0.910794 0.179727
Si Si2 0.726193 0.332348 0.913839
Si Si3 0.007609 0.733407 0.415250
Si Si4 0.779088 0.432060 0.258185
Si Si5 0.576061 0.012901 0.434094
Si Si6 0.678113 0.385566 0.543100
Si Si7 0.544911 0.504014 0.213834
O O1 0.864009 0.655810 0.233218
O O2 0.781786 0.838464 0.102387
O O3 0.803197 0.141398 0.230282
O O4 0.966336 0.000123 0.144977
O O5 0.614086 0.179762 0.904199
O O6 0.732629 0.561342 0.849923
O O7 0.820880 0.131485 0.899454
O O8 0.729956 0.448994 0.000778
O O9 0.018500 0.658437 0.503029
O O10 0.098034 0.951593 0.401635
O O11 0.671025 0.522969 0.217638
O O12 0.492023 0.084633 0.369974
O O13 0.611857 0.282018 0.471461
O O14 0.492790 0.709916 0.271211
#
# Coordination Sequence:
#
# PCOD8157443 Si02
#       7
#     4   4   4   4   4   4   4
#     4  11  25  49  71 108 146 194 250 303 379 449
#     4  11  25  46  75 110 149 201 254 311 384 447
#     4  10  24  47  72 103 146 199 248 318 366 447
#     4  12  26  46  76 108 154 196 246 315 376 454
#     4  10  24  42  70 106 143 186 250 306 363 457
#     4  10  23  49  71 108 150 188 261 311 369 462
#     4  12  25  45  71 107 146 188 235 304 377 442
#
# _framework density 24.600176999999999
#
# number of rings (size 3 to 8) (size 9 to 14) (size 15 to 20)
#    0.000    1.143    2.857    1.714    6.000    3.429 
#    5.143    0.000    0.000    0.000    0.000    0.000 
#    0.000    0.000    0.000    0.000    0.000    0.000 
#
# Total GULP energy -346987.614107 kJ/mol
# GULP energy per Si atom -12392.414790 kJ/mol
# Density = 2.454419 g / cm^3
# Si number density = 24.600177 Si / 1000 Ang^3
#
#
#
# Elastic Constant Matrix: (Units=GPa)
#
#
# Indices 1 2 3 4 5 6 
#
# 1 91.7714 9.0827 14.5054 0.0000 0.0000 0.0000
# 2 9.0827 100.0402 22.9672 0.0000 0.0000 0.0000
# 3 14.5054 22.9672 82.1688 0.0000 0.0000 0.0000
# 4 0.0000 0.0000 0.0000 53.9929 0.0000 0.0000
# 5 0.0000 0.0000 0.0000 0.0000 33.0376 0.0000
# 6 0.0000 0.0000 0.0000 0.0000 0.0000 20.6531
#
#
#
# Elastic Compliance Matrix: (Units=1/GPa)
#
#
# Indices 1 2 3 4 5 6 
#
# 1 0.011243 -0.000604 -0.001816 0.000000 0.000000 0.000000
# 2 -0.000604 0.010714 -0.002888 0.000000 0.000000 0.000000
# 3 -0.001816 -0.002888 0.013298 0.000000 0.000000 0.000000
# 4 0.000000 0.000000 0.000000 0.018521 0.000000 0.000000
# 5 0.000000 0.000000 0.000000 0.000000 0.030269 0.000000
# 6 0.000000 0.000000 0.000000 0.000000 0.000000 0.048419
#
#
# Mechanical properties :
#
#
# Convention : Reuss Voigt Hill
#
# Bulk Modulus (GPa) = 40.58560 40.78789 40.68674
# Shear Modulus (GPa) = 33.04856 36.69839 34.87347
#
# Velocity S-wave (km/s) = 3.66926 3.86656 3.76920
# Velocity P-wave (km/s) = 5.87241 6.04567 5.95967
#
# Compressibility (1/GPa) = 0.02463928
#
# Stress axis : x y z
#
# Youngs Moduli (GPa) = 88.94065 93.33715 75.19978
#
# Poissons Ratio (x) = 0.05636 0.13657
# Poissons Ratio (y) = 0.05371 0.21718
# Poissons Ratio (z) = 0.16152 0.26956
#
# Static dielectric constant tensor:
#      x y z
#    x 4.180790 0.000000 0.000000 
#    y 0.000000 4.526680 0.000000 
#    z 0.000000 0.000000 4.662280 
# 
# 
# High freq. dielectric constant tensor:
#      x y z
#    x 1.951220 0.000000 0.000000 
#    y 0.000000 1.974220 0.000000 
#    z 0.000000 0.000000 1.999590 
# 
# From -- ./inp_files/6707.got.cif
#   From: 2010.03.12/outbox.cif.g09.slc.cpg/sg19_4_cif.got.tgz:6707.got - 2010.04.10 18:59:41.
