data_PCOD8157709
_publ_section_title
;
Structure prediction by ZEFSAII (Michael W. Deem and Ramdas Pophale) SiO2 
 PCOD8157709
Probable space group: P 21 21 21
;
_chemical_formula_sum "Si O2"
_cell_formula_units_Z 24
_cell_length_a 20.051376
_cell_length_b 8.050069
_cell_length_c 6.669257
_cell_angle_alpha 90.000000
_cell_angle_beta 90.000000
_cell_angle_gamma 90.000000
_cell_volume 1076.517854
_symmetry_space_group_name_H-M "P 21 21 21"
_symmetry_group_IT_number 19
_symmetry_cell_setting 'orthorhombic'
loop_
_space_group_symop_operation_xyz
x,y,z
1/2-x,-y,1/2+z
1/2+x,1/2-y,-z
-x,1/2+y,1/2-z
loop_
_atom_site_type_symbol
_atom_site_label
_atom_site_fract_x
_atom_site_fract_y
_atom_site_fract_z
Si Si1 0.020670 0.169160 0.980249
Si Si2 0.181848 0.496253 0.569804
Si Si3 0.934657 0.010416 0.648186
Si Si4 0.846520 0.494108 0.389394
Si Si5 0.102258 0.668112 0.245599
Si Si6 0.753653 0.273834 0.657754
O O1 0.030324 0.365744 0.974732
O O2 0.989093 0.113653 0.770196
O O3 0.970866 0.135952 0.163917
O O4 0.090119 0.077546 0.007115
O O5 0.121004 0.432240 0.705900
O O6 0.155494 0.549037 0.351454
O O7 0.230684 0.341020 0.530821
O O8 0.214494 0.656622 0.672962
O O9 0.898652 0.132682 0.491622
O O10 0.872950 0.357333 0.231034
O O11 0.802983 0.412133 0.567600
O O12 0.807339 0.632047 0.263317
#
# Coordination Sequence:
#
# PCOD8157709 Si02
#       6
#     4   4   4   4   4   4
#     4  11  26  41  74 103 142 186 241 303 367 426
#     4  11  26  46  73 100 143 197 240 292 367 438
#     4  11  24  45  71 103 144 189 242 300 366 430
#     4  12  26  45  71 108 145 186 246 303 361 434
#     4  11  23  48  71 105 143 187 240 309 361 435
#     4  12  27  45  74 105 149 195 243 299 362 443
#
# _framework density 22.294101999999999
#
# number of rings (size 3 to 8) (size 9 to 14) (size 15 to 20)
#    0.000    0.667    1.667    5.000    7.000    5.333 
#    0.000    0.000    0.000    0.000    0.000    0.000 
#    0.000    0.000    0.000    0.000    0.000    0.000 
#
# Total GULP energy -297720.096524 kJ/mol
# GULP energy per Si atom -12405.004022 kJ/mol
# Density = 2.224336 g / cm^3
# Si number density = 22.294102 Si / 1000 Ang^3
#
#
#
# Elastic Constant Matrix: (Units=GPa)
#
#
# Indices 1 2 3 4 5 6 
#
# 1 100.3509 29.8817 37.8585 0.0000 0.0000 0.0000
# 2 29.8817 89.8315 29.3834 0.0000 0.0000 0.0000
# 3 37.8585 29.3834 106.2498 0.0000 0.0000 0.0000
# 4 0.0000 0.0000 0.0000 46.8940 0.0000 0.0000
# 5 0.0000 0.0000 0.0000 0.0000 24.1834 0.0000
# 6 0.0000 0.0000 0.0000 0.0000 0.0000 46.6060
#
#
#
# Elastic Compliance Matrix: (Units=1/GPa)
#
#
# Indices 1 2 3 4 5 6 
#
# 1 0.012158 -0.002889 -0.003533 0.000000 0.000000 0.000000
# 2 -0.002889 0.012925 -0.002545 0.000000 0.000000 0.000000
# 3 -0.003533 -0.002545 0.011375 0.000000 0.000000 0.000000
# 4 0.000000 0.000000 0.000000 0.021325 0.000000 0.000000
# 5 0.000000 0.000000 0.000000 0.000000 0.041351 0.000000
# 6 0.000000 0.000000 0.000000 0.000000 0.000000 0.021456
#
#
# Mechanical properties :
#
#
# Convention : Reuss Voigt Hill
#
# Bulk Modulus (GPa) = 53.98441 54.51991 54.25216
# Shear Modulus (GPa) = 34.55452 36.82393 35.68922
#
# Velocity S-wave (km/s) = 3.94120 4.06856 4.00539
# Velocity P-wave (km/s) = 6.70656 6.82487 6.76598
#
# Compressibility (1/GPa) = 0.01852387
#
# Stress axis : x y z
#
# Youngs Moduli (GPa) = 82.24935 77.36732 87.91477
#
# Poissons Ratio (x) = 0.22348 0.31063
# Poissons Ratio (y) = 0.23758 0.22377
# Poissons Ratio (z) = 0.29061 0.19692
#
# Static dielectric constant tensor:
#      x y z
#    x 4.140720 0.000000 0.000000 
#    y 0.000000 4.041380 0.000000 
#    z 0.000000 0.000000 3.941370 
# 
# 
# High freq. dielectric constant tensor:
#      x y z
#    x 1.895670 0.000000 0.000000 
#    y 0.000000 1.884890 0.000000 
#    z 0.000000 0.000000 1.881230 
# 
# From -- ./inp_files/425.got.cif
#   From: 2010.03.12/outbox.cif.g09.slc.cpg/sg19_1_cif.got.tgz:425.got - 2010.04.10 18:59:41.
