data_PCOD8157717
_publ_section_title
;
Structure prediction by ZEFSAII (Michael W. Deem and Ramdas Pophale) SiO2 
 PCOD8157717
Probable space group: P 21 21 21
;
_chemical_formula_sum "Si O2"
_cell_formula_units_Z 20
_cell_length_a 12.463955
_cell_length_b 12.113211
_cell_length_c 5.498026
_cell_angle_alpha 90.000000
_cell_angle_beta 90.000000
_cell_angle_gamma 90.000000
_cell_volume 830.083811
_symmetry_space_group_name_H-M "P 21 21 21"
_symmetry_group_IT_number 19
_symmetry_cell_setting 'orthorhombic'
loop_
_space_group_symop_operation_xyz
x,y,z
1/2-x,-y,1/2+z
1/2+x,1/2-y,-z
-x,1/2+y,1/2-z
loop_
_atom_site_type_symbol
_atom_site_label
_atom_site_fract_x
_atom_site_fract_y
_atom_site_fract_z
Si Si1 0.635135 0.746434 0.510649
Si Si2 0.040960 0.307301 0.344096
Si Si3 0.368897 0.065814 0.369958
Si Si4 0.181921 0.159037 0.671316
Si Si5 0.756289 0.932343 0.302939
O O1 0.529218 0.772326 0.669392
O O2 0.613590 0.629862 0.381787
O O3 0.741267 0.739737 0.677147
O O4 0.656659 0.846393 0.322195
O O5 0.088067 0.233491 0.560210
O O6 0.133159 0.365302 0.188410
O O7 0.962785 0.402601 0.444342
O O8 0.250748 0.098146 0.463888
O O9 0.374138 0.934328 0.335861
O O10 0.755204 0.010642 0.539675
#
# Coordination Sequence:
#
# PCOD8157717 Si02
#       5
#     4   4   4   4   4
#     4  11  26  49  76 111 154 212 261 326 395 475
#     4  11  28  48  78 114 158 207 264 324 399 478
#     4  11  24  45  80 112 145 211 261 318 404 461
#     4  11  23  50  75 112 158 198 267 332 384 475
#     4  12  29  54  79 115 165 210 261 336 400 467
#
# _framework density 24.093952000000002
#
# number of rings (size 3 to 8) (size 9 to 14) (size 15 to 20)
#    0.000    0.800    4.000    1.200    8.400    3.200 
#    0.000    0.000    0.000    0.000    0.000    0.000 
#    0.000    0.000    0.000    0.000    0.000    0.000 
#
# Total GULP energy -248084.679946 kJ/mol
# GULP energy per Si atom -12404.233997 kJ/mol
# Density = 2.403911 g / cm^3
# Si number density = 24.093952 Si / 1000 Ang^3
#
#
#
# Elastic Constant Matrix: (Units=GPa)
#
#
# Indices 1 2 3 4 5 6 
#
# 1 119.9080 33.0613 25.7412 0.0000 0.0000 0.0000
# 2 33.0613 90.0600 19.7278 0.0000 0.0000 0.0000
# 3 25.7412 19.7278 92.7220 0.0000 0.0000 0.0000
# 4 0.0000 0.0000 0.0000 35.0230 0.0000 0.0000
# 5 0.0000 0.0000 0.0000 0.0000 45.0647 0.0000
# 6 0.0000 0.0000 0.0000 0.0000 0.0000 23.2729
#
#
#
# Elastic Compliance Matrix: (Units=1/GPa)
#
#
# Indices 1 2 3 4 5 6 
#
# 1 0.009625 -0.003092 -0.002014 0.000000 0.000000 0.000000
# 2 -0.003092 0.012640 -0.001831 0.000000 0.000000 0.000000
# 3 -0.002014 -0.001831 0.011734 0.000000 0.000000 0.000000
# 4 0.000000 0.000000 0.000000 0.028553 0.000000 0.000000
# 5 0.000000 0.000000 0.000000 0.000000 0.022190 0.000000
# 6 0.000000 0.000000 0.000000 0.000000 0.000000 0.042968
#
#
# Mechanical properties :
#
#
# Convention : Reuss Voigt Hill
#
# Bulk Modulus (GPa) = 49.69174 51.08342 50.38758
# Shear Modulus (GPa) = 33.71734 35.61609 34.66671
#
# Velocity S-wave (km/s) = 3.74493 3.84893 3.79729
# Velocity P-wave (km/s) = 6.27441 6.40313 6.33910
#
# Compressibility (1/GPa) = 0.02012407
#
# Stress axis : x y z
#
# Youngs Moduli (GPa) = 103.89987 79.11475 85.22516
#
# Poissons Ratio (x) = 0.24463 0.17165
# Poissons Ratio (y) = 0.32126 0.15604
# Poissons Ratio (z) = 0.20926 0.14485
#
# Static dielectric constant tensor:
#      x y z
#    x 4.389680 0.000000 0.000000 
#    y 0.000000 4.433470 0.000000 
#    z 0.000000 0.000000 4.388140 
# 
# 
# High freq. dielectric constant tensor:
#      x y z
#    x 1.963060 0.000000 0.000000 
#    y 0.000000 1.951350 0.000000 
#    z 0.000000 0.000000 1.966580 
# 
# From -- ./inp_files/781.got.cif
#   From: 2010.03.12/outbox.cif.g09.slc.cpg/sg19_1_cif.got.tgz:781.got - 2010.04.10 18:59:41.
