data_PCOD8157392
_publ_section_title
;
Structure prediction by ZEFSAII (Michael W. Deem and Ramdas Pophale) SiO2 
 PCOD8157392
Probable space group: P 21 21 21
;
_chemical_formula_sum "Si O2"
_cell_formula_units_Z 20
_cell_length_a 7.568656
_cell_length_b 8.223131
_cell_length_c 14.086292
_cell_angle_alpha 90.000000
_cell_angle_beta 90.000000
_cell_angle_gamma 90.000000
_cell_volume 876.703343
_symmetry_space_group_name_H-M "P 21 21 21"
_symmetry_group_IT_number 19
_symmetry_cell_setting 'orthorhombic'
loop_
_space_group_symop_operation_xyz
x,y,z
1/2-x,-y,1/2+z
1/2+x,1/2-y,-z
-x,1/2+y,1/2-z
loop_
_atom_site_type_symbol
_atom_site_label
_atom_site_fract_x
_atom_site_fract_y
_atom_site_fract_z
Si Si1 0.539626 0.272933 0.077606
Si Si2 0.163853 0.376353 0.107129
Si Si3 0.337904 0.114166 0.417733
Si Si4 0.677561 0.628193 0.711588
Si Si5 0.201982 0.263921 0.603743
O O1 0.337179 0.261375 0.114345
O O2 0.568088 0.455255 0.034744
O O3 0.681546 0.245479 0.162640
O O4 0.569544 0.140668 0.995651
O O5 0.209046 0.563425 0.123453
O O6 0.023307 0.320530 0.187156
O O7 0.223650 0.207532 0.495522
O O8 0.491674 0.230596 0.377114
O O9 0.213320 0.053651 0.330636
O O10 0.709113 0.634639 0.824301
#
# Coordination Sequence:
#
# PCOD8157392 Si02
#       5
#     4   4   4   4   4
#     4   9  20  41  66  94 132 177 218 274 349 383
#     4  11  20  42  69  96 133 180 225 278 335 399
#     4   9  22  44  65  96 134 177 215 289 330 393
#     4  10  23  44  65 101 137 175 226 277 339 405
#     4  11  23  45  69 103 136 179 234 274 339 408
#
# _framework density 22.812732
#
# number of rings (size 3 to 8) (size 9 to 14) (size 15 to 20)
#    1.200    0.800    2.000    1.200    0.000    1.600 
#   18.000    0.000    0.000    0.000    0.000    0.000 
#    0.000    0.000    0.000    0.000    0.000    0.000 
#
# Total GULP energy -247890.145863 kJ/mol
# GULP energy per Si atom -12394.507293 kJ/mol
# Density = 2.276081 g / cm^3
# Si number density = 22.812732 Si / 1000 Ang^3
#
#
#
# Elastic Constant Matrix: (Units=GPa)
#
#
# Indices 1 2 3 4 5 6 
#
# 1 140.7801 14.7799 5.5012 0.0000 0.0000 0.0000
# 2 14.7799 26.1484 21.4625 0.0000 0.0000 0.0000
# 3 5.5012 21.4625 59.6115 0.0000 0.0000 0.0000
# 4 0.0000 0.0000 0.0000 29.5473 0.0000 0.0000
# 5 0.0000 0.0000 0.0000 0.0000 30.7793 0.0000
# 6 0.0000 0.0000 0.0000 0.0000 0.0000 29.6356
#
#
#
# Elastic Compliance Matrix: (Units=1/GPa)
#
#
# Indices 1 2 3 4 5 6 
#
# 1 0.007612 -0.005289 0.001202 0.000000 0.000000 0.000000
# 2 -0.005289 0.057960 -0.020380 0.000000 0.000000 0.000000
# 3 0.001202 -0.020380 0.024002 0.000000 0.000000 0.000000
# 4 0.000000 0.000000 0.000000 0.033844 0.000000 0.000000
# 5 0.000000 0.000000 0.000000 0.000000 0.032489 0.000000
# 6 0.000000 0.000000 0.000000 0.000000 0.000000 0.033743
#
#
# Mechanical properties :
#
#
# Convention : Reuss Voigt Hill
#
# Bulk Modulus (GPa) = 24.60625 34.44748 29.52687
# Shear Modulus (GPa) = 19.83094 30.31220 25.07157
#
# Velocity S-wave (km/s) = 2.95158 3.64914 3.31874
# Velocity P-wave (km/s) = 4.73554 5.73480 5.25896
#
# Compressibility (1/GPa) = 0.04064008
#
# Stress axis : x y z
#
# Youngs Moduli (GPa) = 131.37929 17.25313 41.66319
#
# Poissons Ratio (x) = 0.09125 -0.05007
# Poissons Ratio (y) = 0.69482 0.84910
# Poissons Ratio (z) = -0.15788 0.35162
#
# Static dielectric constant tensor:
#      x y z
#    x 4.295890 0.000000 0.000000 
#    y 0.000000 3.659740 0.000000 
#    z 0.000000 0.000000 3.599170 
# 
# 
# High freq. dielectric constant tensor:
#      x y z
#    x 1.919030 0.000000 0.000000 
#    y 0.000000 1.866980 0.000000 
#    z 0.000000 0.000000 1.872090 
# 
# From -- ./inp_files/5819.got.cif
#   From: 2010.03.12/outbox.cif.g09.slc.cpg/sg19_3_cif.got.tgz:5819.got - 2010.04.10 18:59:41.
