data_PCOD8157421
_publ_section_title
;
Structure prediction by ZEFSAII (Michael W. Deem and Ramdas Pophale) SiO2 
 PCOD8157421
Probable space group: P 21 21 21
;
_chemical_formula_sum "Si O2"
_cell_formula_units_Z 32
_cell_length_a 15.195847
_cell_length_b 8.529375
_cell_length_c 11.207758
_cell_angle_alpha 90.000000
_cell_angle_beta 90.000000
_cell_angle_gamma 90.000000
_cell_volume 1452.649591
_symmetry_space_group_name_H-M "P 21 21 21"
_symmetry_group_IT_number 19
_symmetry_cell_setting 'orthorhombic'
loop_
_space_group_symop_operation_xyz
x,y,z
1/2-x,-y,1/2+z
1/2+x,1/2-y,-z
-x,1/2+y,1/2-z
loop_
_atom_site_type_symbol
_atom_site_label
_atom_site_fract_x
_atom_site_fract_y
_atom_site_fract_z
Si Si1 0.849372 0.462482 0.245560
Si Si2 0.080958 0.853530 0.488455
Si Si3 0.137697 0.340389 0.742992
Si Si4 0.474248 0.146579 0.410285
Si Si5 0.479404 0.458673 0.869633
Si Si6 0.416530 0.480306 0.463739
Si Si7 0.156934 0.976265 0.729984
Si Si8 0.669459 0.888912 0.808324
O O1 0.761004 0.563402 0.266776
O O2 0.851275 0.296088 0.313503
O O3 0.932731 0.567735 0.288359
O O4 0.846714 0.414153 0.105423
O O5 0.045443 0.679791 0.460941
O O6 0.114715 0.871168 0.624372
O O7 0.999996 0.966528 0.460745
O O8 0.111620 0.376355 0.878829
O O9 0.147672 0.160134 0.707655
O O10 0.230216 0.428762 0.724666
O O11 0.060749 0.407859 0.660871
O O12 0.447718 0.327347 0.391005
O O13 0.495791 0.108426 0.548467
O O14 0.390412 0.054960 0.356149
O O15 0.395820 0.482271 0.782101
O O16 0.338867 0.447363 0.556211
#
# Coordination Sequence:
#
# PCOD8157421 Si02
#       8
#     4   4   4   4   4   4   4   4
#     4  10  23  45  70  99 132 180 229 287 341 416
#     4  11  23  43  70  93 137 177 224 281 342 407
#     4  11  24  43  68  97 139 179 225 284 337 412
#     4  12  24  42  69  96 138 178 227 280 344 405
#     4  11  24  43  69  98 134 179 229 281 344 407
#     4  12  23  44  68  96 136 181 221 283 347 404
#     4  11  25  45  66 101 136 181 233 280 345 414
#     4  10  24  45  66 102 140 179 232 282 350 407
#
# _framework density 22.028713
#
# number of rings (size 3 to 8) (size 9 to 14) (size 15 to 20)
#    0.000    1.000    5.000    0.750    5.250    0.000 
#    4.500    0.000    0.000    0.000    0.000    0.000 
#    0.000    0.000    0.000    0.000    0.000    0.000 
#
# Total GULP energy -396647.719024 kJ/mol
# GULP energy per Si atom -12395.241219 kJ/mol
# Density = 2.197858 g / cm^3
# Si number density = 22.028713 Si / 1000 Ang^3
#
#
#
# Elastic Constant Matrix: (Units=GPa)
#
#
# Indices 1 2 3 4 5 6 
#
# 1 134.1630 18.8931 37.1624 0.0000 0.0000 0.0000
# 2 18.8931 43.0177 23.5868 0.0000 0.0000 0.0000
# 3 37.1624 23.5868 97.9442 0.0000 0.0000 0.0000
# 4 0.0000 0.0000 0.0000 30.8099 0.0000 0.0000
# 5 0.0000 0.0000 0.0000 0.0000 21.9858 0.0000
# 6 0.0000 0.0000 0.0000 0.0000 0.0000 27.5344
#
#
#
# Elastic Compliance Matrix: (Units=1/GPa)
#
#
# Indices 1 2 3 4 5 6 
#
# 1 0.008517 -0.002268 -0.002685 0.000000 0.000000 0.000000
# 2 -0.002268 0.027387 -0.005735 0.000000 0.000000 0.000000
# 3 -0.002685 -0.005735 0.012610 0.000000 0.000000 0.000000
# 4 0.000000 0.000000 0.000000 0.032457 0.000000 0.000000
# 5 0.000000 0.000000 0.000000 0.000000 0.045484 0.000000
# 6 0.000000 0.000000 0.000000 0.000000 0.000000 0.036318
#
#
# Mechanical properties :
#
#
# Convention : Reuss Voigt Hill
#
# Bulk Modulus (GPa) = 36.84988 48.26773 42.55881
# Shear Modulus (GPa) = 25.88065 29.09818 27.48941
#
# Velocity S-wave (km/s) = 3.43134 3.63839 3.53638
# Velocity P-wave (km/s) = 5.69765 6.29360 6.00302
#
# Compressibility (1/GPa) = 0.02713713
#
# Stress axis : x y z
#
# Youngs Moduli (GPa) = 117.41451 36.51403 79.30362
#
# Poissons Ratio (x) = 0.08282 0.21295
# Poissons Ratio (y) = 0.26632 0.45478
# Poissons Ratio (z) = 0.31529 0.20940
#
# Static dielectric constant tensor:
#      x y z
#    x 4.199690 0.000000 0.000000 
#    y 0.000000 3.701850 0.000000 
#    z 0.000000 0.000000 3.829710 
# 
# 
# High freq. dielectric constant tensor:
#      x y z
#    x 1.878620 0.000000 0.000000 
#    y 0.000000 1.845750 0.000000 
#    z 0.000000 0.000000 1.871380 
# 
# From -- ./inp_files/3598.got.cif
#   From: 2010.03.12/outbox.cif.g09.slc.cpg/sg19_2_cif.got.tgz:3598.got - 2010.04.10 18:59:41.
