data_PCOD8157263
_publ_section_title
;
Structure prediction by ZEFSAII (Michael W. Deem and Ramdas Pophale) SiO2 
 PCOD8157263
Probable space group: P 21 21 21
;
_chemical_formula_sum "Si O2"
_cell_formula_units_Z 16
_cell_length_a 4.973990
_cell_length_b 13.126518
_cell_length_c 8.909037
_cell_angle_alpha 90.000000
_cell_angle_beta 90.000000
_cell_angle_gamma 90.000000
_cell_volume 581.681443
_symmetry_space_group_name_H-M "P 21 21 21"
_symmetry_group_IT_number 19
_symmetry_cell_setting 'orthorhombic'
loop_
_space_group_symop_operation_xyz
x,y,z
1/2-x,-y,1/2+z
1/2+x,1/2-y,-z
-x,1/2+y,1/2-z
loop_
_atom_site_type_symbol
_atom_site_label
_atom_site_fract_x
_atom_site_fract_y
_atom_site_fract_z
Si Si1 0.363835 0.138024 0.709070
Si Si2 0.860675 0.126377 0.245030
Si Si3 0.370194 0.457571 0.437023
Si Si4 0.266132 0.180032 0.019943
O O1 0.299045 0.258836 0.705547
O O2 0.661356 0.114188 0.651367
O O3 0.334226 0.100981 0.883564
O O4 0.166705 0.080636 0.598171
O O5 0.832380 0.051097 0.384680
O O6 0.661279 0.076749 0.116158
O O7 0.162106 0.123557 0.171548
O O8 0.513385 0.255345 0.047365
#
# Coordination Sequence:
#
# PCOD8157263 Si02
#       4
#     4   4   4   4
#     4  11  25  47  71 103 143 189 240 298 359 425
#     4  11  26  47  72 107 148 187 242 300 357 433
#     4  12  27  44  72 106 142 194 241 295 365 429
#     4  10  22  42  73 102 137 186 233 291 359 421
#
# _framework density 27.506461000000002
#
# number of rings (size 3 to 8) (size 9 to 14) (size 15 to 20)
#    0.000    1.000    0.000    6.000    0.000   18.000 
#    0.000    0.000    0.000    0.000    0.000    0.000 
#    0.000    0.000    0.000    0.000    0.000    0.000 
#
# Total GULP energy -198330.347085 kJ/mol
# GULP energy per Si atom -12395.646693 kJ/mol
# Density = 2.744386 g / cm^3
# Si number density = 27.506461 Si / 1000 Ang^3
#
#
#
# Elastic Constant Matrix: (Units=GPa)
#
#
# Indices 1 2 3 4 5 6 
#
# 1 85.0070 28.8587 5.0227 0.0000 0.0000 0.0000
# 2 28.8587 159.1767 14.0152 0.0000 0.0000 0.0000
# 3 5.0227 14.0152 159.8547 0.0000 0.0000 0.0000
# 4 0.0000 0.0000 0.0000 35.3967 0.0000 0.0000
# 5 0.0000 0.0000 0.0000 0.0000 44.2829 0.0000
# 6 0.0000 0.0000 0.0000 0.0000 0.0000 49.2717
#
#
#
# Elastic Compliance Matrix: (Units=1/GPa)
#
#
# Indices 1 2 3 4 5 6 
#
# 1 0.012541 -0.002256 -0.000196 0.000000 0.000000 0.000000
# 2 -0.002256 0.006737 -0.000520 0.000000 0.000000 0.000000
# 3 -0.000196 -0.000520 0.006307 0.000000 0.000000 0.000000
# 4 0.000000 0.000000 0.000000 0.028251 0.000000 0.000000
# 5 0.000000 0.000000 0.000000 0.000000 0.022582 0.000000
# 6 0.000000 0.000000 0.000000 0.000000 0.000000 0.020296
#
#
# Mechanical properties :
#
#
# Convention : Reuss Voigt Hill
#
# Bulk Modulus (GPa) = 50.91381 55.53683 53.22532
# Shear Modulus (GPa) = 45.78466 49.53304 47.65885
#
# Velocity S-wave (km/s) = 4.08426 4.24816 4.16702
# Velocity P-wave (km/s) = 6.38683 6.65558 6.52259
#
# Compressibility (1/GPa) = 0.01964104
#
# Stress axis : x y z
#
# Youngs Moduli (GPa) = 79.73612 148.42983 158.54344
#
# Poissons Ratio (x) = 0.33493 0.03111
# Poissons Ratio (y) = 0.17992 0.08241
# Poissons Ratio (z) = 0.01565 0.07715
#
# Static dielectric constant tensor:
#      x y z
#    x 5.490870 0.000000 0.000000 
#    y 0.000000 5.182430 0.000000 
#    z 0.000000 0.000000 5.386130 
# 
# 
# High freq. dielectric constant tensor:
#      x y z
#    x 2.128480 0.000000 0.000000 
#    y 0.000000 2.125700 0.000000 
#    z 0.000000 0.000000 2.122020 
# 
# From -- ./inp_files/2358.got.cif
#   From: 2010.03.12/outbox.cif.g09.slc.cpg/sg19_2_cif.got.tgz:2358.got - 2010.04.10 18:59:41.
