data_PCOD8157348
_publ_section_title
;
Structure prediction by ZEFSAII (Michael W. Deem and Ramdas Pophale) SiO2 
 PCOD8157348
Probable space group: P 21 21 21
;
_chemical_formula_sum "Si O2"
_cell_formula_units_Z 32
_cell_length_a 5.302411
_cell_length_b 12.498670
_cell_length_c 19.465947
_cell_angle_alpha 90.000000
_cell_angle_beta 90.000000
_cell_angle_gamma 90.000000
_cell_volume 1290.068366
_symmetry_space_group_name_H-M "P 21 21 21"
_symmetry_group_IT_number 19
_symmetry_cell_setting 'orthorhombic'
loop_
_space_group_symop_operation_xyz
x,y,z
1/2-x,-y,1/2+z
1/2+x,1/2-y,-z
-x,1/2+y,1/2-z
loop_
_atom_site_type_symbol
_atom_site_label
_atom_site_fract_x
_atom_site_fract_y
_atom_site_fract_z
Si Si1 0.311110 0.514466 0.339313
Si Si2 0.555776 0.302608 0.325024
Si Si3 0.064531 0.921060 0.258022
Si Si4 0.103572 0.389543 0.097458
Si Si5 0.575994 0.208295 0.468022
Si Si6 0.312841 0.132655 0.239681
Si Si7 0.044900 0.152895 0.093062
Si Si8 0.619457 0.472411 0.034572
O O1 0.508170 0.420707 0.358434
O O2 0.404851 0.593735 0.279031
O O3 0.081685 0.443949 0.311835
O O4 0.225309 0.590178 0.402496
O O5 0.752210 0.322292 0.262667
O O6 0.648717 0.229457 0.388229
O O7 0.323766 0.238380 0.287931
O O8 0.883949 0.884076 0.319703
O O9 0.195705 0.032808 0.281370
O O10 0.013321 0.274479 0.068502
O O11 0.385269 0.414199 0.072323
O O12 0.880558 0.472367 0.077506
O O13 0.338553 0.283142 0.489969
O O14 0.467600 0.091320 0.480826
O O15 0.176577 0.151725 0.167084
O O16 0.197784 0.087670 0.035741
#
# Coordination Sequence:
#
# PCOD8157348 Si02
#       8
#     4   4   4   4   4   4   4   4
#     4  10  23  41  70 100 141 188 248 309 375 455
#     4  11  24  43  72 104 146 191 254 316 381 448
#     4  10  24  42  69 103 142 189 247 315 378 451
#     4  12  27  47  73 108 146 195 247 314 387 447
#     4  12  29  50  77 109 152 207 255 311 387 461
#     4  10  23  41  71 105 141 192 243 316 377 453
#     4  11  25  44  72 102 143 195 249 300 388 451
#     4  12  29  48  74 107 151 195 251 313 369 470
#
# _framework density 24.804887999999998
#
# number of rings (size 3 to 8) (size 9 to 14) (size 15 to 20)
#    0.000    1.000    0.000    4.500   17.500    1.000 
#    0.000    0.000    0.000    0.000    0.000    0.000 
#    0.000    0.000    0.000    0.000    0.000    0.000 
#
# Total GULP energy -396530.227608 kJ/mol
# GULP energy per Si atom -12391.569613 kJ/mol
# Density = 2.474843 g / cm^3
# Si number density = 24.804888 Si / 1000 Ang^3
#
#
#
# Elastic Constant Matrix: (Units=GPa)
#
#
# Indices 1 2 3 4 5 6 
#
# 1 73.8819 -2.1310 5.6382 0.0000 0.0000 0.0000
# 2 -2.1310 100.9193 10.6588 0.0000 0.0000 0.0000
# 3 5.6382 10.6588 77.4187 0.0000 0.0000 0.0000
# 4 0.0000 0.0000 0.0000 36.4126 0.0000 0.0000
# 5 0.0000 0.0000 0.0000 0.0000 32.7276 0.0000
# 6 0.0000 0.0000 0.0000 0.0000 0.0000 26.1285
#
#
#
# Elastic Compliance Matrix: (Units=1/GPa)
#
#
# Indices 1 2 3 4 5 6 
#
# 1 0.013627 0.000398 -0.001047 0.000000 0.000000 0.000000
# 2 0.000398 0.010067 -0.001415 0.000000 0.000000 0.000000
# 3 -0.001047 -0.001415 0.013188 0.000000 0.000000 0.000000
# 4 0.000000 0.000000 0.000000 0.027463 0.000000 0.000000
# 5 0.000000 0.000000 0.000000 0.000000 0.030555 0.000000
# 6 0.000000 0.000000 0.000000 0.000000 0.000000 0.038272
#
#
# Mechanical properties :
#
#
# Convention : Reuss Voigt Hill
#
# Bulk Modulus (GPa) = 30.53120 31.17247 30.85183
# Shear Modulus (GPa) = 33.73425 34.92400 34.32913
#
# Velocity S-wave (km/s) = 3.69180 3.75633 3.72421
# Velocity P-wave (km/s) = 5.52338 5.60426 5.56397
#
# Compressibility (1/GPa) = 0.03275338
#
# Stress axis : x y z
#
# Youngs Moduli (GPa) = 73.38633 99.33681 75.82737
#
# Poissons Ratio (x) = -0.03957 0.07941
# Poissons Ratio (y) = -0.02923 0.10729
# Poissons Ratio (z) = 0.07685 0.14056
#
# Static dielectric constant tensor:
#      x y z
#    x 4.517470 0.000000 0.000000 
#    y 0.000000 4.756190 0.000000 
#    z 0.000000 0.000000 4.274480 
# 
# 
# High freq. dielectric constant tensor:
#      x y z
#    x 1.979780 0.000000 0.000000 
#    y 0.000000 2.005240 0.000000 
#    z 0.000000 0.000000 1.977630 
# 
# From -- ./inp_files/6925.got.cif
#   From: 2010.03.12/outbox.cif.g09.slc.cpg/sg19_4_cif.got.tgz:6925.got - 2010.04.10 18:59:41.
