data_PCOD8157445
_publ_section_title
;
Structure prediction by ZEFSAII (Michael W. Deem and Ramdas Pophale) SiO2 
 PCOD8157445
Probable space group: P 21 21 21
;
_chemical_formula_sum "Si O2"
_cell_formula_units_Z 20
_cell_length_a 16.689389
_cell_length_b 8.421416
_cell_length_c 5.305312
_cell_angle_alpha 90.000000
_cell_angle_beta 90.000000
_cell_angle_gamma 90.000000
_cell_volume 745.652517
_symmetry_space_group_name_H-M "P 21 21 21"
_symmetry_group_IT_number 19
_symmetry_cell_setting 'orthorhombic'
loop_
_space_group_symop_operation_xyz
x,y,z
1/2-x,-y,1/2+z
1/2+x,1/2-y,-z
-x,1/2+y,1/2-z
loop_
_atom_site_type_symbol
_atom_site_label
_atom_site_fract_x
_atom_site_fract_y
_atom_site_fract_z
Si Si1 0.011823 0.123775 0.223178
Si Si2 0.643738 0.980225 0.932403
Si Si3 0.268596 0.747072 0.321823
Si Si4 0.454606 0.253354 0.282985
Si Si5 0.355882 0.006535 0.025224
O O1 0.931471 0.014328 0.239457
O O2 0.005936 0.251549 0.457870
O O3 0.093285 0.022705 0.267798
O O4 0.012854 0.209398 0.953273
O O5 0.615388 0.886945 0.187456
O O6 0.669692 0.160512 0.989119
O O7 0.718302 0.887925 0.815060
O O8 0.212970 0.866203 0.476679
O O9 0.318401 0.843018 0.115270
O O10 0.416347 0.079179 0.236176
#
# Coordination Sequence:
#
# PCOD8157445 Si02
#       5
#     4   4   4   4   4
#     4  10  26  46  79 105 151 205 260 315 379 471
#     4  10  25  48  76 107 154 208 255 307 402 468
#     4  12  26  48  75 120 157 208 251 336 393 474
#     4  10  23  49  75 107 148 200 268 310 384 457
#     4  12  26  47  77 117 158 197 270 326 392 456
#
# _framework density 26.822147000000001
#
# number of rings (size 3 to 8) (size 9 to 14) (size 15 to 20)
#    1.200    0.000    2.000    2.400    2.800    6.400 
#    0.000    0.000    0.000    0.000    0.000    0.000 
#    0.000    0.000    0.000    0.000    0.000    0.000 
#
# Total GULP energy -247955.618317 kJ/mol
# GULP energy per Si atom -12397.780916 kJ/mol
# Density = 2.676110 g / cm^3
# Si number density = 26.822147 Si / 1000 Ang^3
#
#
#
# Elastic Constant Matrix: (Units=GPa)
#
#
# Indices 1 2 3 4 5 6 
#
# 1 69.1244 38.1643 -3.4116 0.0000 0.0000 0.0000
# 2 38.1643 109.8523 12.7231 0.0000 0.0000 0.0000
# 3 -3.4116 12.7231 99.0639 0.0000 0.0000 0.0000
# 4 0.0000 0.0000 0.0000 41.2412 0.0000 0.0000
# 5 0.0000 0.0000 0.0000 0.0000 28.5370 0.0000
# 6 0.0000 0.0000 0.0000 0.0000 0.0000 39.0735
#
#
#
# Elastic Compliance Matrix: (Units=1/GPa)
#
#
# Indices 1 2 3 4 5 6 
#
# 1 0.018104 -0.006458 0.001453 0.000000 0.000000 0.000000
# 2 -0.006458 0.011544 -0.001705 0.000000 0.000000 0.000000
# 3 0.001453 -0.001705 0.010364 0.000000 0.000000 0.000000
# 4 0.000000 0.000000 0.000000 0.024248 0.000000 0.000000
# 5 0.000000 0.000000 0.000000 0.000000 0.035042 0.000000
# 6 0.000000 0.000000 0.000000 0.000000 0.000000 0.025593
#
#
# Mechanical properties :
#
#
# Convention : Reuss Voigt Hill
#
# Bulk Modulus (GPa) = 37.60603 41.44359 39.52481
# Shear Modulus (GPa) = 33.97248 37.14131 35.55689
#
# Velocity S-wave (km/s) = 3.56277 3.72523 3.64490
# Velocity P-wave (km/s) = 5.56555 5.82991 5.69927
#
# Compressibility (1/GPa) = 0.02659148
#
# Stress axis : x y z
#
# Youngs Moduli (GPa) = 55.23701 86.62402 96.49235
#
# Poissons Ratio (x) = 0.55940 -0.14019
# Poissons Ratio (y) = 0.35671 0.16452
# Poissons Ratio (z) = -0.08025 0.14770
#
# Static dielectric constant tensor:
#      x y z
#    x 5.001820 0.000000 0.000000 
#    y 0.000000 4.976420 0.000000 
#    z 0.000000 0.000000 4.567570 
# 
# 
# High freq. dielectric constant tensor:
#      x y z
#    x 2.088750 0.000000 0.000000 
#    y 0.000000 2.076140 0.000000 
#    z 0.000000 0.000000 2.064140 
# 
# From -- ./inp_files/1687.got.cif
#   From: 2010.03.12/outbox.cif.g09.slc.cpg/sg19_1_cif.got.tgz:1687.got - 2010.04.10 18:59:41.
