data_PCOD8157107
_publ_section_title
;
Structure prediction by ZEFSAII (Michael W. Deem and Ramdas Pophale) SiO2 
 PCOD8157107
Probable space group: P 21 21 21
;
_chemical_formula_sum "Si O2"
_cell_formula_units_Z 32
_cell_length_a 8.742896
_cell_length_b 14.149322
_cell_length_c 12.448323
_cell_angle_alpha 90.000000
_cell_angle_beta 90.000000
_cell_angle_gamma 90.000000
_cell_volume 1539.932876
_symmetry_space_group_name_H-M "P 21 21 21"
_symmetry_group_IT_number 19
_symmetry_cell_setting 'orthorhombic'
loop_
_space_group_symop_operation_xyz
x,y,z
1/2-x,-y,1/2+z
1/2+x,1/2-y,-z
-x,1/2+y,1/2-z
loop_
_atom_site_type_symbol
_atom_site_label
_atom_site_fract_x
_atom_site_fract_y
_atom_site_fract_z
Si Si1 0.658901 0.226308 0.400607
Si Si2 0.928014 0.413858 0.695626
Si Si3 0.875623 0.148230 0.577480
Si Si4 0.233106 0.258883 0.231696
Si Si5 0.881521 0.273895 0.208042
Si Si6 0.985687 0.950686 0.568774
Si Si7 0.255197 0.922608 0.420492
Si Si8 0.714695 0.224803 0.012006
O O1 0.556549 0.135084 0.376572
O O2 0.766467 0.209469 0.501952
O O3 0.549833 0.314680 0.427071
O O4 0.762153 0.247125 0.298618
O O5 0.793887 0.341709 0.727336
O O6 0.867622 0.498423 0.622646
O O7 0.002237 0.453834 0.803325
O O8 0.809863 0.158105 0.698301
O O9 0.876563 0.039186 0.539441
O O10 0.280954 0.278746 0.108633
O O11 0.051636 0.257201 0.248653
O O12 0.855169 0.384243 0.176079
O O13 0.848463 0.208623 0.101382
O O14 0.918420 0.852215 0.524802
O O15 0.151316 0.965276 0.515508
O O16 0.351030 0.831440 0.465596
#
# Coordination Sequence:
#
# PCOD8157107 Si02
#       8
#     4   4   4   4   4   4   4   4
#     4  11  24  47  68  96 142 180 230 281 363 409
#     4  11  23  45  68 101 136 185 225 288 349 423
#     4  11  28  42  69 100 139 187 226 296 345 432
#     4  11  23  45  70  98 140 182 234 283 353 410
#     4  10  21  43  72  96 131 183 226 287 341 410
#     4  12  23  45  66 104 139 178 236 287 350 414
#     4  10  23  41  69  99 133 184 223 282 347 417
#     4  10  21  46  68  98 138 179 228 292 346 401
#
# _framework density 20.780125000000002
#
# number of rings (size 3 to 8) (size 9 to 14) (size 15 to 20)
#    0.750    0.500    3.750    1.500    5.250    1.000 
#    9.000    0.000    0.000    0.000    0.000    0.000 
#    0.000    0.000    0.000    0.000    0.000    0.000 
#
# Total GULP energy -396714.459005 kJ/mol
# GULP energy per Si atom -12397.326844 kJ/mol
# Density = 2.073283 g / cm^3
# Si number density = 20.780125 Si / 1000 Ang^3
#
#
#
# Elastic Constant Matrix: (Units=GPa)
#
#
# Indices 1 2 3 4 5 6 
#
# 1 103.9927 50.2556 34.7307 0.0000 0.0000 0.0000
# 2 50.2556 105.1934 54.7207 0.0000 0.0000 0.0000
# 3 34.7307 54.7207 116.8968 0.0000 0.0000 0.0000
# 4 0.0000 0.0000 0.0000 24.2877 0.0000 0.0000
# 5 0.0000 0.0000 0.0000 0.0000 34.7275 0.0000
# 6 0.0000 0.0000 0.0000 0.0000 0.0000 28.4716
#
#
#
# Elastic Compliance Matrix: (Units=1/GPa)
#
#
# Indices 1 2 3 4 5 6 
#
# 1 0.012634 -0.005398 -0.001227 0.000000 0.000000 0.000000
# 2 -0.005398 0.014872 -0.005358 0.000000 0.000000 0.000000
# 3 -0.001227 -0.005358 0.011427 0.000000 0.000000 0.000000
# 4 0.000000 0.000000 0.000000 0.041173 0.000000 0.000000
# 5 0.000000 0.000000 0.000000 0.000000 0.028796 0.000000
# 6 0.000000 0.000000 0.000000 0.000000 0.000000 0.035123
#
#
# Mechanical properties :
#
#
# Convention : Reuss Voigt Hill
#
# Bulk Modulus (GPa) = 66.80853 67.27745 67.04299
# Shear Modulus (GPa) = 28.90495 29.92242 29.41368
#
# Velocity S-wave (km/s) = 3.73364 3.79879 3.76636
# Velocity P-wave (km/s) = 7.12789 7.18938 7.15870
#
# Compressibility (1/GPa) = 0.01496815
#
# Stress axis : x y z
#
# Youngs Moduli (GPa) = 79.14931 67.23898 87.50938
#
# Poissons Ratio (x) = 0.36294 0.10737
# Poissons Ratio (y) = 0.42723 0.46889
# Poissons Ratio (z) = 0.09712 0.36028
#
# Static dielectric constant tensor:
#      x y z
#    x 3.608100 0.000000 0.000000 
#    y 0.000000 3.697970 0.000000 
#    z 0.000000 0.000000 3.905200 
# 
# 
# High freq. dielectric constant tensor:
#      x y z
#    x 1.806830 0.000000 0.000000 
#    y 0.000000 1.803860 0.000000 
#    z 0.000000 0.000000 1.826440 
# 
# From -- ./inp_files/4734.got.cif
#   From: 2010.03.12/outbox.cif.g09.slc.cpg/sg19_3_cif.got.tgz:4734.got - 2010.04.10 18:59:41.
