data_PCOD8157146
_publ_section_title
;
Structure prediction by ZEFSAII (Michael W. Deem and Ramdas Pophale) SiO2 
 PCOD8157146
Probable space group: P 21 21 21
;
_chemical_formula_sum "Si O2"
_cell_formula_units_Z 28
_cell_length_a 13.312907
_cell_length_b 13.398417
_cell_length_c 7.591013
_cell_angle_alpha 90.000000
_cell_angle_beta 90.000000
_cell_angle_gamma 90.000000
_cell_volume 1354.023256
_symmetry_space_group_name_H-M "P 21 21 21"
_symmetry_group_IT_number 19
_symmetry_cell_setting 'orthorhombic'
loop_
_space_group_symop_operation_xyz
x,y,z
1/2-x,-y,1/2+z
1/2+x,1/2-y,-z
-x,1/2+y,1/2-z
loop_
_atom_site_type_symbol
_atom_site_label
_atom_site_fract_x
_atom_site_fract_y
_atom_site_fract_z
Si Si1 0.714067 0.686982 0.477578
Si Si2 0.588559 0.264237 0.125707
Si Si3 0.522214 0.580549 0.499041
Si Si4 0.606506 0.019003 0.682471
Si Si5 0.274276 0.330015 0.335657
Si Si6 0.273647 0.330139 0.727643
Si Si7 0.048159 0.556535 0.694616
O O1 0.831758 0.666822 0.516687
O O2 0.644231 0.589570 0.500659
O O3 0.709627 0.732130 0.281852
O O4 0.670272 0.766056 0.621809
O O5 0.523691 0.192213 0.000845
O O6 0.652834 0.190214 0.255051
O O7 0.515470 0.341511 0.221258
O O8 0.479914 0.521889 0.668001
O O9 0.499497 0.526671 0.317086
O O10 0.660068 0.127033 0.662999
O O11 0.695545 0.944282 0.740705
O O12 0.551701 0.984353 0.504444
O O13 0.307059 0.298171 0.531996
O O14 0.340497 0.420590 0.261274
#
# Coordination Sequence:
#
# PCOD8157146 Si02
#       7
#     4   4   4   4   4   4   4
#     4  10  24  44  61  90 138 171 214 280 335 387
#     4  10  22  49  62  94 145 169 215 286 334 393
#     4  12  23  43  67  96 132 177 227 277 330 402
#     4  12  22  38  67 103 126 168 226 277 324 396
#     4  12  20  38  68  96 125 166 217 276 332 386
#     4  10  22  39  63  94 130 167 215 266 337 388
#     4  12  25  41  70  99 134 174 222 274 342 396
#
# _framework density 20.679113000000001
#
# number of rings (size 3 to 8) (size 9 to 14) (size 15 to 20)
#    0.857    0.000    5.714    2.571    0.000    1.143 
#    7.714    0.000    0.000    0.000    0.000    0.000 
#    0.000    0.000    0.000    0.000    0.000    0.000 
#
# Total GULP energy -346974.521941 kJ/mol
# GULP energy per Si atom -12391.947212 kJ/mol
# Density = 2.063205 g / cm^3
# Si number density = 20.679113 Si / 1000 Ang^3
#
#
#
# Elastic Constant Matrix: (Units=GPa)
#
#
# Indices 1 2 3 4 5 6 
#
# 1 54.0905 18.1519 15.8936 0.0000 0.0000 0.0000
# 2 18.1519 43.4837 17.4170 0.0000 0.0000 0.0000
# 3 15.8936 17.4170 141.2563 0.0000 0.0000 0.0000
# 4 0.0000 0.0000 0.0000 27.4310 0.0000 0.0000
# 5 0.0000 0.0000 0.0000 0.0000 22.4314 0.0000
# 6 0.0000 0.0000 0.0000 0.0000 0.0000 48.3961
#
#
#
# Elastic Compliance Matrix: (Units=1/GPa)
#
#
# Indices 1 2 3 4 5 6 
#
# 1 0.021758 -0.008523 -0.001397 0.000000 0.000000 0.000000
# 2 -0.008523 0.027531 -0.002436 0.000000 0.000000 0.000000
# 3 -0.001397 -0.002436 0.007537 0.000000 0.000000 0.000000
# 4 0.000000 0.000000 0.000000 0.036455 0.000000 0.000000
# 5 0.000000 0.000000 0.000000 0.000000 0.044580 0.000000
# 6 0.000000 0.000000 0.000000 0.000000 0.000000 0.020663
#
#
# Mechanical properties :
#
#
# Convention : Reuss Voigt Hill
#
# Bulk Modulus (GPa) = 31.13925 37.97284 34.55605
# Shear Modulus (GPa) = 25.78109 32.14290 28.96200
#
# Velocity S-wave (km/s) = 3.53472 3.94682 3.74644
# Velocity P-wave (km/s) = 5.63472 6.25880 5.95494
#
# Compressibility (1/GPa) = 0.03211381
#
# Stress axis : x y z
#
# Youngs Moduli (GPa) = 45.95942 36.32324 132.68144
#
# Poissons Ratio (x) = 0.30959 0.18539
# Poissons Ratio (y) = 0.39172 0.32315
# Poissons Ratio (z) = 0.06422 0.08847
#
# Static dielectric constant tensor:
#      x y z
#    x 3.739430 0.000000 0.000000 
#    y 0.000000 3.393320 0.000000 
#    z 0.000000 0.000000 3.680810 
# 
# 
# High freq. dielectric constant tensor:
#      x y z
#    x 1.805030 0.000000 0.000000 
#    y 0.000000 1.782410 0.000000 
#    z 0.000000 0.000000 1.810390 
# 
# From -- ./inp_files/3504.got.cif
#   From: 2010.03.12/outbox.cif.g09.slc.cpg/sg19_2_cif.got.tgz:3504.got - 2010.04.10 18:59:41.
