data_PCOD8157987
_publ_section_title
;
Structure prediction by ZEFSAII (Michael W. Deem and Ramdas Pophale) SiO2 
 PCOD8157987
Probable space group: C 2 2 21
;
_chemical_formula_sum "Si O2"
_cell_formula_units_Z 60
_cell_length_a 19.154966
_cell_length_b 12.545568
_cell_length_c 13.689898
_cell_angle_alpha 90.000000
_cell_angle_beta 90.000000
_cell_angle_gamma 90.000000
_cell_volume 3289.818409
_symmetry_space_group_name_H-M "C 2 2 21"
_symmetry_group_IT_number 20
_symmetry_cell_setting 'orthorhombic'
loop_
_space_group_symop_operation_xyz
x,y,z
-x,-y,1/2+z
x,-y,-z
-x,y,1/2-z
1/2+x,1/2+y,z
1/2-x,1/2-y,1/2+z
1/2+x,1/2-y,-z
1/2-x,1/2+y,1/2-z
loop_
_atom_site_type_symbol
_atom_site_label
_atom_site_fract_x
_atom_site_fract_y
_atom_site_fract_z
Si Si1 0.351240 0.590604 0.110231
Si Si2 0.532813 0.888763 0.456691
Si Si3 0.075521 0.273347 0.276659
Si Si4 0.378614 0.824806 0.434289
Si Si5 0.440876 0.677234 0.951024
Si Si6 0.272464 0.000000 0.500000
Si Si7 0.902994 0.115617 0.540677
Si Si8 0.077262 0.079165 0.740567
O O1 0.370106 0.702332 0.161763
O O2 0.271451 0.562844 0.083680
O O3 0.374102 0.506266 0.190494
O O4 0.389074 0.593832 0.004138
O O5 0.554174 0.876492 0.342695
O O6 0.450196 0.875149 0.474389
O O7 0.572719 0.797626 0.516929
O O8 0.558775 0.000000 0.500000
O O9 0.116915 0.306562 0.181064
O O10 0.000000 0.217088 0.250000
O O11 0.360719 0.712363 0.489102
O O12 0.317635 0.909060 0.448929
O O13 0.516482 0.635566 0.984461
O O14 0.429655 0.678297 0.834300
O O15 0.890163 0.117905 0.657351
O O16 0.879249 0.000000 0.500000
O O17 0.000000 0.028018 0.750000
#
# Coordination Sequence:
#
# PCOD8157987 Si02
#       8
#     8   8   8   8   8   4   8   8
#     4  11  19  35  57  83 112 150 190 228 280 348
#     4   9  17  34  59  86 115 142 185 246 289 330
#     4   9  19  36  65  89 105 142 194 250 290 326
#     4  10  21  40  54  84 118 157 195 220 283 353
#     4   9  17  30  52  86 117 136 179 242 297 341
#     4  12  24  38  58  74 124 172 182 224 268 360
#     4  10  19  32  57  83 114 141 179 251 295 322
#     4  10  17  29  51  87 112 134 173 240 305 328
#
# _framework density 18.238088000000001
#
# number of rings (size 3 to 8) (size 9 to 14) (size 15 to 20)
#    0.000    2.133    2.000    3.600    0.000    0.000 
#    4.800    2.000    2.933    0.800    0.000    0.000 
#    0.000    0.000    0.000    0.000    0.000    0.000 
#
# Total GULP energy -371727.796278 kJ/mol
# GULP energy per Si atom -12390.926543 kJ/mol
# Density = 1.819658 g / cm^3
# Si number density = 18.238088 Si / 1000 Ang^3
#
#
#
# Elastic Constant Matrix: (Units=GPa)
#
#
# Indices 1 2 3 4 5 6 
#
# 1 76.8553 45.8760 44.5518 0.0000 0.0000 0.0000
# 2 45.8760 121.8255 58.4891 0.0000 0.0000 0.0000
# 3 44.5518 58.4891 141.1948 0.0000 0.0000 0.0000
# 4 0.0000 0.0000 0.0000 25.0432 0.0000 0.0000
# 5 0.0000 0.0000 0.0000 0.0000 20.3158 0.0000
# 6 0.0000 0.0000 0.0000 0.0000 0.0000 20.1184
#
#
#
# Elastic Compliance Matrix: (Units=1/GPa)
#
#
# Indices 1 2 3 4 5 6 
#
# 1 0.018151 -0.005100 -0.003615 0.000000 0.000000 0.000000
# 2 -0.005100 0.011679 -0.003229 0.000000 0.000000 0.000000
# 3 -0.003615 -0.003229 0.009561 0.000000 0.000000 0.000000
# 4 0.000000 0.000000 0.000000 0.039931 0.000000 0.000000
# 5 0.000000 0.000000 0.000000 0.000000 0.049223 0.000000
# 6 0.000000 0.000000 0.000000 0.000000 0.000000 0.049706
#
#
# Mechanical properties :
#
#
# Convention : Reuss Voigt Hill
#
# Bulk Modulus (GPa) = 64.49956 70.85658 67.67807
# Shear Modulus (GPa) = 24.11912 25.82607 24.97259
#
# Velocity S-wave (km/s) = 3.64051 3.76713 3.70436
# Velocity P-wave (km/s) = 7.28788 7.60637 7.44883
#
# Compressibility (1/GPa) = 0.01550398
#
# Stress axis : x y z
#
# Youngs Moduli (GPa) = 55.09365 85.62351 104.59686
#
# Poissons Ratio (x) = 0.43665 0.37809
# Poissons Ratio (y) = 0.28096 0.33773
# Poissons Ratio (z) = 0.19915 0.27647
#
# Static dielectric constant tensor:
#      x y z
#    x 3.038500 0.000000 0.000000 
#    y 0.000000 3.340210 0.000000 
#    z 0.000000 0.000000 3.689140 
# 
# 
# High freq. dielectric constant tensor:
#      x y z
#    x 1.661150 0.000000 0.000000 
#    y 0.000000 1.699210 0.000000 
#    z 0.000000 0.000000 1.722650 
# 
# From -- ./inp_files/21462.got.cif
#   From: 2010.03.12/outbox.cif.g09.slc.cpg/sg20_11_cif.got.tgz:21462.got - 2010.04.14 01:38:04.
