data_PCOD8157266
_publ_section_title
;
Structure prediction by ZEFSAII (Michael W. Deem and Ramdas Pophale) SiO2 
 PCOD8157266
Probable space group: P 21 21 21
;
_chemical_formula_sum "Si O2"
_cell_formula_units_Z 32
_cell_length_a 13.898891
_cell_length_b 9.090384
_cell_length_c 12.355122
_cell_angle_alpha 90.000000
_cell_angle_beta 90.000000
_cell_angle_gamma 90.000000
_cell_volume 1561.023412
_symmetry_space_group_name_H-M "P 21 21 21"
_symmetry_group_IT_number 19
_symmetry_cell_setting 'orthorhombic'
loop_
_space_group_symop_operation_xyz
x,y,z
1/2-x,-y,1/2+z
1/2+x,1/2-y,-z
-x,1/2+y,1/2-z
loop_
_atom_site_type_symbol
_atom_site_label
_atom_site_fract_x
_atom_site_fract_y
_atom_site_fract_z
Si Si1 0.700363 0.110752 0.216066
Si Si2 0.166060 0.188742 0.982652
Si Si3 0.626978 0.601819 0.445262
Si Si4 0.926106 0.083733 0.210401
Si Si5 0.923603 0.709741 0.866878
Si Si6 0.528670 0.154370 0.874664
Si Si7 0.494886 0.523068 0.015993
Si Si8 0.088984 0.650885 0.705098
O O1 0.653920 0.196334 0.115155
O O2 0.813620 0.111040 0.207322
O O3 0.666144 0.194995 0.323991
O O4 0.663671 0.940913 0.220313
O O5 0.275482 0.138257 0.992192
O O6 0.102241 0.041341 0.967548
O O7 0.130810 0.275554 0.089953
O O8 0.621773 0.428219 0.427754
O O9 0.537224 0.650461 0.518554
O O10 0.624776 0.685506 0.328496
O O11 0.979048 0.240292 0.213803
O O12 0.955222 0.002992 0.321157
O O13 0.959294 0.989473 0.106989
O O14 0.990022 0.805979 0.948474
O O15 0.988522 0.657211 0.767250
O O16 0.422314 0.431589 0.091002
#
# Coordination Sequence:
#
# PCOD8157266 Si02
#       8
#     4   4   4   4   4   4   4   4
#     4  11  22  41  69  97 128 166 228 269 330 402
#     4  11  21  44  68  96 131 176 218 275 333 394
#     4  12  23  43  68  97 133 174 219 273 335 396
#     4  11  24  43  64  92 132 178 213 272 325 404
#     4  11  24  40  66  98 129 169 222 276 329 389
#     4  11  24  43  67  90 135 176 217 266 336 391
#     4  10  22  43  62  92 134 167 215 276 327 383
#     4  11  20  41  68  96 126 170 216 273 333 381
#
# _framework density 20.499372000000001
#
# number of rings (size 3 to 8) (size 9 to 14) (size 15 to 20)
#    0.000    1.000    5.000    3.000    1.750    3.000 
#    2.250    0.000    0.000    0.000    0.000    0.000 
#    0.000    0.000    0.000    0.000    0.000    0.000 
#
# Total GULP energy -396824.891913 kJ/mol
# GULP energy per Si atom -12400.777872 kJ/mol
# Density = 2.045271 g / cm^3
# Si number density = 20.499372 Si / 1000 Ang^3
#
#
#
# Elastic Constant Matrix: (Units=GPa)
#
#
# Indices 1 2 3 4 5 6 
#
# 1 83.8946 31.1598 26.6769 0.0000 0.0000 0.0000
# 2 31.1598 120.7072 35.3044 0.0000 0.0000 0.0000
# 3 26.6769 35.3044 63.5417 0.0000 0.0000 0.0000
# 4 0.0000 0.0000 0.0000 38.0603 0.0000 0.0000
# 5 0.0000 0.0000 0.0000 0.0000 27.4967 0.0000
# 6 0.0000 0.0000 0.0000 0.0000 0.0000 27.1306
#
#
#
# Elastic Compliance Matrix: (Units=1/GPa)
#
#
# Indices 1 2 3 4 5 6 
#
# 1 0.014275 -0.002307 -0.004711 0.000000 0.000000 0.000000
# 2 -0.002307 0.010265 -0.004735 0.000000 0.000000 0.000000
# 3 -0.004711 -0.004735 0.020346 0.000000 0.000000 0.000000
# 4 0.000000 0.000000 0.000000 0.026274 0.000000 0.000000
# 5 0.000000 0.000000 0.000000 0.000000 0.036368 0.000000
# 6 0.000000 0.000000 0.000000 0.000000 0.000000 0.036859
#
#
# Mechanical properties :
#
#
# Convention : Reuss Voigt Hill
#
# Bulk Modulus (GPa) = 46.77267 50.49175 48.63221
# Shear Modulus (GPa) = 28.56833 30.20435 29.38634
#
# Velocity S-wave (km/s) = 3.73717 3.84269 3.79030
# Velocity P-wave (km/s) = 6.44113 6.66128 6.55213
#
# Compressibility (1/GPa) = 0.02138001
#
# Stress axis : x y z
#
# Youngs Moduli (GPa) = 70.05435 97.41976 49.14905
#
# Poissons Ratio (x) = 0.22475 0.23155
# Poissons Ratio (y) = 0.16161 0.23271
# Poissons Ratio (z) = 0.33004 0.46126
#
# Static dielectric constant tensor:
#      x y z
#    x 3.546460 0.000000 0.000000 
#    y 0.000000 3.956620 0.000000 
#    z 0.000000 0.000000 3.659320 
# 
# 
# High freq. dielectric constant tensor:
#      x y z
#    x 1.798020 0.000000 0.000000 
#    y 0.000000 1.808120 0.000000 
#    z 0.000000 0.000000 1.795070 
# 
# From -- ./inp_files/4669.got.cif
#   From: 2010.03.12/outbox.cif.g09.slc.cpg/sg19_3_cif.got.tgz:4669.got - 2010.04.10 18:59:41.
