data_PCOD8157437
_publ_section_title
;
Structure prediction by ZEFSAII (Michael W. Deem and Ramdas Pophale) SiO2 
 PCOD8157437
Probable space group: P 21 21 21
;
_chemical_formula_sum "Si O2"
_cell_formula_units_Z 24
_cell_length_a 11.465885
_cell_length_b 8.033853
_cell_length_c 11.465876
_cell_angle_alpha 90.000000
_cell_angle_beta 90.000000
_cell_angle_gamma 90.000000
_cell_volume 1056.181858
_symmetry_space_group_name_H-M "P 21 21 21"
_symmetry_group_IT_number 19
_symmetry_cell_setting 'orthorhombic'
loop_
_space_group_symop_operation_xyz
x,y,z
1/2-x,-y,1/2+z
1/2+x,1/2-y,-z
-x,1/2+y,1/2-z
loop_
_atom_site_type_symbol
_atom_site_label
_atom_site_fract_x
_atom_site_fract_y
_atom_site_fract_z
Si Si1 0.941988 0.557038 0.015008
Si Si2 0.265008 0.807038 0.808012
Si Si3 0.395335 0.663391 0.158455
Si Si4 0.296189 0.450750 0.500893
Si Si5 0.591545 0.413391 0.145335
Si Si6 0.249107 0.200750 0.046189
O O1 0.882700 0.625000 0.132700
O O2 0.960602 0.703012 0.921673
O O3 0.868046 0.405041 0.961019
O O4 0.073326 0.501049 0.041493
O O5 0.211019 0.655041 0.881954
O O6 0.291493 0.751049 0.676674
O O7 0.171673 0.953012 0.789398
O O8 0.459579 0.483920 0.148514
O O9 0.398514 0.733920 0.290421
O O10 0.264105 0.647550 0.108672
O O11 0.229071 0.625000 0.479071
O O12 0.641328 0.397550 0.014105
#
# Coordination Sequence:
#
# PCOD8157437 Si02
#       6
#     4   4   4   4   4   4
#     4  10  23  48  68 101 146 189 241 300 366 431
#     4  10  23  48  68 101 146 189 241 300 366 431
#     4  11  25  43  77 103 142 186 246 302 361 437
#     4  11  26  45  71 106 145 190 244 301 368 433
#     4  11  25  43  77 103 142 186 246 302 361 437
#     4  11  26  45  71 106 145 190 244 301 368 433
#
# _framework density 22.723358999999999
#
# number of rings (size 3 to 8) (size 9 to 14) (size 15 to 20)
#    0.000    1.333    3.333    0.000    9.333    0.000 
#   12.000    0.000    0.000    0.000    0.000    0.000 
#    0.000    0.000    0.000    0.000    0.000    0.000 
#
# Total GULP energy -297612.054142 kJ/mol
# GULP energy per Si atom -12400.502256 kJ/mol
# Density = 2.267164 g / cm^3
# Si number density = 22.723359 Si / 1000 Ang^3
#
#
#
# Elastic Constant Matrix: (Units=GPa)
#
#
# Indices 1 2 3 4 5 6 
#
# 1 123.1123 40.0636 77.0333 0.0000 0.0000 0.0000
# 2 40.0636 113.5990 40.0634 0.0000 0.0000 0.0000
# 3 77.0333 40.0634 123.1117 0.0000 0.0000 0.0000
# 4 0.0000 0.0000 0.0000 32.2273 0.0000 0.0000
# 5 0.0000 0.0000 0.0000 0.0000 14.3009 0.0000
# 6 0.0000 0.0000 0.0000 0.0000 0.0000 32.2274
#
#
#
# Elastic Compliance Matrix: (Units=1/GPa)
#
#
# Indices 1 2 3 4 5 6 
#
# 1 0.013760 -0.002052 -0.007942 0.000000 0.000000 0.000000
# 2 -0.002052 0.010250 -0.002052 0.000000 0.000000 0.000000
# 3 -0.007942 -0.002052 0.013760 0.000000 0.000000 0.000000
# 4 0.000000 0.000000 0.000000 0.031030 0.000000 0.000000
# 5 0.000000 0.000000 0.000000 0.000000 0.069925 0.000000
# 6 0.000000 0.000000 0.000000 0.000000 0.000000 0.031029
#
#
# Mechanical properties :
#
#
# Convention : Reuss Voigt Hill
#
# Bulk Modulus (GPa) = 73.10713 74.90482 74.00598
# Shear Modulus (GPa) = 25.20095 29.26200 27.23147
#
# Velocity S-wave (km/s) = 3.33383 3.59242 3.46553
# Velocity P-wave (km/s) = 6.86016 7.08820 6.97511
#
# Compressibility (1/GPa) = 0.01367856
#
# Stress axis : x y z
#
# Youngs Moduli (GPa) = 72.67521 97.55987 72.67488
#
# Poissons Ratio (x) = 0.20017 0.57719
# Poissons Ratio (y) = 0.14911 0.14911
# Poissons Ratio (z) = 0.57719 0.20017
#
# Static dielectric constant tensor:
#      x y z
#    x 3.904210 0.000000 0.000000 
#    y 0.000000 4.233080 0.000000 
#    z 0.000000 0.000000 3.904200 
# 
# 
# High freq. dielectric constant tensor:
#      x y z
#    x 1.887990 0.000000 0.000000 
#    y 0.000000 1.909900 0.000000 
#    z 0.000000 0.000000 1.887990 
# 
# From -- ./inp_files/4914.got.cif
#   From: 2010.03.12/outbox.cif.g09.slc.cpg/sg19_3_cif.got.tgz:4914.got - 2010.04.10 18:59:41.
