data_PCOD8157084
_publ_section_title
;
Structure prediction by ZEFSAII (Michael W. Deem and Ramdas Pophale) SiO2 
 PCOD8157084
Probable space group: P 21 21 21
;
_chemical_formula_sum "Si O2"
_cell_formula_units_Z 28
_cell_length_a 7.818814
_cell_length_b 18.387724
_cell_length_c 8.936863
_cell_angle_alpha 90.000000
_cell_angle_beta 90.000000
_cell_angle_gamma 90.000000
_cell_volume 1284.854526
_symmetry_space_group_name_H-M "P 21 21 21"
_symmetry_group_IT_number 19
_symmetry_cell_setting 'orthorhombic'
loop_
_space_group_symop_operation_xyz
x,y,z
1/2-x,-y,1/2+z
1/2+x,1/2-y,-z
-x,1/2+y,1/2-z
loop_
_atom_site_type_symbol
_atom_site_label
_atom_site_fract_x
_atom_site_fract_y
_atom_site_fract_z
Si Si1 0.331957 0.920416 0.768808
Si Si2 0.521949 0.900711 0.290621
Si Si3 0.105811 0.775271 0.210717
Si Si4 0.524782 0.058669 0.158464
Si Si5 0.366506 0.077729 0.840711
Si Si6 0.643147 0.855705 0.596497
Si Si7 0.415653 0.821164 0.020432
O O1 0.133859 0.900256 0.737047
O O2 0.461882 0.882552 0.657149
O O3 0.361266 0.006195 0.738051
O O4 0.359003 0.896414 0.940572
O O5 0.330080 0.896034 0.360051
O O6 0.650674 0.871778 0.418948
O O7 0.548909 0.846617 0.148796
O O8 0.566614 0.982111 0.238160
O O9 0.035934 0.854778 0.260682
O O10 0.153488 0.729805 0.361386
O O11 0.265972 0.780258 0.103250
O O12 0.970218 0.733359 0.109608
O O13 0.697274 0.105132 0.176705
O O14 0.467540 0.052402 0.986790
#
# Coordination Sequence:
#
# PCOD8157084 Si02
#       7
#     4   4   4   4   4   4   4
#     4  10  22  45  69  95 135 171 229 289 327 397
#     4  10  22  42  68  95 135 173 227 286 332 400
#     4  10  25  42  64  98 136 178 222 278 344 409
#     4  11  23  39  71  99 124 183 225 275 344 400
#     4  10  21  42  67  96 129 180 226 272 342 396
#     4  11  25  42  65 100 139 172 221 285 341 409
#     4  10  22  44  68  95 136 179 222 281 342 401
#
# _framework density 21.792352000000001
#
# number of rings (size 3 to 8) (size 9 to 14) (size 15 to 20)
#    0.000    1.714    2.857    0.000    4.000    3.429 
#    0.000    0.000    0.000    0.000    0.000    0.000 
#    0.000    0.000    0.000    0.000    0.000    0.000 
#
# Total GULP energy -346986.018742 kJ/mol
# GULP energy per Si atom -12392.357812 kJ/mol
# Density = 2.174275 g / cm^3
# Si number density = 21.792352 Si / 1000 Ang^3
#
#
#
# Elastic Constant Matrix: (Units=GPa)
#
#
# Indices 1 2 3 4 5 6 
#
# 1 52.0222 37.1266 36.7620 0.0000 0.0000 0.0000
# 2 37.1266 123.9396 55.4910 0.0000 0.0000 0.0000
# 3 36.7620 55.4910 127.1818 0.0000 0.0000 0.0000
# 4 0.0000 0.0000 0.0000 36.5077 0.0000 0.0000
# 5 0.0000 0.0000 0.0000 0.0000 34.2359 0.0000
# 6 0.0000 0.0000 0.0000 0.0000 0.0000 19.8947
#
#
#
# Elastic Compliance Matrix: (Units=1/GPa)
#
#
# Indices 1 2 3 4 5 6 
#
# 1 0.027073 -0.005724 -0.005328 0.000000 0.000000 0.000000
# 2 -0.005724 0.011238 -0.003248 0.000000 0.000000 0.000000
# 3 -0.005328 -0.003248 0.010820 0.000000 0.000000 0.000000
# 4 0.000000 0.000000 0.000000 0.027391 0.000000 0.000000
# 5 0.000000 0.000000 0.000000 0.000000 0.029209 0.000000
# 6 0.000000 0.000000 0.000000 0.000000 0.000000 0.050265
#
#
# Mechanical properties :
#
#
# Convention : Reuss Voigt Hill
#
# Bulk Modulus (GPa) = 48.71100 62.43365 55.57232
# Shear Modulus (GPa) = 26.11781 29.71192 27.91486
#
# Velocity S-wave (km/s) = 3.46567 3.69644 3.58292
# Velocity P-wave (km/s) = 6.19801 6.85053 6.53243
#
# Compressibility (1/GPa) = 0.02052925
#
# Stress axis : x y z
#
# Youngs Moduli (GPa) = 36.93742 88.98664 92.42045
#
# Poissons Ratio (x) = 0.50939 0.49240
# Poissons Ratio (y) = 0.21144 0.30023
# Poissons Ratio (z) = 0.19680 0.28907
#
# Static dielectric constant tensor:
#      x y z
#    x 3.783690 0.000000 0.000000 
#    y 0.000000 4.146580 0.000000 
#    z 0.000000 0.000000 4.087750 
# 
# 
# High freq. dielectric constant tensor:
#      x y z
#    x 1.839460 0.000000 0.000000 
#    y 0.000000 1.859760 0.000000 
#    z 0.000000 0.000000 1.861850 
# 
# From -- ./inp_files/2962.got.cif
#   From: 2010.03.12/outbox.cif.g09.slc.cpg/sg19_2_cif.got.tgz:2962.got - 2010.04.10 18:59:41.
