data_PCOD8157479
_publ_section_title
;
Structure prediction by ZEFSAII (Michael W. Deem and Ramdas Pophale) SiO2 
 PCOD8157479
Probable space group: P 21 21 21
;
_chemical_formula_sum "Si O2"
_cell_formula_units_Z 28
_cell_length_a 5.492386
_cell_length_b 21.685280
_cell_length_c 9.078089
_cell_angle_alpha 90.000000
_cell_angle_beta 90.000000
_cell_angle_gamma 90.000000
_cell_volume 1081.236061
_symmetry_space_group_name_H-M "P 21 21 21"
_symmetry_group_IT_number 19
_symmetry_cell_setting 'orthorhombic'
loop_
_space_group_symop_operation_xyz
x,y,z
1/2-x,-y,1/2+z
1/2+x,1/2-y,-z
-x,1/2+y,1/2-z
loop_
_atom_site_type_symbol
_atom_site_label
_atom_site_fract_x
_atom_site_fract_y
_atom_site_fract_z
Si Si1 0.770636 0.559616 0.253096
Si Si2 0.949994 0.014306 0.524274
Si Si3 0.941342 0.624112 0.805211
Si Si4 0.769673 0.772281 0.144302
Si Si5 0.891680 0.098238 0.008256
Si Si6 0.893809 0.782062 0.455146
Si Si7 0.583003 0.650038 0.038838
O O1 0.648950 0.511899 0.362642
O O2 0.559989 0.598518 0.166476
O O3 0.940717 0.606130 0.347801
O O4 0.936277 0.523069 0.136823
O O5 0.719266 0.970269 0.508016
O O6 0.872051 0.079913 0.599031
O O7 0.016466 0.696270 0.806368
O O8 0.933888 0.603625 0.634962
O O9 0.683837 0.618345 0.888850
O O10 0.955392 0.782171 0.280964
O O11 0.770636 0.701046 0.102280
O O12 0.842323 0.812005 0.999399
O O13 0.676018 0.149317 0.011787
O O14 0.647805 0.739420 0.471460
#
# Coordination Sequence:
#
# PCOD8157479 Si02
#       7
#     4   4   4   4   4   4   4
#     4  11  26  45  73 109 145 197 253 320 392 469
#     4  11  25  45  71 105 145 193 251 321 384 474
#     4  10  24  44  68 104 139 197 245 316 383 460
#     4  11  24  43  73 100 150 194 253 315 385 461
#     4  11  25  44  73 102 148 194 253 314 390 453
#     4  11  28  47  75 113 156 203 258 317 388 461
#     4  11  24  44  71 103 143 194 247 313 384 462
#
# _framework density 25.896288999999999
#
# number of rings (size 3 to 8) (size 9 to 14) (size 15 to 20)
#    0.000    1.143    1.429    2.571    8.000   11.429 
#    0.000    0.000    0.000    0.000    0.000    0.000 
#    0.000    0.000    0.000    0.000    0.000    0.000 
#
# Total GULP energy -346997.012799 kJ/mol
# GULP energy per Si atom -12392.750457 kJ/mol
# Density = 2.583735 g / cm^3
# Si number density = 25.896289 Si / 1000 Ang^3
#
#
#
# Elastic Constant Matrix: (Units=GPa)
#
#
# Indices 1 2 3 4 5 6 
#
# 1 38.1413 -6.3532 21.2813 0.0000 0.0000 0.0000
# 2 -6.3532 93.1821 21.7081 0.0000 0.0000 0.0000
# 3 21.2813 21.7081 157.0269 0.0000 0.0000 0.0000
# 4 0.0000 0.0000 0.0000 46.3907 0.0000 0.0000
# 5 0.0000 0.0000 0.0000 0.0000 29.6075 0.0000
# 6 0.0000 0.0000 0.0000 0.0000 0.0000 36.6690
#
#
#
# Elastic Compliance Matrix: (Units=1/GPa)
#
#
# Indices 1 2 3 4 5 6 
#
# 1 0.029155 0.003005 -0.004367 0.000000 0.000000 0.000000
# 2 0.003005 0.011399 -0.001983 0.000000 0.000000 0.000000
# 3 -0.004367 -0.001983 0.007234 0.000000 0.000000 0.000000
# 4 0.000000 0.000000 0.000000 0.021556 0.000000 0.000000
# 5 0.000000 0.000000 0.000000 0.000000 0.033775 0.000000
# 6 0.000000 0.000000 0.000000 0.000000 0.000000 0.027271
#
#
# Mechanical properties :
#
#
# Convention : Reuss Voigt Hill
#
# Bulk Modulus (GPa) = 24.33161 40.18029 32.25595
# Shear Modulus (GPa) = 33.16103 39.31439 36.23771
#
# Velocity S-wave (km/s) = 3.58233 3.90057 3.74483
# Velocity P-wave (km/s) = 5.15044 5.98627 5.58402
#
# Compressibility (1/GPa) = 0.04109881
#
# Stress axis : x y z
#
# Youngs Moduli (GPa) = 34.29904 87.73043 138.23047
#
# Poissons Ratio (x) = -0.26364 0.60362
# Poissons Ratio (y) = -0.10307 0.27412
# Poissons Ratio (z) = 0.14978 0.17398
#
# Static dielectric constant tensor:
#      x y z
#    x 4.081390 0.000000 0.000000 
#    y 0.000000 4.964780 0.000000 
#    z 0.000000 0.000000 5.011080 
# 
# 
# High freq. dielectric constant tensor:
#      x y z
#    x 2.000380 0.000000 0.000000 
#    y 0.000000 2.051640 0.000000 
#    z 0.000000 0.000000 2.056740 
# 
# From -- ./inp_files/2414.got.cif
#   From: 2010.03.12/outbox.cif.g09.slc.cpg/sg19_2_cif.got.tgz:2414.got - 2010.04.10 18:59:41.
