data_PCOD8157180
_publ_section_title
;
Structure prediction by ZEFSAII (Michael W. Deem and Ramdas Pophale) SiO2 
 PCOD8157180
Probable space group: P 21 21 21
;
_chemical_formula_sum "Si O2"
_cell_formula_units_Z 32
_cell_length_a 13.384555
_cell_length_b 12.612187
_cell_length_c 9.490239
_cell_angle_alpha 90.000000
_cell_angle_beta 90.000000
_cell_angle_gamma 90.000000
_cell_volume 1602.033111
_symmetry_space_group_name_H-M "P 21 21 21"
_symmetry_group_IT_number 19
_symmetry_cell_setting 'orthorhombic'
loop_
_space_group_symop_operation_xyz
x,y,z
1/2-x,-y,1/2+z
1/2+x,1/2-y,-z
-x,1/2+y,1/2-z
loop_
_atom_site_type_symbol
_atom_site_label
_atom_site_fract_x
_atom_site_fract_y
_atom_site_fract_z
Si Si1 0.229655 0.755586 0.622549
Si Si2 0.421515 0.621183 0.667461
Si Si3 0.921514 0.121182 0.332539
Si Si4 0.729655 0.255587 0.377451
Si Si5 0.533265 0.804195 0.530514
Si Si6 0.842220 0.620989 0.607029
Si Si7 0.966735 0.804194 0.030514
Si Si8 0.657779 0.620989 0.107029
O O1 0.309503 0.665522 0.660272
O O2 0.141452 0.699073 0.538391
O O3 0.279506 0.848340 0.531189
O O4 0.189099 0.804615 0.765546
O O5 0.422551 0.500000 0.617314
O O6 0.494084 0.685169 0.561956
O O7 0.463296 0.629234 0.825543
O O8 0.809502 0.165521 0.339728
O O9 0.963297 0.129234 0.174458
O O10 0.994084 0.185169 0.438044
O O11 0.689099 0.304616 0.234454
O O12 0.641452 0.199074 0.461610
O O13 0.779507 0.348340 0.468811
O O14 0.459544 0.863488 0.423050
O O15 0.819645 0.500000 0.646207
O O16 0.040456 0.863488 0.923050
#
# Coordination Sequence:
#
# PCOD8157180 Si02
#       8
#     4   4   4   4   4   4   4   4
#     4  11  22  43  61  94 128 158 208 259 305 372
#     4  10  22  40  65  92 126 169 204 253 317 367
#     4  10  22  40  65  92 126 169 204 253 317 367
#     4  11  22  43  61  94 128 158 208 259 305 372
#     4  10  22  42  61  91 129 160 209 261 301 375
#     4  11  23  39  64  91 123 165 206 257 313 367
#     4  10  22  42  61  91 129 160 209 261 301 375
#     4  11  23  39  64  91 123 165 206 257 313 367
#
# _framework density 19.974616999999999
#
# number of rings (size 3 to 8) (size 9 to 14) (size 15 to 20)
#    0.000    1.500    2.500    2.250    0.000    4.000 
#    0.000    0.000    0.000    0.000    0.000    0.000 
#    0.000    0.000    0.000    0.000    0.000    0.000 
#
# Total GULP energy -396999.092372 kJ/mol
# GULP energy per Si atom -12406.221637 kJ/mol
# Density = 1.992915 g / cm^3
# Si number density = 19.974617 Si / 1000 Ang^3
#
#
#
# Elastic Constant Matrix: (Units=GPa)
#
#
# Indices 1 2 3 4 5 6 
#
# 1 83.9322 -3.0884 0.0879 0.0000 0.0000 0.0000
# 2 -3.0884 78.6028 5.4059 0.0000 0.0000 0.0000
# 3 0.0879 5.4059 54.6893 0.0000 0.0000 0.0000
# 4 0.0000 0.0000 0.0000 17.9773 0.0000 0.0000
# 5 0.0000 0.0000 0.0000 0.0000 43.7346 0.0000
# 6 0.0000 0.0000 0.0000 0.0000 0.0000 16.2889
#
#
#
# Elastic Compliance Matrix: (Units=1/GPa)
#
#
# Indices 1 2 3 4 5 6 
#
# 1 0.011932 0.000473 -0.000066 0.000000 0.000000 0.000000
# 2 0.000473 0.012828 -0.001269 0.000000 0.000000 0.000000
# 3 -0.000066 -0.001269 0.018411 0.000000 0.000000 0.000000
# 4 0.000000 0.000000 0.000000 0.055626 0.000000 0.000000
# 5 0.000000 0.000000 0.000000 0.000000 0.022865 0.000000
# 6 0.000000 0.000000 0.000000 0.000000 0.000000 0.061391
#
#
# Mechanical properties :
#
#
# Convention : Reuss Voigt Hill
#
# Bulk Modulus (GPa) = 24.12674 24.67056 24.39865
# Shear Modulus (GPa) = 25.17728 29.92141 27.54934
#
# Velocity S-wave (km/s) = 3.55415 3.87456 3.71781
# Velocity P-wave (km/s) = 5.38030 5.69158 5.53813
#
# Compressibility (1/GPa) = 0.04144778
#
# Stress axis : x y z
#
# Youngs Moduli (GPa) = 83.80919 77.95419 54.31643
#
# Poissons Ratio (x) = -0.03690 0.00358
# Poissons Ratio (y) = -0.03967 0.06892
# Poissons Ratio (z) = 0.00553 0.09891
#
# Static dielectric constant tensor:
#      x y z
#    x 3.809280 0.000000 0.000000 
#    y 0.000000 3.463690 0.000000 
#    z 0.000000 0.000000 3.634300 
# 
# 
# High freq. dielectric constant tensor:
#      x y z
#    x 1.794680 0.000000 0.000000 
#    y 0.000000 1.769320 0.000000 
#    z 0.000000 0.000000 1.783210 
# 
# From -- ./inp_files/3938.got.cif
#   From: 2010.03.12/outbox.cif.g09.slc.cpg/sg19_2_cif.got.tgz:3938.got - 2010.04.10 18:59:41.
