data_PCOD8157466
_publ_section_title
;
Structure prediction by ZEFSAII (Michael W. Deem and Ramdas Pophale) SiO2 
 PCOD8157466
Probable space group: P 21 21 21
;
_chemical_formula_sum "Si O2"
_cell_formula_units_Z 28
_cell_length_a 17.234525
_cell_length_b 8.841084
_cell_length_c 7.752293
_cell_angle_alpha 90.000000
_cell_angle_beta 90.000000
_cell_angle_gamma 90.000000
_cell_volume 1181.231484
_symmetry_space_group_name_H-M "P 21 21 21"
_symmetry_group_IT_number 19
_symmetry_cell_setting 'orthorhombic'
loop_
_space_group_symop_operation_xyz
x,y,z
1/2-x,-y,1/2+z
1/2+x,1/2-y,-z
-x,1/2+y,1/2-z
loop_
_atom_site_type_symbol
_atom_site_label
_atom_site_fract_x
_atom_site_fract_y
_atom_site_fract_z
Si Si1 0.178711 0.836199 0.911864
Si Si2 0.264157 0.576380 0.800456
Si Si3 0.011111 0.895029 0.862697
Si Si4 0.422154 0.731494 0.819417
Si Si5 0.760149 0.772821 0.555632
Si Si6 0.438899 0.773453 0.440181
Si Si7 0.681458 0.510958 0.719436
O O1 0.210195 0.665027 0.941189
O O2 0.096229 0.833410 0.817746
O O3 0.240297 0.911245 0.778999
O O4 0.169203 0.925635 0.090020
O O5 0.354614 0.607093 0.836739
O O6 0.238481 0.638953 0.615873
O O7 0.244606 0.399309 0.795563
O O8 0.956661 0.857018 0.699346
O O9 0.014072 0.075298 0.891271
O O10 0.983662 0.804850 0.032929
O O11 0.463522 0.717935 0.631737
O O12 0.389797 0.904000 0.839530
O O13 0.845661 0.695770 0.554662
O O14 0.693725 0.647951 0.586521
#
# Coordination Sequence:
#
# PCOD8157466 Si02
#       7
#     4   4   4   4   4   4   4
#     4  11  23  44  71 110 140 194 246 302 369 443
#     4  10  24  42  72 107 147 187 249 306 359 435
#     4  12  27  48  74 106 157 195 245 305 383 449
#     4  10  25  50  72 108 149 194 247 307 374 447
#     4  11  23  45  74 106 146 192 248 306 371 439
#     4  11  27  50  70 111 149 196 248 305 377 458
#     4  11  21  45  75 100 144 188 255 303 359 447
#
# _framework density 23.704075
#
# number of rings (size 3 to 8) (size 9 to 14) (size 15 to 20)
#    0.000    1.143    2.857    2.571    8.000    2.286 
#   10.286    0.000    0.000    0.000    0.000    0.000 
#    0.000    0.000    0.000    0.000    0.000    0.000 
#
# Total GULP energy -347199.977215 kJ/mol
# GULP energy per Si atom -12399.999186 kJ/mol
# Density = 2.365012 g / cm^3
# Si number density = 23.704075 Si / 1000 Ang^3
#
#
#
# Elastic Constant Matrix: (Units=GPa)
#
#
# Indices 1 2 3 4 5 6 
#
# 1 54.8724 8.6188 29.1665 0.0000 0.0000 0.0000
# 2 8.6188 113.9163 43.4164 0.0000 0.0000 0.0000
# 3 29.1665 43.4164 108.6537 0.0000 0.0000 0.0000
# 4 0.0000 0.0000 0.0000 36.4832 0.0000 0.0000
# 5 0.0000 0.0000 0.0000 0.0000 33.4844 0.0000
# 6 0.0000 0.0000 0.0000 0.0000 0.0000 34.1467
#
#
#
# Elastic Compliance Matrix: (Units=1/GPa)
#
#
# Indices 1 2 3 4 5 6 
#
# 1 0.021300 0.000670 -0.005985 0.000000 0.000000 0.000000
# 2 0.000670 0.010376 -0.004326 0.000000 0.000000 0.000000
# 3 -0.005985 -0.004326 0.012539 0.000000 0.000000 0.000000
# 4 0.000000 0.000000 0.000000 0.027410 0.000000 0.000000
# 5 0.000000 0.000000 0.000000 0.000000 0.029865 0.000000
# 6 0.000000 0.000000 0.000000 0.000000 0.000000 0.029285
#
#
# Mechanical properties :
#
#
# Convention : Reuss Voigt Hill
#
# Bulk Modulus (GPa) = 40.10891 48.87175 44.49033
# Shear Modulus (GPa) = 31.57168 33.90557 32.73863
#
# Velocity S-wave (km/s) = 3.65349 3.78612 3.72040
# Velocity P-wave (km/s) = 5.89532 6.30676 6.10450
#
# Compressibility (1/GPa) = 0.02493212
#
# Stress axis : x y z
#
# Youngs Moduli (GPa) = 46.94769 96.37190 79.75220
#
# Poissons Ratio (x) = -0.06453 0.47734
# Poissons Ratio (y) = -0.03144 0.34501
# Poissons Ratio (z) = 0.28100 0.41691
#
# Static dielectric constant tensor:
#      x y z
#    x 4.040550 0.000000 0.000000 
#    y 0.000000 4.699260 0.000000 
#    z 0.000000 0.000000 4.269260 
# 
# 
# High freq. dielectric constant tensor:
#      x y z
#    x 1.919570 0.000000 0.000000 
#    y 0.000000 1.952640 0.000000 
#    z 0.000000 0.000000 1.943560 
# 
# From -- ./inp_files/4179.got.cif
#   From: 2010.03.12/outbox.cif.g09.slc.cpg/sg19_3_cif.got.tgz:4179.got - 2010.04.10 18:59:41.
