data_PCOD8157356
_publ_section_title
;
Structure prediction by ZEFSAII (Michael W. Deem and Ramdas Pophale) SiO2 
 PCOD8157356
Probable space group: P 21 21 21
;
_chemical_formula_sum "Si O2"
_cell_formula_units_Z 20
_cell_length_a 8.757259
_cell_length_b 9.718952
_cell_length_c 9.701661
_cell_angle_alpha 90.000000
_cell_angle_beta 90.000000
_cell_angle_gamma 90.000000
_cell_volume 825.721755
_symmetry_space_group_name_H-M "P 21 21 21"
_symmetry_group_IT_number 19
_symmetry_cell_setting 'orthorhombic'
loop_
_space_group_symop_operation_xyz
x,y,z
1/2-x,-y,1/2+z
1/2+x,1/2-y,-z
-x,1/2+y,1/2-z
loop_
_atom_site_type_symbol
_atom_site_label
_atom_site_fract_x
_atom_site_fract_y
_atom_site_fract_z
Si Si1 0.827694 0.959330 0.999646
Si Si2 0.465966 0.965322 0.983276
Si Si3 0.678665 0.266321 0.716172
Si Si4 0.539771 0.245157 0.296636
Si Si5 0.507899 0.262855 0.995262
O O1 0.648001 0.967688 0.982778
O O2 0.889998 0.895906 0.856199
O O3 0.880402 0.864610 0.127826
O O4 0.895776 0.109483 0.024629
O O5 0.399413 0.903730 0.842534
O O6 0.407014 0.121852 0.998198
O O7 0.405285 0.874220 0.111309
O O8 0.631704 0.250087 0.874285
O O9 0.858913 0.273983 0.703855
O O10 0.598211 0.271432 0.141277
#
# Coordination Sequence:
#
# PCOD8157356 Si02
#       5
#     4   4   4   4   4
#     4  10  23  44  66  90 126 168 209 259 317 376
#     4  10  23  44  66  90 126 168 209 259 317 376
#     4  10  23  42  64  93 128 167 211 259 314 376
#     4  10  23  42  64  93 128 167 211 259 314 376
#     4  12  22  36  64  96 126 162 208 258 312 374
#
# _framework density 24.221233000000002
#
# number of rings (size 3 to 8) (size 9 to 14) (size 15 to 20)
#    0.000    1.600    0.000    3.600    0.000    9.600 
#    0.000    8.000    0.000    0.000    0.000    0.000 
#    0.000    0.000    0.000    0.000    0.000    0.000 
#
# Total GULP energy -248053.451463 kJ/mol
# GULP energy per Si atom -12402.672573 kJ/mol
# Density = 2.416610 g / cm^3
# Si number density = 24.221233 Si / 1000 Ang^3
#
#
#
# Elastic Constant Matrix: (Units=GPa)
#
#
# Indices 1 2 3 4 5 6 
#
# 1 33.6843 16.7270 25.9037 0.0000 0.0000 0.0000
# 2 16.7270 166.8122 49.4312 0.0000 0.0000 0.0000
# 3 25.9037 49.4312 169.6287 0.0000 0.0000 0.0000
# 4 0.0000 0.0000 0.0000 32.5859 0.0000 0.0000
# 5 0.0000 0.0000 0.0000 0.0000 26.1220 0.0000
# 6 0.0000 0.0000 0.0000 0.0000 0.0000 17.4908
#
#
#
# Elastic Compliance Matrix: (Units=1/GPa)
#
#
# Indices 1 2 3 4 5 6 
#
# 1 0.034275 -0.002064 -0.004633 0.000000 0.000000 0.000000
# 2 -0.002064 0.006686 -0.001633 0.000000 0.000000 0.000000
# 3 -0.004633 -0.001633 0.007079 0.000000 0.000000 0.000000
# 4 0.000000 0.000000 0.000000 0.030688 0.000000 0.000000
# 5 0.000000 0.000000 0.000000 0.000000 0.038282 0.000000
# 6 0.000000 0.000000 0.000000 0.000000 0.000000 0.057173
#
#
# Mechanical properties :
#
#
# Convention : Reuss Voigt Hill
#
# Bulk Modulus (GPa) = 31.86776 61.58322 46.72549
# Shear Modulus (GPa) = 24.83834 33.77727 29.30780
#
# Velocity S-wave (km/s) = 3.20578 3.73839 3.48229
# Velocity P-wave (km/s) = 5.18539 6.64188 5.95831
#
# Compressibility (1/GPa) = 0.03137968
#
# Stress axis : x y z
#
# Youngs Moduli (GPa) = 29.17581 149.57377 141.27201
#
# Poissons Ratio (x) = 0.30874 0.65445
# Poissons Ratio (y) = 0.06022 0.23070
# Poissons Ratio (z) = 0.13516 0.24426
#
# Static dielectric constant tensor:
#      x y z
#    x 3.919920 0.000000 0.000000 
#    y 0.000000 4.876600 0.000000 
#    z 0.000000 0.000000 4.828330 
# 
# 
# High freq. dielectric constant tensor:
#      x y z
#    x 1.940500 0.000000 0.000000 
#    y 0.000000 1.980510 0.000000 
#    z 0.000000 0.000000 1.977840 
# 
# From -- ./inp_files/2563.got.cif
#   From: 2010.03.12/outbox.cif.g09.slc.cpg/sg19_2_cif.got.tgz:2563.got - 2010.04.10 18:59:41.
