data_PCOD8157647
_publ_section_title
;
Structure prediction by ZEFSAII (Michael W. Deem and Ramdas Pophale) SiO2 
 PCOD8157647
Probable space group: P 21 21 21
;
_chemical_formula_sum "Si O2"
_cell_formula_units_Z 32
_cell_length_a 8.996622
_cell_length_b 8.402934
_cell_length_c 19.115565
_cell_angle_alpha 90.000000
_cell_angle_beta 90.000000
_cell_angle_gamma 90.000000
_cell_volume 1445.098882
_symmetry_space_group_name_H-M "P 21 21 21"
_symmetry_group_IT_number 19
_symmetry_cell_setting 'orthorhombic'
loop_
_space_group_symop_operation_xyz
x,y,z
1/2-x,-y,1/2+z
1/2+x,1/2-y,-z
-x,1/2+y,1/2-z
loop_
_atom_site_type_symbol
_atom_site_label
_atom_site_fract_x
_atom_site_fract_y
_atom_site_fract_z
Si Si1 0.377042 0.726051 0.588870
Si Si2 0.784193 0.432207 0.448654
Si Si3 0.546624 0.052752 0.051407
Si Si4 0.714437 0.750074 0.088041
Si Si5 0.369713 0.044059 0.287435
Si Si6 0.070927 0.729758 0.660752
Si Si7 0.474504 0.247375 0.653774
Si Si8 0.461034 0.077520 0.793101
O O1 0.376898 0.905567 0.560530
O O2 0.418352 0.606551 0.526887
O O3 0.218949 0.674112 0.620848
O O4 0.502590 0.712527 0.649084
O O5 0.609890 0.462466 0.445130
O O6 0.830419 0.357098 0.522124
O O7 0.827372 0.311396 0.386190
O O8 0.545823 0.204022 0.103411
O O9 0.673230 0.932816 0.076268
O O10 0.624919 0.680368 0.153879
O O11 0.890877 0.745142 0.099053
O O12 0.387797 0.126016 0.212552
O O13 0.214507 0.951024 0.291046
O O14 0.502173 0.918873 0.298333
O O15 0.444689 0.421528 0.685687
O O16 0.518459 0.131230 0.717406
#
# Coordination Sequence:
#
# PCOD8157647 Si02
#       8
#     4   4   4   4   4   4   4   4
#     4  11  24  43  66  94 131 173 220 271 328 391
#     4  11  23  42  63  93 130 170 216 271 328 387
#     4  11  24  42  63  94 130 170 217 269 324 391
#     4  11  23  41  63  93 128 170 218 268 326 390
#     4  11  24  44  66  96 134 171 217 275 328 394
#     4  11  25  44  67  97 132 174 217 269 332 391
#     4  11  24  41  67  95 130 172 216 270 325 387
#     4  11  23  43  65  96 129 168 219 271 323 387
#
# _framework density 22.143813999999999
#
# number of rings (size 3 to 8) (size 9 to 14) (size 15 to 20)
#    0.000    1.000    0.000    8.250    0.000    9.000 
#    0.000    0.000    0.000    0.000    0.000    0.000 
#    0.000    0.000    0.000    0.000    0.000    0.000 
#
# Total GULP energy -397008.284344 kJ/mol
# GULP energy per Si atom -12406.508886 kJ/mol
# Density = 2.209341 g / cm^3
# Si number density = 22.143814 Si / 1000 Ang^3
#
#
#
# Elastic Constant Matrix: (Units=GPa)
#
#
# Indices 1 2 3 4 5 6 
#
# 1 73.3530 49.0554 46.8271 0.0000 0.0000 0.0000
# 2 49.0554 74.9444 53.4231 0.0000 0.0000 0.0000
# 3 46.8271 53.4231 144.6256 0.0000 0.0000 0.0000
# 4 0.0000 0.0000 0.0000 52.4413 0.0000 0.0000
# 5 0.0000 0.0000 0.0000 0.0000 40.0192 0.0000
# 6 0.0000 0.0000 0.0000 0.0000 0.0000 41.6908
#
#
#
# Elastic Compliance Matrix: (Units=1/GPa)
#
#
# Indices 1 2 3 4 5 6 
#
# 1 0.025048 -0.014408 -0.002788 0.000000 0.000000 0.000000
# 2 -0.014408 0.026400 -0.005087 0.000000 0.000000 0.000000
# 3 -0.002788 -0.005087 0.009696 0.000000 0.000000 0.000000
# 4 0.000000 0.000000 0.000000 0.019069 0.000000 0.000000
# 5 0.000000 0.000000 0.000000 0.000000 0.024988 0.000000
# 6 0.000000 0.000000 0.000000 0.000000 0.000000 0.023986
#
#
# Mechanical properties :
#
#
# Convention : Reuss Voigt Hill
#
# Bulk Modulus (GPa) = 60.31848 65.72602 63.02225
# Shear Modulus (GPa) = 27.88948 36.40476 32.14712
#
# Velocity S-wave (km/s) = 3.55275 4.05904 3.81431
# Velocity P-wave (km/s) = 6.64289 7.19122 6.92249
#
# Compressibility (1/GPa) = 0.01657867
#
# Stress axis : x y z
#
# Youngs Moduli (GPa) = 39.92350 37.87848 103.13392
#
# Poissons Ratio (x) = 0.54575 0.28753
# Poissons Ratio (y) = 0.57522 0.52463
# Poissons Ratio (z) = 0.11130 0.19268
#
# Static dielectric constant tensor:
#      x y z
#    x 3.766930 0.000000 0.000000 
#    y 0.000000 4.094740 0.000000 
#    z 0.000000 0.000000 4.237590 
# 
# 
# High freq. dielectric constant tensor:
#      x y z
#    x 1.859740 0.000000 0.000000 
#    y 0.000000 1.877600 0.000000 
#    z 0.000000 0.000000 1.893780 
# 
# From -- ./inp_files/7028.got.cif
#   From: 2010.03.12/outbox.cif.g09.slc.cpg/sg19_4_cif.got.tgz:7028.got - 2010.04.10 18:59:41.
