data_PCOD8157168
_publ_section_title
;
Structure prediction by ZEFSAII (Michael W. Deem and Ramdas Pophale) SiO2 
 PCOD8157168
Probable space group: P 21 21 21
;
_chemical_formula_sum "Si O2"
_cell_formula_units_Z 24
_cell_length_a 8.053488
_cell_length_b 14.793677
_cell_length_c 9.357532
_cell_angle_alpha 90.000000
_cell_angle_beta 90.000000
_cell_angle_gamma 90.000000
_cell_volume 1114.862915
_symmetry_space_group_name_H-M "P 21 21 21"
_symmetry_group_IT_number 19
_symmetry_cell_setting 'orthorhombic'
loop_
_space_group_symop_operation_xyz
x,y,z
1/2-x,-y,1/2+z
1/2+x,1/2-y,-z
-x,1/2+y,1/2-z
loop_
_atom_site_type_symbol
_atom_site_label
_atom_site_fract_x
_atom_site_fract_y
_atom_site_fract_z
Si Si1 0.670797 0.288406 0.167648
Si Si2 0.236062 0.224864 0.297808
Si Si3 0.871403 0.205778 0.419129
Si Si4 0.421608 0.143066 0.059479
Si Si5 0.645441 0.900459 0.322339
Si Si6 0.664902 0.990482 0.034137
O O1 0.733071 0.250040 0.318542
O O2 0.576312 0.209366 0.084834
O O3 0.548198 0.373926 0.191551
O O4 0.826650 0.322150 0.078938
O O5 0.362900 0.241560 0.429648
O O6 0.302918 0.141148 0.201493
O O7 0.241557 0.311132 0.192205
O O8 0.051623 0.212938 0.351399
O O9 0.837800 0.100269 0.441402
O O10 0.488821 0.042898 0.025123
O O11 0.685572 0.946985 0.474083
O O12 0.700762 0.970225 0.199259
#
# Coordination Sequence:
#
# PCOD8157168 Si02
#       6
#     4   4   4   4   4   4
#     4  11  22  41  64  88 124 169 213 250 305 386
#     4  10  22  40  63  87 119 166 209 247 306 382
#     4  11  22  41  65  90 124 164 208 258 312 375
#     4  11  22  38  61  90 120 158 210 257 305 367
#     4  10  23  41  61  90 124 162 205 253 313 374
#     4  11  23  39  60  91 125 155 201 265 319 360
#
# _framework density 21.527311000000001
#
# number of rings (size 3 to 8) (size 9 to 14) (size 15 to 20)
#    0.000    1.333    0.000    8.000    0.000    4.000 
#    0.000    5.000    0.000    0.000    0.000    0.000 
#    0.000    0.000    0.000    0.000    0.000    0.000 
#
# Total GULP energy -297596.592594 kJ/mol
# GULP energy per Si atom -12399.858025 kJ/mol
# Density = 2.147831 g / cm^3
# Si number density = 21.527311 Si / 1000 Ang^3
#
#
#
# Elastic Constant Matrix: (Units=GPa)
#
#
# Indices 1 2 3 4 5 6 
#
# 1 86.7084 34.0241 31.4212 0.0000 0.0000 0.0000
# 2 34.0241 73.7605 51.5995 0.0000 0.0000 0.0000
# 3 31.4212 51.5995 108.2588 0.0000 0.0000 0.0000
# 4 0.0000 0.0000 0.0000 33.7988 0.0000 0.0000
# 5 0.0000 0.0000 0.0000 0.0000 49.2379 0.0000
# 6 0.0000 0.0000 0.0000 0.0000 0.0000 31.1915
#
#
#
# Elastic Compliance Matrix: (Units=1/GPa)
#
#
# Indices 1 2 3 4 5 6 
#
# 1 0.014243 -0.005518 -0.001504 0.000000 0.000000 0.000000
# 2 -0.005518 0.022477 -0.009112 0.000000 0.000000 0.000000
# 3 -0.001504 -0.009112 0.014016 0.000000 0.000000 0.000000
# 4 0.000000 0.000000 0.000000 0.029587 0.000000 0.000000
# 5 0.000000 0.000000 0.000000 0.000000 0.020310 0.000000
# 6 0.000000 0.000000 0.000000 0.000000 0.000000 0.032060
#
#
# Mechanical properties :
#
#
# Convention : Reuss Voigt Hill
#
# Bulk Modulus (GPa) = 54.14345 55.86857 55.00601
# Shear Modulus (GPa) = 29.21992 32.95784 31.08888
#
# Velocity S-wave (km/s) = 3.68821 3.91702 3.80433
# Velocity P-wave (km/s) = 6.58353 6.81661 6.70108
#
# Compressibility (1/GPa) = 0.01846945
#
# Stress axis : x y z
#
# Youngs Moduli (GPa) = 70.20928 44.49043 71.34460
#
# Poissons Ratio (x) = 0.24550 0.10730
# Poissons Ratio (y) = 0.38741 0.65006
# Poissons Ratio (z) = 0.10559 0.40538
#
# Static dielectric constant tensor:
#      x y z
#    x 3.886250 0.000000 0.000000 
#    y 0.000000 3.898930 0.000000 
#    z 0.000000 0.000000 4.125910 
# 
# 
# High freq. dielectric constant tensor:
#      x y z
#    x 1.842860 0.000000 0.000000 
#    y 0.000000 1.833720 0.000000 
#    z 0.000000 0.000000 1.862820 
# 
# From -- ./inp_files/2845.got.cif
#   From: 2010.03.12/outbox.cif.g09.slc.cpg/sg19_2_cif.got.tgz:2845.got - 2010.04.10 18:59:41.
