data_PCOD8157816
_publ_section_title
;
Structure prediction by ZEFSAII (Michael W. Deem and Ramdas Pophale) SiO2 
 PCOD8157816
Probable space group: P 21 21 21
;
_chemical_formula_sum "Si O2"
_cell_formula_units_Z 20
_cell_length_a 8.790180
_cell_length_b 19.078484
_cell_length_c 5.014748
_cell_angle_alpha 90.000000
_cell_angle_beta 90.000000
_cell_angle_gamma 90.000000
_cell_volume 840.989831
_symmetry_space_group_name_H-M "P 21 21 21"
_symmetry_group_IT_number 19
_symmetry_cell_setting 'orthorhombic'
loop_
_space_group_symop_operation_xyz
x,y,z
1/2-x,-y,1/2+z
1/2+x,1/2-y,-z
-x,1/2+y,1/2-z
loop_
_atom_site_type_symbol
_atom_site_label
_atom_site_fract_x
_atom_site_fract_y
_atom_site_fract_z
Si Si1 0.420026 0.435500 0.676895
Si Si2 0.849953 0.499949 0.500164
Si Si3 0.420071 0.564647 0.323214
Si Si4 0.918657 0.222406 0.351356
Si Si5 0.582184 0.222545 0.148573
O O1 0.483096 0.500102 0.500232
O O2 0.249865 0.456355 0.749530
O O3 0.422570 0.358408 0.548218
O O4 0.537384 0.434889 0.926583
O O5 0.750006 0.474898 0.250090
O O6 0.962223 0.434669 0.574031
O O7 0.422046 0.641736 0.451923
O O8 0.750474 0.243639 0.249884
O O9 0.963661 0.267542 0.609007
O O10 0.037280 0.232271 0.109028
#
# Coordination Sequence:
#
# PCOD8157816 Si02
#       5
#     4   4   4   4   4
#     4  11  25  46  77 103 143 190 243 286 351 430
#     4  12  26  42  66 110 144 176 226 302 360 398
#     4  11  25  46  77 103 143 190 243 286 351 430
#     4  11  27  48  73 104 144 192 235 289 354 424
#     4  11  27  48  73 104 144 192 235 289 354 424
#
# _framework density 23.781500999999999
#
# number of rings (size 3 to 8) (size 9 to 14) (size 15 to 20)
#    0.000    0.800    4.000    1.200    5.600    4.800 
#    0.000    0.000    0.000    0.000    0.000    0.000 
#    0.000    0.000    0.000    0.000    0.000    0.000 
#
# Total GULP energy -247869.121259 kJ/mol
# GULP energy per Si atom -12393.456063 kJ/mol
# Density = 2.372737 g / cm^3
# Si number density = 23.781501 Si / 1000 Ang^3
#
#
#
# Elastic Constant Matrix: (Units=GPa)
#
#
# Indices 1 2 3 4 5 6 
#
# 1 148.6077 35.1900 45.6919 0.0000 0.0000 0.0000
# 2 35.1900 109.6138 41.0960 0.0000 0.0000 0.0000
# 3 45.6919 41.0960 119.6042 0.0000 0.0000 0.0000
# 4 0.0000 0.0000 0.0000 37.2779 0.0000 0.0000
# 5 0.0000 0.0000 0.0000 0.0000 42.4933 0.0000
# 6 0.0000 0.0000 0.0000 0.0000 0.0000 14.6199
#
#
#
# Elastic Compliance Matrix: (Units=1/GPa)
#
#
# Indices 1 2 3 4 5 6 
#
# 1 0.007863 -0.001605 -0.002453 0.000000 0.000000 0.000000
# 2 -0.001605 0.010800 -0.003098 0.000000 0.000000 0.000000
# 3 -0.002453 -0.003098 0.010362 0.000000 0.000000 0.000000
# 4 0.000000 0.000000 0.000000 0.026826 0.000000 0.000000
# 5 0.000000 0.000000 0.000000 0.000000 0.023533 0.000000
# 6 0.000000 0.000000 0.000000 0.000000 0.000000 0.068400
#
#
# Mechanical properties :
#
#
# Convention : Reuss Voigt Hill
#
# Bulk Modulus (GPa) = 67.95839 69.08685 68.52262
# Shear Modulus (GPa) = 29.94040 35.93473 32.93757
#
# Velocity S-wave (km/s) = 3.55206 3.89142 3.72561
# Velocity P-wave (km/s) = 6.74248 7.02173 6.88352
#
# Compressibility (1/GPa) = 0.01471489
#
# Stress axis : x y z
#
# Youngs Moduli (GPa) = 127.17420 92.59681 96.50488
#
# Poissons Ratio (x) = 0.14861 0.23668
# Poissons Ratio (y) = 0.20410 0.29893
# Poissons Ratio (z) = 0.31190 0.28683
#
# Static dielectric constant tensor:
#      x y z
#    x 4.672220 0.000000 0.000000 
#    y 0.000000 4.023420 0.000000 
#    z 0.000000 0.000000 4.303850 
# 
# 
# High freq. dielectric constant tensor:
#      x y z
#    x 1.974400 0.000000 0.000000 
#    y 0.000000 1.922270 0.000000 
#    z 0.000000 0.000000 1.936430 
# 
# From -- ./inp_files/401.got.cif
#   From: 2010.03.12/outbox.cif.g09.slc.cpg/sg19_1_cif.got.tgz:401.got - 2010.04.10 18:59:41.
