data_PCOD8157395
_publ_section_title
;
Structure prediction by ZEFSAII (Michael W. Deem and Ramdas Pophale) SiO2 
 PCOD8157395
Probable space group: P 21 21 21
;
_chemical_formula_sum "Si O2"
_cell_formula_units_Z 32
_cell_length_a 18.636002
_cell_length_b 14.895401
_cell_length_c 5.240244
_cell_angle_alpha 90.000000
_cell_angle_beta 90.000000
_cell_angle_gamma 90.000000
_cell_volume 1454.643120
_symmetry_space_group_name_H-M "P 21 21 21"
_symmetry_group_IT_number 19
_symmetry_cell_setting 'orthorhombic'
loop_
_space_group_symop_operation_xyz
x,y,z
1/2-x,-y,1/2+z
1/2+x,1/2-y,-z
-x,1/2+y,1/2-z
loop_
_atom_site_type_symbol
_atom_site_label
_atom_site_fract_x
_atom_site_fract_y
_atom_site_fract_z
Si Si1 0.144056 0.302537 0.104709
Si Si2 0.000610 0.239541 0.977224
Si Si3 0.318023 0.798004 0.082278
Si Si4 0.083822 0.899495 0.633356
Si Si5 0.544662 0.400897 0.393707
Si Si6 0.160689 0.845071 0.108187
Si Si7 0.296294 0.504264 0.629401
Si Si8 0.399650 0.339672 0.660575
O O1 0.059895 0.282336 0.170957
O O2 0.193494 0.264340 0.332550
O O3 0.155099 0.408753 0.091226
O O4 0.162734 0.262957 0.826266
O O5 0.923968 0.203944 0.074066
O O6 0.041177 0.152692 0.870224
O O7 0.975810 0.322962 0.797447
O O8 0.378516 0.870062 0.993939
O O9 0.245864 0.852052 0.148702
O O10 0.120776 0.881947 0.359500
O O11 0.040979 0.992818 0.629806
O O12 0.140390 0.905988 0.864516
O O13 0.474867 0.367502 0.540256
O O14 0.141536 0.742395 0.024259
O O15 0.258354 0.481774 0.361992
O O16 0.347281 0.422036 0.704533
#
# Coordination Sequence:
#
# PCOD8157395 Si02
#       8
#     4   4   4   4   4   4   4   4
#     4  11  22  43  66  98 136 178 231 281 344 406
#     4  10  23  44  66 100 134 180 229 285 345 400
#     4  11  24  43  71  94 138 180 224 280 341 407
#     4  11  25  41  67  96 133 173 226 277 341 401
#     4  11  24  43  69  99 134 179 232 282 338 404
#     4  11  24  43  65  96 134 176 219 276 342 406
#     4  12  27  43  68 106 141 183 234 288 352 421
#     4  11  23  44  68  95 138 179 229 281 343 409
#
# _framework density 21.998519999999999
#
# number of rings (size 3 to 8) (size 9 to 14) (size 15 to 20)
#    0.000    1.000    2.500    3.750    3.500    2.000 
#    4.500    0.000    0.000    0.000    0.000    0.000 
#    0.000    0.000    0.000    0.000    0.000    0.000 
#
# Total GULP energy -396525.520762 kJ/mol
# GULP energy per Si atom -12391.422524 kJ/mol
# Density = 2.194845 g / cm^3
# Si number density = 21.998520 Si / 1000 Ang^3
#
#
#
# Elastic Constant Matrix: (Units=GPa)
#
#
# Indices 1 2 3 4 5 6 
#
# 1 111.9100 40.6610 15.6542 0.0000 0.0000 0.0000
# 2 40.6610 120.9448 30.3541 0.0000 0.0000 0.0000
# 3 15.6542 30.3541 103.3597 0.0000 0.0000 0.0000
# 4 0.0000 0.0000 0.0000 25.0327 0.0000 0.0000
# 5 0.0000 0.0000 0.0000 0.0000 28.4793 0.0000
# 6 0.0000 0.0000 0.0000 0.0000 0.0000 36.9771
#
#
#
# Elastic Compliance Matrix: (Units=1/GPa)
#
#
# Indices 1 2 3 4 5 6 
#
# 1 0.010211 -0.003287 -0.000581 0.000000 0.000000 0.000000
# 2 -0.003287 0.009984 -0.002434 0.000000 0.000000 0.000000
# 3 -0.000581 -0.002434 0.010478 0.000000 0.000000 0.000000
# 4 0.000000 0.000000 0.000000 0.039948 0.000000 0.000000
# 5 0.000000 0.000000 0.000000 0.000000 0.035113 0.000000
# 6 0.000000 0.000000 0.000000 0.000000 0.000000 0.027044
#
#
# Mechanical properties :
#
#
# Convention : Reuss Voigt Hill
#
# Bulk Modulus (GPa) = 55.34560 56.61704 55.98132
# Shear Modulus (GPa) = 33.02372 34.73417 33.87895
#
# Velocity S-wave (km/s) = 3.87871 3.97789 3.92861
# Velocity P-wave (km/s) = 6.72849 6.84768 6.78835
#
# Compressibility (1/GPa) = 0.01806828
#
# Stress axis : x y z
#
# Youngs Moduli (GPa) = 97.92982 100.15724 95.43928
#
# Poissons Ratio (x) = 0.32923 0.05547
# Poissons Ratio (y) = 0.32191 0.23233
# Poissons Ratio (z) = 0.05692 0.24381
#
# Static dielectric constant tensor:
#      x y z
#    x 4.274340 0.000000 0.000000 
#    y 0.000000 4.001520 0.000000 
#    z 0.000000 0.000000 3.888720 
# 
# 
# High freq. dielectric constant tensor:
#      x y z
#    x 1.876380 0.000000 0.000000 
#    y 0.000000 1.871090 0.000000 
#    z 0.000000 0.000000 1.855230 
# 
# From -- ./inp_files/1811.got.cif
#   From: 2010.03.12/outbox.cif.g09.slc.cpg/sg19_1_cif.got.tgz:1811.got - 2010.04.10 18:59:41.
