data_PCOD8157109
_publ_section_title
;
Structure prediction by ZEFSAII (Michael W. Deem and Ramdas Pophale) SiO2 
 PCOD8157109
Probable space group: P 21 21 21
;
_chemical_formula_sum "Si O2"
_cell_formula_units_Z 32
_cell_length_a 8.180844
_cell_length_b 19.965270
_cell_length_c 9.171479
_cell_angle_alpha 90.000000
_cell_angle_beta 90.000000
_cell_angle_gamma 90.000000
_cell_volume 1498.002972
_symmetry_space_group_name_H-M "P 21 21 21"
_symmetry_group_IT_number 19
_symmetry_cell_setting 'orthorhombic'
loop_
_space_group_symop_operation_xyz
x,y,z
1/2-x,-y,1/2+z
1/2+x,1/2-y,-z
-x,1/2+y,1/2-z
loop_
_atom_site_type_symbol
_atom_site_label
_atom_site_fract_x
_atom_site_fract_y
_atom_site_fract_z
Si Si1 0.393173 0.025213 0.883248
Si Si2 0.578631 0.486726 0.282609
Si Si3 0.729471 0.151586 0.546419
Si Si4 0.244522 0.512195 0.108932
Si Si5 0.495015 0.840873 0.273456
Si Si6 0.773254 0.128115 0.008680
Si Si7 0.501978 0.662343 0.707585
Si Si8 0.245115 0.726069 0.242491
O O1 0.232931 0.987841 0.816597
O O2 0.565710 0.998034 0.812226
O O3 0.373720 0.104091 0.844139
O O4 0.398878 0.017476 0.057726
O O5 0.401822 0.509227 0.215960
O O6 0.592821 0.406380 0.292873
O O7 0.555988 0.145898 0.627391
O O8 0.733837 0.209511 0.426399
O O9 0.856194 0.175226 0.667197
O O10 0.770014 0.079798 0.480277
O O11 0.251342 0.451900 0.990675
O O12 0.550774 0.856034 0.438848
O O13 0.389778 0.774738 0.286592
O O14 0.642288 0.166228 0.908902
O O15 0.754292 0.155270 0.172361
O O16 0.580008 0.735725 0.715784
#
# Coordination Sequence:
#
# PCOD8157109 Si02
#       8
#     4   4   4   4   4   4   4   4
#     4  11  24  43  70 100 141 181 230 281 353 403
#     4  11  24  43  68 102 136 187 223 289 347 412
#     4  11  24  41  67  92 133 182 223 281 346 410
#     4  10  24  43  70  99 138 176 235 283 346 405
#     4  10  21  44  59  90 139 170 218 283 342 402
#     4   9  22  39  66  93 130 175 218 280 346 405
#     4  10  23  42  60  93 136 174 217 284 340 401
#     4  12  22  39  68  95 127 175 230 273 346 420
#
# _framework density 21.361774
#
# number of rings (size 3 to 8) (size 9 to 14) (size 15 to 20)
#    0.000    1.500    2.500    2.250    5.250    0.000 
#    2.250    0.000    0.000    0.000    0.000    0.000 
#    0.000    0.000    0.000    0.000    0.000    0.000 
#
# Total GULP energy -396599.176900 kJ/mol
# GULP energy per Si atom -12393.724278 kJ/mol
# Density = 2.131315 g / cm^3
# Si number density = 21.361774 Si / 1000 Ang^3
#
#
#
# Elastic Constant Matrix: (Units=GPa)
#
#
# Indices 1 2 3 4 5 6 
#
# 1 107.0022 10.1397 31.3934 0.0000 0.0000 0.0000
# 2 10.1397 61.3691 5.5408 0.0000 0.0000 0.0000
# 3 31.3934 5.5408 98.0154 0.0000 0.0000 0.0000
# 4 0.0000 0.0000 0.0000 30.4394 0.0000 0.0000
# 5 0.0000 0.0000 0.0000 0.0000 24.9124 0.0000
# 6 0.0000 0.0000 0.0000 0.0000 0.0000 18.2667
#
#
#
# Elastic Compliance Matrix: (Units=1/GPa)
#
#
# Indices 1 2 3 4 5 6 
#
# 1 0.010438 -0.001430 -0.003262 0.000000 0.000000 0.000000
# 2 -0.001430 0.016574 -0.000479 0.000000 0.000000 0.000000
# 3 -0.003262 -0.000479 0.011274 0.000000 0.000000 0.000000
# 4 0.000000 0.000000 0.000000 0.032852 0.000000 0.000000
# 5 0.000000 0.000000 0.000000 0.000000 0.040141 0.000000
# 6 0.000000 0.000000 0.000000 0.000000 0.000000 0.054744
#
#
# Mechanical properties :
#
#
# Convention : Reuss Voigt Hill
#
# Bulk Modulus (GPa) = 35.78554 40.05938 37.92246
# Shear Modulus (GPa) = 26.92774 29.34454 28.13614
#
# Velocity S-wave (km/s) = 3.55428 3.71036 3.63316
# Velocity P-wave (km/s) = 5.79935 6.09502 5.94902
#
# Compressibility (1/GPa) = 0.02794425
#
# Stress axis : x y z
#
# Youngs Moduli (GPa) = 95.80109 60.33410 88.69591
#
# Poissons Ratio (x) = 0.08628 0.28937
# Poissons Ratio (y) = 0.13701 0.04248
# Poissons Ratio (z) = 0.31255 0.02889
#
# Static dielectric constant tensor:
#      x y z
#    x 4.184090 0.000000 0.000000 
#    y 0.000000 3.699240 0.000000 
#    z 0.000000 0.000000 3.836150 
# 
# 
# High freq. dielectric constant tensor:
#      x y z
#    x 1.845390 0.000000 0.000000 
#    y 0.000000 1.829890 0.000000 
#    z 0.000000 0.000000 1.834390 
# 
# From -- ./inp_files/3115.got.cif
#   From: 2010.03.12/outbox.cif.g09.slc.cpg/sg19_2_cif.got.tgz:3115.got - 2010.04.10 18:59:41.
