data_PCOD8157228
_publ_section_title
;
Structure prediction by ZEFSAII (Michael W. Deem and Ramdas Pophale) SiO2 
 PCOD8157228
Probable space group: P 21 21 21
;
_chemical_formula_sum "Si O2"
_cell_formula_units_Z 32
_cell_length_a 18.644459
_cell_length_b 13.356322
_cell_length_c 5.432138
_cell_angle_alpha 90.000000
_cell_angle_beta 90.000000
_cell_angle_gamma 90.000000
_cell_volume 1352.718598
_symmetry_space_group_name_H-M "P 21 21 21"
_symmetry_group_IT_number 19
_symmetry_cell_setting 'orthorhombic'
loop_
_space_group_symop_operation_xyz
x,y,z
1/2-x,-y,1/2+z
1/2+x,1/2-y,-z
-x,1/2+y,1/2-z
loop_
_atom_site_type_symbol
_atom_site_label
_atom_site_fract_x
_atom_site_fract_y
_atom_site_fract_z
Si Si1 0.459230 0.024049 0.845308
Si Si2 0.945157 0.651266 0.473101
Si Si3 0.561292 0.903159 0.146434
Si Si4 0.497281 0.213129 0.588052
Si Si5 0.143727 0.276014 0.699014
Si Si6 0.704897 0.012736 0.206719
Si Si7 0.256069 0.131506 0.552400
Si Si8 0.678885 0.580214 0.443258
O O1 0.465812 0.103059 0.623236
O O2 0.407354 0.066530 0.057306
O O3 0.418977 0.925876 0.735915
O O4 0.536076 0.987954 0.949938
O O5 0.872597 0.688143 0.603262
O O6 0.003609 0.592432 0.635403
O O7 0.983679 0.748399 0.360585
O O8 0.641701 0.929918 0.228581
O O9 0.559098 0.790611 0.034263
O O10 0.569277 0.201389 0.432628
O O11 0.172140 0.376915 0.823455
O O12 0.203347 0.227058 0.523256
O O13 0.749269 0.007950 0.461074
O O14 0.300356 0.142179 0.808751
O O15 0.215625 0.026993 0.555506
O O16 0.304986 0.139679 0.308070
#
# Coordination Sequence:
#
# PCOD8157228 Si02
#       8
#     4   4   4   4   4   4   4   4
#     4  11  23  41  75 106 146 187 248 315 387 443
#     4  10  22  41  78 105 144 192 253 316 371 458
#     4  10  24  47  72 108 146 190 261 316 379 447
#     4  10  23  42  76 109 142 194 248 329 375 450
#     4  11  25  46  74 106 140 204 253 296 382 447
#     4  12  31  52  80 108 152 210 257 313 375 460
#     4  10  23  41  65  97 147 190 230 285 352 457
#     4  10  23  40  64 103 145 185 228 290 367 428
#
# _framework density 23.656063
#
# number of rings (size 3 to 8) (size 9 to 14) (size 15 to 20)
#    0.000    1.500    0.000    3.750   15.750    2.000 
#    2.250    0.000    0.000    0.000    0.000    0.000 
#    0.000    0.000    0.000    0.000    0.000    0.000 
#
# Total GULP energy -396753.166915 kJ/mol
# GULP energy per Si atom -12398.536466 kJ/mol
# Density = 2.360222 g / cm^3
# Si number density = 23.656063 Si / 1000 Ang^3
#
#
#
# Elastic Constant Matrix: (Units=GPa)
#
#
# Indices 1 2 3 4 5 6 
#
# 1 98.5011 49.3106 33.3886 0.0000 0.0000 0.0000
# 2 49.3106 80.0478 31.5932 0.0000 0.0000 0.0000
# 3 33.3886 31.5932 115.9126 0.0000 0.0000 0.0000
# 4 0.0000 0.0000 0.0000 29.7525 0.0000 0.0000
# 5 0.0000 0.0000 0.0000 0.0000 23.8672 0.0000
# 6 0.0000 0.0000 0.0000 0.0000 0.0000 22.9849
#
#
#
# Elastic Compliance Matrix: (Units=1/GPa)
#
#
# Indices 1 2 3 4 5 6 
#
# 1 0.015094 -0.008496 -0.002032 0.000000 0.000000 0.000000
# 2 -0.008496 0.018781 -0.002672 0.000000 0.000000 0.000000
# 3 -0.002032 -0.002672 0.009941 0.000000 0.000000 0.000000
# 4 0.000000 0.000000 0.000000 0.033611 0.000000 0.000000
# 5 0.000000 0.000000 0.000000 0.000000 0.041899 0.000000
# 6 0.000000 0.000000 0.000000 0.000000 0.000000 0.043507
#
#
# Mechanical properties :
#
#
# Convention : Reuss Voigt Hill
#
# Bulk Modulus (GPa) = 57.41902 58.11627 57.76764
# Shear Modulus (GPa) = 25.63614 27.33218 26.48416
#
# Velocity S-wave (km/s) = 3.29554 3.40280 3.34960
# Velocity P-wave (km/s) = 6.22944 6.32924 6.27954
#
# Compressibility (1/GPa) = 0.01741583
#
# Stress axis : x y z
#
# Youngs Moduli (GPa) = 66.25004 53.24594 100.59644
#
# Poissons Ratio (x) = 0.45239 0.20443
# Poissons Ratio (y) = 0.56288 0.26875
# Poissons Ratio (z) = 0.13463 0.14225
#
# Static dielectric constant tensor:
#      x y z
#    x 4.094930 0.000000 0.000000 
#    y 0.000000 4.185980 0.000000 
#    z 0.000000 0.000000 4.427580 
# 
# 
# High freq. dielectric constant tensor:
#      x y z
#    x 1.927610 0.000000 0.000000 
#    y 0.000000 1.937240 0.000000 
#    z 0.000000 0.000000 1.942230 
# 
# From -- ./inp_files/1788.got.cif
#   From: 2010.03.12/outbox.cif.g09.slc.cpg/sg19_1_cif.got.tgz:1788.got - 2010.04.10 18:59:41.
