data_PCOD8157229
_publ_section_title
;
Structure prediction by ZEFSAII (Michael W. Deem and Ramdas Pophale) SiO2 
 PCOD8157229
Probable space group: P 21 21 21
;
_chemical_formula_sum "Si O2"
_cell_formula_units_Z 28
_cell_length_a 8.883696
_cell_length_b 18.290497
_cell_length_c 8.892920
_cell_angle_alpha 90.000000
_cell_angle_beta 90.000000
_cell_angle_gamma 90.000000
_cell_volume 1444.985804
_symmetry_space_group_name_H-M "P 21 21 21"
_symmetry_group_IT_number 19
_symmetry_cell_setting 'orthorhombic'
loop_
_space_group_symop_operation_xyz
x,y,z
1/2-x,-y,1/2+z
1/2+x,1/2-y,-z
-x,1/2+y,1/2-z
loop_
_atom_site_type_symbol
_atom_site_label
_atom_site_fract_x
_atom_site_fract_y
_atom_site_fract_z
Si Si1 0.668099 0.918231 0.474247
Si Si2 0.922194 0.646443 0.348746
Si Si3 0.612221 0.979014 0.152146
Si Si4 0.918440 0.162290 0.461059
Si Si5 0.895181 0.784240 0.869630
Si Si6 0.122756 0.288955 0.962924
Si Si7 0.914057 0.387798 0.804450
O O1 0.496062 0.909050 0.530689
O O2 0.675307 0.946856 0.306182
O O3 0.738493 0.837200 0.478653
O O4 0.754323 0.972721 0.584420
O O5 0.901268 0.726517 0.416607
O O6 0.764914 0.613087 0.294670
O O7 0.035393 0.652744 0.210519
O O8 0.465489 0.028411 0.181696
O O9 0.563656 0.915125 0.041241
O O10 0.745782 0.188810 0.468261
O O11 0.025365 0.219479 0.542785
O O12 0.841276 0.756382 0.704006
O O13 0.011595 0.852196 0.846430
O O14 0.973240 0.340609 0.948873
#
# Coordination Sequence:
#
# PCOD8157229 Si02
#       7
#     4   4   4   4   4   4   4
#     4  11  22  41  67  88 127 174 214 265 327 399
#     4  12  21  38  66  96 123 172 210 271 331 383
#     4  11  24  44  62  94 128 178 212 271 324 400
#     4  12  24  39  68  94 135 166 224 266 339 379
#     4  10  22  42  59  98 124 168 212 277 309 394
#     4   9  21  40  61  92 122 167 217 266 319 386
#     4   9  22  40  63  88 133 159 223 264 313 393
#
# _framework density 19.377351000000001
#
# number of rings (size 3 to 8) (size 9 to 14) (size 15 to 20)
#    0.857    0.571    1.429    4.286    4.000    1.143 
#    0.000    1.429    0.000    0.000    0.000    0.000 
#    0.000    0.000    0.000    0.000    0.000    0.000 
#
# Total GULP energy -347202.525653 kJ/mol
# GULP energy per Si atom -12400.090202 kJ/mol
# Density = 1.933325 g / cm^3
# Si number density = 19.377351 Si / 1000 Ang^3
#
#
#
# Elastic Constant Matrix: (Units=GPa)
#
#
# Indices 1 2 3 4 5 6 
#
# 1 98.9401 35.1365 14.7274 0.0000 0.0000 0.0000
# 2 35.1365 107.8947 42.9541 0.0000 0.0000 0.0000
# 3 14.7274 42.9541 97.0116 0.0000 0.0000 0.0000
# 4 0.0000 0.0000 0.0000 38.6375 0.0000 0.0000
# 5 0.0000 0.0000 0.0000 0.0000 3.6393 0.0000
# 6 0.0000 0.0000 0.0000 0.0000 0.0000 19.1972
#
#
#
# Elastic Compliance Matrix: (Units=1/GPa)
#
#
# Indices 1 2 3 4 5 6 
#
# 1 0.011430 -0.003680 -0.000106 0.000000 0.000000 0.000000
# 2 -0.003680 0.012437 -0.004948 0.000000 0.000000 0.000000
# 3 -0.000106 -0.004948 0.012515 0.000000 0.000000 0.000000
# 4 0.000000 0.000000 0.000000 0.025882 0.000000 0.000000
# 5 0.000000 0.000000 0.000000 0.000000 0.274782 0.000000
# 6 0.000000 0.000000 0.000000 0.000000 0.000000 0.052091
#
#
# Mechanical properties :
#
#
# Convention : Reuss Voigt Hill
#
# Bulk Modulus (GPa) = 52.87142 54.38695 53.62919
# Shear Modulus (GPa) = 12.10926 26.36337 19.23631
#
# Velocity S-wave (km/s) = 2.50255 3.69253 3.15417
# Velocity P-wave (km/s) = 5.97451 6.80499 6.40323
#
# Compressibility (1/GPa) = 0.01891381
#
# Stress axis : x y z
#
# Youngs Moduli (GPa) = 87.49088 80.40817 79.90487
#
# Poissons Ratio (x) = 0.29591 0.00845
# Poissons Ratio (y) = 0.32197 0.39536
# Poissons Ratio (z) = 0.00925 0.39785
#
# Static dielectric constant tensor:
#      x y z
#    x 3.534740 0.000000 0.000000 
#    y 0.000000 3.522760 0.000000 
#    z 0.000000 0.000000 3.485060 
# 
# 
# High freq. dielectric constant tensor:
#      x y z
#    x 1.755100 0.000000 0.000000 
#    y 0.000000 1.754100 0.000000 
#    z 0.000000 0.000000 1.750380 
# 
# From -- ./inp_files/2984.got.cif
#   From: 2010.03.12/outbox.cif.g09.slc.cpg/sg19_2_cif.got.tgz:2984.got - 2010.04.10 18:59:41.
