data_PCOD8157040
_publ_section_title
;
Structure prediction by ZEFSAII (Michael W. Deem and Ramdas Pophale) SiO2 
 PCOD8157040
Probable space group: P 21 21 21
;
_chemical_formula_sum "Si O2"
_cell_formula_units_Z 32
_cell_length_a 11.133024
_cell_length_b 5.181944
_cell_length_c 23.841517
_cell_angle_alpha 90.000000
_cell_angle_beta 90.000000
_cell_angle_gamma 90.000000
_cell_volume 1375.433970
_symmetry_space_group_name_H-M "P 21 21 21"
_symmetry_group_IT_number 19
_symmetry_cell_setting 'orthorhombic'
loop_
_space_group_symop_operation_xyz
x,y,z
1/2-x,-y,1/2+z
1/2+x,1/2-y,-z
-x,1/2+y,1/2-z
loop_
_atom_site_type_symbol
_atom_site_label
_atom_site_fract_x
_atom_site_fract_y
_atom_site_fract_z
Si Si1 0.235336 0.772178 0.361098
Si Si2 0.618001 0.859180 0.956033
Si Si3 0.734377 0.393180 0.822801
Si Si4 0.151168 0.574549 0.584292
Si Si5 0.956928 0.707829 0.833806
Si Si6 0.441806 0.624143 0.433282
Si Si7 0.794417 0.223915 0.706823
Si Si8 0.029039 0.134818 0.104099
O O1 0.324298 0.788754 0.415137
O O2 0.277525 0.559998 0.316909
O O3 0.110008 0.664228 0.383270
O O4 0.231352 0.053058 0.331156
O O5 0.764093 0.863036 0.946523
O O6 0.564628 0.082585 0.917503
O O7 0.559024 0.583581 0.942388
O O8 0.593520 0.910009 0.021383
O O9 0.766160 0.281827 0.884319
O O10 0.828081 0.622396 0.807544
O O11 0.737227 0.208647 0.768874
O O12 0.595572 0.460773 0.837570
O O13 0.067220 0.468821 0.633576
O O14 0.053087 0.703287 0.541921
O O15 0.007919 0.500519 0.876912
O O16 0.060605 0.770479 0.788096
#
# Coordination Sequence:
#
# PCOD8157040 Si02
#       8
#     4   4   4   4   4   4   4   4
#     4  11  25  44  62  96 137 167 219 272 325 395
#     4  11  25  41  69  94 123 180 221 262 342 385
#     4  10  24  40  67  96 131 173 221 274 330 395
#     4  10  21  43  62  95 133 165 218 280 318 388
#     4  10  21  40  64  92 136 159 220 280 325 384
#     4  10  24  40  63  97 129 172 218 273 328 395
#     4  11  25  40  68  98 125 180 215 264 344 388
#     4  11  25  46  63  96 134 172 222 277 320 402
#
# _framework density 23.265381999999999
#
# number of rings (size 3 to 8) (size 9 to 14) (size 15 to 20)
#    0.000    1.500    2.500    0.750    7.000    1.000 
#    0.000    0.000    0.000    0.000    0.000    0.000 
#    0.000    0.000    0.000    0.000    0.000    0.000 
#
# Total GULP energy -396455.558327 kJ/mol
# GULP energy per Si atom -12389.236198 kJ/mol
# Density = 2.321243 g / cm^3
# Si number density = 23.265382 Si / 1000 Ang^3
#
#
#
# Elastic Constant Matrix: (Units=GPa)
#
#
# Indices 1 2 3 4 5 6 
#
# 1 131.9229 7.3083 21.1367 0.0000 0.0000 0.0000
# 2 7.3083 62.6018 -9.1057 0.0000 0.0000 0.0000
# 3 21.1367 -9.1057 37.5519 0.0000 0.0000 0.0000
# 4 0.0000 0.0000 0.0000 22.6640 0.0000 0.0000
# 5 0.0000 0.0000 0.0000 0.0000 21.5807 0.0000
# 6 0.0000 0.0000 0.0000 0.0000 0.0000 34.6777
#
#
#
# Elastic Compliance Matrix: (Units=1/GPa)
#
#
# Indices 1 2 3 4 5 6 
#
# 1 0.008513 -0.001753 -0.005217 0.000000 0.000000 0.000000
# 2 -0.001753 0.016919 0.005089 0.000000 0.000000 0.000000
# 3 -0.005217 0.005089 0.030800 0.000000 0.000000 0.000000
# 4 0.000000 0.000000 0.000000 0.044123 0.000000 0.000000
# 5 0.000000 0.000000 0.000000 0.000000 0.046338 0.000000
# 6 0.000000 0.000000 0.000000 0.000000 0.000000 0.028837
#
#
# Mechanical properties :
#
#
# Convention : Reuss Voigt Hill
#
# Bulk Modulus (GPa) = 19.05801 30.08390 24.57096
# Shear Modulus (GPa) = 25.40901 29.96697 27.68799
#
# Velocity S-wave (km/s) = 3.30834 3.59283 3.45352
# Velocity P-wave (km/s) = 4.77523 5.49273 5.14650
#
# Compressibility (1/GPa) = 0.05247136
#
# Stress axis : x y z
#
# Youngs Moduli (GPa) = 117.46605 59.10587 32.46739
#
# Poissons Ratio (x) = 0.10359 0.16937
# Poissons Ratio (y) = 0.20587 -0.16523
# Poissons Ratio (z) = 0.61279 -0.30079
#
# Static dielectric constant tensor:
#      x y z
#    x 5.051890 0.000000 0.000000 
#    y 0.000000 4.022130 0.000000 
#    z 0.000000 0.000000 3.930660 
# 
# 
# High freq. dielectric constant tensor:
#      x y z
#    x 1.934580 0.000000 0.000000 
#    y 0.000000 1.914650 0.000000 
#    z 0.000000 0.000000 1.898970 
# 
# From -- ./inp_files/7186.got.cif
#   From: 2010.03.12/outbox.cif.g09.slc.cpg/sg19_4_cif.got.tgz:7186.got - 2010.04.10 18:59:41.
