data_PCOD8157389
_publ_section_title
;
Structure prediction by ZEFSAII (Michael W. Deem and Ramdas Pophale) SiO2 
 PCOD8157389
Probable space group: P 21 21 21
;
_chemical_formula_sum "Si O2"
_cell_formula_units_Z 28
_cell_length_a 5.379931
_cell_length_b 8.839715
_cell_length_c 22.475143
_cell_angle_alpha 90.000000
_cell_angle_beta 90.000000
_cell_angle_gamma 90.000000
_cell_volume 1068.851651
_symmetry_space_group_name_H-M "P 21 21 21"
_symmetry_group_IT_number 19
_symmetry_cell_setting 'orthorhombic'
loop_
_space_group_symop_operation_xyz
x,y,z
1/2-x,-y,1/2+z
1/2+x,1/2-y,-z
-x,1/2+y,1/2-z
loop_
_atom_site_type_symbol
_atom_site_label
_atom_site_fract_x
_atom_site_fract_y
_atom_site_fract_z
Si Si1 0.471873 0.278296 0.208480
Si Si2 0.643234 0.922766 0.083898
Si Si3 0.359452 0.452198 0.808143
Si Si4 0.775242 0.058973 0.970282
Si Si5 0.729931 0.445357 0.714683
Si Si6 0.738868 0.349737 0.903798
Si Si7 0.772032 0.582268 0.077779
O O1 0.515215 0.456054 0.220840
O O2 0.263594 0.218492 0.254487
O O3 0.419214 0.247067 0.139509
O O4 0.720581 0.185906 0.223462
O O5 0.675917 0.750881 0.062835
O O6 0.365434 0.992438 0.074422
O O7 0.821888 0.027465 0.040924
O O8 0.690155 0.927162 0.155605
O O9 0.521949 0.529435 0.755697
O O10 0.501423 0.383854 0.864962
O O11 0.533005 0.954853 0.954486
O O12 0.034699 0.021973 0.937262
O O13 0.695776 0.234383 0.959169
O O14 0.650143 0.435306 0.646824
#
# Coordination Sequence:
#
# PCOD8157389 Si02
#       7
#     4   4   4   4   4   4   4
#     4  10  23  44  63 106 138 190 242 307 372 460
#     4  11  28  46  77 108 151 198 265 310 389 455
#     4  10  25  42  71 102 145 188 252 310 375 451
#     4  12  28  50  78 108 156 196 259 315 386 453
#     4  11  25  41  73  98 152 188 252 305 388 444
#     4  10  24  46  71 104 144 192 256 311 382 450
#     4  12  29  49  75 112 152 206 246 320 388 463
#
# _framework density 26.196338999999998
#
# number of rings (size 3 to 8) (size 9 to 14) (size 15 to 20)
#    0.000    1.143    1.429    1.714   18.000    1.143 
#    0.000    0.000    0.000    0.000    0.000    0.000 
#    0.000    0.000    0.000    0.000    0.000    0.000 
#
# Total GULP energy -346929.951387 kJ/mol
# GULP energy per Si atom -12390.355407 kJ/mol
# Density = 2.613671 g / cm^3
# Si number density = 26.196339 Si / 1000 Ang^3
#
#
#
# Elastic Constant Matrix: (Units=GPa)
#
#
# Indices 1 2 3 4 5 6 
#
# 1 80.4218 3.3635 9.5401 0.0000 0.0000 0.0000
# 2 3.3635 81.5663 -3.5408 0.0000 0.0000 0.0000
# 3 9.5401 -3.5408 119.5383 0.0000 0.0000 0.0000
# 4 0.0000 0.0000 0.0000 36.9178 0.0000 0.0000
# 5 0.0000 0.0000 0.0000 0.0000 32.5827 0.0000
# 6 0.0000 0.0000 0.0000 0.0000 0.0000 16.6438
#
#
#
# Elastic Compliance Matrix: (Units=1/GPa)
#
#
# Indices 1 2 3 4 5 6 
#
# 1 0.012579 -0.000563 -0.001021 0.000000 0.000000 0.000000
# 2 -0.000563 0.012301 0.000409 0.000000 0.000000 0.000000
# 3 -0.001021 0.000409 0.008459 0.000000 0.000000 0.000000
# 4 0.000000 0.000000 0.000000 0.027087 0.000000 0.000000
# 5 0.000000 0.000000 0.000000 0.000000 0.030691 0.000000
# 6 0.000000 0.000000 0.000000 0.000000 0.000000 0.060082
#
#
# Mechanical properties :
#
#
# Convention : Reuss Voigt Hill
#
# Bulk Modulus (GPa) = 32.26797 33.36133 32.81465
# Shear Modulus (GPa) = 30.51041 35.37310 32.94175
#
# Velocity S-wave (km/s) = 3.41645 3.67864 3.54996
# Velocity P-wave (km/s) = 5.28273 5.55031 5.41817
#
# Compressibility (1/GPa) = 0.03099048
#
# Stress axis : x y z
#
# Youngs Moduli (GPa) = 79.49725 81.29448 118.21599
#
# Poissons Ratio (x) = 0.04577 0.12065
# Poissons Ratio (y) = 0.04476 -0.04839
# Poissons Ratio (z) = 0.08113 -0.03327
#
# Static dielectric constant tensor:
#      x y z
#    x 4.679510 0.000000 0.000000 
#    y 0.000000 4.515680 0.000000 
#    z 0.000000 0.000000 5.190490 
# 
# 
# High freq. dielectric constant tensor:
#      x y z
#    x 2.049150 0.000000 0.000000 
#    y 0.000000 2.039400 0.000000 
#    z 0.000000 0.000000 2.069860 
# 
# From -- ./inp_files/559.got.cif
#   From: 2010.03.12/outbox.cif.g09.slc.cpg/sg19_1_cif.got.tgz:559.got - 2010.04.10 18:59:41.
