data_PCOD8157046
_publ_section_title
;
Structure prediction by ZEFSAII (Michael W. Deem and Ramdas Pophale) SiO2 
 PCOD8157046
Probable space group: P 21 21 21
;
_chemical_formula_sum "Si O2"
_cell_formula_units_Z 24
_cell_length_a 10.068630
_cell_length_b 5.812869
_cell_length_c 17.920169
_cell_angle_alpha 90.000000
_cell_angle_beta 90.000000
_cell_angle_gamma 90.000000
_cell_volume 1048.824971
_symmetry_space_group_name_H-M "P 21 21 21"
_symmetry_group_IT_number 19
_symmetry_cell_setting 'orthorhombic'
loop_
_space_group_symop_operation_xyz
x,y,z
1/2-x,-y,1/2+z
1/2+x,1/2-y,-z
-x,1/2+y,1/2-z
loop_
_atom_site_type_symbol
_atom_site_label
_atom_site_fract_x
_atom_site_fract_y
_atom_site_fract_z
Si Si1 0.329561 0.599442 0.321369
Si Si2 0.525700 0.938383 0.710722
Si Si3 0.044701 0.552602 0.672762
Si Si4 0.522734 0.830356 0.062447
Si Si5 0.163431 0.785637 0.538199
Si Si6 0.941371 0.544812 0.452005
O O1 0.390758 0.452652 0.253823
O O2 0.393936 0.853557 0.319912
O O3 0.363022 0.488468 0.401524
O O4 0.174056 0.619592 0.312525
O O5 0.479094 0.690089 0.747217
O O6 0.438334 0.982898 0.636892
O O7 0.040071 0.313177 0.630283
O O8 0.135072 0.724714 0.624345
O O9 0.398755 0.962842 0.025815
O O10 0.590868 0.692130 0.994703
O O11 0.322044 0.781632 0.523987
O O12 0.086427 0.621675 0.480413
#
# Coordination Sequence:
#
# PCOD8157046 Si02
#       6
#     4   4   4   4   4   4
#     4  11  23  42  73 103 150 188 268 302 389 446
#     4  12  32  50  77 111 157 209 251 320 393 461
#     4  10  21  40  68 103 136 190 242 318 365 453
#     4  10  24  40  70 102 138 196 242 320 371 441
#     4  10  25  44  68 102 139 191 249 313 382 444
#     4  11  27  46  74 103 150 190 262 307 388 459
#
# _framework density 22.882752
#
# number of rings (size 3 to 8) (size 9 to 14) (size 15 to 20)
#    0.000    1.333    1.667    1.000   16.333    1.333 
#    0.000    0.000    0.000    0.000    0.000    0.000 
#    0.000    0.000    0.000    0.000    0.000    0.000 
#
# Total GULP energy -297377.461418 kJ/mol
# GULP energy per Si atom -12390.727559 kJ/mol
# Density = 2.283067 g / cm^3
# Si number density = 22.882752 Si / 1000 Ang^3
#
#
#
# Elastic Constant Matrix: (Units=GPa)
#
#
# Indices 1 2 3 4 5 6 
#
# 1 89.8867 -8.7014 9.2868 0.0000 0.0000 0.0000
# 2 -8.7014 74.9419 23.1534 0.0000 0.0000 0.0000
# 3 9.2868 23.1534 114.5789 0.0000 0.0000 0.0000
# 4 0.0000 0.0000 0.0000 26.2716 0.0000 0.0000
# 5 0.0000 0.0000 0.0000 0.0000 19.2376 0.0000
# 6 0.0000 0.0000 0.0000 0.0000 0.0000 27.6378
#
#
#
# Elastic Compliance Matrix: (Units=1/GPa)
#
#
# Indices 1 2 3 4 5 6 
#
# 1 0.011423 0.001720 -0.001273 0.000000 0.000000 0.000000
# 2 0.001720 0.014491 -0.003068 0.000000 0.000000 0.000000
# 3 -0.001273 -0.003068 0.009451 0.000000 0.000000 0.000000
# 4 0.000000 0.000000 0.000000 0.038064 0.000000 0.000000
# 5 0.000000 0.000000 0.000000 0.000000 0.051982 0.000000
# 6 0.000000 0.000000 0.000000 0.000000 0.000000 0.036182
#
#
# Mechanical properties :
#
#
# Convention : Reuss Voigt Hill
#
# Bulk Modulus (GPa) = 33.19793 36.32058 34.75925
# Shear Modulus (GPa) = 28.26839 31.67399 29.97119
#
# Velocity S-wave (km/s) = 3.51858 3.72450 3.62300
# Velocity P-wave (km/s) = 5.57194 5.86539 5.72055
#
# Compressibility (1/GPa) = 0.03012236
#
# Stress axis : x y z
#
# Youngs Moduli (GPa) = 87.54150 69.00787 105.81214
#
# Poissons Ratio (x) = -0.11867 0.13474
# Poissons Ratio (y) = -0.15055 0.32460
# Poissons Ratio (z) = 0.11147 0.21169
#
# Static dielectric constant tensor:
#      x y z
#    x 3.913740 0.000000 0.000000 
#    y 0.000000 4.276710 0.000000 
#    z 0.000000 0.000000 4.301000 
# 
# 
# High freq. dielectric constant tensor:
#      x y z
#    x 1.895900 0.000000 0.000000 
#    y 0.000000 1.905920 0.000000 
#    z 0.000000 0.000000 1.914350 
# 
# From -- ./inp_files/415.got.cif
#   From: 2010.03.12/outbox.cif.g09.slc.cpg/sg19_1_cif.got.tgz:415.got - 2010.04.10 18:59:41.
