data_PCOD8157644
_publ_section_title
;
Structure prediction by ZEFSAII (Michael W. Deem and Ramdas Pophale) SiO2 
 PCOD8157644
Probable space group: P 21 21 21
;
_chemical_formula_sum "Si O2"
_cell_formula_units_Z 32
_cell_length_a 11.234368
_cell_length_b 21.080063
_cell_length_c 6.447881
_cell_angle_alpha 90.000000
_cell_angle_beta 90.000000
_cell_angle_gamma 90.000000
_cell_volume 1526.994820
_symmetry_space_group_name_H-M "P 21 21 21"
_symmetry_group_IT_number 19
_symmetry_cell_setting 'orthorhombic'
loop_
_space_group_symop_operation_xyz
x,y,z
1/2-x,-y,1/2+z
1/2+x,1/2-y,-z
-x,1/2+y,1/2-z
loop_
_atom_site_type_symbol
_atom_site_label
_atom_site_fract_x
_atom_site_fract_y
_atom_site_fract_z
Si Si1 0.038850 0.335444 0.952261
Si Si2 0.681453 0.219319 0.412089
Si Si3 0.906269 0.461216 0.988234
Si Si4 0.231855 0.645090 0.702721
Si Si5 0.603632 0.777612 0.628369
Si Si6 0.142536 0.045049 0.155495
Si Si7 0.929337 0.656349 0.084210
Si Si8 0.016758 0.568070 0.736932
O O1 0.151773 0.366602 0.065033
O O2 0.989557 0.278492 0.091628
O O3 0.074044 0.312001 0.721434
O O4 0.935824 0.388090 0.948314
O O5 0.734656 0.166485 0.565660
O O6 0.781859 0.246151 0.256978
O O7 0.637644 0.277737 0.549567
O O8 0.771310 0.475333 0.922918
O O9 0.998794 0.502226 0.854859
O O10 0.915490 0.484138 0.227377
O O11 0.147025 0.697351 0.594254
O O12 0.158416 0.578826 0.704966
O O13 0.540069 0.832636 0.760964
O O14 0.157626 0.104412 0.312419
O O15 0.054892 0.066412 0.975361
O O16 0.972729 0.629412 0.865023
#
# Coordination Sequence:
#
# PCOD8157644 Si02
#       8
#     4   4   4   4   4   4   4   4
#     4  11  27  42  65 103 140 175 230 286 334 417
#     4  11  25  41  65 102 139 177 222 276 354 416
#     4  11  26  45  65 100 129 180 233 285 339 404
#     4  11  23  45  66  97 137 179 222 278 345 417
#     4  11  23  40  67  99 136 172 225 279 341 415
#     4  11  24  43  71  95 131 174 235 287 338 404
#     4  11  23  39  68 100 128 178 224 279 351 405
#     4  11  23  45  69  92 132 179 229 284 340 406
#
# _framework density 20.956195999999998
#
# number of rings (size 3 to 8) (size 9 to 14) (size 15 to 20)
#    0.000    1.000    5.000    0.750    3.500    1.000 
#    4.500    0.000    0.000    0.000    0.000    0.000 
#    0.000    0.000    0.000    0.000    0.000    0.000 
#
# Total GULP energy -396891.294189 kJ/mol
# GULP energy per Si atom -12402.852943 kJ/mol
# Density = 2.090850 g / cm^3
# Si number density = 20.956196 Si / 1000 Ang^3
#
#
#
# Elastic Constant Matrix: (Units=GPa)
#
#
# Indices 1 2 3 4 5 6 
#
# 1 66.2249 19.6806 31.0655 0.0000 0.0000 0.0000
# 2 19.6806 74.5697 34.8643 0.0000 0.0000 0.0000
# 3 31.0655 34.8643 116.0091 0.0000 0.0000 0.0000
# 4 0.0000 0.0000 0.0000 33.8822 0.0000 0.0000
# 5 0.0000 0.0000 0.0000 0.0000 35.3921 0.0000
# 6 0.0000 0.0000 0.0000 0.0000 0.0000 42.8092
#
#
#
# Elastic Compliance Matrix: (Units=1/GPa)
#
#
# Indices 1 2 3 4 5 6 
#
# 1 0.017782 -0.002870 -0.003899 0.000000 0.000000 0.000000
# 2 -0.002870 0.016066 -0.004060 0.000000 0.000000 0.000000
# 3 -0.003899 -0.004060 0.010884 0.000000 0.000000 0.000000
# 4 0.000000 0.000000 0.000000 0.029514 0.000000 0.000000
# 5 0.000000 0.000000 0.000000 0.000000 0.028255 0.000000
# 6 0.000000 0.000000 0.000000 0.000000 0.000000 0.023359
#
#
# Mechanical properties :
#
#
# Convention : Reuss Voigt Hill
#
# Bulk Modulus (GPa) = 43.33856 47.55829 45.44842
# Shear Modulus (GPa) = 32.21444 33.82958 33.02201
#
# Velocity S-wave (km/s) = 3.92500 4.02219 3.97390
# Velocity P-wave (km/s) = 6.42389 6.65689 6.54142
#
# Compressibility (1/GPa) = 0.02307414
#
# Stress axis : x y z
#
# Youngs Moduli (GPa) = 56.23645 62.24397 91.87589
#
# Poissons Ratio (x) = 0.17864 0.35825
# Poissons Ratio (y) = 0.16140 0.37299
# Poissons Ratio (z) = 0.21928 0.25269
#
# Static dielectric constant tensor:
#      x y z
#    x 3.780040 0.000000 0.000000 
#    y 0.000000 3.570910 0.000000 
#    z 0.000000 0.000000 3.949230 
# 
# 
# High freq. dielectric constant tensor:
#      x y z
#    x 1.821210 0.000000 0.000000 
#    y 0.000000 1.805510 0.000000 
#    z 0.000000 0.000000 1.837620 
# 
# From -- ./inp_files/1229.got.cif
#   From: 2010.03.12/outbox.cif.g09.slc.cpg/sg19_1_cif.got.tgz:1229.got - 2010.04.10 18:59:41.
