data_PCOD8157558
_publ_section_title
;
Structure prediction by ZEFSAII (Michael W. Deem and Ramdas Pophale) SiO2 
 PCOD8157558
Probable space group: P 21 21 21
;
_chemical_formula_sum "Si O2"
_cell_formula_units_Z 24
_cell_length_a 11.086004
_cell_length_b 15.618268
_cell_length_c 6.367376
_cell_angle_alpha 90.000000
_cell_angle_beta 90.000000
_cell_angle_gamma 90.000000
_cell_volume 1102.474106
_symmetry_space_group_name_H-M "P 21 21 21"
_symmetry_group_IT_number 19
_symmetry_cell_setting 'orthorhombic'
loop_
_space_group_symop_operation_xyz
x,y,z
1/2-x,-y,1/2+z
1/2+x,1/2-y,-z
-x,1/2+y,1/2-z
loop_
_atom_site_type_symbol
_atom_site_label
_atom_site_fract_x
_atom_site_fract_y
_atom_site_fract_z
Si Si1 0.363394 0.085681 0.047625
Si Si2 0.196637 0.091251 0.698149
Si Si3 0.090626 0.500697 0.085437
Si Si4 0.797054 0.701393 0.192438
Si Si5 0.010751 0.110943 0.049620
Si Si6 0.300293 0.382998 0.242172
O O1 0.324916 0.153037 0.227726
O O2 0.286635 0.997907 0.075912
O O3 0.317317 0.119762 0.821553
O O4 0.506861 0.068106 0.039745
O O5 0.167084 0.167457 0.536820
O O6 0.085483 0.073562 0.855102
O O7 0.211569 0.456482 0.162198
O O8 0.013887 0.536433 0.281279
O O9 0.122411 0.579838 0.934697
O O10 0.910992 0.687156 0.347071
O O11 0.774155 0.802022 0.176250
O O12 0.884811 0.145515 0.953639
#
# Coordination Sequence:
#
# PCOD8157558 Si02
#       6
#     4   4   4   4   4   4
#     4  11  21  39  72 104 134 181 229 283 348 408
#     4  11  20  42  70 101 135 179 226 288 350 408
#     4  12  25  47  71  96 141 193 237 284 356 421
#     4  11  26  43  72 108 141 180 238 294 343 419
#     4  11  23  46  70 100 141 182 231 290 344 416
#     4  12  27  47  69 103 140 191 235 289 351 416
#
# _framework density 21.769216
#
# number of rings (size 3 to 8) (size 9 to 14) (size 15 to 20)
#    0.000    0.667    6.667    1.000    2.333    2.667 
#    3.000    0.000    0.000    0.000    0.000    0.000 
#    0.000    0.000    0.000    0.000    0.000    0.000 
#
# Total GULP energy -297631.148117 kJ/mol
# GULP energy per Si atom -12401.297838 kJ/mol
# Density = 2.171967 g / cm^3
# Si number density = 21.769216 Si / 1000 Ang^3
#
#
#
# Elastic Constant Matrix: (Units=GPa)
#
#
# Indices 1 2 3 4 5 6 
#
# 1 102.1734 32.9889 50.6722 0.0000 0.0000 0.0000
# 2 32.9889 87.3670 40.7609 0.0000 0.0000 0.0000
# 3 50.6722 40.7609 120.0793 0.0000 0.0000 0.0000
# 4 0.0000 0.0000 0.0000 25.5283 0.0000 0.0000
# 5 0.0000 0.0000 0.0000 0.0000 39.6617 0.0000
# 6 0.0000 0.0000 0.0000 0.0000 0.0000 28.7062
#
#
#
# Elastic Compliance Matrix: (Units=1/GPa)
#
#
# Indices 1 2 3 4 5 6 
#
# 1 0.012920 -0.002774 -0.004510 0.000000 0.000000 0.000000
# 2 -0.002774 0.014195 -0.003648 0.000000 0.000000 0.000000
# 3 -0.004510 -0.003648 0.011469 0.000000 0.000000 0.000000
# 4 0.000000 0.000000 0.000000 0.039172 0.000000 0.000000
# 5 0.000000 0.000000 0.000000 0.000000 0.025213 0.000000
# 6 0.000000 0.000000 0.000000 0.000000 0.000000 0.034836
#
#
# Mechanical properties :
#
#
# Convention : Reuss Voigt Hill
#
# Bulk Modulus (GPa) = 59.80934 62.05153 60.93043
# Shear Modulus (GPa) = 30.25827 31.12575 30.69201
#
# Velocity S-wave (km/s) = 3.73226 3.78538 3.75891
# Velocity P-wave (km/s) = 6.79021 6.90446 6.84757
#
# Compressibility (1/GPa) = 0.01671980
#
# Stress axis : x y z
#
# Youngs Moduli (GPa) = 77.40027 70.44532 87.18804
#
# Poissons Ratio (x) = 0.19542 0.39325
# Poissons Ratio (y) = 0.21472 0.31806
# Poissons Ratio (z) = 0.34910 0.25698
#
# Static dielectric constant tensor:
#      x y z
#    x 3.979270 0.000000 0.000000 
#    y 0.000000 3.492830 0.000000 
#    z 0.000000 0.000000 4.150090 
# 
# 
# High freq. dielectric constant tensor:
#      x y z
#    x 1.860090 0.000000 0.000000 
#    y 0.000000 1.824200 0.000000 
#    z 0.000000 0.000000 1.869720 
# 
# From -- ./inp_files/899.got.cif
#   From: 2010.03.12/outbox.cif.g09.slc.cpg/sg19_1_cif.got.tgz:899.got - 2010.04.10 18:59:41.
