data_PCOD8157394
_publ_section_title
;
Structure prediction by ZEFSAII (Michael W. Deem and Ramdas Pophale) SiO2 
 PCOD8157394
Probable space group: P 21 21 21
;
_chemical_formula_sum "Si O2"
_cell_formula_units_Z 32
_cell_length_a 5.812795
_cell_length_b 13.297777
_cell_length_c 17.675936
_cell_angle_alpha 90.000000
_cell_angle_beta 90.000000
_cell_angle_gamma 90.000000
_cell_volume 1366.301273
_symmetry_space_group_name_H-M "P 21 21 21"
_symmetry_group_IT_number 19
_symmetry_cell_setting 'orthorhombic'
loop_
_space_group_symop_operation_xyz
x,y,z
1/2-x,-y,1/2+z
1/2+x,1/2-y,-z
-x,1/2+y,1/2-z
loop_
_atom_site_type_symbol
_atom_site_label
_atom_site_fract_x
_atom_site_fract_y
_atom_site_fract_z
Si Si1 0.188216 0.000230 0.477003
Si Si2 0.044438 0.666345 0.577531
Si Si3 0.232505 0.082041 0.323258
Si Si4 0.687600 0.708741 0.969664
Si Si5 0.161895 0.370415 0.939961
Si Si6 0.912428 0.755065 0.820161
Si Si7 0.585001 0.925832 0.268927
Si Si8 0.147346 0.608019 0.285333
O O1 0.087614 0.043942 0.396885
O O2 0.332368 0.088511 0.518087
O O3 0.347145 0.905620 0.456136
O O4 0.990894 0.966695 0.536120
O O5 0.975061 0.779395 0.598021
O O6 0.239366 0.676123 0.515560
O O7 0.163090 0.625374 0.653129
O O8 0.406282 0.166243 0.356720
O O9 0.093810 0.133032 0.254310
O O10 0.354494 0.987600 0.284647
O O11 0.709305 0.734336 0.880400
O O12 0.441861 0.756719 0.995698
O O13 0.353617 0.399227 0.876733
O O14 0.038386 0.652045 0.798464
O O15 0.818884 0.805212 0.743155
O O16 0.790305 0.997609 0.244441
#
# Coordination Sequence:
#
# PCOD8157394 Si02
#       8
#     4   4   4   4   4   4   4   4
#     4  11  24  46  70  99 140 185 242 301 367 442
#     4  11  24  43  68  99 140 185 234 303 371 442
#     4  10  23  44  67  96 133 186 229 297 370 432
#     4  12  27  47  75 109 148 197 252 307 373 447
#     4  12  24  41  70 102 137 185 239 303 371 445
#     4  11  23  43  70  98 143 185 238 297 363 435
#     4  10  23  44  65  97 136 180 232 299 356 436
#     4  11  24  42  67 100 137 179 238 291 365 439
#
# _framework density 23.420898000000001
#
# number of rings (size 3 to 8) (size 9 to 14) (size 15 to 20)
#    0.000    1.000    3.750    2.250    1.750    5.000 
#    0.000    0.000    0.000    0.000    0.000    0.000 
#    0.000    0.000    0.000    0.000    0.000    0.000 
#
# Total GULP energy -396573.502300 kJ/mol
# GULP energy per Si atom -12392.921947 kJ/mol
# Density = 2.336759 g / cm^3
# Si number density = 23.420898 Si / 1000 Ang^3
#
#
#
# Elastic Constant Matrix: (Units=GPa)
#
#
# Indices 1 2 3 4 5 6 
#
# 1 47.9459 5.3482 1.8536 0.0000 0.0000 0.0000
# 2 5.3482 86.4620 25.4287 0.0000 0.0000 0.0000
# 3 1.8536 25.4287 86.3489 0.0000 0.0000 0.0000
# 4 0.0000 0.0000 0.0000 29.9233 0.0000 0.0000
# 5 0.0000 0.0000 0.0000 0.0000 33.6104 0.0000
# 6 0.0000 0.0000 0.0000 0.0000 0.0000 13.5276
#
#
#
# Elastic Compliance Matrix: (Units=1/GPa)
#
#
# Indices 1 2 3 4 5 6 
#
# 1 0.021002 -0.001277 -0.000075 0.000000 0.000000 0.000000
# 2 -0.001277 0.012740 -0.003724 0.000000 0.000000 0.000000
# 3 -0.000075 -0.003724 0.012679 0.000000 0.000000 0.000000
# 4 0.000000 0.000000 0.000000 0.033419 0.000000 0.000000
# 5 0.000000 0.000000 0.000000 0.000000 0.029753 0.000000
# 6 0.000000 0.000000 0.000000 0.000000 0.000000 0.073923
#
#
# Mechanical properties :
#
#
# Convention : Reuss Voigt Hill
#
# Bulk Modulus (GPa) = 27.57166 31.77973 29.67570
# Shear Modulus (GPa) = 24.30037 27.95403 26.12720
#
# Velocity S-wave (km/s) = 3.22460 3.45853 3.34361
# Velocity P-wave (km/s) = 5.06575 5.43571 5.25399
#
# Compressibility (1/GPa) = 0.03626912
#
# Stress axis : x y z
#
# Youngs Moduli (GPa) = 47.61406 78.49215 78.86865
#
# Poissons Ratio (x) = 0.10024 0.00589
# Poissons Ratio (y) = 0.06081 0.29374
# Poissons Ratio (z) = 0.00356 0.29234
#
# Static dielectric constant tensor:
#      x y z
#    x 3.910070 0.000000 0.000000 
#    y 0.000000 4.356930 0.000000 
#    z 0.000000 0.000000 4.265430 
# 
# 
# High freq. dielectric constant tensor:
#      x y z
#    x 1.896760 0.000000 0.000000 
#    y 0.000000 1.940260 0.000000 
#    z 0.000000 0.000000 1.941740 
# 
# From -- ./inp_files/6480.got.cif
#   From: 2010.03.12/outbox.cif.g09.slc.cpg/sg19_4_cif.got.tgz:6480.got - 2010.04.10 18:59:41.
