data_PCOD8157942
_publ_section_title
;
Structure prediction by ZEFSAII (Michael W. Deem and Ramdas Pophale) SiO2 
 PCOD8157942
Probable space group: P 21 21 21
;
_chemical_formula_sum "Si O2"
_cell_formula_units_Z 8
_cell_length_a 12.328488
_cell_length_b 4.782183
_cell_length_c 4.834526
_cell_angle_alpha 90.000000
_cell_angle_beta 90.000000
_cell_angle_gamma 90.000000
_cell_volume 285.029564
_symmetry_space_group_name_H-M "P 21 21 21"
_symmetry_group_IT_number 19
_symmetry_cell_setting 'orthorhombic'
loop_
_space_group_symop_operation_xyz
x,y,z
1/2-x,-y,1/2+z
1/2+x,1/2-y,-z
-x,1/2+y,1/2-z
loop_
_atom_site_type_symbol
_atom_site_label
_atom_site_fract_x
_atom_site_fract_y
_atom_site_fract_z
Si Si1 0.764429 0.189777 0.658854
Si Si2 0.928229 0.455327 0.292990
O O1 0.880010 0.323444 0.576076
O O2 0.670879 0.423782 0.607912
O O3 0.734784 0.919048 0.472514
O O4 0.009150 0.709309 0.371238
#
# Coordination Sequence:
#
# PCOD8157942 Si02
#       2
#     4   4
#     4  12  28  60  82 122 170 212 278 342 398 500
#     4  12  28  56  84 124 164 222 268 342 414 480
#
# _framework density 28.067260999999998
#
# number of rings (size 3 to 8) (size 9 to 14) (size 15 to 20)
#    0.000    0.000    5.000    3.000    0.000    0.000 
#   27.000    0.000    0.000    0.000    0.000    0.000 
#    0.000    0.000    0.000    0.000    0.000    0.000 
#
# Total GULP energy -99230.555448 kJ/mol
# GULP energy per Si atom -12403.819431 kJ/mol
# Density = 2.800338 g / cm^3
# Si number density = 28.067261 Si / 1000 Ang^3
#
#
#
# Elastic Constant Matrix: (Units=GPa)
#
#
# Indices 1 2 3 4 5 6 
#
# 1 122.6323 41.3041 -8.3929 0.0000 0.0000 0.0000
# 2 41.3041 173.1694 -5.7913 0.0000 0.0000 0.0000
# 3 -8.3929 -5.7913 33.5099 0.0000 0.0000 0.0000
# 4 0.0000 0.0000 0.0000 32.8324 0.0000 0.0000
# 5 0.0000 0.0000 0.0000 0.0000 22.8135 0.0000
# 6 0.0000 0.0000 0.0000 0.0000 0.0000 95.3682
#
#
#
# Elastic Compliance Matrix: (Units=1/GPa)
#
#
# Indices 1 2 3 4 5 6 
#
# 1 0.008984 -0.002080 0.001891 0.000000 0.000000 0.000000
# 2 -0.002080 0.006290 0.000566 0.000000 0.000000 0.000000
# 3 0.001891 0.000566 0.030413 0.000000 0.000000 0.000000
# 4 0.000000 0.000000 0.000000 0.030458 0.000000 0.000000
# 5 0.000000 0.000000 0.000000 0.000000 0.043834 0.000000
# 6 0.000000 0.000000 0.000000 0.000000 0.000000 0.010486
#
#
# Mechanical properties :
#
#
# Convention : Reuss Voigt Hill
#
# Bulk Modulus (GPa) = 21.53234 42.61683 32.07458
# Shear Modulus (GPa) = 34.43753 50.34896 42.39324
#
# Velocity S-wave (km/s) = 3.50661 4.24000 3.89062
# Velocity P-wave (km/s) = 4.90748 6.25995 5.62451
#
# Compressibility (1/GPa) = 0.04644177
#
# Stress axis : x y z
#
# Youngs Moduli (GPa) = 111.30486 158.99083 32.88034
#
# Poissons Ratio (x) = 0.33065 -0.06217
# Poissons Ratio (y) = 0.23148 -0.01861
# Poissons Ratio (z) = -0.21046 -0.09001
#
# Static dielectric constant tensor:
#      x y z
#    x 5.426460 0.000000 0.000000 
#    y 0.000000 5.516020 0.000000 
#    z 0.000000 0.000000 4.248610 
# 
# 
# High freq. dielectric constant tensor:
#      x y z
#    x 2.145660 0.000000 0.000000 
#    y 0.000000 2.180330 0.000000 
#    z 0.000000 0.000000 2.091800 
# 
# From -- ./inp_files/89.got.cif
#   From: 2010.03.12/outbox.cif.g09.slc.cpg/sg19_1_cif.got.tgz:89.got - 2010.04.10 18:59:41.
