data_PCOD8157042
_publ_section_title
;
Structure prediction by ZEFSAII (Michael W. Deem and Ramdas Pophale) SiO2 
 PCOD8157042
Probable space group: P 21 21 21
;
_chemical_formula_sum "Si O2"
_cell_formula_units_Z 28
_cell_length_a 17.653272
_cell_length_b 7.094966
_cell_length_c 10.961498
_cell_angle_alpha 90.000000
_cell_angle_beta 90.000000
_cell_angle_gamma 90.000000
_cell_volume 1372.920660
_symmetry_space_group_name_H-M "P 21 21 21"
_symmetry_group_IT_number 19
_symmetry_cell_setting 'orthorhombic'
loop_
_space_group_symop_operation_xyz
x,y,z
1/2-x,-y,1/2+z
1/2+x,1/2-y,-z
-x,1/2+y,1/2-z
loop_
_atom_site_type_symbol
_atom_site_label
_atom_site_fract_x
_atom_site_fract_y
_atom_site_fract_z
Si Si1 0.021611 0.882376 0.896156
Si Si2 0.556218 0.020292 0.155344
Si Si3 0.217269 0.806575 0.360091
Si Si4 0.172156 0.207695 0.258858
Si Si5 0.370255 0.837359 0.495551
Si Si6 0.876946 0.988583 0.040972
Si Si7 0.792676 0.989434 0.802523
O O1 0.024111 0.658686 0.918587
O O2 0.102517 0.966803 0.935357
O O3 0.007098 0.911801 0.751847
O O4 0.959032 0.984103 0.979915
O O5 0.632042 0.967607 0.226957
O O6 0.573176 0.178821 0.056014
O O7 0.282689 0.805591 0.462200
O O8 0.142355 0.698440 0.409527
O O9 0.248167 0.694656 0.242765
O O10 0.196336 0.017169 0.325212
O O11 0.124562 0.334117 0.352515
O O12 0.244602 0.321413 0.211018
O O13 0.120559 0.158708 0.141703
O O14 0.811932 0.940295 0.942170
#
# Coordination Sequence:
#
# PCOD8157042 Si02
#       7
#     4   4   4   4   4   4   4
#     4  11  22  41  65  92 125 170 216 262 318 375
#     4  10  21  40  65  92 123 162 215 268 310 371
#     4  10  22  40  66  94 124 161 217 264 317 379
#     4  11  23  40  62  95 123 167 210 251 329 382
#     4  11  23  41  64  97 126 167 216 262 319 381
#     4  10  23  41  60  92 131 165 206 267 319 373
#     4   9  20  39  64  90 128 156 204 270 312 371
#
# _framework density 20.394477999999999
#
# number of rings (size 3 to 8) (size 9 to 14) (size 15 to 20)
#    0.000    1.714    2.857    0.857    2.000    3.429 
#    5.143    0.000    0.000    0.000    0.000    0.000 
#    0.000    0.000    0.000    0.000    0.000    0.000 
#
# Total GULP energy -347235.042650 kJ/mol
# GULP energy per Si atom -12401.251523 kJ/mol
# Density = 2.034806 g / cm^3
# Si number density = 20.394478 Si / 1000 Ang^3
#
#
#
# Elastic Constant Matrix: (Units=GPa)
#
#
# Indices 1 2 3 4 5 6 
#
# 1 42.2564 17.1394 14.0802 0.0000 0.0000 0.0000
# 2 17.1394 117.3174 33.0806 0.0000 0.0000 0.0000
# 3 14.0802 33.0806 92.1631 0.0000 0.0000 0.0000
# 4 0.0000 0.0000 0.0000 22.9309 0.0000 0.0000
# 5 0.0000 0.0000 0.0000 0.0000 24.4187 0.0000
# 6 0.0000 0.0000 0.0000 0.0000 0.0000 28.4353
#
#
#
# Elastic Compliance Matrix: (Units=1/GPa)
#
#
# Indices 1 2 3 4 5 6 
#
# 1 0.025826 -0.002960 -0.002883 0.000000 0.000000 0.000000
# 2 -0.002960 0.009823 -0.003074 0.000000 0.000000 0.000000
# 3 -0.002883 -0.003074 0.012394 0.000000 0.000000 0.000000
# 4 0.000000 0.000000 0.000000 0.043609 0.000000 0.000000
# 5 0.000000 0.000000 0.000000 0.000000 0.040952 0.000000
# 6 0.000000 0.000000 0.000000 0.000000 0.000000 0.035168
#
#
# Mechanical properties :
#
#
# Convention : Reuss Voigt Hill
#
# Bulk Modulus (GPa) = 33.10193 42.25971 37.68082
# Shear Modulus (GPa) = 25.55243 27.65276 26.60260
#
# Velocity S-wave (km/s) = 3.54349 3.68624 3.61557
# Velocity P-wave (km/s) = 5.74524 6.23570 5.99549
#
# Compressibility (1/GPa) = 0.03020972
#
# Stress axis : x y z
#
# Youngs Moduli (GPa) = 38.72012 101.80169 80.68410
#
# Poissons Ratio (x) = 0.30134 0.23262
# Poissons Ratio (y) = 0.11462 0.24799
# Poissons Ratio (z) = 0.11163 0.31290
#
# Static dielectric constant tensor:
#      x y z
#    x 3.518100 0.000000 0.000000 
#    y 0.000000 3.615890 0.000000 
#    z 0.000000 0.000000 3.744410 
# 
# 
# High freq. dielectric constant tensor:
#      x y z
#    x 1.782180 0.000000 0.000000 
#    y 0.000000 1.801730 0.000000 
#    z 0.000000 0.000000 1.799100 
# 
# From -- ./inp_files/1758.got.cif
#   From: 2010.03.12/outbox.cif.g09.slc.cpg/sg19_1_cif.got.tgz:1758.got - 2010.04.10 18:59:41.
