data_PCOD8157665
_publ_section_title
;
Structure prediction by ZEFSAII (Michael W. Deem and Ramdas Pophale) SiO2 
 PCOD8157665
Probable space group: P 21 21 21
;
_chemical_formula_sum "Si O2"
_cell_formula_units_Z 32
_cell_length_a 9.077196
_cell_length_b 12.565682
_cell_length_c 13.340815
_cell_angle_alpha 90.000000
_cell_angle_beta 90.000000
_cell_angle_gamma 90.000000
_cell_volume 1521.668813
_symmetry_space_group_name_H-M "P 21 21 21"
_symmetry_group_IT_number 19
_symmetry_cell_setting 'orthorhombic'
loop_
_space_group_symop_operation_xyz
x,y,z
1/2-x,-y,1/2+z
1/2+x,1/2-y,-z
-x,1/2+y,1/2-z
loop_
_atom_site_type_symbol
_atom_site_label
_atom_site_fract_x
_atom_site_fract_y
_atom_site_fract_z
Si Si1 0.804032 0.185758 0.203291
Si Si2 0.400225 0.926429 0.644983
Si Si3 0.860700 0.732412 0.515890
Si Si4 0.804033 0.314245 0.703291
Si Si5 0.356435 0.329363 0.113969
Si Si6 0.860697 0.767587 0.015892
Si Si7 0.599777 0.073571 0.355018
Si Si8 0.643563 0.670636 0.886032
O O1 0.723858 0.257155 0.120122
O O2 0.692998 0.102870 0.256234
O O3 0.865185 0.272379 0.279831
O O4 0.934851 0.117955 0.155148
O O5 0.325270 0.877115 0.544780
O O6 0.307002 0.897134 0.743767
O O7 0.410562 0.051731 0.630445
O O8 0.034859 0.735192 0.538477
O O9 0.806104 0.825147 0.438091
O O10 0.723862 0.242844 0.620124
O O11 0.865191 0.227628 0.779834
O O12 0.934850 0.382049 0.655146
O O13 0.410554 0.448268 0.130449
O O14 0.034855 0.764803 0.038481
O O15 0.825271 0.877114 0.955222
O O16 0.806099 0.674851 0.938094
#
# Coordination Sequence:
#
# PCOD8157665 Si02
#       8
#     4   4   4   4   4   4   4   4
#     4  11  24  43  65  99 134 166 225 270 320 392
#     4  11  25  42  68  98 129 182 213 267 335 383
#     4  11  23  43  65  95 131 169 215 273 318 387
#     4  11  24  43  65  99 134 166 225 270 320 392
#     4  11  25  44  68  94 134 172 218 271 323 391
#     4  11  23  43  65  95 131 169 215 273 318 387
#     4  11  25  42  68  98 129 182 213 267 335 383
#     4  11  25  44  68  94 134 172 218 271 323 391
#
# _framework density 21.029543
#
# number of rings (size 3 to 8) (size 9 to 14) (size 15 to 20)
#    0.000    1.000    5.000    0.750    3.500    0.000 
#    0.000    2.500    0.000    0.000    0.000    0.000 
#    0.000    0.000    0.000    0.000    0.000    0.000 
#
# Total GULP energy -396641.869338 kJ/mol
# GULP energy per Si atom -12395.058417 kJ/mol
# Density = 2.098168 g / cm^3
# Si number density = 21.029543 Si / 1000 Ang^3
#
#
#
# Elastic Constant Matrix: (Units=GPa)
#
#
# Indices 1 2 3 4 5 6 
#
# 1 103.2643 52.2253 42.8013 0.0000 0.0000 0.0000
# 2 52.2253 81.0919 40.9183 0.0000 0.0000 0.0000
# 3 42.8013 40.9183 113.4677 0.0000 0.0000 0.0000
# 4 0.0000 0.0000 0.0000 24.9580 0.0000 0.0000
# 5 0.0000 0.0000 0.0000 0.0000 43.3837 0.0000
# 6 0.0000 0.0000 0.0000 0.0000 0.0000 26.9897
#
#
#
# Elastic Compliance Matrix: (Units=1/GPa)
#
#
# Indices 1 2 3 4 5 6 
#
# 1 0.014989 -0.008313 -0.002656 0.000000 0.000000 0.000000
# 2 -0.008313 0.019685 -0.003963 0.000000 0.000000 0.000000
# 3 -0.002656 -0.003963 0.011244 0.000000 0.000000 0.000000
# 4 0.000000 0.000000 0.000000 0.040067 0.000000 0.000000
# 5 0.000000 0.000000 0.000000 0.000000 0.023050 0.000000
# 6 0.000000 0.000000 0.000000 0.000000 0.000000 0.037051
#
#
# Mechanical properties :
#
#
# Convention : Reuss Voigt Hill
#
# Bulk Modulus (GPa) = 62.29033 63.30152 62.79593
# Shear Modulus (GPa) = 27.57812 29.85821 28.71816
#
# Velocity S-wave (km/s) = 3.62525 3.77214 3.69943
# Velocity P-wave (km/s) = 6.87081 7.00990 6.94070
#
# Compressibility (1/GPa) = 0.01605386
#
# Stress axis : x y z
#
# Youngs Moduli (GPa) = 66.71494 50.79946 88.93484
#
# Poissons Ratio (x) = 0.42230 0.23623
# Poissons Ratio (y) = 0.55461 0.35245
# Poissons Ratio (z) = 0.17721 0.20132
#
# Static dielectric constant tensor:
#      x y z
#    x 3.975200 0.000000 0.000000 
#    y 0.000000 3.557600 0.000000 
#    z 0.000000 0.000000 4.100050 
# 
# 
# High freq. dielectric constant tensor:
#      x y z
#    x 1.828450 0.000000 0.000000 
#    y 0.000000 1.799780 0.000000 
#    z 0.000000 0.000000 1.851040 
# 
# From -- ./inp_files/5921.got.cif
#   From: 2010.03.12/outbox.cif.g09.slc.cpg/sg19_3_cif.got.tgz:5921.got - 2010.04.10 18:59:41.
