data_PCOD8157888
_publ_section_title
;
Structure prediction by ZEFSAII (Michael W. Deem and Ramdas Pophale) SiO2 
 PCOD8157888
Probable space group: P 21 21 21
;
_chemical_formula_sum "Si O2"
_cell_formula_units_Z 32
_cell_length_a 11.324455
_cell_length_b 8.604697
_cell_length_c 14.846789
_cell_angle_alpha 90.000000
_cell_angle_beta 90.000000
_cell_angle_gamma 90.000000
_cell_volume 1446.723143
_symmetry_space_group_name_H-M "P 21 21 21"
_symmetry_group_IT_number 19
_symmetry_cell_setting 'orthorhombic'
loop_
_space_group_symop_operation_xyz
x,y,z
1/2-x,-y,1/2+z
1/2+x,1/2-y,-z
-x,1/2+y,1/2-z
loop_
_atom_site_type_symbol
_atom_site_label
_atom_site_fract_x
_atom_site_fract_y
_atom_site_fract_z
Si Si1 0.751028 0.599775 0.836362
Si Si2 0.854508 0.932040 0.823388
Si Si3 0.264497 0.069014 0.979059
Si Si4 0.871441 0.427398 0.673678
Si Si5 0.007760 0.768838 0.210158
Si Si6 0.268527 0.580155 0.513759
Si Si7 0.247517 0.390123 0.336681
Si Si8 0.501130 0.552097 0.621541
O O1 0.825323 0.756201 0.851204
O O2 0.789921 0.518599 0.744254
O O3 0.611742 0.631543 0.834785
O O4 0.771848 0.482536 0.917990
O O5 0.992218 0.950944 0.801500
O O6 0.821850 0.044799 0.905657
O O7 0.777502 0.976177 0.735709
O O8 0.380324 0.006931 0.929352
O O9 0.153247 0.994567 0.926479
O O10 0.261818 0.253861 0.972343
O O11 0.842299 0.245836 0.678165
O O12 0.011987 0.791761 0.318375
O O13 0.883863 0.826358 0.172234
O O14 0.031031 0.588484 0.189211
O O15 0.258829 0.451552 0.437321
O O16 0.401972 0.579908 0.547824
#
# Coordination Sequence:
#
# PCOD8157888 Si02
#       8
#     4   4   4   4   4   4   4   4
#     4  12  26  47  73 106 145 193 242 307 367 435
#     4  12  27  48  71 105 146 194 238 297 370 440
#     4  12  29  46  72 109 146 189 248 299 371 435
#     4  12  27  48  71 105 146 194 238 297 370 440
#     4  12  24  48  78 103 147 186 256 304 364 432
#     4  12  29  46  72 109 146 189 248 299 371 435
#     4  12  26  47  73 106 145 193 242 307 367 435
#     4  12  28  48  76 107 145 194 248 302 368 440
#
# _framework density 22.118952
#
# number of rings (size 3 to 8) (size 9 to 14) (size 15 to 20)
#    0.000    0.000    5.000    3.000   10.500    0.000 
#    0.000    0.000    0.000    0.000    0.000    0.000 
#    0.000    0.000    0.000    0.000    0.000    0.000 
#
# Total GULP energy -397092.234505 kJ/mol
# GULP energy per Si atom -12409.132328 kJ/mol
# Density = 2.206861 g / cm^3
# Si number density = 22.118952 Si / 1000 Ang^3
#
#
#
# Elastic Constant Matrix: (Units=GPa)
#
#
# Indices 1 2 3 4 5 6 
#
# 1 108.6033 20.1509 31.8277 0.0000 0.0000 0.0000
# 2 20.1509 76.7944 13.8867 0.0000 0.0000 0.0000
# 3 31.8277 13.8867 101.6362 0.0000 0.0000 0.0000
# 4 0.0000 0.0000 0.0000 46.1510 0.0000 0.0000
# 5 0.0000 0.0000 0.0000 0.0000 29.6705 0.0000
# 6 0.0000 0.0000 0.0000 0.0000 0.0000 29.8278
#
#
#
# Elastic Compliance Matrix: (Units=1/GPa)
#
#
# Indices 1 2 3 4 5 6 
#
# 1 0.010493 -0.002214 -0.002983 0.000000 0.000000 0.000000
# 2 -0.002214 0.013819 -0.001195 0.000000 0.000000 0.000000
# 3 -0.002983 -0.001195 0.010937 0.000000 0.000000 0.000000
# 4 0.000000 0.000000 0.000000 0.021668 0.000000 0.000000
# 5 0.000000 0.000000 0.000000 0.000000 0.033704 0.000000
# 6 0.000000 0.000000 0.000000 0.000000 0.000000 0.033526
#
#
# Mechanical properties :
#
#
# Convention : Reuss Voigt Hill
#
# Bulk Modulus (GPa) = 44.51556 46.52941 45.52248
# Shear Modulus (GPa) = 34.62180 35.87442 35.24811
#
# Velocity S-wave (km/s) = 3.96062 4.03163 3.99629
# Velocity P-wave (km/s) = 6.40973 6.53864 6.47450
#
# Compressibility (1/GPa) = 0.02246405
#
# Stress axis : x y z
#
# Youngs Moduli (GPa) = 95.30226 72.36543 91.43676
#
# Poissons Ratio (x) = 0.16021 0.27279
# Poissons Ratio (y) = 0.21099 0.10925
# Poissons Ratio (z) = 0.28433 0.08646
#
# Static dielectric constant tensor:
#      x y z
#    x 4.068670 0.000000 0.000000 
#    y 0.000000 4.099860 0.000000 
#    z 0.000000 0.000000 4.027840 
# 
# 
# High freq. dielectric constant tensor:
#      x y z
#    x 1.884030 0.000000 0.000000 
#    y 0.000000 1.880440 0.000000 
#    z 0.000000 0.000000 1.878150 
# 
# From -- ./inp_files/6153.got.cif
#   From: 2010.03.12/outbox.cif.g09.slc.cpg/sg19_4_cif.got.tgz:6153.got - 2010.04.10 18:59:41.
