data_PCOD8157292
_publ_section_title
;
Structure prediction by ZEFSAII (Michael W. Deem and Ramdas Pophale) SiO2 
 PCOD8157292
Probable space group: P 21 21 21
;
_chemical_formula_sum "Si O2"
_cell_formula_units_Z 32
_cell_length_a 13.994137
_cell_length_b 13.807224
_cell_length_c 8.103522
_cell_angle_alpha 90.000000
_cell_angle_beta 90.000000
_cell_angle_gamma 90.000000
_cell_volume 1565.764014
_symmetry_space_group_name_H-M "P 21 21 21"
_symmetry_group_IT_number 19
_symmetry_cell_setting 'orthorhombic'
loop_
_space_group_symop_operation_xyz
x,y,z
1/2-x,-y,1/2+z
1/2+x,1/2-y,-z
-x,1/2+y,1/2-z
loop_
_atom_site_type_symbol
_atom_site_label
_atom_site_fract_x
_atom_site_fract_y
_atom_site_fract_z
Si Si1 0.116479 0.079010 0.792886
Si Si2 0.313047 0.358343 0.583437
Si Si3 0.682899 0.674594 0.718042
Si Si4 0.972594 0.219725 0.645344
Si Si5 0.101093 0.348618 0.453709
Si Si6 0.060841 0.973468 0.093171
Si Si7 0.427893 0.110727 0.104006
Si Si8 0.073352 0.456771 0.141229
O O1 0.206612 0.147206 0.767707
O O2 0.019440 0.135265 0.753200
O O3 0.125056 0.981704 0.683776
O O4 0.115300 0.053973 0.988519
O O5 0.327172 0.288933 0.742222
O O6 0.376197 0.321529 0.432049
O O7 0.203023 0.358898 0.534903
O O8 0.339602 0.469025 0.623981
O O9 0.629865 0.616119 0.862955
O O10 0.639753 0.653427 0.538987
O O11 0.943729 0.309073 0.758877
O O12 0.051021 0.247335 0.504052
O O13 0.106593 0.364290 0.253633
O O14 0.027433 0.432077 0.519486
O O15 0.015075 0.013219 0.265245
O O16 0.532497 0.081536 0.032301
#
# Coordination Sequence:
#
# PCOD8157292 Si02
#       8
#     4   4   4   4   4   4   4   4
#     4  12  22  40  68  95 126 175 204 265 331 378
#     4  12  22  42  65  96 127 170 221 264 328 388
#     4  11  23  39  65  98 128 165 216 262 318 399
#     4  12  24  41  65  95 133 165 214 274 321 385
#     4  10  22  44  63  89 132 170 211 272 318 381
#     4   9  21  44  61  88 130 167 208 264 321 377
#     4  11  22  43  64  92 132 166 214 268 321 384
#     4   9  22  41  65  85 122 176 210 265 320 380
#
# _framework density 20.437308000000002
#
# number of rings (size 3 to 8) (size 9 to 14) (size 15 to 20)
#    0.750    0.500    5.000    0.750    1.750    2.000 
#    2.250    0.000    0.000    0.000    0.000    0.000 
#    0.000    0.000    0.000    0.000    0.000    0.000 
#
# Total GULP energy -396581.042871 kJ/mol
# GULP energy per Si atom -12393.157590 kJ/mol
# Density = 2.039079 g / cm^3
# Si number density = 20.437308 Si / 1000 Ang^3
#
#
#
# Elastic Constant Matrix: (Units=GPa)
#
#
# Indices 1 2 3 4 5 6 
#
# 1 94.4539 13.0423 15.7279 0.0000 0.0000 0.0000
# 2 13.0423 59.1395 21.2956 0.0000 0.0000 0.0000
# 3 15.7279 21.2956 65.9797 0.0000 0.0000 0.0000
# 4 0.0000 0.0000 0.0000 22.6934 0.0000 0.0000
# 5 0.0000 0.0000 0.0000 0.0000 23.5401 0.0000
# 6 0.0000 0.0000 0.0000 0.0000 0.0000 31.9752
#
#
#
# Elastic Compliance Matrix: (Units=1/GPa)
#
#
# Indices 1 2 3 4 5 6 
#
# 1 0.011174 -0.001703 -0.002114 0.000000 0.000000 0.000000
# 2 -0.001703 0.019392 -0.005853 0.000000 0.000000 0.000000
# 3 -0.002114 -0.005853 0.017549 0.000000 0.000000 0.000000
# 4 0.000000 0.000000 0.000000 0.044066 0.000000 0.000000
# 5 0.000000 0.000000 0.000000 0.000000 0.042481 0.000000
# 6 0.000000 0.000000 0.000000 0.000000 0.000000 0.031274
#
#
# Mechanical properties :
#
#
# Convention : Reuss Voigt Hill
#
# Bulk Modulus (GPa) = 34.75166 35.52274 35.13720
# Shear Modulus (GPa) = 25.65826 26.94221 26.30024
#
# Velocity S-wave (km/s) = 3.54709 3.63476 3.59119
# Velocity P-wave (km/s) = 5.81522 5.91898 5.86733
#
# Compressibility (1/GPa) = 0.02877560
#
# Stress axis : x y z
#
# Youngs Moduli (GPa) = 89.49066 51.56651 56.98250
#
# Poissons Ratio (x) = 0.08782 0.12046
# Poissons Ratio (y) = 0.15241 0.33353
# Poissons Ratio (z) = 0.18918 0.30182
#
# Static dielectric constant tensor:
#      x y z
#    x 3.642580 0.000000 0.000000 
#    y 0.000000 3.598610 0.000000 
#    z 0.000000 0.000000 3.702020 
# 
# 
# High freq. dielectric constant tensor:
#      x y z
#    x 1.800750 0.000000 0.000000 
#    y 0.000000 1.786480 0.000000 
#    z 0.000000 0.000000 1.796560 
# 
# From -- ./inp_files/3977.got.cif
#   From: 2010.03.12/outbox.cif.g09.slc.cpg/sg19_2_cif.got.tgz:3977.got - 2010.04.10 18:59:41.
