data_PCOD8157736
_publ_section_title
;
Structure prediction by ZEFSAII (Michael W. Deem and Ramdas Pophale) SiO2 
 PCOD8157736
Probable space group: P 21 21 21
;
_chemical_formula_sum "Si O2"
_cell_formula_units_Z 32
_cell_length_a 6.010182
_cell_length_b 12.348758
_cell_length_c 18.274540
_cell_angle_alpha 90.000000
_cell_angle_beta 90.000000
_cell_angle_gamma 90.000000
_cell_volume 1356.304982
_symmetry_space_group_name_H-M "P 21 21 21"
_symmetry_group_IT_number 19
_symmetry_cell_setting 'orthorhombic'
loop_
_space_group_symop_operation_xyz
x,y,z
1/2-x,-y,1/2+z
1/2+x,1/2-y,-z
-x,1/2+y,1/2-z
loop_
_atom_site_type_symbol
_atom_site_label
_atom_site_fract_x
_atom_site_fract_y
_atom_site_fract_z
Si Si1 0.462544 0.815585 0.924844
Si Si2 0.637138 0.007032 0.179452
Si Si3 0.948728 0.642987 0.713693
Si Si4 0.384591 0.308700 0.732102
Si Si5 0.820377 0.697569 0.488963
Si Si6 0.385666 0.002497 0.419763
Si Si7 0.227017 0.831530 0.667750
Si Si8 0.714609 0.090466 0.533165
O O1 0.625367 0.829496 0.854985
O O2 0.239573 0.883605 0.912690
O O3 0.431049 0.687684 0.934448
O O4 0.561280 0.859554 0.000579
O O5 0.778410 0.089861 0.226953
O O6 0.386721 0.051539 0.172350
O O7 0.615497 0.891877 0.220761
O O8 0.739949 0.992666 0.099031
O O9 0.724480 0.692565 0.748764
O O10 0.917389 0.536688 0.663605
O O11 0.044712 0.736794 0.662330
O O12 0.637393 0.305544 0.758958
O O13 0.568963 0.755572 0.488144
O O14 0.757196 0.592934 0.537396
O O15 0.875539 0.669268 0.404976
O O16 0.608260 0.024160 0.466055
#
# Coordination Sequence:
#
# PCOD8157736 Si02
#       8
#     4   4   4   4   4   4   4   4
#     4  12  27  46  72 104 147 199 255 321 391 476
#     4  11  26  44  72 107 145 196 250 320 392 466
#     4  11  25  45  72 105 144 192 252 317 389 472
#     4  11  26  46  73 106 150 192 259 319 394 473
#     4  12  27  45  76 113 155 199 259 326 398 479
#     4  12  26  46  74 104 151 201 255 319 404 472
#     4  11  24  44  69 104 146 190 248 318 389 469
#     4  12  27  46  72 107 148 199 258 322 391 477
#
# _framework density 23.593513000000002
#
# number of rings (size 3 to 8) (size 9 to 14) (size 15 to 20)
#    0.000    0.500    2.500    4.500    7.000    9.000 
#    0.000    0.000    0.000    0.000    0.000    0.000 
#    0.000    0.000    0.000    0.000    0.000    0.000 
#
# Total GULP energy -396550.405202 kJ/mol
# GULP energy per Si atom -12392.200163 kJ/mol
# Density = 2.353981 g / cm^3
# Si number density = 23.593513 Si / 1000 Ang^3
#
#
#
# Elastic Constant Matrix: (Units=GPa)
#
#
# Indices 1 2 3 4 5 6 
#
# 1 91.0057 29.7310 29.6827 0.0000 0.0000 0.0000
# 2 29.7310 94.1296 32.2519 0.0000 0.0000 0.0000
# 3 29.6827 32.2519 128.8405 0.0000 0.0000 0.0000
# 4 0.0000 0.0000 0.0000 46.9798 0.0000 0.0000
# 5 0.0000 0.0000 0.0000 0.0000 37.3824 0.0000
# 6 0.0000 0.0000 0.0000 0.0000 0.0000 39.4402
#
#
#
# Elastic Compliance Matrix: (Units=1/GPa)
#
#
# Indices 1 2 3 4 5 6 
#
# 1 0.012757 -0.003306 -0.002111 0.000000 0.000000 0.000000
# 2 -0.003306 0.012477 -0.002362 0.000000 0.000000 0.000000
# 3 -0.002111 -0.002362 0.008839 0.000000 0.000000 0.000000
# 4 0.000000 0.000000 0.000000 0.021286 0.000000 0.000000
# 5 0.000000 0.000000 0.000000 0.000000 0.026751 0.000000
# 6 0.000000 0.000000 0.000000 0.000000 0.000000 0.025355
#
#
# Mechanical properties :
#
#
# Convention : Reuss Voigt Hill
#
# Bulk Modulus (GPa) = 54.00980 55.25633 54.63307
# Shear Modulus (GPa) = 38.70149 39.58118 39.14133
#
# Velocity S-wave (km/s) = 4.05451 4.10033 4.07749
# Velocity P-wave (km/s) = 6.69778 6.77406 6.73603
#
# Compressibility (1/GPa) = 0.01851516
#
# Stress axis : x y z
#
# Youngs Moduli (GPa) = 78.38831 80.14747 113.13282
#
# Poissons Ratio (x) = 0.26496 0.23888
# Poissons Ratio (y) = 0.25914 0.26718
# Poissons Ratio (z) = 0.16551 0.18928
#
# Static dielectric constant tensor:
#      x y z
#    x 4.217200 0.000000 0.000000 
#    y 0.000000 4.289350 0.000000 
#    z 0.000000 0.000000 4.357450 
# 
# 
# High freq. dielectric constant tensor:
#      x y z
#    x 1.924280 0.000000 0.000000 
#    y 0.000000 1.940750 0.000000 
#    z 0.000000 0.000000 1.955040 
# 
# From -- ./inp_files/6941.got.cif
#   From: 2010.03.12/outbox.cif.g09.slc.cpg/sg19_4_cif.got.tgz:6941.got - 2010.04.10 18:59:41.
