data_PCOD8157488
_publ_section_title
;
Structure prediction by ZEFSAII (Michael W. Deem and Ramdas Pophale) SiO2 
 PCOD8157488
Probable space group: P 21 21 21
;
_chemical_formula_sum "Si O2"
_cell_formula_units_Z 32
_cell_length_a 14.949165
_cell_length_b 8.933993
_cell_length_c 11.462311
_cell_angle_alpha 90.000000
_cell_angle_beta 90.000000
_cell_angle_gamma 90.000000
_cell_volume 1530.857376
_symmetry_space_group_name_H-M "P 21 21 21"
_symmetry_group_IT_number 19
_symmetry_cell_setting 'orthorhombic'
loop_
_space_group_symop_operation_xyz
x,y,z
1/2-x,-y,1/2+z
1/2+x,1/2-y,-z
-x,1/2+y,1/2-z
loop_
_atom_site_type_symbol
_atom_site_label
_atom_site_fract_x
_atom_site_fract_y
_atom_site_fract_z
Si Si1 0.825550 0.348746 0.260664
Si Si2 0.125301 0.416343 0.525908
Si Si3 0.327973 0.636957 0.276901
Si Si4 0.247719 0.163668 0.158481
Si Si5 0.604890 0.740025 0.517838
Si Si6 0.592820 0.307404 0.021390
Si Si7 0.435093 0.150080 0.517646
Si Si8 0.210125 0.663787 0.887953
O O1 0.763816 0.203566 0.272833
O O2 0.771048 0.497705 0.294393
O O3 0.863728 0.354412 0.130031
O O4 0.907404 0.326929 0.348741
O O5 0.118574 0.427193 0.666188
O O6 0.126389 0.582951 0.471036
O O7 0.212072 0.324192 0.484530
O O8 0.040653 0.316454 0.485708
O O9 0.378999 0.766413 0.347259
O O10 0.313981 0.508470 0.371606
O O11 0.252230 0.273815 0.267167
O O12 0.342623 0.167247 0.091201
O O13 0.169800 0.227412 0.073750
O O14 0.498194 0.717729 0.507608
O O15 0.577429 0.482798 0.027153
O O16 0.378587 0.253478 0.431098
#
# Coordination Sequence:
#
# PCOD8157488 Si02
#       8
#     4   4   4   4   4   4   4   4
#     4  11  23  43  70  92 135 182 219 281 335 399
#     4  11  24  43  69 100 135 178 225 279 344 407
#     4  12  23  43  70  93 136 180 221 280 344 398
#     4  11  24  42  67  98 131 176 225 274 337 403
#     4  11  23  46  69  98 136 180 221 280 346 401
#     4  10  24  45  67  96 135 175 226 279 338 402
#     4  10  25  44  64 101 136 175 233 280 333 408
#     4  12  24  42  66  98 134 176 222 281 335 406
#
# _framework density 20.903317999999999
#
# number of rings (size 3 to 8) (size 9 to 14) (size 15 to 20)
#    0.000    1.000    5.000    0.750    5.250    0.000 
#    4.500    0.000    0.000    0.000    0.000    0.000 
#    0.000    0.000    0.000    0.000    0.000    0.000 
#
# Total GULP energy -396875.951885 kJ/mol
# GULP energy per Si atom -12402.373496 kJ/mol
# Density = 2.085574 g / cm^3
# Si number density = 20.903318 Si / 1000 Ang^3
#
#
#
# Elastic Constant Matrix: (Units=GPa)
#
#
# Indices 1 2 3 4 5 6 
#
# 1 125.3425 45.1513 46.9354 0.0000 0.0000 0.0000
# 2 45.1513 69.6965 39.6023 0.0000 0.0000 0.0000
# 3 46.9354 39.6023 128.6581 0.0000 0.0000 0.0000
# 4 0.0000 0.0000 0.0000 42.2998 0.0000 0.0000
# 5 0.0000 0.0000 0.0000 0.0000 31.1730 0.0000
# 6 0.0000 0.0000 0.0000 0.0000 0.0000 31.0649
#
#
#
# Elastic Compliance Matrix: (Units=1/GPa)
#
#
# Indices 1 2 3 4 5 6 
#
# 1 0.010890 -0.005814 -0.002183 0.000000 0.000000 0.000000
# 2 -0.005814 0.020494 -0.004187 0.000000 0.000000 0.000000
# 3 -0.002183 -0.004187 0.009858 0.000000 0.000000 0.000000
# 4 0.000000 0.000000 0.000000 0.023641 0.000000 0.000000
# 5 0.000000 0.000000 0.000000 0.000000 0.032079 0.000000
# 6 0.000000 0.000000 0.000000 0.000000 0.000000 0.032191
#
#
# Mechanical properties :
#
#
# Convention : Reuss Voigt Hill
#
# Bulk Modulus (GPa) = 59.26785 65.23057 62.24921
# Shear Modulus (GPa) = 31.41780 33.70808 32.56294
#
# Velocity S-wave (km/s) = 3.88107 4.02004 3.95116
# Velocity P-wave (km/s) = 6.96408 7.26782 7.11757
#
# Compressibility (1/GPa) = 0.01687255
#
# Stress axis : x y z
#
# Youngs Moduli (GPa) = 91.82647 48.79514 101.44311
#
# Poissons Ratio (x) = 0.28372 0.22145
# Poissons Ratio (y) = 0.53392 0.42475
# Poissons Ratio (z) = 0.20046 0.20431
#
# Static dielectric constant tensor:
#      x y z
#    x 4.048760 0.000000 0.000000 
#    y 0.000000 3.658870 0.000000 
#    z 0.000000 0.000000 3.813200 
# 
# 
# High freq. dielectric constant tensor:
#      x y z
#    x 1.824270 0.000000 0.000000 
#    y 0.000000 1.810710 0.000000 
#    z 0.000000 0.000000 1.830340 
# 
# From -- ./inp_files/3937.got.cif
#   From: 2010.03.12/outbox.cif.g09.slc.cpg/sg19_2_cif.got.tgz:3937.got - 2010.04.10 18:59:41.
