data_PCOD8157485
_publ_section_title
;
Structure prediction by ZEFSAII (Michael W. Deem and Ramdas Pophale) SiO2 
 PCOD8157485
Probable space group: P 21 21 21
;
_chemical_formula_sum "Si O2"
_cell_formula_units_Z 20
_cell_length_a 27.855691
_cell_length_b 5.154277
_cell_length_c 4.883566
_cell_angle_alpha 90.000000
_cell_angle_beta 90.000000
_cell_angle_gamma 90.000000
_cell_volume 701.162615
_symmetry_space_group_name_H-M "P 21 21 21"
_symmetry_group_IT_number 19
_symmetry_cell_setting 'orthorhombic'
loop_
_space_group_symop_operation_xyz
x,y,z
1/2-x,-y,1/2+z
1/2+x,1/2-y,-z
-x,1/2+y,1/2-z
loop_
_atom_site_type_symbol
_atom_site_label
_atom_site_fract_x
_atom_site_fract_y
_atom_site_fract_z
Si Si1 0.157489 0.290120 0.345672
Si Si2 0.921975 0.162325 0.273854
Si Si3 0.643656 0.559371 0.153887
Si Si4 0.243194 0.831140 0.970537
Si Si5 0.995441 0.432057 0.925869
O O1 0.122666 0.536286 0.393169
O O2 0.141617 0.046827 0.537287
O O3 0.213563 0.372919 0.400665
O O4 0.151742 0.193780 0.035698
O O5 0.904888 0.294962 0.559768
O O6 0.945331 0.375815 0.076247
O O7 0.961887 0.947295 0.349312
O O8 0.688922 0.760019 0.105559
O O9 0.253841 0.088864 0.787365
O O10 0.989131 0.708913 0.783072
#
# Coordination Sequence:
#
# PCOD8157485 Si02
#       5
#     4   4   4   4   4
#     4  10  24  44  77 113 160 208 265 327 400 483
#     4  12  30  48  78 120 152 218 274 336 412 486
#     4  10  24  44  77 113 160 208 265 327 400 483
#     4   8  16  40  68 108 156 206 254 320 392 474
#     4  12  32  54  82 114 166 214 278 350 416 482
#
# _framework density 28.524054
#
# number of rings (size 3 to 8) (size 9 to 14) (size 15 to 20)
#    0.000    1.600    0.000    1.200   14.000    0.000 
#    0.000   12.000    0.000    0.000    0.000    0.000 
#    0.000    0.000    0.000    0.000    0.000    0.000 
#
# Total GULP energy -248038.490407 kJ/mol
# GULP energy per Si atom -12401.924520 kJ/mol
# Density = 2.845913 g / cm^3
# Si number density = 28.524054 Si / 1000 Ang^3
#
#
#
# Elastic Constant Matrix: (Units=GPa)
#
#
# Indices 1 2 3 4 5 6 
#
# 1 134.5748 19.5621 7.1184 0.0000 0.0000 0.0000
# 2 19.5621 49.7659 -5.0811 0.0000 0.0000 0.0000
# 3 7.1184 -5.0811 81.1290 0.0000 0.0000 0.0000
# 4 0.0000 0.0000 0.0000 28.0357 0.0000 0.0000
# 5 0.0000 0.0000 0.0000 0.0000 44.2277 0.0000
# 6 0.0000 0.0000 0.0000 0.0000 0.0000 53.4193
#
#
#
# Elastic Compliance Matrix: (Units=1/GPa)
#
#
# Indices 1 2 3 4 5 6 
#
# 1 0.007946 -0.003215 -0.000899 0.000000 0.000000 0.000000
# 2 -0.003215 0.021524 0.001630 0.000000 0.000000 0.000000
# 3 -0.000899 0.001630 0.012507 0.000000 0.000000 0.000000
# 4 0.000000 0.000000 0.000000 0.035669 0.000000 0.000000
# 5 0.000000 0.000000 0.000000 0.000000 0.022610 0.000000
# 6 0.000000 0.000000 0.000000 0.000000 0.000000 0.018720
#
#
# Mechanical properties :
#
#
# Convention : Reuss Voigt Hill
#
# Bulk Modulus (GPa) = 27.01962 34.29650 30.65806
# Shear Modulus (GPa) = 36.68933 41.39455 39.04194
#
# Velocity S-wave (km/s) = 3.59034 3.81362 3.70366
# Velocity P-wave (km/s) = 5.16532 5.60726 5.39082
#
# Compressibility (1/GPa) = 0.03701014
#
# Stress axis : x y z
#
# Youngs Moduli (GPa) = 125.85449 46.45915 79.95529
#
# Poissons Ratio (x) = 0.14937 0.07184
# Poissons Ratio (y) = 0.40463 -0.13034
# Poissons Ratio (z) = 0.11308 -0.07574
#
# Static dielectric constant tensor:
#      x y z
#    x 5.746620 0.000000 0.000000 
#    y 0.000000 4.489480 0.000000 
#    z 0.000000 0.000000 5.146690 
# 
# 
# High freq. dielectric constant tensor:
#      x y z
#    x 2.182900 0.000000 0.000000 
#    y 0.000000 2.119070 0.000000 
#    z 0.000000 0.000000 2.166910 
# 
# From -- ./inp_files/2218.got.cif
#   From: 2010.03.12/outbox.cif.g09.slc.cpg/sg19_2_cif.got.tgz:2218.got - 2010.04.10 18:59:41.
