data_PCOD8157064
_publ_section_title
;
Structure prediction by ZEFSAII (Michael W. Deem and Ramdas Pophale) SiO2 
 PCOD8157064
Probable space group: P 21 21 21
;
_chemical_formula_sum "Si O2"
_cell_formula_units_Z 28
_cell_length_a 12.295752
_cell_length_b 11.467866
_cell_length_c 9.417057
_cell_angle_alpha 90.000000
_cell_angle_beta 90.000000
_cell_angle_gamma 90.000000
_cell_volume 1327.861881
_symmetry_space_group_name_H-M "P 21 21 21"
_symmetry_group_IT_number 19
_symmetry_cell_setting 'orthorhombic'
loop_
_space_group_symop_operation_xyz
x,y,z
1/2-x,-y,1/2+z
1/2+x,1/2-y,-z
-x,1/2+y,1/2-z
loop_
_atom_site_type_symbol
_atom_site_label
_atom_site_fract_x
_atom_site_fract_y
_atom_site_fract_z
Si Si1 0.700060 0.912454 0.608492
Si Si2 0.810158 0.151959 0.586931
Si Si3 0.753682 0.258260 0.873010
Si Si4 0.138469 0.904567 0.397253
Si Si5 0.958719 0.637457 0.002445
Si Si6 0.012627 0.216308 0.198122
Si Si7 0.777727 0.730919 0.817041
O O1 0.730416 0.865190 0.452912
O O2 0.574264 0.884146 0.650898
O O3 0.780872 0.845435 0.717321
O O4 0.719905 0.050893 0.608821
O O5 0.804061 0.240237 0.718111
O O6 0.792383 0.235815 0.453705
O O7 0.928490 0.092500 0.566283
O O8 0.629930 0.304401 0.870621
O O9 0.819856 0.358750 0.951689
O O10 0.026504 0.841264 0.357400
O O11 0.225059 0.877281 0.271018
O O12 0.113623 0.039504 0.418879
O O13 0.980148 0.727277 0.130747
O O14 0.897158 0.696635 0.870293
#
# Coordination Sequence:
#
# PCOD8157064 Si02
#       7
#     4   4   4   4   4   4   4
#     4  10  23  42  65  97 132 167 220 275 333 398
#     4  12  22  41  68  99 124 174 226 276 323 398
#     4  10  22  40  66  91 133 162 221 274 327 395
#     4  10  25  44  64  94 137 172 216 277 333 400
#     4  12  24  39  71  93 132 177 219 269 340 389
#     4  10  21  41  65  92 125 180 207 267 342 387
#     4  10  23  43  61  98 133 168 223 272 322 409
#
# _framework density 21.08653
#
# number of rings (size 3 to 8) (size 9 to 14) (size 15 to 20)
#    0.000    1.714    4.286    1.714    4.000    5.714 
#    0.000    0.000    3.143    0.000    0.000    0.000 
#    0.000    0.000    0.000    0.000    0.000    0.000 
#
# Total GULP energy -347066.844716 kJ/mol
# GULP energy per Si atom -12395.244454 kJ/mol
# Density = 2.103854 g / cm^3
# Si number density = 21.086530 Si / 1000 Ang^3
#
#
#
# Elastic Constant Matrix: (Units=GPa)
#
#
# Indices 1 2 3 4 5 6 
#
# 1 95.9713 30.4786 27.1662 0.0000 0.0000 0.0000
# 2 30.4786 56.3078 23.5331 0.0000 0.0000 0.0000
# 3 27.1662 23.5331 84.6641 0.0000 0.0000 0.0000
# 4 0.0000 0.0000 0.0000 26.7696 0.0000 0.0000
# 5 0.0000 0.0000 0.0000 0.0000 43.1445 0.0000
# 6 0.0000 0.0000 0.0000 0.0000 0.0000 16.0629
#
#
#
# Elastic Compliance Matrix: (Units=1/GPa)
#
#
# Indices 1 2 3 4 5 6 
#
# 1 0.013039 -0.006007 -0.002514 0.000000 0.000000 0.000000
# 2 -0.006007 0.022861 -0.004427 0.000000 0.000000 0.000000
# 3 -0.002514 -0.004427 0.013849 0.000000 0.000000 0.000000
# 4 0.000000 0.000000 0.000000 0.037356 0.000000 0.000000
# 5 0.000000 0.000000 0.000000 0.000000 0.023178 0.000000
# 6 0.000000 0.000000 0.000000 0.000000 0.000000 0.062255
#
#
# Mechanical properties :
#
#
# Convention : Reuss Voigt Hill
#
# Bulk Modulus (GPa) = 41.92425 44.36655 43.14540
# Shear Modulus (GPa) = 24.22648 27.57973 25.90310
#
# Velocity S-wave (km/s) = 3.39323 3.62046 3.50868
# Velocity P-wave (km/s) = 5.93946 6.20990 6.07618
#
# Compressibility (1/GPa) = 0.02385255
#
# Stress axis : x y z
#
# Youngs Moduli (GPa) = 76.69169 43.74204 72.20939
#
# Poissons Ratio (x) = 0.26277 0.18155
# Poissons Ratio (y) = 0.46070 0.31967
# Poissons Ratio (z) = 0.19282 0.19364
#
# Static dielectric constant tensor:
#      x y z
#    x 3.901410 0.000000 0.000000 
#    y 0.000000 3.421360 0.000000 
#    z 0.000000 0.000000 4.023250 
# 
# 
# High freq. dielectric constant tensor:
#      x y z
#    x 1.826770 0.000000 0.000000 
#    y 0.000000 1.801960 0.000000 
#    z 0.000000 0.000000 1.842880 
# 
# From -- ./inp_files/3434.got.cif
#   From: 2010.03.12/outbox.cif.g09.slc.cpg/sg19_2_cif.got.tgz:3434.got - 2010.04.10 18:59:41.
