data_PCOD8157499
_publ_section_title
;
Structure prediction by ZEFSAII (Michael W. Deem and Ramdas Pophale) SiO2 
 PCOD8157499
Probable space group: P 21 21 21
;
_chemical_formula_sum "Si O2"
_cell_formula_units_Z 20
_cell_length_a 14.479048
_cell_length_b 7.286503
_cell_length_c 7.710285
_cell_angle_alpha 90.000000
_cell_angle_beta 90.000000
_cell_angle_gamma 90.000000
_cell_volume 813.447610
_symmetry_space_group_name_H-M "P 21 21 21"
_symmetry_group_IT_number 19
_symmetry_cell_setting 'orthorhombic'
loop_
_space_group_symop_operation_xyz
x,y,z
1/2-x,-y,1/2+z
1/2+x,1/2-y,-z
-x,1/2+y,1/2-z
loop_
_atom_site_type_symbol
_atom_site_label
_atom_site_fract_x
_atom_site_fract_y
_atom_site_fract_z
Si Si1 0.520769 0.529280 0.052860
Si Si2 0.881517 0.714894 0.788915
Si Si3 0.366547 0.368246 0.866564
Si Si4 0.805335 0.860687 0.428801
Si Si5 0.808539 0.451830 0.334597
O O1 0.546006 0.444215 0.237701
O O2 0.438124 0.673955 0.068286
O O3 0.474179 0.381155 0.920818
O O4 0.616810 0.608468 0.979540
O O5 0.857542 0.828071 0.612490
O O6 0.791966 0.629362 0.882255
O O7 0.350427 0.481573 0.688445
O O8 0.342197 0.151463 0.840012
O O9 0.298351 0.430993 0.023887
O O10 0.804411 0.671562 0.317444
#
# Coordination Sequence:
#
# PCOD8157499 Si02
#       5
#     4   4   4   4   4
#     4  11  26  45  74 108 141 199 244 300 367 439
#     4  10  25  48  70 106 144 193 245 306 366 430
#     4  11  24  44  75 107 144 194 247 296 364 435
#     4  10  24  46  73 105 149 190 243 303 363 428
#     4  10  25  47  70 108 146 190 237 303 362 426
#
# _framework density 24.586708000000002
#
# number of rings (size 3 to 8) (size 9 to 14) (size 15 to 20)
#    0.000    1.600    0.000    2.400   11.200    9.600 
#    0.000    0.000    0.000    0.000    0.000    0.000 
#    0.000    0.000    0.000    0.000    0.000    0.000 
#
# Total GULP energy -247852.366049 kJ/mol
# GULP energy per Si atom -12392.618302 kJ/mol
# Density = 2.453075 g / cm^3
# Si number density = 24.586708 Si / 1000 Ang^3
#
#
#
# Elastic Constant Matrix: (Units=GPa)
#
#
# Indices 1 2 3 4 5 6 
#
# 1 144.7618 44.5220 37.0697 0.0000 0.0000 0.0000
# 2 44.5220 77.2534 21.3425 0.0000 0.0000 0.0000
# 3 37.0697 21.3425 57.7641 0.0000 0.0000 0.0000
# 4 0.0000 0.0000 0.0000 36.7855 0.0000 0.0000
# 5 0.0000 0.0000 0.0000 0.0000 35.1036 0.0000
# 6 0.0000 0.0000 0.0000 0.0000 0.0000 33.0971
#
#
#
# Elastic Compliance Matrix: (Units=1/GPa)
#
#
# Indices 1 2 3 4 5 6 
#
# 1 0.009322 -0.004142 -0.004452 0.000000 0.000000 0.000000
# 2 -0.004142 0.016257 -0.003348 0.000000 0.000000 0.000000
# 3 -0.004452 -0.003348 0.021406 0.000000 0.000000 0.000000
# 4 0.000000 0.000000 0.000000 0.027185 0.000000 0.000000
# 5 0.000000 0.000000 0.000000 0.000000 0.028487 0.000000
# 6 0.000000 0.000000 0.000000 0.000000 0.000000 0.030214
#
#
# Mechanical properties :
#
#
# Convention : Reuss Voigt Hill
#
# Bulk Modulus (GPa) = 43.29045 53.96085 48.62565
# Shear Modulus (GPa) = 30.40353 32.78692 31.59523
#
# Velocity S-wave (km/s) = 3.52032 3.65570 3.58865
# Velocity P-wave (km/s) = 5.84543 6.30981 6.08205
#
# Compressibility (1/GPa) = 0.02309978
#
# Stress axis : x y z
#
# Youngs Moduli (GPa) = 107.27424 61.51301 46.71659
#
# Poissons Ratio (x) = 0.25482 0.20797
# Poissons Ratio (y) = 0.44438 0.15641
# Poissons Ratio (z) = 0.47756 0.20595
#
# Static dielectric constant tensor:
#      x y z
#    x 4.621810 0.000000 0.000000 
#    y 0.000000 4.463520 0.000000 
#    z 0.000000 0.000000 4.129760 
# 
# 
# High freq. dielectric constant tensor:
#      x y z
#    x 1.996670 0.000000 0.000000 
#    y 0.000000 1.970040 0.000000 
#    z 0.000000 0.000000 1.957840 
# 
# From -- ./inp_files/3288.got.cif
#   From: 2010.03.12/outbox.cif.g09.slc.cpg/sg19_2_cif.got.tgz:3288.got - 2010.04.10 18:59:41.
