data_PCOD8157122
_publ_section_title
;
Structure prediction by ZEFSAII (Michael W. Deem and Ramdas Pophale) SiO2 
 PCOD8157122
Probable space group: P 21 21 21
;
_chemical_formula_sum "Si O2"
_cell_formula_units_Z 28
_cell_length_a 11.493374
_cell_length_b 10.656521
_cell_length_c 9.684177
_cell_angle_alpha 90.000000
_cell_angle_beta 90.000000
_cell_angle_gamma 90.000000
_cell_volume 1186.112008
_symmetry_space_group_name_H-M "P 21 21 21"
_symmetry_group_IT_number 19
_symmetry_cell_setting 'orthorhombic'
loop_
_space_group_symop_operation_xyz
x,y,z
1/2-x,-y,1/2+z
1/2+x,1/2-y,-z
-x,1/2+y,1/2-z
loop_
_atom_site_type_symbol
_atom_site_label
_atom_site_fract_x
_atom_site_fract_y
_atom_site_fract_z
Si Si1 0.289596 0.890844 0.176802
Si Si2 0.741854 0.815815 0.035055
Si Si3 0.589131 0.219097 0.784416
Si Si4 0.313701 0.695494 0.419438
Si Si5 0.952740 0.044582 0.664585
Si Si6 0.112982 0.538674 0.534017
Si Si7 0.446037 0.989886 0.703108
O O1 0.304648 0.808559 0.313137
O O2 0.409992 0.957016 0.134768
O O3 0.193582 0.997228 0.202656
O O4 0.243182 0.814164 0.044857
O O5 0.806315 0.814986 0.182350
O O6 0.608327 0.855409 0.062360
O O7 0.803347 0.919399 0.937875
O O8 0.500819 0.101415 0.795689
O O9 0.527282 0.349876 0.736264
O O10 0.636819 0.247353 0.936809
O O11 0.401818 0.593361 0.357422
O O12 0.184731 0.640441 0.444981
O O13 0.929271 0.091851 0.820338
O O14 0.999395 0.496316 0.449668
#
# Coordination Sequence:
#
# PCOD8157122 Si02
#       7
#     4   4   4   4   4   4   4
#     4  12  27  43  71 108 146 191 242 315 363 446
#     4  10  24  42  71 100 142 187 246 295 370 427
#     4  11  25  47  73 106 144 196 240 310 361 448
#     4  11  24  46  75 104 142 196 254 296 383 435
#     4  11  24  44  74 103 148 192 247 305 376 439
#     4  10  21  46  70 102 140 196 243 307 356 451
#     4  11  27  46  74 107 152 188 252 300 377 436
#
# _framework density 23.606536999999999
#
# number of rings (size 3 to 8) (size 9 to 14) (size 15 to 20)
#    0.000    1.143    2.857    1.714    6.000    4.571 
#    2.571    0.000    0.000    0.000    0.000    0.000 
#    0.000    0.000    0.000    0.000    0.000    0.000 
#
# Total GULP energy -347298.358708 kJ/mol
# GULP energy per Si atom -12403.512811 kJ/mol
# Density = 2.355281 g / cm^3
# Si number density = 23.606537 Si / 1000 Ang^3
#
#
#
# Elastic Constant Matrix: (Units=GPa)
#
#
# Indices 1 2 3 4 5 6 
#
# 1 137.8794 40.5786 29.0924 0.0000 0.0000 0.0000
# 2 40.5786 112.1516 12.1015 0.0000 0.0000 0.0000
# 3 29.0924 12.1015 88.1003 0.0000 0.0000 0.0000
# 4 0.0000 0.0000 0.0000 29.2251 0.0000 0.0000
# 5 0.0000 0.0000 0.0000 0.0000 23.9476 0.0000
# 6 0.0000 0.0000 0.0000 0.0000 0.0000 28.7038
#
#
#
# Elastic Compliance Matrix: (Units=1/GPa)
#
#
# Indices 1 2 3 4 5 6 
#
# 1 0.008609 -0.002850 -0.002451 0.000000 0.000000 0.000000
# 2 -0.002850 0.009994 -0.000432 0.000000 0.000000 0.000000
# 3 -0.002451 -0.000432 0.012219 0.000000 0.000000 0.000000
# 4 0.000000 0.000000 0.000000 0.034217 0.000000 0.000000
# 5 0.000000 0.000000 0.000000 0.000000 0.041758 0.000000
# 6 0.000000 0.000000 0.000000 0.000000 0.000000 0.034839
#
#
# Mechanical properties :
#
#
# Convention : Reuss Voigt Hill
#
# Bulk Modulus (GPa) = 51.66297 55.74181 53.70239
# Shear Modulus (GPa) = 31.33724 33.46590 32.40157
#
# Velocity S-wave (km/s) = 3.64741 3.76926 3.70884
# Velocity P-wave (km/s) = 6.29847 6.52742 6.41397
#
# Compressibility (1/GPa) = 0.01935622
#
# Stress axis : x y z
#
# Youngs Moduli (GPa) = 116.16026 100.05631 81.83682
#
# Poissons Ratio (x) = 0.28519 0.20060
# Poissons Ratio (y) = 0.33109 0.03532
# Poissons Ratio (z) = 0.28474 0.04318
#
# Static dielectric constant tensor:
#      x y z
#    x 4.251020 0.000000 0.000000 
#    y 0.000000 4.158100 0.000000 
#    z 0.000000 0.000000 4.122620 
# 
# 
# High freq. dielectric constant tensor:
#      x y z
#    x 1.937010 0.000000 0.000000 
#    y 0.000000 1.929720 0.000000 
#    z 0.000000 0.000000 1.936160 
# 
# From -- ./inp_files/3449.got.cif
#   From: 2010.03.12/outbox.cif.g09.slc.cpg/sg19_2_cif.got.tgz:3449.got - 2010.04.10 18:59:41.
