data_PCOD8157997
_publ_section_title
;
Structure prediction by ZEFSAII (Michael W. Deem and Ramdas Pophale) SiO2 
 PCOD8157997
Probable space group: C 2 2 21
;
_chemical_formula_sum "Si O2"
_cell_formula_units_Z 48
_cell_length_a 14.918903
_cell_length_b 16.247522
_cell_length_c 11.227792
_cell_angle_alpha 90.000000
_cell_angle_beta 90.000000
_cell_angle_gamma 90.000000
_cell_volume 2721.562940
_symmetry_space_group_name_H-M "C 2 2 21"
_symmetry_group_IT_number 20
_symmetry_cell_setting 'orthorhombic'
loop_
_space_group_symop_operation_xyz
x,y,z
-x,-y,1/2+z
x,-y,-z
-x,y,1/2-z
1/2+x,1/2+y,z
1/2-x,1/2-y,1/2+z
1/2+x,1/2-y,-z
1/2-x,1/2+y,1/2-z
loop_
_atom_site_type_symbol
_atom_site_label
_atom_site_fract_x
_atom_site_fract_y
_atom_site_fract_z
Si Si1 0.223759 0.954628 0.887591
Si Si2 0.598554 0.609722 0.303592
Si Si3 0.676439 0.937542 0.199666
Si Si4 0.803286 0.000000 0.000000
Si Si5 0.590624 0.206785 0.682399
Si Si6 0.903406 0.405857 0.962938
Si Si7 0.000000 0.539416 0.250000
O O1 0.154632 0.901554 0.815562
O O2 0.299283 0.890682 0.932726
O O3 0.268516 0.025033 0.807999
O O4 0.176914 0.000000 0.000000
O O5 0.500000 0.592224 0.250000
O O6 0.630595 0.550549 0.411862
O O7 0.621758 0.701166 0.350573
O O8 0.661150 0.841640 0.233256
O O9 0.735023 0.943751 0.078503
O O10 0.579176 0.982417 0.194447
O O11 0.500000 0.220862 0.750000
O O12 0.566638 0.156954 0.563480
O O13 0.965550 0.395529 0.847754
O O14 0.916699 0.500000 0.000000
#
# Coordination Sequence:
#
# PCOD8157997 Si02
#       7
#     8   8   8   4   8   8   4
#     4   9  17  35  57  80 100 147 193 217 269 338
#     4  10  24  40  59  79 107 148 197 247 284 320
#     4  10  18  32  55  85 120 140 181 223 274 347
#     4  10  24  40  58  86 106 152 202 236 270 336
#     4  11  20  34  55  87 119 145 180 230 287 336
#     4  10  17  31  55  83 120 149 179 215 274 357
#     4  10  18  28  54  88 114 160 172 206 278 358
#
# _framework density 17.636922999999999
#
# number of rings (size 3 to 8) (size 9 to 14) (size 15 to 20)
#    0.000    2.000    5.833    0.000    4.667    1.333 
#    0.000    0.000    1.833    0.000    0.000    0.000 
#    0.000    0.000    0.000    0.000    0.000    0.000 
#
# Total GULP energy -297337.627192 kJ/mol
# GULP energy per Si atom -12389.067800 kJ/mol
# Density = 1.759678 g / cm^3
# Si number density = 17.636923 Si / 1000 Ang^3
#
#
#
# Elastic Constant Matrix: (Units=GPa)
#
#
# Indices 1 2 3 4 5 6 
#
# 1 74.7738 41.1413 44.3261 0.0000 0.0000 0.0000
# 2 41.1413 94.2922 46.8908 0.0000 0.0000 0.0000
# 3 44.3261 46.8908 120.6595 0.0000 0.0000 0.0000
# 4 0.0000 0.0000 0.0000 14.7727 0.0000 0.0000
# 5 0.0000 0.0000 0.0000 0.0000 36.5485 0.0000
# 6 0.0000 0.0000 0.0000 0.0000 0.0000 17.9071
#
#
#
# Elastic Compliance Matrix: (Units=1/GPa)
#
#
# Indices 1 2 3 4 5 6 
#
# 1 0.019619 -0.006168 -0.004810 0.000000 0.000000 0.000000
# 2 -0.006168 0.015085 -0.003596 0.000000 0.000000 0.000000
# 3 -0.004810 -0.003596 0.011453 0.000000 0.000000 0.000000
# 4 0.000000 0.000000 0.000000 0.067692 0.000000 0.000000
# 5 0.000000 0.000000 0.000000 0.000000 0.027361 0.000000
# 6 0.000000 0.000000 0.000000 0.000000 0.000000 0.055844
#
#
# Mechanical properties :
#
#
# Convention : Reuss Voigt Hill
#
# Bulk Modulus (GPa) = 58.79909 61.60467 60.20188
# Shear Modulus (GPa) = 21.56365 24.33682 22.95023
#
# Velocity S-wave (km/s) = 3.50042 3.71870 3.61121
# Velocity P-wave (km/s) = 7.05325 7.31051 7.18303
#
# Compressibility (1/GPa) = 0.01700707
#
# Stress axis : x y z
#
# Youngs Moduli (GPa) = 50.97127 66.29100 87.31649
#
# Poissons Ratio (x) = 0.40888 0.42002
# Poissons Ratio (y) = 0.31439 0.31403
# Poissons Ratio (z) = 0.24519 0.23841
#
# Static dielectric constant tensor:
#      x y z
#    x 3.590190 0.000000 0.000000 
#    y 0.000000 3.147220 0.000000 
#    z 0.000000 0.000000 4.324550 
# 
# 
# High freq. dielectric constant tensor:
#      x y z
#    x 1.680140 0.000000 0.000000 
#    y 0.000000 1.651250 0.000000 
#    z 0.000000 0.000000 1.697920 
# 
# From -- ./inp_files/15061.got.cif
#   From: 2010.03.12/outbox.cif.g09.slc.cpg/sg20_8_cif.got.tgz:15061.got - 2010.04.14 01:38:04.
