data_PCOD8157600
_publ_section_title
;
Structure prediction by ZEFSAII (Michael W. Deem and Ramdas Pophale) SiO2 
 PCOD8157600
Probable space group: P 21 21 21
;
_chemical_formula_sum "Si O2"
_cell_formula_units_Z 24
_cell_length_a 13.140685
_cell_length_b 9.135578
_cell_length_c 8.582303
_cell_angle_alpha 90.000000
_cell_angle_beta 90.000000
_cell_angle_gamma 90.000000
_cell_volume 1030.286189
_symmetry_space_group_name_H-M "P 21 21 21"
_symmetry_group_IT_number 19
_symmetry_cell_setting 'orthorhombic'
loop_
_space_group_symop_operation_xyz
x,y,z
1/2-x,-y,1/2+z
1/2+x,1/2-y,-z
-x,1/2+y,1/2-z
loop_
_atom_site_type_symbol
_atom_site_label
_atom_site_fract_x
_atom_site_fract_y
_atom_site_fract_z
Si Si1 0.450266 0.193675 0.259575
Si Si2 0.859973 0.542079 0.513957
Si Si3 0.890991 0.013886 0.632740
Si Si4 0.769126 0.963661 0.904277
Si Si5 0.921099 0.165828 0.047364
Si Si6 0.282773 0.173601 0.734010
O O1 0.467037 0.346768 0.354288
O O2 0.387249 0.086779 0.367287
O O3 0.558936 0.128218 0.210093
O O4 0.393255 0.226088 0.096901
O O5 0.806299 0.474560 0.360641
O O6 0.784950 0.647300 0.610940
O O7 0.958712 0.630528 0.454756
O O8 0.845195 0.989369 0.460673
O O9 0.790269 0.043692 0.739113
O O10 0.772169 0.787151 0.883633
O O11 0.857042 0.015394 0.025547
O O12 0.887551 0.249109 0.205015
#
# Coordination Sequence:
#
# PCOD8157600 Si02
#       6
#     4   4   4   4   4   4
#     4  11  22  43  71 102 141 196 241 298 370 431
#     4  12  26  49  73 107 150 193 245 304 363 443
#     4  11  23  42  70 101 144 191 243 300 369 438
#     4  11  22  41  73 101 139 188 241 303 362 432
#     4  11  26  45  71 111 141 194 248 298 371 434
#     4  12  27  50  70 110 147 194 246 301 371 434
#
# _framework density 23.294499999999999
#
# number of rings (size 3 to 8) (size 9 to 14) (size 15 to 20)
#    0.000    0.667    6.667    2.000    0.000    1.333 
#    3.000    0.000    0.000    0.000    0.000    0.000 
#    0.000    0.000    0.000    0.000    0.000    0.000 
#
# Total GULP energy -297348.578543 kJ/mol
# GULP energy per Si atom -12389.524106 kJ/mol
# Density = 2.324148 g / cm^3
# Si number density = 23.294500 Si / 1000 Ang^3
#
#
#
# Elastic Constant Matrix: (Units=GPa)
#
#
# Indices 1 2 3 4 5 6 
#
# 1 116.7280 57.6506 50.9740 0.0000 0.0000 0.0000
# 2 57.6506 82.9917 34.0097 0.0000 0.0000 0.0000
# 3 50.9740 34.0097 84.0458 0.0000 0.0000 0.0000
# 4 0.0000 0.0000 0.0000 50.1566 0.0000 0.0000
# 5 0.0000 0.0000 0.0000 0.0000 34.7868 0.0000
# 6 0.0000 0.0000 0.0000 0.0000 0.0000 31.9539
#
#
#
# Elastic Compliance Matrix: (Units=1/GPa)
#
#
# Indices 1 2 3 4 5 6 
#
# 1 0.015149 -0.008101 -0.005909 0.000000 0.000000 0.000000
# 2 -0.008101 0.018777 -0.002685 0.000000 0.000000 0.000000
# 3 -0.005909 -0.002685 0.016569 0.000000 0.000000 0.000000
# 4 0.000000 0.000000 0.000000 0.019938 0.000000 0.000000
# 5 0.000000 0.000000 0.000000 0.000000 0.028747 0.000000
# 6 0.000000 0.000000 0.000000 0.000000 0.000000 0.031295
#
#
# Mechanical properties :
#
#
# Convention : Reuss Voigt Hill
#
# Bulk Modulus (GPa) = 58.46784 63.22604 60.84694
# Shear Modulus (GPa) = 29.48693 32.78821 31.13757
#
# Velocity S-wave (km/s) = 3.56171 3.75581 3.66005
# Velocity P-wave (km/s) = 6.48601 6.78300 6.63617
#
# Compressibility (1/GPa) = 0.01710342
#
# Stress axis : x y z
#
# Youngs Moduli (GPa) = 66.01206 53.25566 60.35441
#
# Poissons Ratio (x) = 0.43145 0.35666
# Poissons Ratio (y) = 0.53480 0.16204
# Poissons Ratio (z) = 0.39009 0.14298
#
# Static dielectric constant tensor:
#      x y z
#    x 4.129890 0.000000 0.000000 
#    y 0.000000 4.302730 0.000000 
#    z 0.000000 0.000000 4.259730 
# 
# 
# High freq. dielectric constant tensor:
#      x y z
#    x 1.907740 0.000000 0.000000 
#    y 0.000000 1.922270 0.000000 
#    z 0.000000 0.000000 1.914600 
# 
# From -- ./inp_files/3835.got.cif
#   From: 2010.03.12/outbox.cif.g09.slc.cpg/sg19_2_cif.got.tgz:3835.got - 2010.04.10 18:59:41.
