data_PCOD8157408
_publ_section_title
;
Structure prediction by ZEFSAII (Michael W. Deem and Ramdas Pophale) SiO2 
 PCOD8157408
Probable space group: P 21 21 21
;
_chemical_formula_sum "Si O2"
_cell_formula_units_Z 32
_cell_length_a 8.749351
_cell_length_b 5.232701
_cell_length_c 29.763724
_cell_angle_alpha 90.000000
_cell_angle_beta 90.000000
_cell_angle_gamma 90.000000
_cell_volume 1362.664770
_symmetry_space_group_name_H-M "P 21 21 21"
_symmetry_group_IT_number 19
_symmetry_cell_setting 'orthorhombic'
loop_
_space_group_symop_operation_xyz
x,y,z
1/2-x,-y,1/2+z
1/2+x,1/2-y,-z
-x,1/2+y,1/2-z
loop_
_atom_site_type_symbol
_atom_site_label
_atom_site_fract_x
_atom_site_fract_y
_atom_site_fract_z
Si Si1 0.065589 0.882397 0.563489
Si Si2 0.593774 0.382816 0.260129
Si Si3 0.302135 0.495831 0.569570
Si Si4 0.998724 0.707612 0.363565
Si Si5 0.077676 0.187718 0.479018
Si Si6 0.718223 0.383361 0.356524
Si Si7 0.430161 0.063591 0.771869
Si Si8 0.788621 0.182779 0.063044
O O1 0.892269 0.802130 0.561171
O O2 0.170895 0.654097 0.543150
O O3 0.092923 0.136718 0.532901
O O4 0.117100 0.915733 0.615184
O O5 0.499641 0.646246 0.260054
O O6 0.632246 0.310347 0.311197
O O7 0.747732 0.422306 0.231776
O O8 0.422740 0.691982 0.590749
O O9 0.396739 0.313603 0.535303
O O10 0.229173 0.362959 0.612783
O O11 0.888407 0.486170 0.343991
O O12 0.026729 0.912899 0.324382
O O13 0.159894 0.613985 0.385174
O O14 0.148334 0.462087 0.469400
O O15 0.162551 0.964686 0.452108
O O16 0.509434 0.290233 0.744028
#
# Coordination Sequence:
#
# PCOD8157408 Si02
#       8
#     4   4   4   4   4   4   4   4
#     4  11  27  40  73 103 144 187 238 295 356 417
#     4  12  29  49  72 109 149 183 236 306 368 430
#     4  10  23  45  71  99 143 197 230 294 356 432
#     4  10  23  44  71 101 139 186 241 289 353 431
#     4  11  25  46  69 101 147 187 242 286 352 418
#     4  11  24  47  72  99 144 192 234 284 375 424
#     4  12  25  45  78 105 136 190 242 295 349 441
#     4  11  26  44  68 107 138 184 241 299 337 425
#
# _framework density 23.4834
#
# number of rings (size 3 to 8) (size 9 to 14) (size 15 to 20)
#    0.000    1.000    2.500    2.250   10.500    0.000 
#    2.250    0.000    0.000    0.000    0.000    0.000 
#    0.000    0.000    0.000    0.000    0.000    0.000 
#
# Total GULP energy -396755.622133 kJ/mol
# GULP energy per Si atom -12398.613192 kJ/mol
# Density = 2.342995 g / cm^3
# Si number density = 23.483400 Si / 1000 Ang^3
#
#
#
# Elastic Constant Matrix: (Units=GPa)
#
#
# Indices 1 2 3 4 5 6 
#
# 1 129.2437 11.5482 19.5828 0.0000 0.0000 0.0000
# 2 11.5482 66.4598 -8.9126 0.0000 0.0000 0.0000
# 3 19.5828 -8.9126 89.5162 0.0000 0.0000 0.0000
# 4 0.0000 0.0000 0.0000 34.6978 0.0000 0.0000
# 5 0.0000 0.0000 0.0000 0.0000 23.8466 0.0000
# 6 0.0000 0.0000 0.0000 0.0000 0.0000 16.6275
#
#
#
# Elastic Compliance Matrix: (Units=1/GPa)
#
#
# Indices 1 2 3 4 5 6 
#
# 1 0.008185 -0.001685 -0.001958 0.000000 0.000000 0.000000
# 2 -0.001685 0.015597 0.001921 0.000000 0.000000 0.000000
# 3 -0.001958 0.001921 0.011791 0.000000 0.000000 0.000000
# 4 0.000000 0.000000 0.000000 0.028820 0.000000 0.000000
# 5 0.000000 0.000000 0.000000 0.000000 0.041935 0.000000
# 6 0.000000 0.000000 0.000000 0.000000 0.000000 0.060141
#
#
# Mechanical properties :
#
#
# Convention : Reuss Voigt Hill
#
# Bulk Modulus (GPa) = 31.12402 36.62848 33.87625
# Shear Modulus (GPa) = 27.68216 32.56780 30.12498
#
# Velocity S-wave (km/s) = 3.43709 3.72807 3.58553
# Velocity P-wave (km/s) = 5.38830 5.84490 5.62124
#
# Compressibility (1/GPa) = 0.03212952
#
# Stress axis : x y z
#
# Youngs Moduli (GPa) = 122.18118 64.11442 84.81143
#
# Poissons Ratio (x) = 0.10802 0.16608
# Poissons Ratio (y) = 0.20585 -0.16296
# Poissons Ratio (z) = 0.23926 -0.12319
#
# Static dielectric constant tensor:
#      x y z
#    x 4.564140 0.000000 0.000000 
#    y 0.000000 4.112200 0.000000 
#    z 0.000000 0.000000 4.420570 
# 
# 
# High freq. dielectric constant tensor:
#      x y z
#    x 1.941290 0.000000 0.000000 
#    y 0.000000 1.928240 0.000000 
#    z 0.000000 0.000000 1.936050 
# 
# From -- ./inp_files/705.got.cif
#   From: 2010.03.12/outbox.cif.g09.slc.cpg/sg19_1_cif.got.tgz:705.got - 2010.04.10 18:59:41.
