data_PCOD8157767
_publ_section_title
;
Structure prediction by ZEFSAII (Michael W. Deem and Ramdas Pophale) SiO2 
 PCOD8157767
Probable space group: P 21 21 21
;
_chemical_formula_sum "Si O2"
_cell_formula_units_Z 16
_cell_length_a 13.458147
_cell_length_b 8.885440
_cell_length_c 5.108913
_cell_angle_alpha 90.000000
_cell_angle_beta 90.000000
_cell_angle_gamma 90.000000
_cell_volume 610.931775
_symmetry_space_group_name_H-M "P 21 21 21"
_symmetry_group_IT_number 19
_symmetry_cell_setting 'orthorhombic'
loop_
_space_group_symop_operation_xyz
x,y,z
1/2-x,-y,1/2+z
1/2+x,1/2-y,-z
-x,1/2+y,1/2-z
loop_
_atom_site_type_symbol
_atom_site_label
_atom_site_fract_x
_atom_site_fract_y
_atom_site_fract_z
Si Si1 0.905925 0.422446 0.192921
Si Si2 0.301024 0.653497 0.974251
Si Si3 0.694629 0.357085 0.026982
Si Si4 0.594464 0.915844 0.812158
O O1 0.805025 0.431807 0.022611
O O2 0.882926 0.507127 0.471474
O O3 0.938172 0.251485 0.236298
O O4 0.998562 0.505866 0.052597
O O5 0.329464 0.766496 0.208184
O O6 0.189189 0.588406 0.995872
O O7 0.312101 0.738890 0.703980
O O8 0.375234 0.510315 0.950632
#
# Coordination Sequence:
#
# PCOD8157767 Si02
#       4
#     4   4   4   4
#     4  11  24  46  75 108 146 193 242 298 365 433
#     4  11  25  50  76 104 147 193 244 304 360 427
#     4  11  25  50  76 104 147 193 244 304 360 427
#     4  11  24  46  75 108 146 193 242 298 365 433
#
# _framework density 26.189505
#
# number of rings (size 3 to 8) (size 9 to 14) (size 15 to 20)
#    0.000    1.000    0.000    7.500    0.000    0.000 
#    0.000   75.000    0.000    0.000    0.000    0.000 
#    0.000    0.000    0.000    0.000    0.000    0.000 
#
# Total GULP energy -198349.381544 kJ/mol
# GULP energy per Si atom -12396.836346 kJ/mol
# Density = 2.612990 g / cm^3
# Si number density = 26.189505 Si / 1000 Ang^3
#
#
#
# Elastic Constant Matrix: (Units=GPa)
#
#
# Indices 1 2 3 4 5 6 
#
# 1 113.3345 62.2534 -1.2427 0.0000 0.0000 0.0000
# 2 62.2534 191.8428 15.8464 0.0000 0.0000 0.0000
# 3 -1.2427 15.8464 48.1444 0.0000 0.0000 0.0000
# 4 0.0000 0.0000 0.0000 40.6957 0.0000 0.0000
# 5 0.0000 0.0000 0.0000 0.0000 33.5889 0.0000
# 6 0.0000 0.0000 0.0000 0.0000 0.0000 41.1612
#
#
#
# Elastic Compliance Matrix: (Units=1/GPa)
#
#
# Indices 1 2 3 4 5 6 
#
# 1 0.010839 -0.003639 0.001478 0.000000 0.000000 0.000000
# 2 -0.003639 0.006580 -0.002260 0.000000 0.000000 0.000000
# 3 0.001478 -0.002260 0.021553 0.000000 0.000000 0.000000
# 4 0.000000 0.000000 0.000000 0.024573 0.000000 0.000000
# 5 0.000000 0.000000 0.000000 0.000000 0.029772 0.000000
# 6 0.000000 0.000000 0.000000 0.000000 0.000000 0.024295
#
#
# Mechanical properties :
#
#
# Convention : Reuss Voigt Hill
#
# Bulk Modulus (GPa) = 33.19084 56.33735 44.76409
# Shear Modulus (GPa) = 36.63101 41.52012 39.07557
#
# Velocity S-wave (km/s) = 3.74396 3.98599 3.86687
# Velocity P-wave (km/s) = 5.60273 6.53776 6.08822
#
# Compressibility (1/GPa) = 0.03012879
#
# Stress axis : x y z
#
# Youngs Moduli (GPa) = 92.26274 151.97137 46.39778
#
# Poissons Ratio (x) = 0.55305 -0.06856
# Poissons Ratio (y) = 0.33576 0.10485
# Poissons Ratio (z) = -0.13633 0.34342
#
# Static dielectric constant tensor:
#      x y z
#    x 4.790050 0.000000 0.000000 
#    y 0.000000 5.509120 0.000000 
#    z 0.000000 0.000000 4.544610 
# 
# 
# High freq. dielectric constant tensor:
#      x y z
#    x 2.050450 0.000000 0.000000 
#    y 0.000000 2.089220 0.000000 
#    z 0.000000 0.000000 2.013220 
# 
# From -- ./inp_files/1361.got.cif
#   From: 2010.03.12/outbox.cif.g09.slc.cpg/sg19_1_cif.got.tgz:1361.got - 2010.04.10 18:59:41.
