data_PCOD8157751
_publ_section_title
;
Structure prediction by ZEFSAII (Michael W. Deem and Ramdas Pophale) SiO2 
 PCOD8157751
Probable space group: P 21 21 21
;
_chemical_formula_sum "Si O2"
_cell_formula_units_Z 24
_cell_length_a 13.888737
_cell_length_b 8.202533
_cell_length_c 8.346484
_cell_angle_alpha 90.000000
_cell_angle_beta 90.000000
_cell_angle_gamma 90.000000
_cell_volume 950.855024
_symmetry_space_group_name_H-M "P 21 21 21"
_symmetry_group_IT_number 19
_symmetry_cell_setting 'orthorhombic'
loop_
_space_group_symop_operation_xyz
x,y,z
1/2-x,-y,1/2+z
1/2+x,1/2-y,-z
-x,1/2+y,1/2-z
loop_
_atom_site_type_symbol
_atom_site_label
_atom_site_fract_x
_atom_site_fract_y
_atom_site_fract_z
Si Si1 0.618734 0.595877 0.172950
Si Si2 0.041547 0.879796 0.332426
Si Si3 0.208720 0.391316 0.674852
Si Si4 0.222917 0.960978 0.142362
Si Si5 0.549002 0.961330 0.137281
Si Si6 0.389357 0.471459 0.864094
O O1 0.699627 0.603266 0.315067
O O2 0.585591 0.776366 0.128363
O O3 0.527717 0.485163 0.219540
O O4 0.668836 0.504534 0.023577
O O5 0.145822 0.949069 0.285417
O O6 0.050830 0.694836 0.390689
O O7 0.999674 0.993670 0.470814
O O8 0.967337 0.889482 0.181778
O O9 0.212613 0.202005 0.631275
O O10 0.139736 0.421677 0.827412
O O11 0.315755 0.454035 0.715299
O O12 0.167227 0.489090 0.524687
#
# Coordination Sequence:
#
# PCOD8157751 Si02
#       6
#     4   4   4   4   4   4
#     4  12  26  48  75 105 144 189 239 298 360 430
#     4  11  25  45  74 109 147 193 240 295 360 427
#     4  11  24  45  72 104 144 190 238 293 357 427
#     4  11  26  47  72 103 143 188 237 295 357 425
#     4  12  25  46  75 107 145 189 240 298 360 428
#     4  11  24  45  74 108 147 191 240 297 360 427
#
# _framework density 25.240442000000002
#
# number of rings (size 3 to 8) (size 9 to 14) (size 15 to 20)
#    0.000    0.667    0.000    8.000    0.000    6.667 
#    0.000    3.333    0.000    0.000    0.000    0.000 
#    0.000    0.000    0.000    0.000    0.000    0.000 
#
# Total GULP energy -297744.028404 kJ/mol
# GULP energy per Si atom -12406.001184 kJ/mol
# Density = 2.518299 g / cm^3
# Si number density = 25.240442 Si / 1000 Ang^3
#
#
#
# Elastic Constant Matrix: (Units=GPa)
#
#
# Indices 1 2 3 4 5 6 
#
# 1 135.8408 68.9336 37.6201 0.0000 0.0000 0.0000
# 2 68.9336 83.2039 49.9356 0.0000 0.0000 0.0000
# 3 37.6201 49.9356 81.4011 0.0000 0.0000 0.0000
# 4 0.0000 0.0000 0.0000 40.1426 0.0000 0.0000
# 5 0.0000 0.0000 0.0000 0.0000 62.9536 0.0000
# 6 0.0000 0.0000 0.0000 0.0000 0.0000 52.8546
#
#
#
# Elastic Compliance Matrix: (Units=1/GPa)
#
#
# Indices 1 2 3 4 5 6 
#
# 1 0.012746 -0.011118 0.000930 0.000000 0.000000 0.000000
# 2 -0.011118 0.028720 -0.012480 0.000000 0.000000 0.000000
# 3 0.000930 -0.012480 0.019511 0.000000 0.000000 0.000000
# 4 0.000000 0.000000 0.000000 0.024911 0.000000 0.000000
# 5 0.000000 0.000000 0.000000 0.000000 0.015885 0.000000
# 6 0.000000 0.000000 0.000000 0.000000 0.000000 0.018920
#
#
# Mechanical properties :
#
#
# Convention : Reuss Voigt Hill
#
# Bulk Modulus (GPa) = 63.93709 68.15825 66.04767
# Shear Modulus (GPa) = 29.19846 40.78725 34.99286
#
# Velocity S-wave (km/s) = 3.40488 4.02425 3.72745
# Velocity P-wave (km/s) = 6.39092 6.97531 6.68950
#
# Compressibility (1/GPa) = 0.01564037
#
# Stress axis : x y z
#
# Youngs Moduli (GPa) = 78.45645 34.81947 51.25305
#
# Poissons Ratio (x) = 0.38712 -0.04764
# Poissons Ratio (y) = 0.87226 0.63963
# Poissons Ratio (z) = -0.07293 0.43454
#
# Static dielectric constant tensor:
#      x y z
#    x 5.125040 0.000000 0.000000 
#    y 0.000000 4.258940 0.000000 
#    z 0.000000 0.000000 4.582070 
# 
# 
# High freq. dielectric constant tensor:
#      x y z
#    x 2.039250 0.000000 0.000000 
#    y 0.000000 1.986870 0.000000 
#    z 0.000000 0.000000 2.014370 
# 
# From -- ./inp_files/3839.got.cif
#   From: 2010.03.12/outbox.cif.g09.slc.cpg/sg19_2_cif.got.tgz:3839.got - 2010.04.10 18:59:41.
