data_PCOD8157494
_publ_section_title
;
Structure prediction by ZEFSAII (Michael W. Deem and Ramdas Pophale) SiO2 
 PCOD8157494
Probable space group: P 21 21 21
;
_chemical_formula_sum "Si O2"
_cell_formula_units_Z 20
_cell_length_a 9.381370
_cell_length_b 7.784964
_cell_length_c 11.962777
_cell_angle_alpha 90.000000
_cell_angle_beta 90.000000
_cell_angle_gamma 90.000000
_cell_volume 873.685002
_symmetry_space_group_name_H-M "P 21 21 21"
_symmetry_group_IT_number 19
_symmetry_cell_setting 'orthorhombic'
loop_
_space_group_symop_operation_xyz
x,y,z
1/2-x,-y,1/2+z
1/2+x,1/2-y,-z
-x,1/2+y,1/2-z
loop_
_atom_site_type_symbol
_atom_site_label
_atom_site_fract_x
_atom_site_fract_y
_atom_site_fract_z
Si Si1 0.239843 0.656603 0.507142
Si Si2 0.175998 0.201490 0.781717
Si Si3 0.135189 0.811216 0.725385
Si Si4 0.370984 0.343212 0.601881
Si Si5 0.824153 0.817538 0.088664
O O1 0.309959 0.780967 0.415410
O O2 0.150078 0.769318 0.594149
O O3 0.361947 0.547593 0.573803
O O4 0.138816 0.515665 0.443816
O O5 0.305911 0.300823 0.722802
O O6 0.028622 0.285076 0.738693
O O7 0.183398 0.003153 0.750291
O O8 0.235367 0.683353 0.796076
O O9 0.535153 0.293954 0.599103
O O10 0.278501 0.238716 0.508637
#
# Coordination Sequence:
#
# PCOD8157494 Si02
#       5
#     4   4   4   4   4
#     4  10  26  44  74 100 142 182 234 288 346 414
#     4  12  27  45  71 105 143 185 235 288 350 412
#     4  12  27  45  71 105 143 185 235 288 350 412
#     4  10  24  45  74 101 144 178 235 284 350 412
#     4  10  24  45  74 101 144 178 235 284 350 412
#
# _framework density 22.891544
#
# number of rings (size 3 to 8) (size 9 to 14) (size 15 to 20)
#    1.200    0.000    0.000    4.800    8.400    4.800 
#    0.000    0.000    0.000    0.000    0.000    0.000 
#    0.000    0.000    0.000    0.000    0.000    0.000 
#
# Total GULP energy -247955.630889 kJ/mol
# GULP energy per Si atom -12397.781544 kJ/mol
# Density = 2.283944 g / cm^3
# Si number density = 22.891544 Si / 1000 Ang^3
#
#
#
# Elastic Constant Matrix: (Units=GPa)
#
#
# Indices 1 2 3 4 5 6 
#
# 1 95.6421 -20.6910 26.2775 0.0000 0.0000 0.0000
# 2 -20.6910 81.6482 38.1250 0.0000 0.0000 0.0000
# 3 26.2775 38.1250 122.0750 0.0000 0.0000 0.0000
# 4 0.0000 0.0000 0.0000 44.9216 0.0000 0.0000
# 5 0.0000 0.0000 0.0000 0.0000 37.0439 0.0000
# 6 0.0000 0.0000 0.0000 0.0000 0.0000 18.0056
#
#
#
# Elastic Compliance Matrix: (Units=1/GPa)
#
#
# Indices 1 2 3 4 5 6 
#
# 1 0.012819 0.005311 -0.004418 0.000000 0.000000 0.000000
# 2 0.005311 0.016539 -0.006309 0.000000 0.000000 0.000000
# 3 -0.004418 -0.006309 0.011113 0.000000 0.000000 0.000000
# 4 0.000000 0.000000 0.000000 0.022261 0.000000 0.000000
# 5 0.000000 0.000000 0.000000 0.000000 0.026995 0.000000
# 6 0.000000 0.000000 0.000000 0.000000 0.000000 0.055538
#
#
# Mechanical properties :
#
#
# Convention : Reuss Voigt Hill
#
# Bulk Modulus (GPa) = 33.73789 42.97645 38.35717
# Shear Modulus (GPa) = 30.12479 37.03781 33.58130
#
# Velocity S-wave (km/s) = 3.63158 4.02676 3.83426
# Velocity P-wave (km/s) = 5.68811 6.35881 6.03279
#
# Compressibility (1/GPa) = 0.02964026
#
# Stress axis : x y z
#
# Youngs Moduli (GPa) = 78.01180 60.46136 89.98492
#
# Poissons Ratio (x) = -0.32114 0.39756
# Poissons Ratio (y) = -0.41435 0.56769
# Poissons Ratio (z) = 0.34466 0.38143
#
# Static dielectric constant tensor:
#      x y z
#    x 3.761510 0.000000 0.000000 
#    y 0.000000 3.877040 0.000000 
#    z 0.000000 0.000000 4.210080 
# 
# 
# High freq. dielectric constant tensor:
#      x y z
#    x 1.885630 0.000000 0.000000 
#    y 0.000000 1.895680 0.000000 
#    z 0.000000 0.000000 1.916520 
# 
# From -- ./inp_files/3289.got.cif
#   From: 2010.03.12/outbox.cif.g09.slc.cpg/sg19_2_cif.got.tgz:3289.got - 2010.04.10 18:59:41.
