data_PCOD8157094
_publ_section_title
;
Structure prediction by ZEFSAII (Michael W. Deem and Ramdas Pophale) SiO2 
 PCOD8157094
Probable space group: P 21 21 21
;
_chemical_formula_sum "Si O2"
_cell_formula_units_Z 24
_cell_length_a 9.387689
_cell_length_b 11.153703
_cell_length_c 10.818484
_cell_angle_alpha 90.000000
_cell_angle_beta 90.000000
_cell_angle_gamma 90.000000
_cell_volume 1132.776359
_symmetry_space_group_name_H-M "P 21 21 21"
_symmetry_group_IT_number 19
_symmetry_cell_setting 'orthorhombic'
loop_
_space_group_symop_operation_xyz
x,y,z
1/2-x,-y,1/2+z
1/2+x,1/2-y,-z
-x,1/2+y,1/2-z
loop_
_atom_site_type_symbol
_atom_site_label
_atom_site_fract_x
_atom_site_fract_y
_atom_site_fract_z
Si Si1 0.552092 0.667118 0.746031
Si Si2 0.297070 0.366834 0.606884
Si Si3 0.251488 0.700207 0.838200
Si Si4 0.019578 0.947389 0.487317
Si Si5 0.247814 0.029170 0.326811
Si Si6 0.948411 0.995975 0.756734
O O1 0.618599 0.790824 0.791324
O O2 0.404165 0.639324 0.815223
O O3 0.526437 0.675124 0.595602
O O4 0.657427 0.553242 0.770094
O O5 0.271141 0.287633 0.485071
O O6 0.386257 0.482422 0.570605
O O7 0.147814 0.406382 0.664955
O O8 0.247651 0.833207 0.780358
O O9 0.128041 0.620805 0.775511
O O10 0.996813 0.925969 0.631675
O O11 0.167423 0.020932 0.460579
O O12 0.408724 0.977885 0.335103
#
# Coordination Sequence:
#
# PCOD8157094 Si02
#       6
#     4   4   4   4   4   4
#     4  10  21  43  64  95 132 173 218 273 331 383
#     4  11  23  40  73  93 129 180 221 269 330 400
#     4  11  24  43  70  94 135 175 227 270 327 403
#     4   9  22  43  58  97 135 167 218 273 321 399
#     4  10  24  37  68  96 129 175 217 277 321 391
#     4  11  24  42  65 103 132 170 231 270 334 388
#
# _framework density 21.186883000000002
#
# number of rings (size 3 to 8) (size 9 to 14) (size 15 to 20)
#    1.000    0.667    3.333    0.000    7.000    0.000 
#    3.000    0.000    0.000    0.000    0.000    0.000 
#    0.000    0.000    0.000    0.000    0.000    0.000 
#
# Total GULP energy -297392.316207 kJ/mol
# GULP energy per Si atom -12391.346509 kJ/mol
# Density = 2.113866 g / cm^3
# Si number density = 21.186883 Si / 1000 Ang^3
#
#
#
# Elastic Constant Matrix: (Units=GPa)
#
#
# Indices 1 2 3 4 5 6 
#
# 1 172.5622 25.7963 38.7731 0.0000 0.0000 0.0000
# 2 25.7963 52.5847 12.9647 0.0000 0.0000 0.0000
# 3 38.7731 12.9647 49.2464 0.0000 0.0000 0.0000
# 4 0.0000 0.0000 0.0000 16.9294 0.0000 0.0000
# 5 0.0000 0.0000 0.0000 0.0000 29.2131 0.0000
# 6 0.0000 0.0000 0.0000 0.0000 0.0000 36.0385
#
#
#
# Elastic Compliance Matrix: (Units=1/GPa)
#
#
# Indices 1 2 3 4 5 6 
#
# 1 0.007294 -0.002313 -0.005134 0.000000 0.000000 0.000000
# 2 -0.002313 0.021070 -0.003726 0.000000 0.000000 0.000000
# 3 -0.005134 -0.003726 0.025329 0.000000 0.000000 0.000000
# 4 0.000000 0.000000 0.000000 0.059069 0.000000 0.000000
# 5 0.000000 0.000000 0.000000 0.000000 0.034231 0.000000
# 6 0.000000 0.000000 0.000000 0.000000 0.000000 0.027748
#
#
# Mechanical properties :
#
#
# Convention : Reuss Voigt Hill
#
# Bulk Modulus (GPa) = 31.90020 47.71796 39.80908
# Shear Modulus (GPa) = 24.09206 29.56014 26.82610
#
# Velocity S-wave (km/s) = 3.37578 3.73930 3.56218
# Velocity P-wave (km/s) = 5.50307 6.41985 5.97906
#
# Compressibility (1/GPa) = 0.03134776
#
# Stress axis : x y z
#
# Youngs Moduli (GPa) = 137.09295 47.46068 39.47986
#
# Poissons Ratio (x) = 0.10975 0.20270
# Poissons Ratio (y) = 0.31703 0.14711
# Poissons Ratio (z) = 0.70387 0.17685
#
# Static dielectric constant tensor:
#      x y z
#    x 4.078090 0.000000 0.000000 
#    y 0.000000 3.461390 0.000000 
#    z 0.000000 0.000000 3.740820 
# 
# 
# High freq. dielectric constant tensor:
#      x y z
#    x 1.852620 0.000000 0.000000 
#    y 0.000000 1.807980 0.000000 
#    z 0.000000 0.000000 1.811900 
# 
# From -- ./inp_files/3397.got.cif
#   From: 2010.03.12/outbox.cif.g09.slc.cpg/sg19_2_cif.got.tgz:3397.got - 2010.04.10 18:59:41.
