data_PCOD8157164
_publ_section_title
;
Structure prediction by ZEFSAII (Michael W. Deem and Ramdas Pophale) SiO2 
 PCOD8157164
Probable space group: P 21 21 21
;
_chemical_formula_sum "Si O2"
_cell_formula_units_Z 28
_cell_length_a 8.504213
_cell_length_b 16.615078
_cell_length_c 8.825079
_cell_angle_alpha 90.000000
_cell_angle_beta 90.000000
_cell_angle_gamma 90.000000
_cell_volume 1246.967445
_symmetry_space_group_name_H-M "P 21 21 21"
_symmetry_group_IT_number 19
_symmetry_cell_setting 'orthorhombic'
loop_
_space_group_symop_operation_xyz
x,y,z
1/2-x,-y,1/2+z
1/2+x,1/2-y,-z
-x,1/2+y,1/2-z
loop_
_atom_site_type_symbol
_atom_site_label
_atom_site_fract_x
_atom_site_fract_y
_atom_site_fract_z
Si Si1 0.774741 0.916406 0.321038
Si Si2 0.876514 0.598463 0.438328
Si Si3 0.444538 0.156776 0.976673
Si Si4 0.581080 0.041198 0.509961
Si Si5 0.460524 0.277494 0.716001
Si Si6 0.136179 0.286688 0.551237
Si Si7 0.509443 0.799035 0.314644
O O1 0.805790 0.943095 0.150943
O O2 0.690836 0.828515 0.316714
O O3 0.931000 0.909455 0.422358
O O4 0.666254 0.984056 0.391946
O O5 0.689906 0.610386 0.427519
O O6 0.921756 0.503667 0.432500
O O7 0.978216 0.644913 0.309569
O O8 0.911139 0.630478 0.606814
O O9 0.391497 0.209993 0.830750
O O10 0.523444 0.217002 0.095096
O O11 0.546251 0.127137 0.430989
O O12 0.318422 0.298442 0.599828
O O13 0.610174 0.242115 0.622977
O O14 0.050907 0.216875 0.646174
#
# Coordination Sequence:
#
# PCOD8157164 Si02
#       7
#     4   4   4   4   4   4   4
#     4  11  24  45  67 100 142 182 234 281 361 419
#     4  10  23  45  66  96 137 186 231 274 356 421
#     4  11  22  43  69  96 129 184 239 283 326 436
#     4  11  25  43  66 100 141 184 226 289 357 425
#     4  11  24  42  71 101 138 180 232 295 343 414
#     4  12  24  43  68 107 140 175 239 299 351 403
#     4  10  22  39  71  98 131 185 229 283 344 420
#
# _framework density 22.454474999999999
#
# number of rings (size 3 to 8) (size 9 to 14) (size 15 to 20)
#    0.000    1.143    2.857    3.429    8.000    0.000 
#    2.571    2.857    0.000    0.000    0.000    0.000 
#    0.000    0.000    0.000    0.000    0.000    0.000 
#
# Total GULP energy -347079.916122 kJ/mol
# GULP energy per Si atom -12395.711290 kJ/mol
# Density = 2.240337 g / cm^3
# Si number density = 22.454475 Si / 1000 Ang^3
#
#
#
# Elastic Constant Matrix: (Units=GPa)
#
#
# Indices 1 2 3 4 5 6 
#
# 1 71.6996 5.3328 12.2843 0.0000 0.0000 0.0000
# 2 5.3328 77.8465 11.2894 0.0000 0.0000 0.0000
# 3 12.2843 11.2894 73.3868 0.0000 0.0000 0.0000
# 4 0.0000 0.0000 0.0000 21.9444 0.0000 0.0000
# 5 0.0000 0.0000 0.0000 0.0000 43.5561 0.0000
# 6 0.0000 0.0000 0.0000 0.0000 0.0000 29.0414
#
#
#
# Elastic Compliance Matrix: (Units=1/GPa)
#
#
# Indices 1 2 3 4 5 6 
#
# 1 0.014391 -0.000651 -0.002309 0.000000 0.000000 0.000000
# 2 -0.000651 0.013168 -0.001917 0.000000 0.000000 0.000000
# 3 -0.002309 -0.001917 0.014308 0.000000 0.000000 0.000000
# 4 0.000000 0.000000 0.000000 0.045570 0.000000 0.000000
# 5 0.000000 0.000000 0.000000 0.000000 0.022959 0.000000
# 6 0.000000 0.000000 0.000000 0.000000 0.000000 0.034434
#
#
# Mechanical properties :
#
#
# Convention : Reuss Voigt Hill
#
# Bulk Modulus (GPa) = 31.13905 31.19401 31.16653
# Shear Modulus (GPa) = 30.25036 31.84347 31.04691
#
# Velocity S-wave (km/s) = 3.67439 3.76990 3.72245
# Velocity P-wave (km/s) = 5.64794 5.73339 5.69083
#
# Compressibility (1/GPa) = 0.03211402
#
# Stress axis : x y z
#
# Youngs Moduli (GPa) = 69.48751 75.93958 69.89214
#
# Poissons Ratio (x) = 0.04944 0.16137
# Poissons Ratio (y) = 0.04524 0.13397
# Poissons Ratio (z) = 0.16043 0.14556
#
# Static dielectric constant tensor:
#      x y z
#    x 3.947950 0.000000 0.000000 
#    y 0.000000 4.085830 0.000000 
#    z 0.000000 0.000000 4.107130 
# 
# 
# High freq. dielectric constant tensor:
#      x y z
#    x 1.874920 0.000000 0.000000 
#    y 0.000000 1.873650 0.000000 
#    z 0.000000 0.000000 1.893110 
# 
# From -- ./inp_files/2977.got.cif
#   From: 2010.03.12/outbox.cif.g09.slc.cpg/sg19_2_cif.got.tgz:2977.got - 2010.04.10 18:59:41.
