data_PCOD8157114
_publ_section_title
;
Structure prediction by ZEFSAII (Michael W. Deem and Ramdas Pophale) SiO2 
 PCOD8157114
Probable space group: P 21 21 21
;
_chemical_formula_sum "Si O2"
_cell_formula_units_Z 32
_cell_length_a 13.771678
_cell_length_b 11.214753
_cell_length_c 9.132082
_cell_angle_alpha 90.000000
_cell_angle_beta 90.000000
_cell_angle_gamma 90.000000
_cell_volume 1410.413237
_symmetry_space_group_name_H-M "P 21 21 21"
_symmetry_group_IT_number 19
_symmetry_cell_setting 'orthorhombic'
loop_
_space_group_symop_operation_xyz
x,y,z
1/2-x,-y,1/2+z
1/2+x,1/2-y,-z
-x,1/2+y,1/2-z
loop_
_atom_site_type_symbol
_atom_site_label
_atom_site_fract_x
_atom_site_fract_y
_atom_site_fract_z
Si Si1 0.842242 0.174654 0.050321
Si Si2 0.734549 0.278757 0.655733
Si Si3 0.039268 0.569614 0.698722
Si Si4 0.795348 0.043065 0.587776
Si Si5 0.904988 0.599261 0.951218
Si Si6 0.921469 0.174388 0.365083
Si Si7 0.403647 0.098013 0.465070
Si Si8 0.747782 0.595839 0.442728
O O1 0.910473 0.163060 0.191371
O O2 0.764399 0.070083 0.040312
O O3 0.911111 0.167115 0.907184
O O4 0.780102 0.296523 0.052072
O O5 0.727091 0.136371 0.678906
O O6 0.678899 0.311061 0.504988
O O7 0.849841 0.309766 0.643805
O O8 0.699964 0.352223 0.797148
O O9 0.114020 0.507178 0.810826
O O10 0.999543 0.459409 0.603060
O O11 0.956415 0.636104 0.797429
O O12 0.827756 0.114829 0.441476
O O13 0.983917 0.600122 0.082782
O O14 0.854616 0.472167 0.919473
O O15 0.933426 0.317124 0.398255
O O16 0.328035 0.991024 0.492127
#
# Coordination Sequence:
#
# PCOD8157114 Si02
#       8
#     4   4   4   4   4   4   4   4
#     4  12  26  44  70 106 145 188 240 297 362 439
#     4  10  21  44  71  98 142 184 229 290 363 423
#     4  11  23  46  71 105 140 180 249 286 351 437
#     4  10  23  48  68  99 143 185 237 291 363 426
#     4  10  24  44  70 101 139 188 228 302 355 421
#     4  10  25  44  68 105 144 183 236 300 361 427
#     4  10  24  43  71 102 138 185 237 293 361 425
#     4  11  24  45  71 104 145 183 244 293 362 436
#
# _framework density 22.688385
#
# number of rings (size 3 to 8) (size 9 to 14) (size 15 to 20)
#    0.000    1.500    2.500    0.750    7.000    1.000 
#   13.500    0.000    0.000    0.000    0.000    0.000 
#    0.000    0.000    0.000    0.000    0.000    0.000 
#
# Total GULP energy -396600.388274 kJ/mol
# GULP energy per Si atom -12393.762134 kJ/mol
# Density = 2.263675 g / cm^3
# Si number density = 22.688385 Si / 1000 Ang^3
#
#
#
# Elastic Constant Matrix: (Units=GPa)
#
#
# Indices 1 2 3 4 5 6 
#
# 1 88.8480 54.1372 43.9441 0.0000 0.0000 0.0000
# 2 54.1372 120.0848 36.2595 0.0000 0.0000 0.0000
# 3 43.9441 36.2595 120.4741 0.0000 0.0000 0.0000
# 4 0.0000 0.0000 0.0000 28.1639 0.0000 0.0000
# 5 0.0000 0.0000 0.0000 0.0000 42.1510 0.0000
# 6 0.0000 0.0000 0.0000 0.0000 0.0000 25.9057
#
#
#
# Elastic Compliance Matrix: (Units=1/GPa)
#
#
# Indices 1 2 3 4 5 6 
#
# 1 0.017395 -0.006519 -0.004383 0.000000 0.000000 0.000000
# 2 -0.006519 0.011603 -0.001114 0.000000 0.000000 0.000000
# 3 -0.004383 -0.001114 0.010235 0.000000 0.000000 0.000000
# 4 0.000000 0.000000 0.000000 0.035506 0.000000 0.000000
# 5 0.000000 0.000000 0.000000 0.000000 0.023724 0.000000
# 6 0.000000 0.000000 0.000000 0.000000 0.000000 0.038602
#
#
# Mechanical properties :
#
#
# Convention : Reuss Voigt Hill
#
# Bulk Modulus (GPa) = 65.78832 66.45428 66.12130
# Shear Modulus (GPa) = 30.09085 32.24853 31.16969
#
# Velocity S-wave (km/s) = 3.64575 3.77419 3.71052
# Velocity P-wave (km/s) = 6.83969 6.95315 6.89665
#
# Compressibility (1/GPa) = 0.01520027
#
# Stress axis : x y z
#
# Youngs Moduli (GPa) = 57.48780 86.18691 97.70688
#
# Poissons Ratio (x) = 0.56182 0.42825
# Poissons Ratio (y) = 0.37474 0.10888
# Poissons Ratio (z) = 0.25197 0.09604
#
# Static dielectric constant tensor:
#      x y z
#    x 4.139320 0.000000 0.000000 
#    y 0.000000 4.149570 0.000000 
#    z 0.000000 0.000000 4.045740 
# 
# 
# High freq. dielectric constant tensor:
#      x y z
#    x 1.891780 0.000000 0.000000 
#    y 0.000000 1.890840 0.000000 
#    z 0.000000 0.000000 1.891380 
# 
# From -- ./inp_files/3960.got.cif
#   From: 2010.03.12/outbox.cif.g09.slc.cpg/sg19_2_cif.got.tgz:3960.got - 2010.04.10 18:59:41.
