data_PCOD8157641
_publ_section_title
;
Structure prediction by ZEFSAII (Michael W. Deem and Ramdas Pophale) SiO2 
 PCOD8157641
Probable space group: P 21 21 21
;
_chemical_formula_sum "Si O2"
_cell_formula_units_Z 28
_cell_length_a 6.746487
_cell_length_b 13.765867
_cell_length_c 13.607579
_cell_angle_alpha 90.000000
_cell_angle_beta 90.000000
_cell_angle_gamma 90.000000
_cell_volume 1263.752773
_symmetry_space_group_name_H-M "P 21 21 21"
_symmetry_group_IT_number 19
_symmetry_cell_setting 'orthorhombic'
loop_
_space_group_symop_operation_xyz
x,y,z
1/2-x,-y,1/2+z
1/2+x,1/2-y,-z
-x,1/2+y,1/2-z
loop_
_atom_site_type_symbol
_atom_site_label
_atom_site_fract_x
_atom_site_fract_y
_atom_site_fract_z
Si Si1 0.511286 0.570767 0.754829
Si Si2 0.906511 0.282797 0.583843
Si Si3 0.323124 0.596769 0.956906
Si Si4 0.371177 0.860375 0.754687
Si Si5 0.419506 0.219189 0.092671
Si Si6 0.174875 0.397271 0.047269
Si Si7 0.731507 0.246705 0.255429
O O1 0.358206 0.563771 0.845063
O O2 0.642487 0.475556 0.739935
O O3 0.380513 0.598151 0.661265
O O4 0.673964 0.650554 0.777104
O O5 0.850707 0.178246 0.537523
O O6 0.714716 0.317811 0.644064
O O7 0.970261 0.359414 0.499726
O O8 0.095934 0.278874 0.653087
O O9 0.254098 0.502282 0.016083
O O10 0.255495 0.822279 0.659889
O O11 0.601458 0.835067 0.745045
O O12 0.344441 0.314903 0.034982
O O13 0.609176 0.250017 0.155331
O O14 0.483034 0.135448 0.015728
#
# Coordination Sequence:
#
# PCOD8157641 Si02
#       7
#     4   4   4   4   4   4   4
#     4  12  25  44  73 103 143 185 245 293 368 428
#     4  11  26  47  72 105 149 189 238 303 367 430
#     4  12  27  46  74 109 144 190 249 298 363 443
#     4  11  25  47  73 103 141 195 231 301 371 428
#     4  11  26  47  72 105 149 189 238 303 367 430
#     4  12  27  46  74 109 144 190 249 298 363 443
#     4  11  22  49  72 104 148 184 238 296 359 446
#
# _framework density 22.156230999999998
#
# number of rings (size 3 to 8) (size 9 to 14) (size 15 to 20)
#    0.000    0.571    2.857    4.286    8.000    2.286 
#    0.000    0.000    0.000    0.000    0.000    0.000 
#    0.000    0.000    0.000    0.000    0.000    0.000 
#
# Total GULP energy -347372.819633 kJ/mol
# GULP energy per Si atom -12406.172130 kJ/mol
# Density = 2.210580 g / cm^3
# Si number density = 22.156231 Si / 1000 Ang^3
#
#
#
# Elastic Constant Matrix: (Units=GPa)
#
#
# Indices 1 2 3 4 5 6 
#
# 1 87.5139 18.7503 40.4933 0.0000 0.0000 0.0000
# 2 18.7503 126.5997 23.4938 0.0000 0.0000 0.0000
# 3 40.4933 23.4938 88.0146 0.0000 0.0000 0.0000
# 4 0.0000 0.0000 0.0000 31.7891 0.0000 0.0000
# 5 0.0000 0.0000 0.0000 0.0000 26.0675 0.0000
# 6 0.0000 0.0000 0.0000 0.0000 0.0000 44.0642
#
#
#
# Elastic Compliance Matrix: (Units=1/GPa)
#
#
# Indices 1 2 3 4 5 6 
#
# 1 0.014628 -0.000965 -0.006472 0.000000 0.000000 0.000000
# 2 -0.000965 0.008374 -0.001791 0.000000 0.000000 0.000000
# 3 -0.006472 -0.001791 0.014818 0.000000 0.000000 0.000000
# 4 0.000000 0.000000 0.000000 0.031457 0.000000 0.000000
# 5 0.000000 0.000000 0.000000 0.000000 0.038362 0.000000
# 6 0.000000 0.000000 0.000000 0.000000 0.000000 0.022694
#
#
# Mechanical properties :
#
#
# Convention : Reuss Voigt Hill
#
# Bulk Modulus (GPa) = 51.64689 51.95589 51.80139
# Shear Modulus (GPa) = 32.20690 35.01020 33.60855
#
# Velocity S-wave (km/s) = 3.81678 3.97942 3.89895
# Velocity P-wave (km/s) = 6.54100 6.67946 6.61059
#
# Compressibility (1/GPa) = 0.01936225
#
# Stress axis : x y z
#
# Youngs Moduli (GPa) = 68.35983 119.41292 67.48682
#
# Poissons Ratio (x) = 0.11529 0.43681
# Poissons Ratio (y) = 0.06600 0.12088
# Poissons Ratio (z) = 0.44246 0.21389
#
# Static dielectric constant tensor:
#      x y z
#    x 3.946510 0.000000 0.000000 
#    y 0.000000 4.133200 0.000000 
#    z 0.000000 0.000000 4.250660 
# 
# 
# High freq. dielectric constant tensor:
#      x y z
#    x 1.874150 0.000000 0.000000 
#    y 0.000000 1.880410 0.000000 
#    z 0.000000 0.000000 1.890240 
# 
# From -- ./inp_files/5701.got.cif
#   From: 2010.03.12/outbox.cif.g09.slc.cpg/sg19_3_cif.got.tgz:5701.got - 2010.04.10 18:59:41.
