data_PCOD8157653
_publ_section_title
;
Structure prediction by ZEFSAII (Michael W. Deem and Ramdas Pophale) SiO2 
 PCOD8157653
Probable space group: P 21 21 21
;
_chemical_formula_sum "Si O2"
_cell_formula_units_Z 28
_cell_length_a 5.113882
_cell_length_b 18.700492
_cell_length_c 11.967777
_cell_angle_alpha 90.000000
_cell_angle_beta 90.000000
_cell_angle_gamma 90.000000
_cell_volume 1144.503760
_symmetry_space_group_name_H-M "P 21 21 21"
_symmetry_group_IT_number 19
_symmetry_cell_setting 'orthorhombic'
loop_
_space_group_symop_operation_xyz
x,y,z
1/2-x,-y,1/2+z
1/2+x,1/2-y,-z
-x,1/2+y,1/2-z
loop_
_atom_site_type_symbol
_atom_site_label
_atom_site_fract_x
_atom_site_fract_y
_atom_site_fract_z
Si Si1 0.603402 0.473140 0.178097
Si Si2 0.453155 0.163391 0.790221
Si Si3 0.503674 0.473435 0.419056
Si Si4 0.302375 0.133629 0.327934
Si Si5 0.014144 0.384837 0.445460
Si Si6 0.245776 0.398746 0.018127
Si Si7 0.802641 0.181732 0.201294
O O1 0.801489 0.409586 0.196513
O O2 0.418518 0.479953 0.288041
O O3 0.750697 0.548531 0.160102
O O4 0.442833 0.457562 0.066527
O O5 0.556485 0.166708 0.662169
O O6 0.679159 0.158676 0.884421
O O7 0.278527 0.232923 0.815482
O O8 0.800206 0.446346 0.421676
O O9 0.497766 0.552375 0.475338
O O10 0.295515 0.419335 0.476062
O O11 0.408077 0.161461 0.448709
O O12 0.522428 0.152168 0.237535
O O13 0.030035 0.168739 0.292183
O O14 0.376468 0.355499 0.916022
#
# Coordination Sequence:
#
# PCOD8157653 Si02
#       7
#     4   4   4   4   4   4   4
#     4  11  25  44  79 107 150 190 258 302 381 438
#     4  11  29  48  74 110 151 206 246 310 381 459
#     4  11  23  41  71 114 137 188 239 321 362 439
#     4  12  27  48  75 110 146 199 251 321 362 445
#     4  11  24  45  76 104 147 184 261 302 376 431
#     4  12  26  45  77 107 154 194 247 313 378 450
#     4  12  32  47  74 110 161 197 250 303 388 450
#
# _framework density 24.464749999999999
#
# number of rings (size 3 to 8) (size 9 to 14) (size 15 to 20)
#    0.000    0.571    4.286    1.714   12.000    1.143 
#    0.000    0.000    0.000    0.000    0.000    0.000 
#    0.000    0.000    0.000    0.000    0.000    0.000 
#
# Total GULP energy -347143.152135 kJ/mol
# GULP energy per Si atom -12397.969719 kJ/mol
# Density = 2.440907 g / cm^3
# Si number density = 24.464750 Si / 1000 Ang^3
#
#
#
# Elastic Constant Matrix: (Units=GPa)
#
#
# Indices 1 2 3 4 5 6 
#
# 1 56.0280 16.6293 -4.2709 0.0000 0.0000 0.0000
# 2 16.6293 99.2449 19.2166 0.0000 0.0000 0.0000
# 3 -4.2709 19.2166 140.4189 0.0000 0.0000 0.0000
# 4 0.0000 0.0000 0.0000 21.3405 0.0000 0.0000
# 5 0.0000 0.0000 0.0000 0.0000 28.2307 0.0000
# 6 0.0000 0.0000 0.0000 0.0000 0.0000 24.2301
#
#
#
# Elastic Compliance Matrix: (Units=1/GPa)
#
#
# Indices 1 2 3 4 5 6 
#
# 1 0.018928 -0.003372 0.001037 0.000000 0.000000 0.000000
# 2 -0.003372 0.010951 -0.001601 0.000000 0.000000 0.000000
# 3 0.001037 -0.001601 0.007372 0.000000 0.000000 0.000000
# 4 0.000000 0.000000 0.000000 0.046859 0.000000 0.000000
# 5 0.000000 0.000000 0.000000 0.000000 0.035422 0.000000
# 6 0.000000 0.000000 0.000000 0.000000 0.000000 0.041271
#
#
# Mechanical properties :
#
#
# Convention : Reuss Voigt Hill
#
# Bulk Modulus (GPa) = 34.03817 39.87129 36.95473
# Shear Modulus (GPa) = 28.01590 32.36805 30.19198
#
# Velocity S-wave (km/s) = 3.38768 3.64132 3.51679
# Velocity P-wave (km/s) = 5.40788 5.83196 5.62392
#
# Compressibility (1/GPa) = 0.02937878
#
# Stress axis : x y z
#
# Youngs Moduli (GPa) = 52.83111 91.31413 135.64412
#
# Poissons Ratio (x) = 0.30795 -0.14069
# Poissons Ratio (y) = 0.17817 0.21720
# Poissons Ratio (z) = -0.05480 0.14622
#
# Static dielectric constant tensor:
#      x y z
#    x 4.190910 0.000000 0.000000 
#    y 0.000000 4.153420 0.000000 
#    z 0.000000 0.000000 5.475700 
# 
# 
# High freq. dielectric constant tensor:
#      x y z
#    x 1.953690 0.000000 0.000000 
#    y 0.000000 1.954640 0.000000 
#    z 0.000000 0.000000 2.003540 
# 
# From -- ./inp_files/4483.got.cif
#   From: 2010.03.12/outbox.cif.g09.slc.cpg/sg19_3_cif.got.tgz:4483.got - 2010.04.10 18:59:41.
