data_PCOD8157568
_publ_section_title
;
Structure prediction by ZEFSAII (Michael W. Deem and Ramdas Pophale) SiO2 
 PCOD8157568
Probable space group: P 21 21 21
;
_chemical_formula_sum "Si O2"
_cell_formula_units_Z 24
_cell_length_a 8.706036
_cell_length_b 4.935695
_cell_length_c 26.990693
_cell_angle_alpha 90.000000
_cell_angle_beta 90.000000
_cell_angle_gamma 90.000000
_cell_volume 1159.799211
_symmetry_space_group_name_H-M "P 21 21 21"
_symmetry_group_IT_number 19
_symmetry_cell_setting 'orthorhombic'
loop_
_space_group_symop_operation_xyz
x,y,z
1/2-x,-y,1/2+z
1/2+x,1/2-y,-z
-x,1/2+y,1/2-z
loop_
_atom_site_type_symbol
_atom_site_label
_atom_site_fract_x
_atom_site_fract_y
_atom_site_fract_z
Si Si1 0.409942 0.787087 0.765795
Si Si2 0.070982 0.224750 0.872314
Si Si3 0.424208 0.166126 0.227333
Si Si4 0.357916 0.914952 0.975088
Si Si5 0.219318 0.267526 0.369278
Si Si6 0.988201 0.588858 0.519716
O O1 0.535162 0.594781 0.740279
O O2 0.247601 0.742868 0.739176
O O3 0.398957 0.713473 0.823858
O O4 0.206444 0.441746 0.880015
O O5 0.982793 0.184378 0.923997
O O6 0.948217 0.320158 0.831768
O O7 0.146830 0.943425 0.854525
O O8 0.545209 0.361020 0.254929
O O9 0.371636 0.829093 0.917832
O O10 0.186764 0.003620 0.989386
O O11 0.401880 0.665341 0.010077
O O12 0.473118 0.164792 0.983090
#
# Coordination Sequence:
#
# PCOD8157568 Si02
#       6
#     4   4   4   4   4   4
#     4  12  25  42  63  97 137 162 206 269 325 376
#     4  11  21  41  70  94 118 171 224 258 302 382
#     4  12  22  42  70  93 123 168 218 260 300 383
#     4  11  23  43  67  93 126 169 212 266 317 378
#     4  11  22  42  69  90 127 178 210 246 330 394
#     4  11  23  42  67  95 129 164 216 267 318 379
#
# _framework density 20.693235000000001
#
# number of rings (size 3 to 8) (size 9 to 14) (size 15 to 20)
#    0.000    0.667    3.333    7.000    0.000    0.000 
#    9.000    0.000    0.000    0.000    0.000    0.000 
#    0.000    0.000    0.000    0.000    0.000    0.000 
#
# Total GULP energy -297794.398763 kJ/mol
# GULP energy per Si atom -12408.099948 kJ/mol
# Density = 2.064614 g / cm^3
# Si number density = 20.693235 Si / 1000 Ang^3
#
#
#
# Elastic Constant Matrix: (Units=GPa)
#
#
# Indices 1 2 3 4 5 6 
#
# 1 79.2478 26.2387 73.1787 0.0000 0.0000 0.0000
# 2 26.2387 105.9307 42.5739 0.0000 0.0000 0.0000
# 3 73.1787 42.5739 138.7992 0.0000 0.0000 0.0000
# 4 0.0000 0.0000 0.0000 34.8553 0.0000 0.0000
# 5 0.0000 0.0000 0.0000 0.0000 34.3398 0.0000
# 6 0.0000 0.0000 0.0000 0.0000 0.0000 47.6649
#
#
#
# Elastic Compliance Matrix: (Units=1/GPa)
#
#
# Indices 1 2 3 4 5 6 
#
# 1 0.024685 -0.001008 -0.012705 0.000000 0.000000 0.000000
# 2 -0.001008 0.010809 -0.002784 0.000000 0.000000 0.000000
# 3 -0.012705 -0.002784 0.014757 0.000000 0.000000 0.000000
# 4 0.000000 0.000000 0.000000 0.028690 0.000000 0.000000
# 5 0.000000 0.000000 0.000000 0.000000 0.029121 0.000000
# 6 0.000000 0.000000 0.000000 0.000000 0.000000 0.020980
#
#
# Mechanical properties :
#
#
# Convention : Reuss Voigt Hill
#
# Bulk Modulus (GPa) = 57.95051 67.55115 62.75083
# Shear Modulus (GPa) = 29.79967 35.50442 32.65205
#
# Velocity S-wave (km/s) = 3.79894 4.14666 3.97660
# Velocity P-wave (km/s) = 6.87808 7.45931 7.17458
#
# Compressibility (1/GPa) = 0.01725610
#
# Stress axis : x y z
#
# Youngs Moduli (GPa) = 40.51116 92.51834 67.76420
#
# Poissons Ratio (x) = 0.09326 0.86096
# Poissons Ratio (y) = 0.04084 0.18865
# Poissons Ratio (z) = 0.51470 0.25756
#
# Static dielectric constant tensor:
#      x y z
#    x 3.534390 0.000000 0.000000 
#    y 0.000000 3.940470 0.000000 
#    z 0.000000 0.000000 3.833310 
# 
# 
# High freq. dielectric constant tensor:
#      x y z
#    x 1.789000 0.000000 0.000000 
#    y 0.000000 1.834180 0.000000 
#    z 0.000000 0.000000 1.818440 
# 
# From -- ./inp_files/7317.got.cif
#   From: 2010.03.12/outbox.cif.g09.slc.cpg/sg19_4_cif.got.tgz:7317.got - 2010.04.10 18:59:41.
