data_PCOD8157455
_publ_section_title
;
Structure prediction by ZEFSAII (Michael W. Deem and Ramdas Pophale) SiO2 
 PCOD8157455
Probable space group: P 21 21 21
;
_chemical_formula_sum "Si O2"
_cell_formula_units_Z 16
_cell_length_a 9.606067
_cell_length_b 14.851721
_cell_length_c 5.198459
_cell_angle_alpha 90.000000
_cell_angle_beta 90.000000
_cell_angle_gamma 90.000000
_cell_volume 741.646611
_symmetry_space_group_name_H-M "P 21 21 21"
_symmetry_group_IT_number 19
_symmetry_cell_setting 'orthorhombic'
loop_
_space_group_symop_operation_xyz
x,y,z
1/2-x,-y,1/2+z
1/2+x,1/2-y,-z
-x,1/2+y,1/2-z
loop_
_atom_site_type_symbol
_atom_site_label
_atom_site_fract_x
_atom_site_fract_y
_atom_site_fract_z
Si Si1 0.288311 0.166171 0.923924
Si Si2 0.664245 0.990164 0.323204
Si Si3 0.926667 0.372049 0.584976
Si Si4 0.472489 0.303656 0.159493
O O1 0.328097 0.115674 0.661590
O O2 0.125319 0.182383 0.953899
O O3 0.335664 0.102861 0.162568
O O4 0.371667 0.261369 0.939813
O O5 0.557523 0.062750 0.436625
O O6 0.770463 0.972416 0.558487
O O7 0.589291 0.897688 0.244964
O O8 0.979693 0.267884 0.604035
#
# Coordination Sequence:
#
# PCOD8157455 Si02
#       4
#     4   4   4   4
#     4  10  24  41  68  96 139 175 229 272 350 394
#     4  12  27  44  72 103 140 181 236 282 346 412
#     4  10  25  41  67  99 139 175 231 276 337 410
#     4  10  26  42  73  96 142 181 226 284 343 406
#
# _framework density 21.573616999999999
#
# number of rings (size 3 to 8) (size 9 to 14) (size 15 to 20)
#    1.500    0.000    0.000    3.000   14.000    2.000 
#    0.000    0.000    0.000    0.000    0.000    0.000 
#    0.000    0.000    0.000    0.000    0.000    0.000 
#
# Total GULP energy -198325.252661 kJ/mol
# GULP energy per Si atom -12395.328291 kJ/mol
# Density = 2.152451 g / cm^3
# Si number density = 21.573617 Si / 1000 Ang^3
#
#
#
# Elastic Constant Matrix: (Units=GPa)
#
#
# Indices 1 2 3 4 5 6 
#
# 1 99.8658 18.5287 14.8452 0.0000 0.0000 0.0000
# 2 18.5287 103.1962 9.5705 0.0000 0.0000 0.0000
# 3 14.8452 9.5705 120.2836 0.0000 0.0000 0.0000
# 4 0.0000 0.0000 0.0000 17.9386 0.0000 0.0000
# 5 0.0000 0.0000 0.0000 0.0000 23.0919 0.0000
# 6 0.0000 0.0000 0.0000 0.0000 0.0000 38.7460
#
#
#
# Elastic Compliance Matrix: (Units=1/GPa)
#
#
# Indices 1 2 3 4 5 6 
#
# 1 0.010516 -0.001781 -0.001156 0.000000 0.000000 0.000000
# 2 -0.001781 0.010064 -0.000581 0.000000 0.000000 0.000000
# 3 -0.001156 -0.000581 0.008503 0.000000 0.000000 0.000000
# 4 0.000000 0.000000 0.000000 0.055746 0.000000 0.000000
# 5 0.000000 0.000000 0.000000 0.000000 0.043305 0.000000
# 6 0.000000 0.000000 0.000000 0.000000 0.000000 0.025809
#
#
# Mechanical properties :
#
#
# Convention : Reuss Voigt Hill
#
# Bulk Modulus (GPa) = 45.35905 45.47050 45.41477
# Shear Modulus (GPa) = 29.70407 34.64871 32.17639
#
# Velocity S-wave (km/s) = 3.71465 4.01193 3.86614
# Velocity P-wave (km/s) = 6.28244 6.52560 6.40517
#
# Compressibility (1/GPa) = 0.02204632
#
# Stress axis : x y z
#
# Youngs Moduli (GPa) = 95.09584 99.36498 117.61113
#
# Poissons Ratio (x) = 0.17695 0.13597
# Poissons Ratio (y) = 0.16935 0.06833
# Poissons Ratio (z) = 0.10994 0.05773
#
# Static dielectric constant tensor:
#      x y z
#    x 3.753720 0.000000 0.000000 
#    y 0.000000 3.697120 0.000000 
#    z 0.000000 0.000000 3.612150 
# 
# 
# High freq. dielectric constant tensor:
#      x y z
#    x 1.852590 0.000000 0.000000 
#    y 0.000000 1.836140 0.000000 
#    z 0.000000 0.000000 1.841340 
# 
# From -- ./inp_files/288.got.cif
#   From: 2010.03.12/outbox.cif.g09.slc.cpg/sg19_1_cif.got.tgz:288.got - 2010.04.10 18:59:41.
