data_PCOD8157002
_publ_section_title
;
Structure prediction by ZEFSAII (Michael W. Deem and Ramdas Pophale) SiO2 
 PCOD8157002
Probable space group: P 21 21 21
;
_chemical_formula_sum "Si O2"
_cell_formula_units_Z 32
_cell_length_a 13.380752
_cell_length_b 10.492263
_cell_length_c 11.679847
_cell_angle_alpha 90.000000
_cell_angle_beta 90.000000
_cell_angle_gamma 90.000000
_cell_volume 1639.784751
_symmetry_space_group_name_H-M "P 21 21 21"
_symmetry_group_IT_number 19
_symmetry_cell_setting 'orthorhombic'
loop_
_space_group_symop_operation_xyz
x,y,z
1/2-x,-y,1/2+z
1/2+x,1/2-y,-z
-x,1/2+y,1/2-z
loop_
_atom_site_type_symbol
_atom_site_label
_atom_site_fract_x
_atom_site_fract_y
_atom_site_fract_z
Si Si1 0.511525 0.948629 0.327747
Si Si2 0.647697 0.160708 0.679899
Si Si3 0.284626 0.547265 0.227757
Si Si4 0.451310 0.091223 0.547100
Si Si5 0.348260 0.773886 0.378032
Si Si6 0.744280 0.748607 0.962548
Si Si7 0.327404 0.854782 0.625115
Si Si8 0.666193 0.456545 0.313490
O O1 0.467486 0.812404 0.373689
O O2 0.451397 0.984487 0.210013
O O3 0.629743 0.943694 0.305147
O O4 0.489530 0.059466 0.420139
O O5 0.541805 0.141758 0.621708
O O6 0.728131 0.216527 0.591617
O O7 0.629141 0.256934 0.783702
O O8 0.687774 0.026444 0.727959
O O9 0.329508 0.633908 0.329212
O O10 0.254627 0.627970 0.117189
O O11 0.369702 0.202431 0.539508
O O12 0.406537 0.967416 0.608714
O O13 0.306620 0.780627 0.506454
O O14 0.291001 0.879861 0.299000
O O15 0.818746 0.635232 0.922904
O O16 0.222835 0.910718 0.670493
#
# Coordination Sequence:
#
# PCOD8157002 Si02
#       8
#     4   4   4   4   4   4   4   4
#     4   9  18  39  64  89 116 165 211 265 308 373
#     4  12  26  36  67  94 126 173 206 264 328 382
#     4  11  23  40  62  92 131 159 216 262 322 373
#     4  10  22  42  64  88 131 165 214 262 321 382
#     4   8  20  38  61  87 125 159 202 268 319 363
#     4  10  22  42  63  91 129 169 209 267 312 384
#     4  10  21  39  61  90 124 161 217 253 322 386
#     4   8  18  38  66  87 116 163 211 257 314 367
#
# _framework density 19.514755999999998
#
# number of rings (size 3 to 8) (size 9 to 14) (size 15 to 20)
#    0.750    1.500    1.250    0.750    5.250    3.000 
#    0.000    2.500    0.000    0.000    0.000    0.000 
#    0.000    0.000    0.000    0.000    0.000    0.000 
#
# Total GULP energy -396663.599829 kJ/mol
# GULP energy per Si atom -12395.737495 kJ/mol
# Density = 1.947034 g / cm^3
# Si number density = 19.514756 Si / 1000 Ang^3
#
#
#
# Elastic Constant Matrix: (Units=GPa)
#
#
# Indices 1 2 3 4 5 6 
#
# 1 77.7231 20.5326 21.5680 0.0000 0.0000 0.0000
# 2 20.5326 71.9644 30.3079 0.0000 0.0000 0.0000
# 3 21.5680 30.3079 91.9074 0.0000 0.0000 0.0000
# 4 0.0000 0.0000 0.0000 24.5788 0.0000 0.0000
# 5 0.0000 0.0000 0.0000 0.0000 26.3259 0.0000
# 6 0.0000 0.0000 0.0000 0.0000 0.0000 26.1723
#
#
#
# Elastic Compliance Matrix: (Units=1/GPa)
#
#
# Indices 1 2 3 4 5 6 
#
# 1 0.014336 -0.003105 -0.002340 0.000000 0.000000 0.000000
# 2 -0.003105 0.016809 -0.004815 0.000000 0.000000 0.000000
# 3 -0.002340 -0.004815 0.013017 0.000000 0.000000 0.000000
# 4 0.000000 0.000000 0.000000 0.040686 0.000000 0.000000
# 5 0.000000 0.000000 0.000000 0.000000 0.037985 0.000000
# 6 0.000000 0.000000 0.000000 0.000000 0.000000 0.038208
#
#
# Mechanical properties :
#
#
# Convention : Reuss Voigt Hill
#
# Bulk Modulus (GPa) = 42.29516 42.93464 42.61490
# Shear Modulus (GPa) = 26.39335 26.69451 26.54393
#
# Velocity S-wave (km/s) = 3.68160 3.70254 3.69209
# Velocity P-wave (km/s) = 6.30815 6.35038 6.32930
#
# Compressibility (1/GPa) = 0.02364337
#
# Stress axis : x y z
#
# Youngs Moduli (GPa) = 69.75544 59.49134 76.82020
#
# Poissons Ratio (x) = 0.18469 0.17979
# Poissons Ratio (y) = 0.21656 0.36985
# Poissons Ratio (z) = 0.16326 0.28642
#
# Static dielectric constant tensor:
#      x y z
#    x 3.369530 0.000000 0.000000 
#    y 0.000000 3.418270 0.000000 
#    z 0.000000 0.000000 3.592300 
# 
# 
# High freq. dielectric constant tensor:
#      x y z
#    x 1.742400 0.000000 0.000000 
#    y 0.000000 1.753370 0.000000 
#    z 0.000000 0.000000 1.764400 
# 
# From -- ./inp_files/5046.got.cif
#   From: 2010.03.12/outbox.cif.g09.slc.cpg/sg19_3_cif.got.tgz:5046.got - 2010.04.10 18:59:41.
