data_PCOD8157801
_publ_section_title
;
Structure prediction by ZEFSAII (Michael W. Deem and Ramdas Pophale) SiO2 
 PCOD8157801
Probable space group: P 21 21 21
;
_chemical_formula_sum "Si O2"
_cell_formula_units_Z 24
_cell_length_a 9.574365
_cell_length_b 5.701418
_cell_length_c 17.115812
_cell_angle_alpha 90.000000
_cell_angle_beta 90.000000
_cell_angle_gamma 90.000000
_cell_volume 934.308651
_symmetry_space_group_name_H-M "P 21 21 21"
_symmetry_group_IT_number 19
_symmetry_cell_setting 'orthorhombic'
loop_
_space_group_symop_operation_xyz
x,y,z
1/2-x,-y,1/2+z
1/2+x,1/2-y,-z
-x,1/2+y,1/2-z
loop_
_atom_site_type_symbol
_atom_site_label
_atom_site_fract_x
_atom_site_fract_y
_atom_site_fract_z
Si Si1 0.956467 0.094886 0.210517
Si Si2 0.325422 0.805154 0.285528
Si Si3 0.043073 0.137914 0.507980
Si Si4 0.386585 0.142351 0.156566
Si Si5 0.820133 0.472949 0.553299
Si Si6 0.870646 0.800825 0.417553
O O1 0.786398 0.092557 0.209329
O O2 0.998988 0.348402 0.250755
O O3 0.023182 0.114230 0.123760
O O4 0.487414 0.730796 0.289695
O O5 0.305478 0.938225 0.203439
O O6 0.290247 0.978106 0.356771
O O7 0.197618 0.202004 0.476787
O O8 0.973810 0.365856 0.544800
O O9 0.048127 0.942751 0.575409
O O10 0.951059 0.043015 0.434575
O O11 0.267179 0.338302 0.137300
O O12 0.816074 0.704057 0.500399
#
# Coordination Sequence:
#
# PCOD8157801 Si02
#       6
#     4   4   4   4   4   4
#     4  12  29  51  80 114 154 207 261 324 392 470
#     4  12  25  47  73 111 153 199 263 318 400 460
#     4  11  25  44  72 104 146 196 256 319 389 464
#     4  11  26  45  71 109 149 198 253 324 392 456
#     4  11  26  44  72 108 142 202 254 319 390 467
#     4  11  25  49  70 106 148 198 255 316 385 465
#
# _framework density 25.687441
#
# number of rings (size 3 to 8) (size 9 to 14) (size 15 to 20)
#    0.000    0.667    5.000    1.000    7.000    2.667 
#    0.000    0.000    0.000    0.000    0.000    0.000 
#    0.000    0.000    0.000    0.000    0.000    0.000 
#
# Total GULP energy -297474.652379 kJ/mol
# GULP energy per Si atom -12394.777182 kJ/mol
# Density = 2.562898 g / cm^3
# Si number density = 25.687441 Si / 1000 Ang^3
#
#
#
# Elastic Constant Matrix: (Units=GPa)
#
#
# Indices 1 2 3 4 5 6 
#
# 1 128.8603 1.8499 31.6585 0.0000 0.0000 0.0000
# 2 1.8499 54.4612 11.7130 0.0000 0.0000 0.0000
# 3 31.6585 11.7130 67.7711 0.0000 0.0000 0.0000
# 4 0.0000 0.0000 0.0000 24.9825 0.0000 0.0000
# 5 0.0000 0.0000 0.0000 0.0000 43.9631 0.0000
# 6 0.0000 0.0000 0.0000 0.0000 0.0000 43.9323
#
#
#
# Elastic Compliance Matrix: (Units=1/GPa)
#
#
# Indices 1 2 3 4 5 6 
#
# 1 0.008786 0.000607 -0.004209 0.000000 0.000000 0.000000
# 2 0.000607 0.019112 -0.003587 0.000000 0.000000 0.000000
# 3 -0.004209 -0.003587 0.017342 0.000000 0.000000 0.000000
# 4 0.000000 0.000000 0.000000 0.040028 0.000000 0.000000
# 5 0.000000 0.000000 0.000000 0.000000 0.022746 0.000000
# 6 0.000000 0.000000 0.000000 0.000000 0.000000 0.022762
#
#
# Mechanical properties :
#
#
# Convention : Reuss Voigt Hill
#
# Bulk Modulus (GPa) = 32.40230 37.94837 35.17533
# Shear Modulus (GPa) = 32.16641 36.30031 34.23336
#
# Velocity S-wave (km/s) = 3.54252 3.76327 3.65456
# Velocity P-wave (km/s) = 5.41978 5.80415 5.61525
#
# Compressibility (1/GPa) = 0.03086201
#
# Stress axis : x y z
#
# Youngs Moduli (GPa) = 113.82122 52.32183 57.66467
#
# Poissons Ratio (x) = -0.03175 0.24271
# Poissons Ratio (y) = -0.06907 0.20683
# Poissons Ratio (z) = 0.47908 0.18766
#
# Static dielectric constant tensor:
#      x y z
#    x 5.165370 0.000000 0.000000 
#    y 0.000000 4.013180 0.000000 
#    z 0.000000 0.000000 4.724490 
# 
# 
# High freq. dielectric constant tensor:
#      x y z
#    x 2.053930 0.000000 0.000000 
#    y 0.000000 1.984690 0.000000 
#    z 0.000000 0.000000 2.038100 
# 
# From -- ./inp_files/406.got.cif
#   From: 2010.03.12/outbox.cif.g09.slc.cpg/sg19_1_cif.got.tgz:406.got - 2010.04.10 18:59:41.
