data_PCOD8157206
_publ_section_title
;
Structure prediction by ZEFSAII (Michael W. Deem and Ramdas Pophale) SiO2 
 PCOD8157206
Probable space group: P 21 21 21
;
_chemical_formula_sum "Si O2"
_cell_formula_units_Z 28
_cell_length_a 5.128394
_cell_length_b 23.311277
_cell_length_c 10.727366
_cell_angle_alpha 90.000000
_cell_angle_beta 90.000000
_cell_angle_gamma 90.000000
_cell_volume 1282.450309
_symmetry_space_group_name_H-M "P 21 21 21"
_symmetry_group_IT_number 19
_symmetry_cell_setting 'orthorhombic'
loop_
_space_group_symop_operation_xyz
x,y,z
1/2-x,-y,1/2+z
1/2+x,1/2-y,-z
-x,1/2+y,1/2-z
loop_
_atom_site_type_symbol
_atom_site_label
_atom_site_fract_x
_atom_site_fract_y
_atom_site_fract_z
Si Si1 0.894913 0.861776 0.829342
Si Si2 0.429370 0.451545 0.571756
Si Si3 0.819656 0.744387 0.919941
Si Si4 0.304403 0.119805 0.583739
Si Si5 0.135337 0.921103 0.612784
Si Si6 0.644128 0.942254 0.471393
Si Si7 0.204424 0.030477 0.763944
O O1 0.666375 0.909391 0.815549
O O2 0.996036 0.873045 0.970267
O O3 0.108369 0.873942 0.722906
O O4 0.797343 0.795942 0.818428
O O5 0.541818 0.410446 0.465599
O O6 0.190453 0.488717 0.514084
O O7 0.636022 0.496831 0.628763
O O8 0.760638 0.682586 0.858988
O O9 0.614744 0.756841 0.029812
O O10 0.391834 0.077798 0.696794
O O11 0.427558 0.916472 0.563485
O O12 0.916390 0.909814 0.504972
O O13 0.087245 0.985401 0.664693
O O14 0.536655 0.935429 0.329879
#
# Coordination Sequence:
#
# PCOD8157206 Si02
#       7
#     4   4   4   4   4   4   4
#     4  11  23  38  66  93 131 166 219 261 324 385
#     4  12  20  40  58  96 128 168 202 259 325 390
#     4  10  22  41  65  94 129 166 214 269 327 381
#     4  11  23  41  63  97 132 168 211 274 326 387
#     4  12  24  38  61  88 128 169 213 253 320 390
#     4  12  25  40  56  91 129 171 203 253 322 388
#     4  12  23  38  61  93 133 166 212 261 328 395
#
# _framework density 21.833205
#
# number of rings (size 3 to 8) (size 9 to 14) (size 15 to 20)
#    0.000    0.571    7.143    1.714    0.000    1.143 
#    0.000    0.000    0.000    1.714    0.000    0.000 
#    0.000    0.000    0.000    0.000    0.000    0.000 
#
# Total GULP energy -346935.834741 kJ/mol
# GULP energy per Si atom -12390.565526 kJ/mol
# Density = 2.178351 g / cm^3
# Si number density = 21.833205 Si / 1000 Ang^3
#
#
#
# Elastic Constant Matrix: (Units=GPa)
#
#
# Indices 1 2 3 4 5 6 
#
# 1 83.4018 9.4559 13.8444 0.0000 0.0000 0.0000
# 2 9.4559 118.7193 18.1824 0.0000 0.0000 0.0000
# 3 13.8444 18.1824 42.9746 0.0000 0.0000 0.0000
# 4 0.0000 0.0000 0.0000 27.2484 0.0000 0.0000
# 5 0.0000 0.0000 0.0000 0.0000 31.4715 0.0000
# 6 0.0000 0.0000 0.0000 0.0000 0.0000 25.8918
#
#
#
# Elastic Compliance Matrix: (Units=1/GPa)
#
#
# Indices 1 2 3 4 5 6 
#
# 1 0.012686 -0.000411 -0.003913 0.000000 0.000000 0.000000
# 2 -0.000411 0.009020 -0.003684 0.000000 0.000000 0.000000
# 3 -0.003913 -0.003684 0.026089 0.000000 0.000000 0.000000
# 4 0.000000 0.000000 0.000000 0.036699 0.000000 0.000000
# 5 0.000000 0.000000 0.000000 0.000000 0.031775 0.000000
# 6 0.000000 0.000000 0.000000 0.000000 0.000000 0.038622
#
#
# Mechanical properties :
#
#
# Convention : Reuss Voigt Hill
#
# Bulk Modulus (GPa) = 31.46720 36.45123 33.95921
# Shear Modulus (GPa) = 27.54806 30.49654 29.02230
#
# Velocity S-wave (km/s) = 3.55597 3.74143 3.64988
# Velocity P-wave (km/s) = 5.59497 5.94945 5.77493
#
# Compressibility (1/GPa) = 0.03177913
#
# Stress axis : x y z
#
# Youngs Moduli (GPa) = 78.82518 110.86246 38.33063
#
# Poissons Ratio (x) = 0.04558 0.14999
# Poissons Ratio (y) = 0.03241 0.14121
# Poissons Ratio (z) = 0.30844 0.40841
#
# Static dielectric constant tensor:
#      x y z
#    x 3.969530 0.000000 0.000000 
#    y 0.000000 4.146320 0.000000 
#    z 0.000000 0.000000 3.911280 
# 
# 
# High freq. dielectric constant tensor:
#      x y z
#    x 1.867250 0.000000 0.000000 
#    y 0.000000 1.831700 0.000000 
#    z 0.000000 0.000000 1.831550 
# 
# From -- ./inp_files/4519.got.cif
#   From: 2010.03.12/outbox.cif.g09.slc.cpg/sg19_3_cif.got.tgz:4519.got - 2010.04.10 18:59:41.
