data_PCOD8157433
_publ_section_title
;
Structure prediction by ZEFSAII (Michael W. Deem and Ramdas Pophale) SiO2 
 PCOD8157433
Probable space group: P 21 21 21
;
_chemical_formula_sum "Si O2"
_cell_formula_units_Z 28
_cell_length_a 5.136375
_cell_length_b 7.529467
_cell_length_c 28.905870
_cell_angle_alpha 90.000000
_cell_angle_beta 90.000000
_cell_angle_gamma 90.000000
_cell_volume 1117.910417
_symmetry_space_group_name_H-M "P 21 21 21"
_symmetry_group_IT_number 19
_symmetry_cell_setting 'orthorhombic'
loop_
_space_group_symop_operation_xyz
x,y,z
1/2-x,-y,1/2+z
1/2+x,1/2-y,-z
-x,1/2+y,1/2-z
loop_
_atom_site_type_symbol
_atom_site_label
_atom_site_fract_x
_atom_site_fract_y
_atom_site_fract_z
Si Si1 0.003293 0.459670 0.037833
Si Si2 0.364862 0.312159 0.115157
Si Si3 0.657484 0.269641 0.790804
Si Si4 0.859527 0.901079 0.753894
Si Si5 0.278847 0.611594 0.443376
Si Si6 0.996621 0.816785 0.853252
Si Si7 0.984116 0.794796 0.096092
O O1 0.782999 0.308655 0.037930
O O2 0.903985 0.646853 0.057959
O O3 0.234980 0.385257 0.068910
O O4 0.084624 0.495060 0.984962
O O5 0.154609 0.248578 0.153402
O O6 0.537886 0.141842 0.101331
O O7 0.534588 0.472669 0.136958
O O8 0.362910 0.305287 0.776117
O O9 0.871713 0.417158 0.775535
O O10 0.757517 0.093195 0.766271
O O11 0.918001 0.787684 0.800160
O O12 0.035085 0.490979 0.426751
O O13 0.774398 0.731588 0.885659
O O14 0.272979 0.722085 0.862536
#
# Coordination Sequence:
#
# PCOD8157433 Si02
#       7
#     4   4   4   4   4   4   4
#     4  11  25  46  67 101 146 179 236 297 350 411
#     4  10  24  44  69  94 139 187 230 288 355 414
#     4  11  25  43  70 101 140 183 232 284 353 419
#     4  11  24  44  69 101 140 184 225 290 352 411
#     4  12  25  43  74 100 136 191 237 289 354 420
#     4  10  23  47  68  97 144 183 221 295 353 409
#     4  11  26  43  73 104 139 183 237 283 349 422
#
# _framework density 25.046731000000001
#
# number of rings (size 3 to 8) (size 9 to 14) (size 15 to 20)
#    0.000    1.143    2.857    1.714    4.000    9.143 
#    0.000    0.000    0.000    0.000    0.000    0.000 
#    0.000    0.000    0.000    0.000    0.000    0.000 
#
# Total GULP energy -347239.726775 kJ/mol
# GULP energy per Si atom -12401.418813 kJ/mol
# Density = 2.498972 g / cm^3
# Si number density = 25.046731 Si / 1000 Ang^3
#
#
#
# Elastic Constant Matrix: (Units=GPa)
#
#
# Indices 1 2 3 4 5 6 
#
# 1 71.1658 4.2154 12.3117 0.0000 0.0000 0.0000
# 2 4.2154 76.2359 24.6887 0.0000 0.0000 0.0000
# 3 12.3117 24.6887 94.9304 0.0000 0.0000 0.0000
# 4 0.0000 0.0000 0.0000 26.3479 0.0000 0.0000
# 5 0.0000 0.0000 0.0000 0.0000 35.8534 0.0000
# 6 0.0000 0.0000 0.0000 0.0000 0.0000 38.2232
#
#
#
# Elastic Compliance Matrix: (Units=1/GPa)
#
#
# Indices 1 2 3 4 5 6 
#
# 1 0.014377 -0.000209 -0.001810 0.000000 0.000000 0.000000
# 2 -0.000209 0.014327 -0.003699 0.000000 0.000000 0.000000
# 3 -0.001810 -0.003699 0.011731 0.000000 0.000000 0.000000
# 4 0.000000 0.000000 0.000000 0.037954 0.000000 0.000000
# 5 0.000000 0.000000 0.000000 0.000000 0.027891 0.000000
# 6 0.000000 0.000000 0.000000 0.000000 0.000000 0.026162
#
#
# Mechanical properties :
#
#
# Convention : Reuss Voigt Hill
#
# Bulk Modulus (GPa) = 34.48418 36.08485 35.28451
# Shear Modulus (GPa) = 32.56398 33.49265 33.02831
#
# Velocity S-wave (km/s) = 3.60964 3.66075 3.63529
# Velocity P-wave (km/s) = 5.58306 5.68387 5.63369
#
# Compressibility (1/GPa) = 0.02899881
#
# Stress axis : x y z
#
# Youngs Moduli (GPa) = 69.55436 69.80026 85.24574
#
# Poissons Ratio (x) = 0.01457 0.15432
# Poissons Ratio (y) = 0.01452 0.31531
# Poissons Ratio (z) = 0.12592 0.25818
#
# Static dielectric constant tensor:
#      x y z
#    x 4.342290 0.000000 0.000000 
#    y 0.000000 4.681160 0.000000 
#    z 0.000000 0.000000 4.665880 
# 
# 
# High freq. dielectric constant tensor:
#      x y z
#    x 1.987660 0.000000 0.000000 
#    y 0.000000 2.001260 0.000000 
#    z 0.000000 0.000000 2.005960 
# 
# From -- ./inp_files/7452.got.cif
#   From: 2010.03.12/outbox.cif.g09.slc.cpg/sg19_4_cif.got.tgz:7452.got - 2010.04.10 18:59:41.
