data_PCOD8157632
_publ_section_title
;
Structure prediction by ZEFSAII (Michael W. Deem and Ramdas Pophale) SiO2 
 PCOD8157632
Probable space group: P 21 21 21
;
_chemical_formula_sum "Si O2"
_cell_formula_units_Z 32
_cell_length_a 15.710054
_cell_length_b 8.145106
_cell_length_c 10.955401
_cell_angle_alpha 90.000000
_cell_angle_beta 90.000000
_cell_angle_gamma 90.000000
_cell_volume 1401.853716
_symmetry_space_group_name_H-M "P 21 21 21"
_symmetry_group_IT_number 19
_symmetry_cell_setting 'orthorhombic'
loop_
_space_group_symop_operation_xyz
x,y,z
1/2-x,-y,1/2+z
1/2+x,1/2-y,-z
-x,1/2+y,1/2-z
loop_
_atom_site_type_symbol
_atom_site_label
_atom_site_fract_x
_atom_site_fract_y
_atom_site_fract_z
Si Si1 0.172571 0.186539 0.969964
Si Si2 0.933953 0.337153 0.838971
Si Si3 0.606535 0.232041 0.554234
Si Si4 0.038985 0.924453 0.398990
Si Si5 0.219582 0.050841 0.601461
Si Si6 0.359458 0.596106 0.701246
Si Si7 0.998899 0.008337 0.894374
Si Si8 0.693719 0.756699 0.714137
O O1 0.179105 0.295107 0.092790
O O2 0.232297 0.027043 0.986492
O O3 0.218757 0.289556 0.862147
O O4 0.079242 0.120323 0.936102
O O5 0.840461 0.415096 0.835672
O O6 0.928633 0.138979 0.846643
O O7 0.982072 0.385197 0.715564
O O8 0.985513 0.402569 0.958157
O O9 0.562316 0.386399 0.618895
O O10 0.665725 0.291094 0.442634
O O11 0.663887 0.154699 0.661901
O O12 0.537946 0.098765 0.505895
O O13 0.114399 0.794222 0.371279
O O14 0.961242 0.890622 0.310032
O O15 0.290445 0.102523 0.697968
O O16 0.326256 0.409653 0.697005
#
# Coordination Sequence:
#
# PCOD8157632 Si02
#       8
#     4   4   4   4   4   4   4   4
#     4  12  27  48  71 110 146 194 243 309 383 428
#     4  11  22  46  70 102 143 187 239 303 356 438
#     4  11  26  45  72 106 140 198 247 299 370 441
#     4  11  23  48  71 108 144 192 250 296 365 441
#     4  11  26  47  71 101 146 191 240 310 373 428
#     4  12  28  43  78 105 149 195 246 300 361 460
#     4  12  26  45  77 105 146 195 251 300 367 451
#     4  12  26  48  74 107 152 186 244 313 367 439
#
# _framework density 22.826917000000002
#
# number of rings (size 3 to 8) (size 9 to 14) (size 15 to 20)
#    0.000    0.500    5.000    3.750    7.000    0.000 
#    0.000    0.000    0.000    0.000    0.000    0.000 
#    0.000    0.000    0.000    0.000    0.000    0.000 
#
# Total GULP energy -396762.692826 kJ/mol
# GULP energy per Si atom -12398.834151 kJ/mol
# Density = 2.277496 g / cm^3
# Si number density = 22.826917 Si / 1000 Ang^3
#
#
#
# Elastic Constant Matrix: (Units=GPa)
#
#
# Indices 1 2 3 4 5 6 
#
# 1 80.0064 34.7983 20.9224 0.0000 0.0000 0.0000
# 2 34.7983 113.5074 27.7310 0.0000 0.0000 0.0000
# 3 20.9224 27.7310 96.2915 0.0000 0.0000 0.0000
# 4 0.0000 0.0000 0.0000 42.7380 0.0000 0.0000
# 5 0.0000 0.0000 0.0000 0.0000 32.8819 0.0000
# 6 0.0000 0.0000 0.0000 0.0000 0.0000 24.4848
#
#
#
# Elastic Compliance Matrix: (Units=1/GPa)
#
#
# Indices 1 2 3 4 5 6 
#
# 1 0.014790 -0.004033 -0.002052 0.000000 0.000000 0.000000
# 2 -0.004033 0.010576 -0.002170 0.000000 0.000000 0.000000
# 3 -0.002052 -0.002170 0.011456 0.000000 0.000000 0.000000
# 4 0.000000 0.000000 0.000000 0.023398 0.000000 0.000000
# 5 0.000000 0.000000 0.000000 0.000000 0.030412 0.000000
# 6 0.000000 0.000000 0.000000 0.000000 0.000000 0.040842
#
#
# Mechanical properties :
#
#
# Convention : Reuss Voigt Hill
#
# Bulk Modulus (GPa) = 49.22992 50.74541 49.98766
# Shear Modulus (GPa) = 32.30937 33.77785 33.04361
#
# Velocity S-wave (km/s) = 3.76627 3.85091 3.80882
# Velocity P-wave (km/s) = 6.36604 6.48471 6.42565
#
# Compressibility (1/GPa) = 0.02031285
#
# Stress axis : x y z
#
# Youngs Moduli (GPa) = 67.61471 94.55012 87.29157
#
# Poissons Ratio (x) = 0.38130 0.17913
# Poissons Ratio (y) = 0.27267 0.18939
# Poissons Ratio (z) = 0.13875 0.20514
#
# Static dielectric constant tensor:
#      x y z
#    x 4.064810 0.000000 0.000000 
#    y 0.000000 4.254400 0.000000 
#    z 0.000000 0.000000 3.991780 
# 
# 
# High freq. dielectric constant tensor:
#      x y z
#    x 1.890560 0.000000 0.000000 
#    y 0.000000 1.907630 0.000000 
#    z 0.000000 0.000000 1.909660 
# 
# From -- ./inp_files/5273.got.cif
#   From: 2010.03.12/outbox.cif.g09.slc.cpg/sg19_3_cif.got.tgz:5273.got - 2010.04.10 18:59:41.
