data_PCOD8157896
_publ_section_title
;
Structure prediction by ZEFSAII (Michael W. Deem and Ramdas Pophale) SiO2 
 PCOD8157896
Probable space group: P 21 21 21
;
_chemical_formula_sum "Si O2"
_cell_formula_units_Z 16
_cell_length_a 7.951743
_cell_length_b 4.794473
_cell_length_c 17.266328
_cell_angle_alpha 90.000000
_cell_angle_beta 90.000000
_cell_angle_gamma 90.000000
_cell_volume 658.268691
_symmetry_space_group_name_H-M "P 21 21 21"
_symmetry_group_IT_number 19
_symmetry_cell_setting 'orthorhombic'
loop_
_space_group_symop_operation_xyz
x,y,z
1/2-x,-y,1/2+z
1/2+x,1/2-y,-z
-x,1/2+y,1/2-z
loop_
_atom_site_type_symbol
_atom_site_label
_atom_site_fract_x
_atom_site_fract_y
_atom_site_fract_z
Si Si1 0.686266 0.865494 0.829534
Si Si2 0.187958 0.859991 0.582734
Si Si3 0.812185 0.640353 0.582757
Si Si4 0.313731 0.634854 0.829543
O O1 0.805545 0.611439 0.855516
O O2 0.500068 0.749856 0.817788
O O3 0.687581 0.108086 0.893792
O O4 0.755152 0.000020 0.749977
O O5 0.250062 0.974958 0.499969
O O6 0.000133 0.749875 0.579388
O O7 0.805368 0.389331 0.644632
O O8 0.687919 0.892684 0.606084
#
# Coordination Sequence:
#
# PCOD8157896 Si02
#       4
#     4   4   4   4
#     4  12  25  46  72 103 142 185 232 284 349 417
#     4  12  26  46  73 105 142 183 233 290 348 413
#     4  12  26  46  73 105 142 183 233 290 348 413
#     4  12  25  46  72 103 142 185 232 284 349 417
#
# _framework density 24.306186
#
# number of rings (size 3 to 8) (size 9 to 14) (size 15 to 20)
#    0.000    0.000    0.000   12.000    0.000    4.000 
#    0.000    2.500    0.000    0.000    0.000    0.000 
#    0.000    0.000    0.000    0.000    0.000    0.000 
#
# Total GULP energy -198514.983704 kJ/mol
# GULP energy per Si atom -12407.186482 kJ/mol
# Density = 2.425086 g / cm^3
# Si number density = 24.306186 Si / 1000 Ang^3
#
#
#
# Elastic Constant Matrix: (Units=GPa)
#
#
# Indices 1 2 3 4 5 6 
#
# 1 103.0637 56.7478 80.9275 0.0000 0.0000 0.0000
# 2 56.7478 181.8810 82.1751 0.0000 0.0000 0.0000
# 3 80.9275 82.1751 145.8735 0.0000 0.0000 0.0000
# 4 0.0000 0.0000 0.0000 58.4247 0.0000 0.0000
# 5 0.0000 0.0000 0.0000 0.0000 30.7274 0.0000
# 6 0.0000 0.0000 0.0000 0.0000 0.0000 30.7734
#
#
#
# Elastic Compliance Matrix: (Units=1/GPa)
#
#
# Indices 1 2 3 4 5 6 
#
# 1 0.017468 -0.001438 -0.008881 0.000000 0.000000 0.000000
# 2 -0.001438 0.007494 -0.003424 0.000000 0.000000 0.000000
# 3 -0.008881 -0.003424 0.013711 0.000000 0.000000 0.000000
# 4 0.000000 0.000000 0.000000 0.017116 0.000000 0.000000
# 5 0.000000 0.000000 0.000000 0.000000 0.032544 0.000000
# 6 0.000000 0.000000 0.000000 0.000000 0.000000 0.032496
#
#
# Mechanical properties :
#
#
# Convention : Reuss Voigt Hill
#
# Bulk Modulus (GPa) = 89.38439 96.72433 93.05436
# Shear Modulus (GPa) = 32.88571 38.04963 35.46767
#
# Velocity S-wave (km/s) = 3.68227 3.96084 3.82410
# Velocity P-wave (km/s) = 7.41168 7.79732 7.60695
#
# Compressibility (1/GPa) = 0.01118764
#
# Stress axis : x y z
#
# Youngs Moduli (GPa) = 57.24852 133.44846 72.93461
#
# Poissons Ratio (x) = 0.19184 0.64772
# Poissons Ratio (y) = 0.08230 0.24971
# Poissons Ratio (z) = 0.50842 0.45690
#
# Static dielectric constant tensor:
#      x y z
#    x 4.082160 0.000000 0.000000 
#    y 0.000000 4.929040 0.000000 
#    z 0.000000 0.000000 4.549400 
# 
# 
# High freq. dielectric constant tensor:
#      x y z
#    x 1.956500 0.000000 0.000000 
#    y 0.000000 1.990030 0.000000 
#    z 0.000000 0.000000 1.973610 
# 
# From -- ./inp_files/2354.got.cif
#   From: 2010.03.12/outbox.cif.g09.slc.cpg/sg19_2_cif.got.tgz:2354.got - 2010.04.10 18:59:41.
