data_PCOD8157919
_publ_section_title
;
Structure prediction by ZEFSAII (Michael W. Deem and Ramdas Pophale) SiO2 
 PCOD8157919
Probable space group: P 21 21 21
;
_chemical_formula_sum "Si O2"
_cell_formula_units_Z 16
_cell_length_a 9.124822
_cell_length_b 9.124817
_cell_length_c 7.553935
_cell_angle_alpha 90.000000
_cell_angle_beta 90.000000
_cell_angle_gamma 90.000000
_cell_volume 628.958236
_symmetry_space_group_name_H-M "P 21 21 21"
_symmetry_group_IT_number 19
_symmetry_cell_setting 'orthorhombic'
loop_
_space_group_symop_operation_xyz
x,y,z
1/2-x,-y,1/2+z
1/2+x,1/2-y,-z
-x,1/2+y,1/2-z
loop_
_atom_site_type_symbol
_atom_site_label
_atom_site_fract_x
_atom_site_fract_y
_atom_site_fract_z
Si Si1 0.383561 0.375078 0.239290
Si Si2 0.107452 0.919161 0.926272
Si Si3 0.874921 0.866439 0.510710
Si Si4 0.330841 0.142549 0.823729
O O1 0.437248 0.211299 0.292015
O O2 0.489494 0.450412 0.093969
O O3 0.383248 0.468716 0.418589
O O4 0.218716 0.366753 0.168588
O O5 0.267871 0.982130 0.875002
O O6 0.109502 0.859505 0.125001
O O7 0.799585 0.760507 0.656032
O O8 0.038699 0.812751 0.457985
#
# Coordination Sequence:
#
# PCOD8157919 Si02
#       4
#     4   4   4   4
#     4  12  26  46  74 106 144 193 247 304 370 440
#     4  12  27  48  73 106 149 193 244 308 370 438
#     4  12  26  46  74 106 144 193 247 304 370 440
#     4  12  27  48  73 106 149 193 244 308 370 438
#
# _framework density 25.438889
#
# number of rings (size 3 to 8) (size 9 to 14) (size 15 to 20)
#    0.000    0.000    0.000   10.500    0.000   10.000 
#    0.000    0.000    0.000    0.000    0.000    0.000 
#    0.000    0.000    0.000    0.000    0.000    0.000 
#
# Total GULP energy -198517.550031 kJ/mol
# GULP energy per Si atom -12407.346877 kJ/mol
# Density = 2.538099 g / cm^3
# Si number density = 25.438889 Si / 1000 Ang^3
#
#
#
# Elastic Constant Matrix: (Units=GPa)
#
#
# Indices 1 2 3 4 5 6 
#
# 1 155.6366 61.3760 46.5635 0.0000 0.0000 0.0000
# 2 61.3760 155.6384 46.5657 0.0000 0.0000 0.0000
# 3 46.5635 46.5657 134.3561 0.0000 0.0000 0.0000
# 4 0.0000 0.0000 0.0000 44.2730 0.0000 0.0000
# 5 0.0000 0.0000 0.0000 0.0000 44.2730 0.0000
# 6 0.0000 0.0000 0.0000 0.0000 0.0000 46.4559
#
#
#
# Elastic Compliance Matrix: (Units=1/GPa)
#
#
# Indices 1 2 3 4 5 6 
#
# 1 0.008011 -0.002598 -0.001876 0.000000 0.000000 0.000000
# 2 -0.002598 0.008011 -0.001876 0.000000 0.000000 0.000000
# 3 -0.001876 -0.001876 0.008743 0.000000 0.000000 0.000000
# 4 0.000000 0.000000 0.000000 0.022587 0.000000 0.000000
# 5 0.000000 0.000000 0.000000 0.000000 0.022587 0.000000
# 6 0.000000 0.000000 0.000000 0.000000 0.000000 0.021526
#
#
# Mechanical properties :
#
#
# Convention : Reuss Voigt Hill
#
# Bulk Modulus (GPa) = 82.88238 83.84905 83.36571
# Shear Modulus (GPa) = 46.21632 46.40876 46.31254
#
# Velocity S-wave (km/s) = 4.26697 4.27584 4.27141
# Velocity P-wave (km/s) = 7.54505 7.57692 7.56100
#
# Compressibility (1/GPa) = 0.01206529
#
# Stress axis : x y z
#
# Youngs Moduli (GPa) = 124.82908 124.82938 114.37336
#
# Poissons Ratio (x) = 0.32429 0.21456
# Poissons Ratio (y) = 0.32429 0.21458
# Poissons Ratio (z) = 0.23418 0.23420
#
# Static dielectric constant tensor:
#      x y z
#    x 4.656820 0.000000 0.000000 
#    y 0.000000 4.656820 0.000000 
#    z 0.000000 0.000000 4.421790 
# 
# 
# High freq. dielectric constant tensor:
#      x y z
#    x 2.026900 0.000000 0.000000 
#    y 0.000000 2.026900 0.000000 
#    z 0.000000 0.000000 2.020870 
# 
# From -- ./inp_files/2545.got.cif
#   From: 2010.03.12/outbox.cif.g09.slc.cpg/sg19_2_cif.got.tgz:2545.got - 2010.04.10 18:59:41.
