data_PCOD8157359
_publ_section_title
;
Structure prediction by ZEFSAII (Michael W. Deem and Ramdas Pophale) SiO2 
 PCOD8157359
Probable space group: P 21 21 21
;
_chemical_formula_sum "Si O2"
_cell_formula_units_Z 24
_cell_length_a 13.752636
_cell_length_b 8.819139
_cell_length_c 8.447775
_cell_angle_alpha 90.000000
_cell_angle_beta 90.000000
_cell_angle_gamma 90.000000
_cell_volume 1024.600290
_symmetry_space_group_name_H-M "P 21 21 21"
_symmetry_group_IT_number 19
_symmetry_cell_setting 'orthorhombic'
loop_
_space_group_symop_operation_xyz
x,y,z
1/2-x,-y,1/2+z
1/2+x,1/2-y,-z
-x,1/2+y,1/2-z
loop_
_atom_site_type_symbol
_atom_site_label
_atom_site_fract_x
_atom_site_fract_y
_atom_site_fract_z
Si Si1 0.571563 0.088709 0.403069
Si Si2 0.469245 0.190179 0.946257
Si Si3 0.770617 0.137664 0.856321
Si Si4 0.135761 0.902920 0.751829
Si Si5 0.589390 0.986215 0.730626
Si Si6 0.155243 0.223155 0.864189
O O1 0.461422 0.113894 0.352982
O O2 0.577409 0.111207 0.590769
O O3 0.642272 0.195057 0.303561
O O4 0.617443 0.919604 0.377382
O O5 0.512770 0.040381 0.862185
O O6 0.425913 0.310915 0.819239
O O7 0.390703 0.114360 0.064795
O O8 0.554381 0.280645 0.038620
O O9 0.782572 0.271289 0.724320
O O10 0.698989 0.006095 0.797115
O O11 0.737233 0.198887 0.028490
O O12 0.187767 0.055739 0.809395
#
# Coordination Sequence:
#
# PCOD8157359 Si02
#       6
#     4   4   4   4   4   4
#     4  11  21  43  70  99 135 187 228 280 358 421
#     4  10  23  44  67 100 139 178 229 288 347 426
#     4  11  24  44  68 100 141 179 235 295 348 425
#     4  11  22  45  69  95 144 182 231 288 352 425
#     4  11  23  44  68 102 137 179 237 284 351 416
#     4  10  23  42  66 100 136 181 234 283 350 419
#
# _framework density 23.423767999999999
#
# number of rings (size 3 to 8) (size 9 to 14) (size 15 to 20)
#    0.000    1.333    3.333    2.000    2.333    1.333 
#    9.000    0.000    0.000    0.000    0.000    0.000 
#    0.000    0.000    0.000    0.000    0.000    0.000 
#
# Total GULP energy -297344.069556 kJ/mol
# GULP energy per Si atom -12389.336231 kJ/mol
# Density = 2.337045 g / cm^3
# Si number density = 23.423768 Si / 1000 Ang^3
#
#
#
# Elastic Constant Matrix: (Units=GPa)
#
#
# Indices 1 2 3 4 5 6 
#
# 1 58.4636 -0.8071 7.4277 0.0000 0.0000 0.0000
# 2 -0.8071 58.5330 1.9719 0.0000 0.0000 0.0000
# 3 7.4277 1.9719 62.1014 0.0000 0.0000 0.0000
# 4 0.0000 0.0000 0.0000 48.6942 0.0000 0.0000
# 5 0.0000 0.0000 0.0000 0.0000 28.5399 0.0000
# 6 0.0000 0.0000 0.0000 0.0000 0.0000 30.5855
#
#
#
# Elastic Compliance Matrix: (Units=1/GPa)
#
#
# Indices 1 2 3 4 5 6 
#
# 1 0.017374 0.000310 -0.002088 0.000000 0.000000 0.000000
# 2 0.000310 0.017108 -0.000580 0.000000 0.000000 0.000000
# 3 -0.002088 -0.000580 0.016371 0.000000 0.000000 0.000000
# 4 0.000000 0.000000 0.000000 0.020536 0.000000 0.000000
# 5 0.000000 0.000000 0.000000 0.000000 0.035039 0.000000
# 6 0.000000 0.000000 0.000000 0.000000 0.000000 0.032695
#
#
# Mechanical properties :
#
#
# Convention : Reuss Voigt Hill
#
# Bulk Modulus (GPa) = 21.67474 21.80923 21.74199
# Shear Modulus (GPa) = 31.40330 32.93096 32.16713
#
# Velocity S-wave (km/s) = 3.66547 3.75357 3.70978
# Velocity P-wave (km/s) = 5.21418 5.30252 5.25853
#
# Compressibility (1/GPa) = 0.04613665
#
# Stress axis : x y z
#
# Youngs Moduli (GPa) = 57.55662 58.45149 61.08421
#
# Poissons Ratio (x) = -0.01811 0.12754
# Poissons Ratio (y) = -0.01784 0.03545
# Poissons Ratio (z) = 0.12017 0.03392
#
# Static dielectric constant tensor:
#      x y z
#    x 4.189190 0.000000 0.000000 
#    y 0.000000 4.232860 0.000000 
#    z 0.000000 0.000000 4.401270 
# 
# 
# High freq. dielectric constant tensor:
#      x y z
#    x 1.929480 0.000000 0.000000 
#    y 0.000000 1.919560 0.000000 
#    z 0.000000 0.000000 1.924690 
# 
# From -- ./inp_files/2821.got.cif
#   From: 2010.03.12/outbox.cif.g09.slc.cpg/sg19_2_cif.got.tgz:2821.got - 2010.04.10 18:59:41.
