data_PCOD8157954
_publ_section_title
;
Structure prediction by ZEFSAII (Michael W. Deem and Ramdas Pophale) SiO2 
 PCOD8157954
Probable space group: C 2 2 21
;
_chemical_formula_sum "Si O2"
_cell_formula_units_Z 56
_cell_length_a 5.131201
_cell_length_b 31.159914
_cell_length_c 18.033957
_cell_angle_alpha 90.000000
_cell_angle_beta 90.000000
_cell_angle_gamma 90.000000
_cell_volume 2883.409383
_symmetry_space_group_name_H-M "C 2 2 21"
_symmetry_group_IT_number 20
_symmetry_cell_setting 'orthorhombic'
loop_
_space_group_symop_operation_xyz
x,y,z
-x,-y,1/2+z
x,-y,-z
-x,y,1/2-z
1/2+x,1/2+y,z
1/2-x,1/2-y,1/2+z
1/2+x,1/2-y,-z
1/2-x,1/2+y,1/2-z
loop_
_atom_site_type_symbol
_atom_site_label
_atom_site_fract_x
_atom_site_fract_y
_atom_site_fract_z
Si Si1 0.109225 0.012182 0.413840
Si Si2 0.886225 0.525285 0.922681
Si Si3 0.599302 0.389568 0.578219
Si Si4 0.404974 0.881877 0.017829
Si Si5 0.919425 0.706625 0.563153
Si Si6 0.087738 0.255556 0.901477
Si Si7 0.745158 0.172798 0.205630
O O1 0.039141 0.061623 0.400073
O O2 0.158417 0.000000 0.500000
O O3 0.375783 0.995409 0.376082
O O4 0.877172 0.984619 0.377202
O O5 0.904737 0.576151 0.931452
O O6 0.840239 0.500000 0.000000
O O7 0.377892 0.372537 0.520315
O O8 0.611955 0.360319 0.650566
O O9 0.887408 0.388961 0.546081
O O10 0.507144 0.843448 0.070465
O O11 0.926082 0.716745 0.476060
O O12 0.645422 0.720465 0.600366
O O13 0.139268 0.731999 0.606522
O O14 0.086708 0.288436 0.833566
O O15 0.500000 0.150999 0.250000
O O16 0.000000 0.189852 0.250000
#
# Coordination Sequence:
#
# PCOD8157954 Si02
#       7
#     8   8   8   8   8   8   8
#     4  10  16  29  44  74 108 149 181 205 260 330
#     4  10  16  27  43  73 112 150 173 195 253 335
#     4  12  21  32  53  76 113 151 189 231 271 327
#     4  12  19  30  52  81 113 147 180 223 284 353
#     4  10  21  33  55  81 104 145 172 233 302 349
#     4  10  21  38  54  74 108 138 188 229 291 345
#     4  12  26  41  57  78 109 157 207 236 274 339
#
# _framework density 19.421453
#
# number of rings (size 3 to 8) (size 9 to 14) (size 15 to 20)
#    0.000    1.143    7.143    2.571    4.000    0.000 
#    0.000    0.000    0.000    0.000    0.000    0.000 
#    0.000   17.143    0.000    0.000    0.000    0.000 
#
# Total GULP energy -346928.106165 kJ/mol
# GULP energy per Si atom -12390.289506 kJ/mol
# Density = 1.937725 g / cm^3
# Si number density = 19.421453 Si / 1000 Ang^3
#
#
#
# Elastic Constant Matrix: (Units=GPa)
#
#
# Indices 1 2 3 4 5 6 
#
# 1 135.5681 13.3337 21.3924 0.0000 0.0000 0.0000
# 2 13.3337 115.9557 27.1444 0.0000 0.0000 0.0000
# 3 21.3924 27.1444 32.1750 0.0000 0.0000 0.0000
# 4 0.0000 0.0000 0.0000 8.3345 0.0000 0.0000
# 5 0.0000 0.0000 0.0000 0.0000 17.2697 0.0000
# 6 0.0000 0.0000 0.0000 0.0000 0.0000 29.0417
#
#
#
# Elastic Compliance Matrix: (Units=1/GPa)
#
#
# Indices 1 2 3 4 5 6 
#
# 1 0.008257 0.000418 -0.005843 0.000000 0.000000 0.000000
# 2 0.000418 0.010767 -0.009362 0.000000 0.000000 0.000000
# 3 -0.005843 -0.009362 0.042863 0.000000 0.000000 0.000000
# 4 0.000000 0.000000 0.000000 0.119984 0.000000 0.000000
# 5 0.000000 0.000000 0.000000 0.000000 0.057905 0.000000
# 6 0.000000 0.000000 0.000000 0.000000 0.000000 0.034433
#
#
# Mechanical properties :
#
#
# Convention : Reuss Voigt Hill
#
# Bulk Modulus (GPa) = 30.94589 45.27107 38.10848
# Shear Modulus (GPa) = 15.89549 25.71773 20.80661
#
# Velocity S-wave (km/s) = 2.86396 3.64289 3.27665
# Velocity P-wave (km/s) = 5.18699 6.40739 5.82921
#
# Compressibility (1/GPa) = 0.03231447
#
# Stress axis : x y z
#
# Youngs Moduli (GPa) = 121.10602 92.87214 23.33001
#
# Poissons Ratio (x) = -0.03885 0.13632
# Poissons Ratio (y) = -0.05066 0.21842
# Poissons Ratio (z) = 0.70761 0.86948
#
# Static dielectric constant tensor:
#      x y z
#    x 4.526840 0.000000 0.000000 
#    y 0.000000 3.876560 0.000000 
#    z 0.000000 0.000000 3.035680 
# 
# 
# High freq. dielectric constant tensor:
#      x y z
#    x 1.797350 0.000000 0.000000 
#    y 0.000000 1.760890 0.000000 
#    z 0.000000 0.000000 1.672530 
# 
# From -- ./inp_files/17973.got.cif
#   From: 2010.03.12/outbox.cif.g09.slc.cpg/sg20_9_cif.got.tgz:17973.got - 2010.04.14 01:38:04.
