data_PCOD8157977
_publ_section_title
;
Structure prediction by ZEFSAII (Michael W. Deem and Ramdas Pophale) SiO2 
 PCOD8157977
Probable space group: C 2 2 21
;
_chemical_formula_sum "Si O2"
_cell_formula_units_Z 60
_cell_length_a 27.833364
_cell_length_b 26.808039
_cell_length_c 5.437663
_cell_angle_alpha 90.000000
_cell_angle_beta 90.000000
_cell_angle_gamma 90.000000
_cell_volume 4057.355246
_symmetry_space_group_name_H-M "C 2 2 21"
_symmetry_group_IT_number 20
_symmetry_cell_setting 'orthorhombic'
loop_
_space_group_symop_operation_xyz
x,y,z
-x,-y,1/2+z
x,-y,-z
-x,y,1/2-z
1/2+x,1/2+y,z
1/2-x,1/2-y,1/2+z
1/2+x,1/2-y,-z
1/2-x,1/2+y,1/2-z
loop_
_atom_site_type_symbol
_atom_site_label
_atom_site_fract_x
_atom_site_fract_y
_atom_site_fract_z
Si Si1 0.500000 0.344606 0.750000
Si Si2 0.141586 0.277947 0.592397
Si Si3 0.581524 0.371787 0.069828
Si Si4 0.056792 0.972582 0.250722
Si Si5 0.823118 0.833442 0.596678
Si Si6 0.213977 0.186072 0.595379
Si Si7 0.450574 0.279758 0.129811
Si Si8 0.677307 0.783354 0.093387
O O1 0.467792 0.380958 0.583395
O O2 0.537813 0.308549 0.618826
O O3 0.173805 0.228484 0.597835
O O4 0.084748 0.266341 0.579914
O O5 0.153636 0.307713 0.846557
O O6 0.155564 0.308474 0.343166
O O7 0.582895 0.418396 0.256050
O O8 0.629388 0.368074 0.904873
O O9 0.577484 0.318644 0.200268
O O10 0.000000 0.966188 0.250000
O O11 0.074207 0.000000 0.500000
O O12 0.073929 0.000000 0.000000
O O13 0.793954 0.847068 0.847642
O O14 0.836471 0.774943 0.602158
O O15 0.792138 0.845564 0.348383
O O16 0.265694 0.211424 0.585976
O O17 0.500000 0.259848 0.250000
#
# Coordination Sequence:
#
# PCOD8157977 Si02
#       8
#     4   8   8   8   8   8   8   8
#     4  10  20  28  46  58  74  96 124 152 200 240
#     4  10  17  27  38  54  74  99 125 148 177 221
#     4  11  21  32  46  62  76  99 124 161 202 249
#     4  10  23  37  49  60  74  95 126 163 207 255
#     4  10  18  27  42  59  79  95 120 145 182 227
#     4  10  17  27  41  59  80 101 119 146 178 224
#     4  10  20  29  40  58  77 101 125 160 197 236
#     4  10  17  27  41  57  79 101 123 146 178 222
#
# _framework density 14.787958
#
# number of rings (size 3 to 8) (size 9 to 14) (size 15 to 20)
#    0.000    1.867    2.667    6.800    6.533    0.000 
#    0.000    0.000    0.000    0.000    0.000    0.000 
#    0.000    0.000    0.000    0.000    0.000    0.000 
#
# Total GULP energy -371726.063460 kJ/mol
# GULP energy per Si atom -12390.868782 kJ/mol
# Density = 1.475430 g / cm^3
# Si number density = 14.787958 Si / 1000 Ang^3
#
#
#
# Elastic Constant Matrix: (Units=GPa)
#
#
# Indices 1 2 3 4 5 6 
#
# 1 47.4045 10.7885 18.0176 0.0000 0.0000 0.0000
# 2 10.7885 12.0937 7.1677 0.0000 0.0000 0.0000
# 3 18.0176 7.1677 134.0684 0.0000 0.0000 0.0000
# 4 0.0000 0.0000 0.0000 9.8568 0.0000 0.0000
# 5 0.0000 0.0000 0.0000 0.0000 16.4125 0.0000
# 6 0.0000 0.0000 0.0000 0.0000 0.0000 10.2904
#
#
#
# Elastic Compliance Matrix: (Units=1/GPa)
#
#
# Indices 1 2 3 4 5 6 
#
# 1 0.027219 -0.022837 -0.002437 0.000000 0.000000 0.000000
# 2 -0.022837 0.104553 -0.002521 0.000000 0.000000 0.000000
# 3 -0.002437 -0.002521 0.007921 0.000000 0.000000 0.000000
# 4 0.000000 0.000000 0.000000 0.101453 0.000000 0.000000
# 5 0.000000 0.000000 0.000000 0.000000 0.060929 0.000000
# 6 0.000000 0.000000 0.000000 0.000000 0.000000 0.097178
#
#
# Mechanical properties :
#
#
# Convention : Reuss Voigt Hill
#
# Bulk Modulus (GPa) = 11.88997 29.50156 20.69576
# Shear Modulus (GPa) = 10.35462 17.81814 14.08638
#
# Velocity S-wave (km/s) = 2.64901 3.47495 3.08970
# Velocity P-wave (km/s) = 4.17302 6.00777 5.17240
#
# Compressibility (1/GPa) = 0.08410451
#
# Stress axis : x y z
#
# Youngs Moduli (GPa) = 36.73967 9.56450 126.24428
#
# Poissons Ratio (x) = 0.21842 0.30766
# Poissons Ratio (y) = 0.83901 0.31822
# Poissons Ratio (z) = 0.08954 0.02411
#
# Static dielectric constant tensor:
#      x y z
#    x 2.838480 0.000000 0.000000 
#    y 0.000000 2.221280 0.000000 
#    z 0.000000 0.000000 4.019270 
# 
# 
# High freq. dielectric constant tensor:
#      x y z
#    x 1.557730 0.000000 0.000000 
#    y 0.000000 1.463570 0.000000 
#    z 0.000000 0.000000 1.603870 
# 
# From -- ./inp_files/3940.got.cif
#   From: 2010.03.12/outbox.cif.g09.slc.cpg/sg20_2_cif.got.tgz:3940.got - 2010.04.14 01:38:04.
