data_PCOD8157792
_publ_section_title
;
Structure prediction by ZEFSAII (Michael W. Deem and Ramdas Pophale) SiO2 
 PCOD8157792
Probable space group: P 21 21 21
;
_chemical_formula_sum "Si O2"
_cell_formula_units_Z 24
_cell_length_a 5.155526
_cell_length_b 14.114982
_cell_length_c 13.294549
_cell_angle_alpha 90.000000
_cell_angle_beta 90.000000
_cell_angle_gamma 90.000000
_cell_volume 967.446414
_symmetry_space_group_name_H-M "P 21 21 21"
_symmetry_group_IT_number 19
_symmetry_cell_setting 'orthorhombic'
loop_
_space_group_symop_operation_xyz
x,y,z
1/2-x,-y,1/2+z
1/2+x,1/2-y,-z
-x,1/2+y,1/2-z
loop_
_atom_site_type_symbol
_atom_site_label
_atom_site_fract_x
_atom_site_fract_y
_atom_site_fract_z
Si Si1 0.960572 0.680002 0.122904
Si Si2 0.936620 0.478508 0.129353
Si Si3 0.430521 0.473672 0.996320
Si Si4 0.712450 0.322215 0.252191
Si Si5 0.274089 0.720799 0.446455
Si Si6 0.665386 0.859746 0.090980
O O1 0.890227 0.582659 0.181911
O O2 0.721493 0.749980 0.113404
O O3 0.187457 0.741273 0.172338
O O4 0.010901 0.637845 0.012403
O O5 0.717185 0.461767 0.042332
O O6 0.927080 0.397777 0.215214
O O7 0.228288 0.477084 0.088035
O O8 0.350006 0.382777 0.929370
O O9 0.407101 0.567351 0.924330
O O10 0.606000 0.266391 0.154789
O O11 0.503189 0.387240 0.311095
O O12 0.525769 0.714905 0.519172
#
# Coordination Sequence:
#
# PCOD8157792 Si02
#       6
#     4   4   4   4   4   4
#     4  11  25  47  71 105 154 195 250 319 372 455
#     4  11  26  47  75 106 148 198 253 311 379 456
#     4  11  24  49  74 104 151 197 249 316 382 444
#     4  12  27  45  76 111 148 203 256 308 385 465
#     4  12  25  49  74 111 151 197 250 321 383 448
#     4  11  25  45  74 103 154 198 248 313 381 452
#
# _framework density 24.807573999999999
#
# number of rings (size 3 to 8) (size 9 to 14) (size 15 to 20)
#    0.000    0.667    5.000    1.000    9.333    2.667 
#    0.000    0.000    0.000    0.000    0.000    0.000 
#    0.000    0.000    0.000    0.000    0.000    0.000 
#
# Total GULP energy -297343.090804 kJ/mol
# GULP energy per Si atom -12389.295450 kJ/mol
# Density = 2.475111 g / cm^3
# Si number density = 24.807574 Si / 1000 Ang^3
#
#
#
# Elastic Constant Matrix: (Units=GPa)
#
#
# Indices 1 2 3 4 5 6 
#
# 1 78.1305 -1.9609 14.6761 0.0000 0.0000 0.0000
# 2 -1.9609 132.1053 15.5587 0.0000 0.0000 0.0000
# 3 14.6761 15.5587 81.0979 0.0000 0.0000 0.0000
# 4 0.0000 0.0000 0.0000 14.7677 0.0000 0.0000
# 5 0.0000 0.0000 0.0000 0.0000 10.7066 0.0000
# 6 0.0000 0.0000 0.0000 0.0000 0.0000 42.1503
#
#
#
# Elastic Compliance Matrix: (Units=1/GPa)
#
#
# Indices 1 2 3 4 5 6 
#
# 1 0.013281 0.000491 -0.002498 0.000000 0.000000 0.000000
# 2 0.000491 0.007763 -0.001578 0.000000 0.000000 0.000000
# 3 -0.002498 -0.001578 0.013086 0.000000 0.000000 0.000000
# 4 0.000000 0.000000 0.000000 0.067715 0.000000 0.000000
# 5 0.000000 0.000000 0.000000 0.000000 0.093400 0.000000
# 6 0.000000 0.000000 0.000000 0.000000 0.000000 0.023725
#
#
# Mechanical properties :
#
#
# Convention : Reuss Voigt Hill
#
# Bulk Modulus (GPa) = 37.09210 38.65350 37.87280
# Shear Modulus (GPa) = 21.26532 31.06226 26.16379
#
# Velocity S-wave (km/s) = 2.93099 3.54238 3.25109
# Velocity P-wave (km/s) = 5.14186 5.68739 5.42149
#
# Compressibility (1/GPa) = 0.02695992
#
# Stress axis : x y z
#
# Youngs Moduli (GPa) = 75.29786 128.81809 76.42017
#
# Poissons Ratio (x) = -0.06329 0.19087
# Poissons Ratio (y) = -0.03699 0.12061
# Poissons Ratio (z) = 0.18807 0.20330
#
# Static dielectric constant tensor:
#      x y z
#    x 4.153960 0.000000 0.000000 
#    y 0.000000 5.471670 0.000000 
#    z 0.000000 0.000000 4.432480 
# 
# 
# High freq. dielectric constant tensor:
#      x y z
#    x 1.974760 0.000000 0.000000 
#    y 0.000000 2.016720 0.000000 
#    z 0.000000 0.000000 1.966100 
# 
# From -- ./inp_files/938.got.cif
#   From: 2010.03.12/outbox.cif.g09.slc.cpg/sg19_1_cif.got.tgz:938.got - 2010.04.10 18:59:41.
