data_PCOD8157381
_publ_section_title
;
Structure prediction by ZEFSAII (Michael W. Deem and Ramdas Pophale) SiO2 
 PCOD8157381
Probable space group: P 21 21 21
;
_chemical_formula_sum "Si O2"
_cell_formula_units_Z 32
_cell_length_a 9.453824
_cell_length_b 18.287932
_cell_length_c 8.918710
_cell_angle_alpha 90.000000
_cell_angle_beta 90.000000
_cell_angle_gamma 90.000000
_cell_volume 1541.963714
_symmetry_space_group_name_H-M "P 21 21 21"
_symmetry_group_IT_number 19
_symmetry_cell_setting 'orthorhombic'
loop_
_space_group_symop_operation_xyz
x,y,z
1/2-x,-y,1/2+z
1/2+x,1/2-y,-z
-x,1/2+y,1/2-z
loop_
_atom_site_type_symbol
_atom_site_label
_atom_site_fract_x
_atom_site_fract_y
_atom_site_fract_z
Si Si1 0.536507 0.237317 0.622223
Si Si2 0.041295 0.128922 0.172887
Si Si3 0.209718 0.228573 0.667229
Si Si4 0.831931 0.590243 0.632320
Si Si5 0.785128 0.868203 0.631851
Si Si6 0.828271 0.894055 0.289138
Si Si7 0.558603 0.498676 0.621584
Si Si8 0.062739 0.516051 0.805357
O O1 0.571909 0.293461 0.753929
O O2 0.368141 0.230755 0.602727
O O3 0.597750 0.263708 0.465116
O O4 0.611087 0.162483 0.669113
O O5 0.876177 0.110616 0.159986
O O6 0.114533 0.066702 0.274287
O O7 0.111603 0.132389 0.011632
O O8 0.186057 0.149335 0.737733
O O9 0.177992 0.291994 0.788257
O O10 0.683448 0.554998 0.587513
O O11 0.938835 0.525959 0.683029
O O12 0.814900 0.859284 0.454952
O O13 0.880079 0.933090 0.702874
O O14 0.679343 0.922752 0.228926
O O15 0.934067 0.961655 0.289649
O O16 0.498674 0.465430 0.468292
#
# Coordination Sequence:
#
# PCOD8157381 Si02
#       8
#     4   4   4   4   4   4   4   4
#     4  11  26  44  68  96 134 175 224 285 338 397
#     4  11  23  42  68  95 132 174 221 277 331 402
#     4  11  26  46  66  98 135 177 226 283 341 407
#     4  12  24  46  66 100 136 178 220 277 345 404
#     4  10  23  43  69  98 128 176 231 270 329 408
#     4  11  22  44  68  97 130 177 224 274 332 405
#     4  11  24  43  65 100 139 167 221 280 335 397
#     4  11  24  42  72 100 134 178 227 274 339 408
#
# _framework density 20.752759000000001
#
# number of rings (size 3 to 8) (size 9 to 14) (size 15 to 20)
#    0.000    1.000    3.750    2.250    5.250    1.000 
#    9.000    0.000    0.000    0.000    0.000    0.000 
#    0.000    0.000    0.000    0.000    0.000    0.000 
#
# Total GULP energy -396978.581715 kJ/mol
# GULP energy per Si atom -12405.580679 kJ/mol
# Density = 2.070552 g / cm^3
# Si number density = 20.752759 Si / 1000 Ang^3
#
#
#
# Elastic Constant Matrix: (Units=GPa)
#
#
# Indices 1 2 3 4 5 6 
#
# 1 51.8924 38.2139 115.4649 0.0000 0.0000 0.0000
# 2 38.2139 59.9762 29.6402 0.0000 0.0000 0.0000
# 3 115.4649 29.6402 26.8497 0.0000 0.0000 0.0000
# 4 0.0000 0.0000 0.0000 38.2059 0.0000 0.0000
# 5 0.0000 0.0000 0.0000 0.0000 37.5448 0.0000
# 6 0.0000 0.0000 0.0000 0.0000 0.0000 23.9040
#
#
#
# Elastic Compliance Matrix: (Units=1/GPa)
#
#
# Indices 1 2 3 4 5 6 
#
# 1 -0.001357 -0.004444 0.010741 0.000000 0.000000 0.000000
# 2 -0.004444 0.022139 -0.005330 0.000000 0.000000 0.000000
# 3 0.010741 -0.005330 -0.003063 0.000000 0.000000 0.000000
# 4 0.000000 0.000000 0.000000 0.026174 0.000000 0.000000
# 5 0.000000 0.000000 0.000000 0.000000 0.026635 0.000000
# 6 0.000000 0.000000 0.000000 0.000000 0.000000 0.041834
#
#
# Mechanical properties :
#
#
# Convention : Reuss Voigt Hill
#
# Bulk Modulus (GPa) = 50.88144 56.15071 53.51607
# Shear Modulus (GPa) = 42.74348 16.95756 29.85052
#
# Velocity S-wave (km/s) = 4.54326 2.86164 3.79672
# Velocity P-wave (km/s) = 7.21753 6.16720 6.71294
#
# Compressibility (1/GPa) = 0.01965353
#
# Stress axis : x y z
#
# Youngs Moduli (GPa) = -736.91657 45.17003 -326.43806
#
# Poissons Ratio (x) = 0.20072 3.50633
# Poissons Ratio (y) = -3.27461 -1.73986
# Poissons Ratio (z) = 7.91535 0.24075
#
# Static dielectric constant tensor:
#      x y z
#    x 3.822930 0.000000 0.000000 
#    y 0.000000 3.716290 0.000000 
#    z 0.000000 0.000000 3.752010 
# 
# 
# High freq. dielectric constant tensor:
#      x y z
#    x 1.819850 0.000000 0.000000 
#    y 0.000000 1.818110 0.000000 
#    z 0.000000 0.000000 1.819070 
# 
# From -- ./inp_files/3117.got.cif
#   From: 2010.03.12/outbox.cif.g09.slc.cpg/sg19_2_cif.got.tgz:3117.got - 2010.04.10 18:59:41.
