data_PCOD8157757
_publ_section_title
;
Structure prediction by ZEFSAII (Michael W. Deem and Ramdas Pophale) SiO2 
 PCOD8157757
Probable space group: P 21 21 21
;
_chemical_formula_sum "Si O2"
_cell_formula_units_Z 24
_cell_length_a 9.481335
_cell_length_b 5.301008
_cell_length_c 19.602935
_cell_angle_alpha 90.000000
_cell_angle_beta 90.000000
_cell_angle_gamma 90.000000
_cell_volume 985.255916
_symmetry_space_group_name_H-M "P 21 21 21"
_symmetry_group_IT_number 19
_symmetry_cell_setting 'orthorhombic'
loop_
_space_group_symop_operation_xyz
x,y,z
1/2-x,-y,1/2+z
1/2+x,1/2-y,-z
-x,1/2+y,1/2-z
loop_
_atom_site_type_symbol
_atom_site_label
_atom_site_fract_x
_atom_site_fract_y
_atom_site_fract_z
Si Si1 0.478565 0.346272 0.207380
Si Si2 0.323526 0.801187 0.681272
Si Si3 0.241886 0.660012 0.983013
Si Si4 0.415408 0.006875 0.813467
Si Si5 0.469082 0.148093 0.580305
Si Si6 0.697054 0.326389 0.093588
O O1 0.475019 0.582407 0.258574
O O2 0.328130 0.318143 0.170361
O O3 0.578133 0.414916 0.145275
O O4 0.430925 0.592401 0.710235
O O5 0.315679 0.990031 0.746453
O O6 0.383474 0.908359 0.609814
O O7 0.412422 0.599393 0.980632
O O8 0.162463 0.441015 0.940690
O O9 0.210774 0.946058 0.959802
O O10 0.156903 0.659649 0.055531
O O11 0.342377 0.208818 0.864122
O O12 0.436059 0.752281 0.857384
#
# Coordination Sequence:
#
# PCOD8157757 Si02
#       6
#     4   4   4   4   4   4
#     4  12  28  44  72 109 146 187 236 299 367 425
#     4  12  25  43  74 106 146 186 246 297 371 431
#     4  11  27  47  72  99 145 188 247 290 354 435
#     4  11  24  45  74 104 141 188 240 303 359 432
#     4  11  27  46  71 106 140 198 242 298 363 431
#     4  11  25  49  69 102 146 189 231 299 356 424
#
# _framework density 24.359155999999999
#
# number of rings (size 3 to 8) (size 9 to 14) (size 15 to 20)
#    0.000    0.667    5.000    1.000   11.667    1.333 
#    0.000    0.000    0.000    0.000    0.000    0.000 
#    0.000    0.000    0.000    0.000    0.000    0.000 
#
# Total GULP energy -297368.658935 kJ/mol
# GULP energy per Si atom -12390.360789 kJ/mol
# Density = 2.430371 g / cm^3
# Si number density = 24.359156 Si / 1000 Ang^3
#
#
#
# Elastic Constant Matrix: (Units=GPa)
#
#
# Indices 1 2 3 4 5 6 
#
# 1 106.4325 0.9238 23.3553 0.0000 0.0000 0.0000
# 2 0.9238 85.5339 8.7807 0.0000 0.0000 0.0000
# 3 23.3553 8.7807 53.5914 0.0000 0.0000 0.0000
# 4 0.0000 0.0000 0.0000 25.1240 0.0000 0.0000
# 5 0.0000 0.0000 0.0000 0.0000 42.0375 0.0000
# 6 0.0000 0.0000 0.0000 0.0000 0.0000 32.3449
#
#
#
# Elastic Compliance Matrix: (Units=1/GPa)
#
#
# Indices 1 2 3 4 5 6 
#
# 1 0.010400 0.000359 -0.004591 0.000000 0.000000 0.000000
# 2 0.000359 0.011904 -0.002107 0.000000 0.000000 0.000000
# 3 -0.004591 -0.002107 0.021006 0.000000 0.000000 0.000000
# 4 0.000000 0.000000 0.000000 0.039803 0.000000 0.000000
# 5 0.000000 0.000000 0.000000 0.000000 0.023788 0.000000
# 6 0.000000 0.000000 0.000000 0.000000 0.000000 0.030917
#
#
# Mechanical properties :
#
#
# Convention : Reuss Voigt Hill
#
# Bulk Modulus (GPa) = 32.64619 34.63081 33.63850
# Shear Modulus (GPa) = 31.11283 34.06783 32.59033
#
# Velocity S-wave (km/s) = 3.57775 3.74379 3.66171
# Velocity P-wave (km/s) = 5.52251 5.73896 5.63177
#
# Compressibility (1/GPa) = 0.03063145
#
# Stress axis : x y z
#
# Youngs Moduli (GPa) = 96.15398 84.00766 47.60599
#
# Poissons Ratio (x) = -0.03016 0.21857
# Poissons Ratio (y) = -0.03452 0.10030
# Poissons Ratio (z) = 0.44146 0.17699
#
# Static dielectric constant tensor:
#      x y z
#    x 4.692220 0.000000 0.000000 
#    y 0.000000 4.075520 0.000000 
#    z 0.000000 0.000000 4.439150 
# 
# 
# High freq. dielectric constant tensor:
#      x y z
#    x 1.979750 0.000000 0.000000 
#    y 0.000000 1.961180 0.000000 
#    z 0.000000 0.000000 1.960910 
# 
# From -- ./inp_files/414.got.cif
#   From: 2010.03.12/outbox.cif.g09.slc.cpg/sg19_1_cif.got.tgz:414.got - 2010.04.10 18:59:41.
