data_PCOD8157927
_publ_section_title
;
Structure prediction by ZEFSAII (Michael W. Deem and Ramdas Pophale) SiO2 
 PCOD8157927
Probable space group: P 21 21 21
;
_chemical_formula_sum "Si O2"
_cell_formula_units_Z 16
_cell_length_a 13.188340
_cell_length_b 10.811023
_cell_length_c 4.923461
_cell_angle_alpha 90.000000
_cell_angle_beta 90.000000
_cell_angle_gamma 90.000000
_cell_volume 701.984347
_symmetry_space_group_name_H-M "P 21 21 21"
_symmetry_group_IT_number 19
_symmetry_cell_setting 'orthorhombic'
loop_
_space_group_symop_operation_xyz
x,y,z
1/2-x,-y,1/2+z
1/2+x,1/2-y,-z
-x,1/2+y,1/2-z
loop_
_atom_site_type_symbol
_atom_site_label
_atom_site_fract_x
_atom_site_fract_y
_atom_site_fract_z
Si Si1 0.181790 0.505778 0.977652
Si Si2 0.563030 0.758681 0.813643
Si Si3 0.758014 0.417096 0.183873
Si Si4 0.571326 0.235028 0.175321
O O1 0.235589 0.540554 0.695118
O O2 0.098830 0.400131 0.935210
O O3 0.128077 0.626878 0.087154
O O4 0.634333 0.641870 0.756626
O O5 0.505076 0.798322 0.538370
O O6 0.480986 0.718514 0.035048
O O7 0.736234 0.533760 0.377077
O O8 0.671302 0.315527 0.215102
#
# Coordination Sequence:
#
# PCOD8157927 Si02
#       4
#     4   4   4   4
#     4  12  26  50  74 102 148 190 244 298 350 424
#     4  12  28  48  74 109 143 193 241 293 361 424
#     4  12  28  50  72 106 150 190 236 298 360 428
#     4  12  28  48  74 109 143 193 241 293 361 424
#
# _framework density 22.792531
#
# number of rings (size 3 to 8) (size 9 to 14) (size 15 to 20)
#    0.000    0.000    2.500    6.000   14.000    0.000 
#    0.000    0.000    0.000    0.000    0.000    0.000 
#    0.000    0.000    0.000    0.000    0.000    0.000 
#
# Total GULP energy -198589.331454 kJ/mol
# GULP energy per Si atom -12411.833216 kJ/mol
# Density = 2.274065 g / cm^3
# Si number density = 22.792531 Si / 1000 Ang^3
#
#
#
# Elastic Constant Matrix: (Units=GPa)
#
#
# Indices 1 2 3 4 5 6 
#
# 1 88.6506 19.7776 40.5618 0.0000 0.0000 0.0000
# 2 19.7776 62.9672 -3.9849 0.0000 0.0000 0.0000
# 3 40.5618 -3.9849 98.0987 0.0000 0.0000 0.0000
# 4 0.0000 0.0000 0.0000 37.4444 0.0000 0.0000
# 5 0.0000 0.0000 0.0000 0.0000 59.6493 0.0000
# 6 0.0000 0.0000 0.0000 0.0000 0.0000 24.3800
#
#
#
# Elastic Compliance Matrix: (Units=1/GPa)
#
#
# Indices 1 2 3 4 5 6 
#
# 1 0.015487 -0.005283 -0.006618 0.000000 0.000000 0.000000
# 2 -0.005283 0.017725 0.002904 0.000000 0.000000 0.000000
# 3 -0.006618 0.002904 0.013048 0.000000 0.000000 0.000000
# 4 0.000000 0.000000 0.000000 0.026706 0.000000 0.000000
# 5 0.000000 0.000000 0.000000 0.000000 0.016765 0.000000
# 6 0.000000 0.000000 0.000000 0.000000 0.000000 0.041017
#
#
# Mechanical properties :
#
#
# Convention : Reuss Voigt Hill
#
# Bulk Modulus (GPa) = 35.37813 40.26948 37.82380
# Shear Modulus (GPa) = 31.61280 37.18553 34.39917
#
# Velocity S-wave (km/s) = 3.72826 4.04354 3.88910
# Velocity P-wave (km/s) = 5.83855 6.28542 6.06610
#
# Compressibility (1/GPa) = 0.02826605
#
# Stress axis : x y z
#
# Youngs Moduli (GPa) = 64.57018 56.41902 76.63843
#
# Poissons Ratio (x) = 0.29807 0.50721
# Poissons Ratio (y) = 0.34114 -0.22260
# Poissons Ratio (z) = 0.42734 -0.16387
#
# Static dielectric constant tensor:
#      x y z
#    x 4.480270 0.000000 0.000000 
#    y 0.000000 4.080760 0.000000 
#    z 0.000000 0.000000 4.485560 
# 
# 
# High freq. dielectric constant tensor:
#      x y z
#    x 1.918230 0.000000 0.000000 
#    y 0.000000 1.902030 0.000000 
#    z 0.000000 0.000000 1.922070 
# 
# From -- ./inp_files/268.got.cif
#   From: 2010.03.12/outbox.cif.g09.slc.cpg/sg19_1_cif.got.tgz:268.got - 2010.04.10 18:59:41.
