data_PCOD8157247
_publ_section_title
;
Structure prediction by ZEFSAII (Michael W. Deem and Ramdas Pophale) SiO2 
 PCOD8157247
Probable space group: P 21 21 21
;
_chemical_formula_sum "Si O2"
_cell_formula_units_Z 32
_cell_length_a 17.638484
_cell_length_b 11.818266
_cell_length_c 7.051419
_cell_angle_alpha 90.000000
_cell_angle_beta 90.000000
_cell_angle_gamma 90.000000
_cell_volume 1469.912685
_symmetry_space_group_name_H-M "P 21 21 21"
_symmetry_group_IT_number 19
_symmetry_cell_setting 'orthorhombic'
loop_
_space_group_symop_operation_xyz
x,y,z
1/2-x,-y,1/2+z
1/2+x,1/2-y,-z
-x,1/2+y,1/2-z
loop_
_atom_site_type_symbol
_atom_site_label
_atom_site_fract_x
_atom_site_fract_y
_atom_site_fract_z
Si Si1 0.618768 0.352884 0.665280
Si Si2 0.330954 0.401202 0.485042
Si Si3 0.280529 0.224725 0.205111
Si Si4 0.008388 0.220718 0.020374
Si Si5 0.734980 0.889618 0.635707
Si Si6 0.961341 0.021121 0.769731
Si Si7 0.094737 0.926361 0.538974
Si Si8 0.116833 0.299937 0.696107
O O1 0.694201 0.316060 0.775943
O O2 0.619935 0.487467 0.626720
O O3 0.610175 0.292854 0.464428
O O4 0.544448 0.321197 0.784317
O O5 0.311219 0.277295 0.401634
O O6 0.264133 0.486776 0.422088
O O7 0.334862 0.398982 0.714929
O O8 0.412632 0.443153 0.414748
O O9 0.330474 0.117250 0.146345
O O10 0.290321 0.323785 0.050791
O O11 0.075543 0.260419 0.885289
O O12 0.961597 0.120684 0.921937
O O13 0.951093 0.324040 0.059459
O O14 0.796217 0.817682 0.752645
O O15 0.921394 0.916277 0.876179
O O16 0.044904 0.989355 0.698606
#
# Coordination Sequence:
#
# PCOD8157247 Si02
#       8
#     4   4   4   4   4   4   4   4
#     4  12  26  43  73  99 143 188 235 288 359 424
#     4  11  22  41  73 103 138 180 231 295 344 417
#     4  12  25  45  68 108 141 184 240 290 355 426
#     4  11  23  46  69  99 143 182 237 293 347 423
#     4  11  22  41  70 103 139 177 224 293 356 401
#     4  10  23  45  70  96 143 181 230 298 347 409
#     4  11  27  47  69 104 141 188 241 286 359 430
#     4  10  22  42  66 100 134 180 228 285 355 408
#
# _framework density 21.770001000000001
#
# number of rings (size 3 to 8) (size 9 to 14) (size 15 to 20)
#    0.000    1.000    6.250    0.000    1.750    3.000 
#    2.250    0.000    0.000    0.000    0.000    0.000 
#    0.000    0.000    0.000    0.000    0.000    0.000 
#
# Total GULP energy -396971.752371 kJ/mol
# GULP energy per Si atom -12405.367262 kJ/mol
# Density = 2.172045 g / cm^3
# Si number density = 21.770001 Si / 1000 Ang^3
#
#
#
# Elastic Constant Matrix: (Units=GPa)
#
#
# Indices 1 2 3 4 5 6 
#
# 1 61.8325 19.1229 3.8358 0.0000 0.0000 0.0000
# 2 19.1229 114.8781 22.5155 0.0000 0.0000 0.0000
# 3 3.8358 22.5155 65.2702 0.0000 0.0000 0.0000
# 4 0.0000 0.0000 0.0000 33.4838 0.0000 0.0000
# 5 0.0000 0.0000 0.0000 0.0000 28.3688 0.0000
# 6 0.0000 0.0000 0.0000 0.0000 0.0000 36.8960
#
#
#
# Elastic Compliance Matrix: (Units=1/GPa)
#
#
# Indices 1 2 3 4 5 6 
#
# 1 0.017051 -0.002833 -0.000025 0.000000 0.000000 0.000000
# 2 -0.002833 0.009807 -0.003216 0.000000 0.000000 0.000000
# 3 -0.000025 -0.003216 0.016432 0.000000 0.000000 0.000000
# 4 0.000000 0.000000 0.000000 0.029865 0.000000 0.000000
# 5 0.000000 0.000000 0.000000 0.000000 0.035250 0.000000
# 6 0.000000 0.000000 0.000000 0.000000 0.000000 0.027103
#
#
# Mechanical properties :
#
#
# Convention : Reuss Voigt Hill
#
# Bulk Modulus (GPa) = 32.11266 36.99214 34.55240
# Shear Modulus (GPa) = 31.63818 32.85017 32.24418
#
# Velocity S-wave (km/s) = 3.81634 3.88875 3.85272
# Velocity P-wave (km/s) = 5.84826 6.09855 5.97472
#
# Compressibility (1/GPa) = 0.03114036
#
# Stress axis : x y z
#
# Youngs Moduli (GPa) = 58.64913 101.96842 60.85718
#
# Poissons Ratio (x) = 0.28892 0.00150
# Poissons Ratio (y) = 0.16618 0.19575
# Poissons Ratio (z) = 0.00144 0.32798
#
# Static dielectric constant tensor:
#      x y z
#    x 3.939370 0.000000 0.000000 
#    y 0.000000 4.116600 0.000000 
#    z 0.000000 0.000000 3.767900 
# 
# 
# High freq. dielectric constant tensor:
#      x y z
#    x 1.859490 0.000000 0.000000 
#    y 0.000000 1.862990 0.000000 
#    z 0.000000 0.000000 1.845910 
# 
# From -- ./inp_files/2043.got.cif
#   From: 2010.03.12/outbox.cif.g09.slc.cpg/sg19_2_cif.got.tgz:2043.got - 2010.04.10 18:59:41.
