data_PCOD8157543
_publ_section_title
;
Structure prediction by ZEFSAII (Michael W. Deem and Ramdas Pophale) SiO2 
 PCOD8157543
Probable space group: P 21 21 21
;
_chemical_formula_sum "Si O2"
_cell_formula_units_Z 16
_cell_length_a 4.924636
_cell_length_b 5.245477
_cell_length_c 22.374192
_cell_angle_alpha 90.000000
_cell_angle_beta 90.000000
_cell_angle_gamma 90.000000
_cell_volume 577.971579
_symmetry_space_group_name_H-M "P 21 21 21"
_symmetry_group_IT_number 19
_symmetry_cell_setting 'orthorhombic'
loop_
_space_group_symop_operation_xyz
x,y,z
1/2-x,-y,1/2+z
1/2+x,1/2-y,-z
-x,1/2+y,1/2-z
loop_
_atom_site_type_symbol
_atom_site_label
_atom_site_fract_x
_atom_site_fract_y
_atom_site_fract_z
Si Si1 0.096249 0.635786 0.926799
Si Si2 0.324580 0.914410 0.245957
Si Si3 0.969518 0.158850 0.152909
Si Si4 0.595573 0.969439 0.942283
O O1 0.187948 0.468459 0.869952
O O2 0.287258 0.883780 0.931362
O O3 0.790041 0.738014 0.920567
O O4 0.140746 0.468998 0.987587
O O5 0.499696 0.160781 0.262832
O O6 0.158838 0.951162 0.184772
O O7 0.110615 0.878289 0.299941
O O8 0.143155 0.277344 0.097603
#
# Coordination Sequence:
#
# PCOD8157543 Si02
#       4
#     4   4   4   4
#     4  10  26  50  81 124 168 217 278 348 425 511
#     4  12  32  54  82 124 172 226 294 348 420 506
#     4  12  30  50  84 120 170 226 280 354 428 508
#     4  10  26  50  81 124 168 217 278 348 425 511
#
# _framework density 27.683019999999999
#
# number of rings (size 3 to 8) (size 9 to 14) (size 15 to 20)
#    0.000    1.000    0.000    1.500   17.500    6.000 
#    0.000    0.000    0.000    0.000    0.000    0.000 
#    0.000    0.000    0.000    0.000    0.000    0.000 
#
# Total GULP energy -198530.248691 kJ/mol
# GULP energy per Si atom -12408.140543 kJ/mol
# Density = 2.762001 g / cm^3
# Si number density = 27.683020 Si / 1000 Ang^3
#
#
#
# Elastic Constant Matrix: (Units=GPa)
#
#
# Indices 1 2 3 4 5 6 
#
# 1 74.6419 6.8486 4.9845 0.0000 0.0000 0.0000
# 2 6.8486 103.5551 24.1488 0.0000 0.0000 0.0000
# 3 4.9845 24.1488 108.1956 0.0000 0.0000 0.0000
# 4 0.0000 0.0000 0.0000 64.5650 0.0000 0.0000
# 5 0.0000 0.0000 0.0000 0.0000 41.7878 0.0000
# 6 0.0000 0.0000 0.0000 0.0000 0.0000 45.4679
#
#
#
# Elastic Compliance Matrix: (Units=1/GPa)
#
#
# Indices 1 2 3 4 5 6 
#
# 1 0.013499 -0.000789 -0.000446 0.000000 0.000000 0.000000
# 2 -0.000789 0.010233 -0.002248 0.000000 0.000000 0.000000
# 3 -0.000446 -0.002248 0.009765 0.000000 0.000000 0.000000
# 4 0.000000 0.000000 0.000000 0.015488 0.000000 0.000000
# 5 0.000000 0.000000 0.000000 0.000000 0.023930 0.000000
# 6 0.000000 0.000000 0.000000 0.000000 0.000000 0.021994
#
#
# Mechanical properties :
#
#
# Convention : Reuss Voigt Hill
#
# Bulk Modulus (GPa) = 37.68949 39.81739 38.75344
# Shear Modulus (GPa) = 45.15970 47.05820 46.10895
#
# Velocity S-wave (km/s) = 4.04333 4.12745 4.08561
# Velocity P-wave (km/s) = 5.95334 6.09336 6.02376
#
# Compressibility (1/GPa) = 0.02653260
#
# Stress axis : x y z
#
# Youngs Moduli (GPa) = 74.07709 97.72301 102.40946
#
# Poissons Ratio (x) = 0.07709 0.04566
# Poissons Ratio (y) = 0.05843 0.23018
# Poissons Ratio (z) = 0.03303 0.21964
#
# Static dielectric constant tensor:
#      x y z
#    x 5.018740 0.000000 0.000000 
#    y 0.000000 4.783880 0.000000 
#    z 0.000000 0.000000 5.305470 
# 
# 
# High freq. dielectric constant tensor:
#      x y z
#    x 2.123210 0.000000 0.000000 
#    y 0.000000 2.106460 0.000000 
#    z 0.000000 0.000000 2.139280 
# 
# From -- ./inp_files/6860.got.cif
#   From: 2010.03.12/outbox.cif.g09.slc.cpg/sg19_4_cif.got.tgz:6860.got - 2010.04.10 18:59:41.
