data_PCOD8157917
_publ_section_title
;
Structure prediction by ZEFSAII (Michael W. Deem and Ramdas Pophale) SiO2 
 PCOD8157917
Probable space group: P 21 21 21
;
_chemical_formula_sum "Si O2"
_cell_formula_units_Z 32
_cell_length_a 11.908329
_cell_length_b 20.702133
_cell_length_c 5.271541
_cell_angle_alpha 90.000000
_cell_angle_beta 90.000000
_cell_angle_gamma 90.000000
_cell_volume 1299.581462
_symmetry_space_group_name_H-M "P 21 21 21"
_symmetry_group_IT_number 19
_symmetry_cell_setting 'orthorhombic'
loop_
_space_group_symop_operation_xyz
x,y,z
1/2-x,-y,1/2+z
1/2+x,1/2-y,-z
-x,1/2+y,1/2-z
loop_
_atom_site_type_symbol
_atom_site_label
_atom_site_fract_x
_atom_site_fract_y
_atom_site_fract_z
Si Si1 0.861423 0.932935 0.059806
Si Si2 0.599400 0.725376 0.895730
Si Si3 0.623355 0.580929 0.909022
Si Si4 0.833628 0.075330 0.910719
Si Si5 0.310005 0.949739 0.765476
Si Si6 0.259570 0.673110 0.264896
Si Si7 0.071362 0.102101 0.764060
Si Si8 0.038041 0.248812 0.890475
O O1 0.783329 0.904854 0.279989
O O2 0.992283 0.932727 0.111892
O O3 0.837949 0.885151 0.830116
O O4 0.817951 0.005808 0.034808
O O5 0.649470 0.654526 0.826537
O O6 0.700227 0.777412 0.933931
O O7 0.526098 0.748483 0.656434
O O8 0.530823 0.718414 0.157566
O O9 0.681083 0.528272 0.719128
O O10 0.677790 0.568366 0.190807
O O11 0.945080 0.073572 0.739373
O O12 0.845338 0.136408 0.100727
O O13 0.363553 0.926824 0.504459
O O14 0.371181 0.915968 0.001726
O O15 0.343729 0.715014 0.438019
O O16 0.066804 0.177966 0.796463
#
# Coordination Sequence:
#
# PCOD8157917 Si02
#       8
#     4   4   4   4   4   4   4   4
#     4  12  26  48  78 113 155 202 260 333 406 472
#     4  12  28  49  79 113 158 208 264 331 394 498
#     4  12  28  53  79 119 164 215 278 333 410 487
#     4  12  26  45  79 115 149 204 256 334 403 473
#     4  12  29  51  82 114 161 216 273 335 400 482
#     4  12  27  49  74 111 153 203 259 321 410 474
#     4  12  27  52  82 117 162 208 273 335 407 483
#     4  12  27  49  79 114 158 210 263 322 410 485
#
# _framework density 24.623311999999999
#
# number of rings (size 3 to 8) (size 9 to 14) (size 15 to 20)
#    0.000    0.000    5.000    3.750    3.500    5.000 
#    2.250    0.000    0.000    0.000    0.000    0.000 
#    0.000    0.000    0.000    0.000    0.000    0.000 
#
# Total GULP energy -396551.629331 kJ/mol
# GULP energy per Si atom -12392.238417 kJ/mol
# Density = 2.456727 g / cm^3
# Si number density = 24.623312 Si / 1000 Ang^3
#
#
#
# Elastic Constant Matrix: (Units=GPa)
#
#
# Indices 1 2 3 4 5 6 
#
# 1 128.8582 23.6856 22.1144 0.0000 0.0000 0.0000
# 2 23.6856 155.0752 9.5153 0.0000 0.0000 0.0000
# 3 22.1144 9.5153 69.4388 0.0000 0.0000 0.0000
# 4 0.0000 0.0000 0.0000 31.4348 0.0000 0.0000
# 5 0.0000 0.0000 0.0000 0.0000 27.4004 0.0000
# 6 0.0000 0.0000 0.0000 0.0000 0.0000 25.9334
#
#
#
# Elastic Compliance Matrix: (Units=1/GPa)
#
#
# Indices 1 2 3 4 5 6 
#
# 1 0.008400 -0.001128 -0.002521 0.000000 0.000000 0.000000
# 2 -0.001128 0.006655 -0.000553 0.000000 0.000000 0.000000
# 3 -0.002521 -0.000553 0.015280 0.000000 0.000000 0.000000
# 4 0.000000 0.000000 0.000000 0.031812 0.000000 0.000000
# 5 0.000000 0.000000 0.000000 0.000000 0.036496 0.000000
# 6 0.000000 0.000000 0.000000 0.000000 0.000000 0.038560
#
#
# Mechanical properties :
#
#
# Convention : Reuss Voigt Hill
#
# Bulk Modulus (GPa) = 45.59633 51.55589 48.57611
# Shear Modulus (GPa) = 32.69755 36.82419 34.76087
#
# Velocity S-wave (km/s) = 3.64800 3.87137 3.76134
# Velocity P-wave (km/s) = 6.02509 6.40052 6.21564
#
# Compressibility (1/GPa) = 0.02193159
#
# Stress axis : x y z
#
# Youngs Moduli (GPa) = 119.04091 150.26900 65.44651
#
# Poissons Ratio (x) = 0.16956 0.16497
# Poissons Ratio (y) = 0.13432 0.03616
# Poissons Ratio (z) = 0.30007 0.08303
#
# Static dielectric constant tensor:
#      x y z
#    x 4.843390 0.000000 0.000000 
#    y 0.000000 5.255630 0.000000 
#    z 0.000000 0.000000 4.472340 
# 
# 
# High freq. dielectric constant tensor:
#      x y z
#    x 1.997700 0.000000 0.000000 
#    y 0.000000 2.013050 0.000000 
#    z 0.000000 0.000000 1.956960 
# 
# From -- ./inp_files/1216.got.cif
#   From: 2010.03.12/outbox.cif.g09.slc.cpg/sg19_1_cif.got.tgz:1216.got - 2010.04.10 18:59:41.
