data_PCOD8157182
_publ_section_title
;
Structure prediction by ZEFSAII (Michael W. Deem and Ramdas Pophale) SiO2 
 PCOD8157182
Probable space group: P 21 21 21
;
_chemical_formula_sum "Si O2"
_cell_formula_units_Z 24
_cell_length_a 5.239595
_cell_length_b 20.030458
_cell_length_c 9.566793
_cell_angle_alpha 90.000000
_cell_angle_beta 90.000000
_cell_angle_gamma 90.000000
_cell_volume 1004.049157
_symmetry_space_group_name_H-M "P 21 21 21"
_symmetry_group_IT_number 19
_symmetry_cell_setting 'orthorhombic'
loop_
_space_group_symop_operation_xyz
x,y,z
1/2-x,-y,1/2+z
1/2+x,1/2-y,-z
-x,1/2+y,1/2-z
loop_
_atom_site_type_symbol
_atom_site_label
_atom_site_fract_x
_atom_site_fract_y
_atom_site_fract_z
Si Si1 0.857325 0.845448 0.699456
Si Si2 0.975154 0.738498 0.919874
Si Si3 0.797883 0.979944 0.842968
Si Si4 0.581948 0.391201 0.268385
Si Si5 0.946135 0.490828 0.379290
Si Si6 0.668113 0.371050 0.963086
O O1 0.836271 0.784195 0.804759
O O2 0.926832 0.912507 0.786023
O O3 0.599693 0.851538 0.609007
O O4 0.096330 0.829833 0.599011
O O5 0.051660 0.665228 0.862255
O O6 0.745393 0.730106 0.032573
O O7 0.513707 0.982182 0.777684
O O8 0.904733 0.047023 0.771355
O O9 0.813480 0.981674 0.011674
O O10 0.810683 0.419906 0.364012
O O11 0.671940 0.354215 0.127172
O O12 0.774367 0.549271 0.447254
#
# Coordination Sequence:
#
# PCOD8157182 Si02
#       6
#     4   4   4   4   4   4
#     4  11  23  47  66 102 143 182 236 294 355 429
#     4  12  29  48  72 105 143 194 239 291 372 436
#     4  10  23  39  68 100 138 191 232 301 355 416
#     4  11  25  42  70 101 143 184 245 293 359 435
#     4  10  22  40  66 103 142 181 237 301 350 429
#     4  10  24  42  70 103 133 188 235 288 367 407
#
# _framework density 23.903213999999998
#
# number of rings (size 3 to 8) (size 9 to 14) (size 15 to 20)
#    0.000    1.333    1.667    2.000   11.667    1.333 
#    0.000    0.000    0.000    0.000    0.000    0.000 
#    0.000    0.000    0.000    0.000    0.000    0.000 
#
# Total GULP energy -297398.560617 kJ/mol
# GULP energy per Si atom -12391.606692 kJ/mol
# Density = 2.384881 g / cm^3
# Si number density = 23.903214 Si / 1000 Ang^3
#
#
#
# Elastic Constant Matrix: (Units=GPa)
#
#
# Indices 1 2 3 4 5 6 
#
# 1 93.1709 10.1924 22.9938 0.0000 0.0000 0.0000
# 2 10.1924 92.1380 19.1818 0.0000 0.0000 0.0000
# 3 22.9938 19.1818 97.0252 0.0000 0.0000 0.0000
# 4 0.0000 0.0000 0.0000 40.4489 0.0000 0.0000
# 5 0.0000 0.0000 0.0000 0.0000 33.4739 0.0000
# 6 0.0000 0.0000 0.0000 0.0000 0.0000 26.1093
#
#
#
# Elastic Compliance Matrix: (Units=1/GPa)
#
#
# Indices 1 2 3 4 5 6 
#
# 1 0.011447 -0.000732 -0.002568 0.000000 0.000000 0.000000
# 2 -0.000732 0.011366 -0.002074 0.000000 0.000000 0.000000
# 3 -0.002568 -0.002074 0.011325 0.000000 0.000000 0.000000
# 4 0.000000 0.000000 0.000000 0.024723 0.000000 0.000000
# 5 0.000000 0.000000 0.000000 0.000000 0.029874 0.000000
# 6 0.000000 0.000000 0.000000 0.000000 0.000000 0.038301
#
#
# Mechanical properties :
#
#
# Convention : Reuss Voigt Hill
#
# Bulk Modulus (GPa) = 42.75123 43.00777 42.87950
# Shear Modulus (GPa) = 34.34565 35.33748 34.84157
#
# Velocity S-wave (km/s) = 3.79471 3.84911 3.82201
# Velocity P-wave (km/s) = 6.09293 6.14701 6.12003
#
# Compressibility (1/GPa) = 0.02339114
#
# Stress axis : x y z
#
# Youngs Moduli (GPa) = 87.36075 87.98226 88.29889
#
# Poissons Ratio (x) = 0.06437 0.22676
# Poissons Ratio (y) = 0.06391 0.18310
# Poissons Ratio (z) = 0.22435 0.18244
#
# Static dielectric constant tensor:
#      x y z
#    x 4.016300 0.000000 0.000000 
#    y 0.000000 4.160110 0.000000 
#    z 0.000000 0.000000 4.559440 
# 
# 
# High freq. dielectric constant tensor:
#      x y z
#    x 1.927700 0.000000 0.000000 
#    y 0.000000 1.943230 0.000000 
#    z 0.000000 0.000000 1.960860 
# 
# From -- ./inp_files/2389.got.cif
#   From: 2010.03.12/outbox.cif.g09.slc.cpg/sg19_2_cif.got.tgz:2389.got - 2010.04.10 18:59:41.
