data_PCOD8157512
_publ_section_title
;
Structure prediction by ZEFSAII (Michael W. Deem and Ramdas Pophale) SiO2 
 PCOD8157512
Probable space group: P 21 21 21
;
_chemical_formula_sum "Si O2"
_cell_formula_units_Z 32
_cell_length_a 14.373224
_cell_length_b 6.661633
_cell_length_c 15.377391
_cell_angle_alpha 90.000000
_cell_angle_beta 90.000000
_cell_angle_gamma 90.000000
_cell_volume 1472.372015
_symmetry_space_group_name_H-M "P 21 21 21"
_symmetry_group_IT_number 19
_symmetry_cell_setting 'orthorhombic'
loop_
_space_group_symop_operation_xyz
x,y,z
1/2-x,-y,1/2+z
1/2+x,1/2-y,-z
-x,1/2+y,1/2-z
loop_
_atom_site_type_symbol
_atom_site_label
_atom_site_fract_x
_atom_site_fract_y
_atom_site_fract_z
Si Si1 0.945086 0.713648 0.146077
Si Si2 0.197426 0.080663 0.099491
Si Si3 0.088700 0.777420 0.996152
Si Si4 0.965644 0.548652 0.653224
Si Si5 0.348605 0.643689 0.447602
Si Si6 0.101782 0.862660 0.252285
Si Si7 0.144683 0.767950 0.716297
Si Si8 0.711002 0.992083 0.678758
O O1 0.903204 0.488980 0.157769
O O2 0.865284 0.874833 0.129448
O O3 0.019646 0.708622 0.070438
O O4 0.998913 0.780245 0.233543
O O5 0.181055 0.895840 0.031539
O O6 0.134027 0.029609 0.182082
O O7 0.302447 0.125667 0.133778
O O8 0.159295 0.273235 0.045899
O O9 0.026704 0.900292 0.928082
O O10 0.124339 0.586708 0.946020
O O11 0.920310 0.749946 0.616786
O O12 0.902923 0.447135 0.728789
O O13 0.068052 0.606101 0.686333
O O14 0.250902 0.647643 0.397778
O O15 0.169856 0.671001 0.253844
O O16 0.218972 0.640820 0.771498
#
# Coordination Sequence:
#
# PCOD8157512 Si02
#       8
#     4   4   4   4   4   4   4   4
#     4  11  24  40  69 101 141 179 228 281 359 409
#     4  10  25  42  72 101 137 181 232 286 345 417
#     4  10  25  48  69  99 147 184 226 292 356 421
#     4  11  26  50  69 104 141 187 237 291 354 412
#     4  11  25  48  69 101 143 183 235 292 350 417
#     4  11  23  43  67 103 140 180 228 291 345 414
#     4  12  25  48  74 103 138 190 241 294 345 414
#     4  12  25  43  71 102 137 184 235 291 342 414
#
# _framework density 21.733637999999999
#
# number of rings (size 3 to 8) (size 9 to 14) (size 15 to 20)
#    0.000    1.000    3.750    1.500    7.000    1.000 
#    2.250    0.000    0.000    0.000    0.000    0.000 
#    0.000    0.000    0.000    0.000    0.000    0.000 
#
# Total GULP energy -396594.634700 kJ/mol
# GULP energy per Si atom -12393.582334 kJ/mol
# Density = 2.168417 g / cm^3
# Si number density = 21.733638 Si / 1000 Ang^3
#
#
#
# Elastic Constant Matrix: (Units=GPa)
#
#
# Indices 1 2 3 4 5 6 
#
# 1 99.8478 35.6540 23.8902 0.0000 0.0000 0.0000
# 2 35.6540 106.3653 28.1020 0.0000 0.0000 0.0000
# 3 23.8902 28.1020 71.5213 0.0000 0.0000 0.0000
# 4 0.0000 0.0000 0.0000 32.5653 0.0000 0.0000
# 5 0.0000 0.0000 0.0000 0.0000 21.3720 0.0000
# 6 0.0000 0.0000 0.0000 0.0000 0.0000 38.7768
#
#
#
# Elastic Compliance Matrix: (Units=1/GPa)
#
#
# Indices 1 2 3 4 5 6 
#
# 1 0.011816 -0.003256 -0.002668 0.000000 0.000000 0.000000
# 2 -0.003256 0.011388 -0.003387 0.000000 0.000000 0.000000
# 3 -0.002668 -0.003387 0.016204 0.000000 0.000000 0.000000
# 4 0.000000 0.000000 0.000000 0.030708 0.000000 0.000000
# 5 0.000000 0.000000 0.000000 0.000000 0.046790 0.000000
# 6 0.000000 0.000000 0.000000 0.000000 0.000000 0.025789
#
#
# Mechanical properties :
#
#
# Convention : Reuss Voigt Hill
#
# Bulk Modulus (GPa) = 48.10775 50.33630 49.22203
# Shear Modulus (GPa) = 29.71876 31.21537 30.46707
#
# Velocity S-wave (km/s) = 3.70186 3.79393 3.74818
# Velocity P-wave (km/s) = 6.36042 6.51173 6.43652
#
# Compressibility (1/GPa) = 0.02078667
#
# Stress axis : x y z
#
# Youngs Moduli (GPa) = 84.62973 87.81315 61.71449
#
# Poissons Ratio (x) = 0.28592 0.16463
# Poissons Ratio (y) = 0.27556 0.20902
# Poissons Ratio (z) = 0.22576 0.29741
#
# Static dielectric constant tensor:
#      x y z
#    x 3.897760 0.000000 0.000000 
#    y 0.000000 4.087670 0.000000 
#    z 0.000000 0.000000 3.947050 
# 
# 
# High freq. dielectric constant tensor:
#      x y z
#    x 1.849170 0.000000 0.000000 
#    y 0.000000 1.871190 0.000000 
#    z 0.000000 0.000000 1.852220 
# 
# From -- ./inp_files/6818.got.cif
#   From: 2010.03.12/outbox.cif.g09.slc.cpg/sg19_4_cif.got.tgz:6818.got - 2010.04.10 18:59:41.
