data_PCOD8157249
_publ_section_title
;
Structure prediction by ZEFSAII (Michael W. Deem and Ramdas Pophale) SiO2 
 PCOD8157249
Probable space group: P 21 21 21
;
_chemical_formula_sum "Si O2"
_cell_formula_units_Z 32
_cell_length_a 12.849564
_cell_length_b 11.861529
_cell_length_c 9.227627
_cell_angle_alpha 90.000000
_cell_angle_beta 90.000000
_cell_angle_gamma 90.000000
_cell_volume 1406.433162
_symmetry_space_group_name_H-M "P 21 21 21"
_symmetry_group_IT_number 19
_symmetry_cell_setting 'orthorhombic'
loop_
_space_group_symop_operation_xyz
x,y,z
1/2-x,-y,1/2+z
1/2+x,1/2-y,-z
-x,1/2+y,1/2-z
loop_
_atom_site_type_symbol
_atom_site_label
_atom_site_fract_x
_atom_site_fract_y
_atom_site_fract_z
Si Si1 0.828526 0.550497 0.857267
Si Si2 0.466004 0.687264 0.534310
Si Si3 0.009733 0.111291 0.224872
Si Si4 0.975534 0.734942 0.989229
Si Si5 0.094222 0.818863 0.730351
Si Si6 0.348647 0.548579 0.916153
Si Si7 0.840247 0.451079 0.150714
Si Si8 0.758344 0.121478 0.854370
O O1 0.918186 0.638378 0.896409
O O2 0.869562 0.447929 0.757471
O O3 0.740269 0.612213 0.758960
O O4 0.783865 0.493660 0.004199
O O5 0.473101 0.815879 0.582313
O O6 0.486603 0.682510 0.362446
O O7 0.558751 0.622266 0.616200
O O8 0.353861 0.637804 0.571861
O O9 0.973706 0.185265 0.364152
O O10 0.927559 0.014654 0.190775
O O11 0.122481 0.061499 0.262726
O O12 0.071495 0.778359 0.892961
O O13 0.896824 0.835496 0.025862
O O14 0.178067 0.738791 0.648593
O O15 0.251475 0.578958 0.811802
O O16 0.317904 0.472003 0.051893
#
# Coordination Sequence:
#
# PCOD8157249 Si02
#       8
#     4   4   4   4   4   4   4   4
#     4  10  25  43  71 105 142 191 249 310 359 450
#     4  11  23  45  68 100 150 188 238 304 374 439
#     4  11  21  47  70  99 143 193 239 304 371 437
#     4  11  27  48  75 110 151 193 254 309 378 448
#     4  11  27  45  75 107 146 199 249 312 368 452
#     4  12  28  46  76 112 151 201 247 317 384 449
#     4  10  22  42  67 100 135 189 235 296 366 426
#     4  12  27  48  74 113 150 198 253 312 384 461
#
# _framework density 22.752590999999999
#
# number of rings (size 3 to 8) (size 9 to 14) (size 15 to 20)
#    0.000    1.000    3.750    0.750    7.000    6.000 
#    0.000    0.000    0.000    0.000    0.000    0.000 
#    0.000    0.000    0.000    0.000    0.000    0.000 
#
# Total GULP energy -396753.565998 kJ/mol
# GULP energy per Si atom -12398.548937 kJ/mol
# Density = 2.270081 g / cm^3
# Si number density = 22.752591 Si / 1000 Ang^3
#
#
#
# Elastic Constant Matrix: (Units=GPa)
#
#
# Indices 1 2 3 4 5 6 
#
# 1 66.1541 21.1424 33.3343 0.0000 0.0000 0.0000
# 2 21.1424 114.0691 26.5786 0.0000 0.0000 0.0000
# 3 33.3343 26.5786 79.8835 0.0000 0.0000 0.0000
# 4 0.0000 0.0000 0.0000 40.5638 0.0000 0.0000
# 5 0.0000 0.0000 0.0000 0.0000 44.7172 0.0000
# 6 0.0000 0.0000 0.0000 0.0000 0.0000 21.8259
#
#
#
# Elastic Compliance Matrix: (Units=1/GPa)
#
#
# Indices 1 2 3 4 5 6 
#
# 1 0.019499 -0.001863 -0.007517 0.000000 0.000000 0.000000
# 2 -0.001863 0.009681 -0.002444 0.000000 0.000000 0.000000
# 3 -0.007517 -0.002444 0.016468 0.000000 0.000000 0.000000
# 4 0.000000 0.000000 0.000000 0.024652 0.000000 0.000000
# 5 0.000000 0.000000 0.000000 0.000000 0.022363 0.000000
# 6 0.000000 0.000000 0.000000 0.000000 0.000000 0.045817
#
#
# Mechanical properties :
#
#
# Convention : Reuss Voigt Hill
#
# Bulk Modulus (GPa) = 45.45135 46.91303 46.18219
# Shear Modulus (GPa) = 29.50514 33.35814 31.43164
#
# Velocity S-wave (km/s) = 3.60499 3.83316 3.72082
# Velocity P-wave (km/s) = 6.11127 6.34463 6.22904
#
# Compressibility (1/GPa) = 0.02200155
#
# Stress axis : x y z
#
# Youngs Moduli (GPa) = 51.28398 103.29206 60.72343
#
# Poissons Ratio (x) = 0.19239 0.45646
# Poissons Ratio (y) = 0.09552 0.14840
# Poissons Ratio (z) = 0.38550 0.25243
#
# Static dielectric constant tensor:
#      x y z
#    x 3.922660 0.000000 0.000000 
#    y 0.000000 4.198490 0.000000 
#    z 0.000000 0.000000 4.301590 
# 
# 
# High freq. dielectric constant tensor:
#      x y z
#    x 1.882210 0.000000 0.000000 
#    y 0.000000 1.907200 0.000000 
#    z 0.000000 0.000000 1.910130 
# 
# From -- ./inp_files/3925.got.cif
#   From: 2010.03.12/outbox.cif.g09.slc.cpg/sg19_2_cif.got.tgz:3925.got - 2010.04.10 18:59:41.
