data_PCOD8157905
_publ_section_title
;
Structure prediction by ZEFSAII (Michael W. Deem and Ramdas Pophale) SiO2 
 PCOD8157905
Probable space group: P 21 21 21
;
_chemical_formula_sum "Si O2"
_cell_formula_units_Z 24
_cell_length_a 12.357402
_cell_length_b 9.666940
_cell_length_c 8.332301
_cell_angle_alpha 90.000000
_cell_angle_beta 90.000000
_cell_angle_gamma 90.000000
_cell_volume 995.362210
_symmetry_space_group_name_H-M "P 21 21 21"
_symmetry_group_IT_number 19
_symmetry_cell_setting 'orthorhombic'
loop_
_space_group_symop_operation_xyz
x,y,z
1/2-x,-y,1/2+z
1/2+x,1/2-y,-z
-x,1/2+y,1/2-z
loop_
_atom_site_type_symbol
_atom_site_label
_atom_site_fract_x
_atom_site_fract_y
_atom_site_fract_z
Si Si1 0.927872 0.672855 0.740523
Si Si2 0.316602 0.591315 0.794354
Si Si3 0.271473 0.314397 0.614059
Si Si4 0.944132 0.406454 0.276671
Si Si5 0.931728 0.400742 0.907950
Si Si6 0.315067 0.854928 0.592692
O O1 0.844577 0.746406 0.858822
O O2 0.980335 0.540812 0.830654
O O3 0.860336 0.626303 0.585155
O O4 0.027816 0.770837 0.695103
O O5 0.286586 0.438820 0.737451
O O6 0.439353 0.591077 0.864055
O O7 0.309204 0.695768 0.644620
O O8 0.230640 0.633442 0.930870
O O9 0.369920 0.207763 0.637532
O O10 0.889543 0.557415 0.286140
O O11 0.968950 0.375779 0.090290
O O12 0.803601 0.418803 0.901922
#
# Coordination Sequence:
#
# PCOD8157905 Si02
#       6
#     4   4   4   4   4   4
#     4  12  28  48  80 114 151 200 258 317 387 456
#     4  12  29  47  80 109 157 202 260 314 387 459
#     4  12  28  51  76 115 153 201 258 324 382 460
#     4  12  27  52  76 109 157 207 252 313 396 454
#     4  12  27  49  76 112 154 199 258 313 388 459
#     4  12  25  49  74 111 154 201 250 325 372 464
#
# _framework density 24.111825
#
# number of rings (size 3 to 8) (size 9 to 14) (size 15 to 20)
#    0.000    0.000    5.000    3.000    7.000    0.000 
#    0.000    0.000    0.000    0.000    0.000    0.000 
#    0.000    0.000    0.000    0.000    0.000    0.000 
#
# Total GULP energy -297794.956027 kJ/mol
# GULP energy per Si atom -12408.123168 kJ/mol
# Density = 2.405695 g / cm^3
# Si number density = 24.111825 Si / 1000 Ang^3
#
#
#
# Elastic Constant Matrix: (Units=GPa)
#
#
# Indices 1 2 3 4 5 6 
#
# 1 81.2662 37.1311 41.3568 0.0000 0.0000 0.0000
# 2 37.1311 124.6367 26.7294 0.0000 0.0000 0.0000
# 3 41.3568 26.7294 80.5421 0.0000 0.0000 0.0000
# 4 0.0000 0.0000 0.0000 33.3342 0.0000 0.0000
# 5 0.0000 0.0000 0.0000 0.0000 22.0339 0.0000
# 6 0.0000 0.0000 0.0000 0.0000 0.0000 43.9966
#
#
#
# Elastic Compliance Matrix: (Units=1/GPa)
#
#
# Indices 1 2 3 4 5 6 
#
# 1 0.018084 -0.003656 -0.008072 0.000000 0.000000 0.000000
# 2 -0.003656 0.009377 -0.001235 0.000000 0.000000 0.000000
# 3 -0.008072 -0.001235 0.016971 0.000000 0.000000 0.000000
# 4 0.000000 0.000000 0.000000 0.029999 0.000000 0.000000
# 5 0.000000 0.000000 0.000000 0.000000 0.045385 0.000000
# 6 0.000000 0.000000 0.000000 0.000000 0.000000 0.022729
#
#
# Mechanical properties :
#
#
# Convention : Reuss Voigt Hill
#
# Bulk Modulus (GPa) = 54.03836 55.20884 54.62360
# Shear Modulus (GPa) = 28.63039 31.95477 30.29258
#
# Velocity S-wave (km/s) = 3.44961 3.64438 3.54833
# Velocity P-wave (km/s) = 6.19085 6.37616 6.28419
#
# Compressibility (1/GPa) = 0.01850537
#
# Stress axis : x y z
#
# Youngs Moduli (GPa) = 55.29797 106.63992 58.92552
#
# Poissons Ratio (x) = 0.38990 0.47566
# Poissons Ratio (y) = 0.20218 0.07275
# Poissons Ratio (z) = 0.44638 0.13166
#
# Static dielectric constant tensor:
#      x y z
#    x 4.413550 0.000000 0.000000 
#    y 0.000000 4.383550 0.000000 
#    z 0.000000 0.000000 4.215940 
# 
# 
# High freq. dielectric constant tensor:
#      x y z
#    x 1.967640 0.000000 0.000000 
#    y 0.000000 1.969910 0.000000 
#    z 0.000000 0.000000 1.955490 
# 
# From -- ./inp_files/2691.got.cif
#   From: 2010.03.12/outbox.cif.g09.slc.cpg/sg19_2_cif.got.tgz:2691.got - 2010.04.10 18:59:41.
