data_PCOD8157187
_publ_section_title
;
Structure prediction by ZEFSAII (Michael W. Deem and Ramdas Pophale) SiO2 
 PCOD8157187
Probable space group: P 21 21 21
;
_chemical_formula_sum "Si O2"
_cell_formula_units_Z 28
_cell_length_a 9.394549
_cell_length_b 8.759600
_cell_length_c 15.863734
_cell_angle_alpha 90.000000
_cell_angle_beta 90.000000
_cell_angle_gamma 90.000000
_cell_volume 1305.466194
_symmetry_space_group_name_H-M "P 21 21 21"
_symmetry_group_IT_number 19
_symmetry_cell_setting 'orthorhombic'
loop_
_space_group_symop_operation_xyz
x,y,z
1/2-x,-y,1/2+z
1/2+x,1/2-y,-z
-x,1/2+y,1/2-z
loop_
_atom_site_type_symbol
_atom_site_label
_atom_site_fract_x
_atom_site_fract_y
_atom_site_fract_z
Si Si1 0.248695 0.910371 0.964601
Si Si2 0.642908 0.282002 0.370570
Si Si3 0.983572 0.361775 0.099880
Si Si4 0.242785 0.306445 0.809413
Si Si5 0.827932 0.099633 0.607932
Si Si6 0.461331 0.830907 0.444619
Si Si7 0.741375 0.974836 0.430264
O O1 0.253576 0.760792 0.904101
O O2 0.381819 0.012783 0.940026
O O3 0.255734 0.870152 0.063669
O O4 0.101620 0.998737 0.951898
O O5 0.714271 0.274053 0.279203
O O6 0.490704 0.363803 0.368374
O O7 0.635922 0.108461 0.401354
O O8 0.898407 0.256254 0.164903
O O9 0.126339 0.447204 0.135821
O O10 0.063461 0.256454 0.031521
O O11 0.239392 0.492966 0.816954
O O12 0.113149 0.256123 0.868692
O O13 0.813481 0.005597 0.521240
O O14 0.632799 0.832169 0.432718
#
# Coordination Sequence:
#
# PCOD8157187 Si02
#       7
#     4   4   4   4   4   4   4
#     4  10  22  40  68  93 129 179 226 264 324 415
#     4  11  24  40  64 101 130 170 221 284 336 383
#     4  11  21  43  66  97 129 174 225 268 326 402
#     4  11  25  40  67  97 134 166 225 285 337 389
#     4  11  21  40  66  93 128 172 226 267 328 404
#     4  11  20  41  69  96 125 180 224 269 328 405
#     4  11  21  40  66  93 127 175 223 265 323 408
#
# _framework density 21.448277000000001
#
# number of rings (size 3 to 8) (size 9 to 14) (size 15 to 20)
#    0.000    1.143    5.714    0.857    2.000    0.000 
#    2.571    0.000    3.143    0.000    0.000    0.000 
#    0.000    0.000    0.000    0.000    0.000    0.000 
#
# Total GULP energy -346919.541846 kJ/mol
# GULP energy per Si atom -12389.983637 kJ/mol
# Density = 2.139946 g / cm^3
# Si number density = 21.448277 Si / 1000 Ang^3
#
#
#
# Elastic Constant Matrix: (Units=GPa)
#
#
# Indices 1 2 3 4 5 6 
#
# 1 106.5265 31.5202 3.8660 0.0000 0.0000 0.0000
# 2 31.5202 99.5887 15.3831 0.0000 0.0000 0.0000
# 3 3.8660 15.3831 62.6620 0.0000 0.0000 0.0000
# 4 0.0000 0.0000 0.0000 16.3346 0.0000 0.0000
# 5 0.0000 0.0000 0.0000 0.0000 27.0718 0.0000
# 6 0.0000 0.0000 0.0000 0.0000 0.0000 29.0994
#
#
#
# Elastic Compliance Matrix: (Units=1/GPa)
#
#
# Indices 1 2 3 4 5 6 
#
# 1 0.010359 -0.003305 0.000172 0.000000 0.000000 0.000000
# 2 -0.003305 0.011492 -0.002617 0.000000 0.000000 0.000000
# 3 0.000172 -0.002617 0.016591 0.000000 0.000000 0.000000
# 4 0.000000 0.000000 0.000000 0.061220 0.000000 0.000000
# 5 0.000000 0.000000 0.000000 0.000000 0.036939 0.000000
# 6 0.000000 0.000000 0.000000 0.000000 0.000000 0.034365
#
#
# Mechanical properties :
#
#
# Convention : Reuss Voigt Hill
#
# Bulk Modulus (GPa) = 37.11826 41.14618 39.13222
# Shear Modulus (GPa) = 26.11707 29.03501 27.57604
#
# Velocity S-wave (km/s) = 3.49331 3.68329 3.58956
# Velocity P-wave (km/s) = 5.79780 6.10855 5.95520
#
# Compressibility (1/GPa) = 0.02694092
#
# Stress axis : x y z
#
# Youngs Moduli (GPa) = 96.53354 87.01919 60.27546
#
# Poissons Ratio (x) = 0.28763 -0.01039
# Poissons Ratio (y) = 0.31907 0.15775
# Poissons Ratio (z) = -0.01663 0.22775
#
# Static dielectric constant tensor:
#      x y z
#    x 3.875680 0.000000 0.000000 
#    y 0.000000 4.169640 0.000000 
#    z 0.000000 0.000000 3.644230 
# 
# 
# High freq. dielectric constant tensor:
#      x y z
#    x 1.850840 0.000000 0.000000 
#    y 0.000000 1.859350 0.000000 
#    z 0.000000 0.000000 1.805820 
# 
# From -- ./inp_files/6597.got.cif
#   From: 2010.03.12/outbox.cif.g09.slc.cpg/sg19_4_cif.got.tgz:6597.got - 2010.04.10 18:59:41.
