data_PCOD8157458
_publ_section_title
;
Structure prediction by ZEFSAII (Michael W. Deem and Ramdas Pophale) SiO2 
 PCOD8157458
Probable space group: P 21 21 21
;
_chemical_formula_sum "Si O2"
_cell_formula_units_Z 32
_cell_length_a 16.962241
_cell_length_b 8.162955
_cell_length_c 11.174135
_cell_angle_alpha 90.000000
_cell_angle_beta 90.000000
_cell_angle_gamma 90.000000
_cell_volume 1547.193192
_symmetry_space_group_name_H-M "P 21 21 21"
_symmetry_group_IT_number 19
_symmetry_cell_setting 'orthorhombic'
loop_
_space_group_symop_operation_xyz
x,y,z
1/2-x,-y,1/2+z
1/2+x,1/2-y,-z
-x,1/2+y,1/2-z
loop_
_atom_site_type_symbol
_atom_site_label
_atom_site_fract_x
_atom_site_fract_y
_atom_site_fract_z
Si Si1 0.104290 0.155841 0.826791
Si Si2 0.895711 0.155842 0.173207
Si Si3 0.250001 0.250002 0.667318
Si Si4 0.539378 0.492470 0.710991
Si Si5 0.630833 0.019380 0.429579
Si Si6 0.369167 0.019382 0.570418
Si Si7 0.039376 0.507528 0.789010
Si Si8 0.500001 0.268716 0.500000
O O1 0.182686 0.171731 0.749323
O O2 0.055118 0.323257 0.833520
O O3 0.047815 0.016153 0.770966
O O4 0.129951 0.104380 0.960351
O O5 0.817316 0.171729 0.250675
O O6 0.944882 0.323259 0.166479
O O7 0.952186 0.016155 0.229033
O O8 0.870051 0.104380 0.039647
O O9 0.216129 0.394854 0.582943
O O10 0.283873 0.105156 0.582938
O O11 0.606418 0.429904 0.805335
O O12 0.545806 0.377549 0.596267
O O13 0.606415 0.929901 0.305334
O O14 0.565111 0.161387 0.434284
O O15 0.434892 0.161380 0.565712
O O16 0.045803 0.622444 0.903737
#
# Coordination Sequence:
#
# PCOD8157458 Si02
#       8
#     4   4   4   4   4   4   4   4
#     4  11  22  44  67  97 136 171 221 278 331 395
#     4  11  22  44  67  97 136 171 221 278 331 395
#     4  10  24  42  62 100 142 168 220 270 354 382
#     4  11  22  39  67 100 125 172 225 270 323 400
#     4  11  23  44  66  95 133 176 217 280 324 399
#     4  11  23  44  66  95 133 176 217 280 324 399
#     4  11  22  39  67 100 125 172 225 270 323 400
#     4  12  22  38  70  96 128 174 224 272 326 388
#
# _framework density 20.682614999999998
#
# number of rings (size 3 to 8) (size 9 to 14) (size 15 to 20)
#    0.000    1.000    7.500    0.000    3.500    4.000 
#    0.000    0.000    0.000    0.000    0.000    0.000 
#    0.000    0.000    0.000    0.000    0.000    0.000 
#
# Total GULP energy -396839.602976 kJ/mol
# GULP energy per Si atom -12401.237593 kJ/mol
# Density = 2.063554 g / cm^3
# Si number density = 20.682615 Si / 1000 Ang^3
#
#
#
# Elastic Constant Matrix: (Units=GPa)
#
#
# Indices 1 2 3 4 5 6 
#
# 1 90.5494 27.6378 1.2058 0.0000 0.0000 0.0000
# 2 27.6378 82.2988 33.1571 0.0000 0.0000 0.0000
# 3 1.2058 33.1571 95.0173 0.0000 0.0000 0.0000
# 4 0.0000 0.0000 0.0000 28.6741 0.0000 0.0000
# 5 0.0000 0.0000 0.0000 0.0000 33.2886 0.0000
# 6 0.0000 0.0000 0.0000 0.0000 0.0000 42.5982
#
#
#
# Elastic Compliance Matrix: (Units=1/GPa)
#
#
# Indices 1 2 3 4 5 6 
#
# 1 0.012491 -0.004806 0.001519 0.000000 0.000000 0.000000
# 2 -0.004806 0.015988 -0.005518 0.000000 0.000000 0.000000
# 3 0.001519 -0.005518 0.012431 0.000000 0.000000 0.000000
# 4 0.000000 0.000000 0.000000 0.034875 0.000000 0.000000
# 5 0.000000 0.000000 0.000000 0.000000 0.030040 0.000000
# 6 0.000000 0.000000 0.000000 0.000000 0.000000 0.023475
#
#
# Mechanical properties :
#
#
# Convention : Reuss Voigt Hill
#
# Bulk Modulus (GPa) = 42.92293 43.54076 43.23185
# Shear Modulus (GPa) = 32.32534 34.63650 33.48092
#
# Velocity S-wave (km/s) = 3.95767 4.09671 4.02779
# Velocity P-wave (km/s) = 6.45619 6.59355 6.52523
#
# Compressibility (1/GPa) = 0.02329757
#
# Stress axis : x y z
#
# Youngs Moduli (GPa) = 80.06067 62.54614 80.44556
#
# Poissons Ratio (x) = 0.30063 -0.12218
# Poissons Ratio (y) = 0.38481 0.44392
# Poissons Ratio (z) = -0.12159 0.34514
#
# Static dielectric constant tensor:
#      x y z
#    x 3.804830 0.000000 0.000000 
#    y 0.000000 3.665130 0.000000 
#    z 0.000000 0.000000 3.968280 
# 
# 
# High freq. dielectric constant tensor:
#      x y z
#    x 1.800340 0.000000 0.000000 
#    y 0.000000 1.798670 0.000000 
#    z 0.000000 0.000000 1.830950 
# 
# From -- ./inp_files/5420.got.cif
#   From: 2010.03.12/outbox.cif.g09.slc.cpg/sg19_3_cif.got.tgz:5420.got - 2010.04.10 18:59:41.
