data_PCOD8157948
_publ_section_title
;
Structure prediction by ZEFSAII (Michael W. Deem and Ramdas Pophale) SiO2 
 PCOD8157948
Probable space group: C 2 2 21
;
_chemical_formula_sum "Si O2"
_cell_formula_units_Z 48
_cell_length_a 8.100789
_cell_length_b 20.602352
_cell_length_c 14.939877
_cell_angle_alpha 90.000000
_cell_angle_beta 90.000000
_cell_angle_gamma 90.000000
_cell_volume 2493.395350
_symmetry_space_group_name_H-M "C 2 2 21"
_symmetry_group_IT_number 20
_symmetry_cell_setting 'orthorhombic'
loop_
_space_group_symop_operation_xyz
x,y,z
-x,-y,1/2+z
x,-y,-z
-x,y,1/2-z
1/2+x,1/2+y,z
1/2-x,1/2-y,1/2+z
1/2+x,1/2-y,-z
1/2-x,1/2+y,1/2-z
loop_
_atom_site_type_symbol
_atom_site_label
_atom_site_fract_x
_atom_site_fract_y
_atom_site_fract_z
Si Si1 0.443703 0.871520 0.528685
Si Si2 0.439908 0.761373 0.648991
Si Si3 0.243533 0.000000 0.500000
Si Si4 0.540077 0.565774 0.651351
Si Si5 0.274889 0.141169 0.899299
Si Si6 0.241254 0.809297 0.379005
Si Si7 0.000000 0.673633 0.750000
O O1 0.418120 0.837781 0.626370
O O2 0.634380 0.870498 0.494996
O O3 0.340872 0.822888 0.467529
O O4 0.364636 0.942313 0.529237
O O5 0.500000 0.749711 0.750000
O O6 0.288038 0.715242 0.619154
O O7 0.600812 0.740633 0.591333
O O8 0.127871 0.014381 0.585665
O O9 0.500000 0.535870 0.750000
O O10 0.372265 0.589530 0.603997
O O11 0.661723 0.626312 0.665624
O O12 0.412641 0.126621 0.823107
O O13 0.365313 0.781614 0.301888
#
# Coordination Sequence:
#
# PCOD8157948 Si02
#       7
#     8   8   4   8   8   8   4
#     4  10  22  36  57  81 121 157 192 240 289 342
#     4  11  19  35  56  86 122 146 181 233 308 367
#     4  10  24  42  56  82 122 156 208 252 270 350
#     4  10  18  37  62  83 110 150 199 248 296 337
#     4  10  19  33  62  88 109 143 194 243 303 342
#     4   9  17  31  56  86 112 141 189 238 291 342
#     4  10  14  28  52  92 110 130 174 244 278 340
#
# _framework density 19.250857
#
# number of rings (size 3 to 8) (size 9 to 14) (size 15 to 20)
#    0.000    2.000    3.333    2.000    0.000    0.667 
#    0.000    3.333    1.833    0.000    0.000    0.000 
#    0.000    0.000    0.000    0.000    0.000    0.000 
#
# Total GULP energy -297331.760040 kJ/mol
# GULP energy per Si atom -12388.823335 kJ/mol
# Density = 1.920704 g / cm^3
# Si number density = 19.250857 Si / 1000 Ang^3
#
#
#
# Elastic Constant Matrix: (Units=GPa)
#
#
# Indices 1 2 3 4 5 6 
#
# 1 108.7766 37.6073 33.0066 0.0000 0.0000 0.0000
# 2 37.6073 92.6915 41.5710 0.0000 0.0000 0.0000
# 3 33.0066 41.5710 70.8917 0.0000 0.0000 0.0000
# 4 0.0000 0.0000 0.0000 26.4414 0.0000 0.0000
# 5 0.0000 0.0000 0.0000 0.0000 32.2460 0.0000
# 6 0.0000 0.0000 0.0000 0.0000 0.0000 18.2410
#
#
#
# Elastic Compliance Matrix: (Units=1/GPa)
#
#
# Indices 1 2 3 4 5 6 
#
# 1 0.011295 -0.003018 -0.003489 0.000000 0.000000 0.000000
# 2 -0.003018 0.015445 -0.007652 0.000000 0.000000 0.000000
# 3 -0.003489 -0.007652 0.020218 0.000000 0.000000 0.000000
# 4 0.000000 0.000000 0.000000 0.037819 0.000000 0.000000
# 5 0.000000 0.000000 0.000000 0.000000 0.031012 0.000000
# 6 0.000000 0.000000 0.000000 0.000000 0.000000 0.054822
#
#
# Mechanical properties :
#
#
# Convention : Reuss Voigt Hill
#
# Bulk Modulus (GPa) = 53.64866 55.19216 54.42041
# Shear Modulus (GPa) = 24.37350 26.06402 25.21876
#
# Velocity S-wave (km/s) = 3.56209 3.68355 3.62333
# Velocity P-wave (km/s) = 6.69677 6.84278 6.77016
#
# Compressibility (1/GPa) = 0.01863979
#
# Stress axis : x y z
#
# Youngs Moduli (GPa) = 88.53239 64.74769 49.46200
#
# Poissons Ratio (x) = 0.19540 0.17259
# Poissons Ratio (y) = 0.26718 0.37846
# Poissons Ratio (z) = 0.30892 0.49543
#
# Static dielectric constant tensor:
#      x y z
#    x 4.001980 0.000000 0.000000 
#    y 0.000000 3.066450 0.000000 
#    z 0.000000 0.000000 3.490850 
# 
# 
# High freq. dielectric constant tensor:
#      x y z
#    x 1.774670 0.000000 0.000000 
#    y 0.000000 1.694670 0.000000 
#    z 0.000000 0.000000 1.745620 
# 
# From -- ./inp_files/19049.got.cif
#   From: 2010.03.12/outbox.cif.g09.slc.cpg/sg20_10_cif.got.tgz:19049.got - 2010.04.14 01:38:04.
