data_PCOD8157769
_publ_section_title
;
Structure prediction by ZEFSAII (Michael W. Deem and Ramdas Pophale) SiO2 
 PCOD8157769
Probable space group: P 21 21 21
;
_chemical_formula_sum "Si O2"
_cell_formula_units_Z 32
_cell_length_a 21.876539
_cell_length_b 11.845023
_cell_length_c 5.215544
_cell_angle_alpha 90.000000
_cell_angle_beta 90.000000
_cell_angle_gamma 90.000000
_cell_volume 1351.494047
_symmetry_space_group_name_H-M "P 21 21 21"
_symmetry_group_IT_number 19
_symmetry_cell_setting 'orthorhombic'
loop_
_space_group_symop_operation_xyz
x,y,z
1/2-x,-y,1/2+z
1/2+x,1/2-y,-z
-x,1/2+y,1/2-z
loop_
_atom_site_type_symbol
_atom_site_label
_atom_site_fract_x
_atom_site_fract_y
_atom_site_fract_z
Si Si1 0.597962 0.938388 0.507097
Si Si2 0.522285 0.151815 0.612711
Si Si3 0.049820 0.804501 0.607916
Si Si4 0.649766 0.515060 0.304642
Si Si5 0.133244 0.205363 0.429299
Si Si6 0.320481 0.462854 0.493221
Si Si7 0.278541 0.674948 0.243558
Si Si8 0.275854 0.884655 0.548723
O O1 0.566449 0.816827 0.505611
O O2 0.642886 0.941922 0.266661
O O3 0.544880 0.031784 0.504246
O O4 0.635206 0.959283 0.765441
O O5 0.489487 0.209151 0.367095
O O6 0.575336 0.238165 0.710185
O O7 0.481746 0.131437 0.867529
O O8 0.109877 0.872769 0.699008
O O9 0.614521 0.416934 0.459742
O O10 0.717962 0.536138 0.410116
O O11 0.665375 0.463488 0.025339
O O12 0.152890 0.299862 0.638852
O O13 0.196611 0.191049 0.274893
O O14 0.286566 0.583814 0.472277
O O15 0.268091 0.369123 0.527043
O O16 0.252576 0.795066 0.337757
#
# Coordination Sequence:
#
# PCOD8157769 Si02
#       8
#     4   4   4   4   4   4   4   4
#     4  12  27  50  74 108 152 193 257 319 377 454
#     4  12  29  51  75 107 149 207 263 310 383 455
#     4  12  31  48  81 109 151 206 259 324 377 456
#     4  11  26  45  76 114 148 201 250 328 387 465
#     4  11  26  47  75 103 154 201 253 313 384 461
#     4  12  25  45  73 113 154 195 244 311 386 460
#     4  11  26  40  73 111 149 201 238 307 388 469
#     4  11  24  46  75 115 157 194 254 318 404 466
#
# _framework density 23.677498
#
# number of rings (size 3 to 8) (size 9 to 14) (size 15 to 20)
#    0.000    0.500    2.500    3.750   14.000    0.000 
#    0.000    0.000    0.000    0.000    0.000    0.000 
#    0.000    0.000    0.000    0.000    0.000    0.000 
#
# Total GULP energy -396666.683889 kJ/mol
# GULP energy per Si atom -12395.833872 kJ/mol
# Density = 2.362361 g / cm^3
# Si number density = 23.677498 Si / 1000 Ang^3
#
#
#
# Elastic Constant Matrix: (Units=GPa)
#
#
# Indices 1 2 3 4 5 6 
#
# 1 90.0373 49.4168 32.0972 0.0000 0.0000 0.0000
# 2 49.4168 125.0649 16.2533 0.0000 0.0000 0.0000
# 3 32.0972 16.2533 127.4682 0.0000 0.0000 0.0000
# 4 0.0000 0.0000 0.0000 30.1743 0.0000 0.0000
# 5 0.0000 0.0000 0.0000 0.0000 50.0435 0.0000
# 6 0.0000 0.0000 0.0000 0.0000 0.0000 39.1196
#
#
#
# Elastic Compliance Matrix: (Units=1/GPa)
#
#
# Indices 1 2 3 4 5 6 
#
# 1 0.015325 -0.005647 -0.003139 0.000000 0.000000 0.000000
# 2 -0.005647 0.010212 0.000120 0.000000 0.000000 0.000000
# 3 -0.003139 0.000120 0.008620 0.000000 0.000000 0.000000
# 4 0.000000 0.000000 0.000000 0.033141 0.000000 0.000000
# 5 0.000000 0.000000 0.000000 0.000000 0.019983 0.000000
# 6 0.000000 0.000000 0.000000 0.000000 0.000000 0.025563
#
#
# Mechanical properties :
#
#
# Convention : Reuss Voigt Hill
#
# Bulk Modulus (GPa) = 59.43772 59.78943 59.61357
# Shear Modulus (GPa) = 36.82326 40.18769 38.50548
#
# Velocity S-wave (km/s) = 3.94788 4.12429 4.03705
# Velocity P-wave (km/s) = 6.77780 6.92720 6.85291
#
# Compressibility (1/GPa) = 0.01682433
#
# Stress axis : x y z
#
# Youngs Moduli (GPa) = 65.25260 97.92663 116.00692
#
# Poissons Ratio (x) = 0.55304 0.36413
# Poissons Ratio (y) = 0.36851 -0.01392
# Poissons Ratio (z) = 0.20482 -0.01175
#
# Static dielectric constant tensor:
#      x y z
#    x 4.159360 0.000000 0.000000 
#    y 0.000000 4.432820 0.000000 
#    z 0.000000 0.000000 4.224320 
# 
# 
# High freq. dielectric constant tensor:
#      x y z
#    x 1.930990 0.000000 0.000000 
#    y 0.000000 1.957640 0.000000 
#    z 0.000000 0.000000 1.942160 
# 
# From -- ./inp_files/2016.got.cif
#   From: 2010.03.12/outbox.cif.g09.slc.cpg/sg19_2_cif.got.tgz:2016.got - 2010.04.10 18:59:41.
