data_PCOD8157995
_publ_section_title
;
Structure prediction by ZEFSAII (Michael W. Deem and Ramdas Pophale) SiO2 
 PCOD8157995
Probable space group: C 2 2 21
;
_chemical_formula_sum "Si O2"
_cell_formula_units_Z 64
_cell_length_a 13.117981
_cell_length_b 14.001424
_cell_length_c 17.362451
_cell_angle_alpha 90.000000
_cell_angle_beta 90.000000
_cell_angle_gamma 90.000000
_cell_volume 3188.968563
_symmetry_space_group_name_H-M "C 2 2 21"
_symmetry_group_IT_number 20
_symmetry_cell_setting 'orthorhombic'
loop_
_space_group_symop_operation_xyz
x,y,z
-x,-y,1/2+z
x,-y,-z
-x,y,1/2-z
1/2+x,1/2+y,z
1/2-x,1/2-y,1/2+z
1/2+x,1/2-y,-z
1/2-x,1/2+y,1/2-z
loop_
_atom_site_type_symbol
_atom_site_label
_atom_site_fract_x
_atom_site_fract_y
_atom_site_fract_z
Si Si1 0.901473 0.590889 0.451877
Si Si2 0.608903 0.967946 0.776067
Si Si3 0.704811 0.588735 0.769252
Si Si4 0.529408 0.273671 0.447648
Si Si5 0.941189 0.956069 0.818866
Si Si6 0.330125 0.400729 0.957586
Si Si7 0.389597 0.767884 0.786171
Si Si8 0.892955 0.950704 0.421063
O O1 0.938082 0.500000 0.500000
O O2 0.903702 0.567784 0.362407
O O3 0.979597 0.674313 0.473547
O O4 0.787220 0.621335 0.475427
O O5 0.500000 0.009339 0.750000
O O6 0.644015 0.877944 0.723959
O O7 0.690397 0.052316 0.767657
O O8 0.606340 0.547370 0.724381
O O9 0.695194 0.702569 0.756595
O O10 0.699484 0.559627 0.859587
O O11 0.602417 0.312820 0.513931
O O12 0.603898 0.259248 0.375332
O O13 0.436053 0.345103 0.433454
O O14 0.849566 0.903518 0.864525
O O15 0.000000 0.896952 0.750000
O O16 0.018855 0.982840 0.886520
O O17 0.362298 0.500000 0.000000
O O18 0.500000 0.751635 0.750000
O O19 0.853108 0.000000 0.500000
#
# Coordination Sequence:
#
# PCOD8157995 Si02
#       8
#     8   8   8   8   8   8   8   8
#     4  11  25  42  63  93 128 171 214 252 312 384
#     4  11  23  44  67  89 127 173 217 252 307 385
#     4  11  20  35  64  94 125 159 219 263 312 372
#     4  12  20  40  66  95 124 159 215 262 303 379
#     4  10  17  30  60  97 126 154 200 264 319 363
#     4  11  20  38  64  96 126 165 209 265 320 374
#     4  11  19  38  70  96 112 161 216 258 304 371
#     4  11  19  33  60 100 128 154 198 276 331 359
#
# _framework density 20.069185000000001
#
# number of rings (size 3 to 8) (size 9 to 14) (size 15 to 20)
#    0.000    1.000    8.750    0.375    1.750    0.000 
#    2.250    3.125    0.000    0.750    0.000    0.000 
#    0.000    0.000    0.000    0.000    0.000    0.000 
#
# Total GULP energy -396744.512428 kJ/mol
# GULP energy per Si atom -12398.266013 kJ/mol
# Density = 2.002351 g / cm^3
# Si number density = 20.069185 Si / 1000 Ang^3
#
#
#
# Elastic Constant Matrix: (Units=GPa)
#
#
# Indices 1 2 3 4 5 6 
#
# 1 81.2157 47.1089 18.5353 0.0000 0.0000 0.0000
# 2 47.1089 93.9122 29.1489 0.0000 0.0000 0.0000
# 3 18.5353 29.1489 94.1346 0.0000 0.0000 0.0000
# 4 0.0000 0.0000 0.0000 24.7188 0.0000 0.0000
# 5 0.0000 0.0000 0.0000 0.0000 20.3251 0.0000
# 6 0.0000 0.0000 0.0000 0.0000 0.0000 32.8489
#
#
#
# Elastic Compliance Matrix: (Units=1/GPa)
#
#
# Indices 1 2 3 4 5 6 
#
# 1 0.017420 -0.008490 -0.000801 0.000000 0.000000 0.000000
# 2 -0.008490 0.015918 -0.003257 0.000000 0.000000 0.000000
# 3 -0.000801 -0.003257 0.011789 0.000000 0.000000 0.000000
# 4 0.000000 0.000000 0.000000 0.040455 0.000000 0.000000
# 5 0.000000 0.000000 0.000000 0.000000 0.049200 0.000000
# 6 0.000000 0.000000 0.000000 0.000000 0.000000 0.030442
#
#
# Mechanical properties :
#
#
# Convention : Reuss Voigt Hill
#
# Bulk Modulus (GPa) = 49.92263 50.98318 50.45291
# Shear Modulus (GPa) = 25.38082 27.20985 26.29534
#
# Velocity S-wave (km/s) = 3.56007 3.68612 3.62364
# Velocity P-wave (km/s) = 6.46746 6.60117 6.53466
#
# Compressibility (1/GPa) = 0.02003100
#
# Stress axis : x y z
#
# Youngs Moduli (GPa) = 57.40457 62.82200 84.82131
#
# Poissons Ratio (x) = 0.53334 0.06796
# Poissons Ratio (y) = 0.48735 0.27629
# Poissons Ratio (z) = 0.04599 0.20463
#
# Static dielectric constant tensor:
#      x y z
#    x 3.485260 0.000000 0.000000 
#    y 0.000000 3.600450 0.000000 
#    z 0.000000 0.000000 3.956950 
# 
# 
# High freq. dielectric constant tensor:
#      x y z
#    x 1.764910 0.000000 0.000000 
#    y 0.000000 1.757550 0.000000 
#    z 0.000000 0.000000 1.792880 
# 
# From -- ./inp_files/25054.got.cif
#   From: 2010.03.12/outbox.cif.g09.slc.cpg/sg20_13_cif.got.tgz:25054.got - 2010.04.14 01:38:04.
