data_PCOD8157876
_publ_section_title
;
Structure prediction by ZEFSAII (Michael W. Deem and Ramdas Pophale) SiO2 
 PCOD8157876
Probable space group: P 21 21 21
;
_chemical_formula_sum "Si O2"
_cell_formula_units_Z 20
_cell_length_a 4.845967
_cell_length_b 26.314343
_cell_length_c 6.460109
_cell_angle_alpha 90.000000
_cell_angle_beta 90.000000
_cell_angle_gamma 90.000000
_cell_volume 823.783008
_symmetry_space_group_name_H-M "P 21 21 21"
_symmetry_group_IT_number 19
_symmetry_cell_setting 'orthorhombic'
loop_
_space_group_symop_operation_xyz
x,y,z
1/2-x,-y,1/2+z
1/2+x,1/2-y,-z
-x,1/2+y,1/2-z
loop_
_atom_site_type_symbol
_atom_site_label
_atom_site_fract_x
_atom_site_fract_y
_atom_site_fract_z
Si Si1 0.961463 0.049647 0.139831
Si Si2 0.526186 0.349951 0.637076
Si Si3 0.963156 0.450368 0.128436
Si Si4 0.253225 0.717566 0.491251
Si Si5 0.980090 0.850598 0.143371
O O1 0.103532 0.096323 0.260003
O O2 0.172003 0.032249 0.962607
O O3 0.896343 0.000413 0.276497
O O4 0.674757 0.069985 0.045476
O O5 0.310082 0.361119 0.459358
O O6 0.800436 0.327352 0.523146
O O7 0.396691 0.312055 0.805307
O O8 0.901212 0.405081 0.287545
O O9 0.999096 0.747227 0.602726
O O10 0.423312 0.684940 0.659309
#
# Coordination Sequence:
#
# PCOD8157876 Si02
#       5
#     4   4   4   4   4
#     4  12  24  43  71 108 152 193 241 299 366 444
#     4  12  26  47  77 109 148 195 247 309 374 445
#     4  12  24  43  71 108 152 193 241 299 366 444
#     4  12  28  50  78 108 150 198 252 320 378 438
#     4  12  26  47  77 109 148 195 247 309 374 445
#
# _framework density 24.278237000000001
#
# number of rings (size 3 to 8) (size 9 to 14) (size 15 to 20)
#    0.000    0.000    2.000    8.400    2.800    3.200 
#    0.000    0.000    0.000    0.000    0.000    0.000 
#    0.000    0.000    0.000    0.000    0.000    0.000 
#
# Total GULP energy -248034.919041 kJ/mol
# GULP energy per Si atom -12401.745952 kJ/mol
# Density = 2.422298 g / cm^3
# Si number density = 24.278237 Si / 1000 Ang^3
#
#
#
# Elastic Constant Matrix: (Units=GPa)
#
#
# Indices 1 2 3 4 5 6 
#
# 1 126.3389 29.9380 22.1534 0.0000 0.0000 0.0000
# 2 29.9380 105.6407 36.3058 0.0000 0.0000 0.0000
# 3 22.1534 36.3058 78.1898 0.0000 0.0000 0.0000
# 4 0.0000 0.0000 0.0000 21.9008 0.0000 0.0000
# 5 0.0000 0.0000 0.0000 0.0000 53.2047 0.0000
# 6 0.0000 0.0000 0.0000 0.0000 0.0000 33.0639
#
#
#
# Elastic Compliance Matrix: (Units=1/GPa)
#
#
# Indices 1 2 3 4 5 6 
#
# 1 0.008642 -0.001913 -0.001560 0.000000 0.000000 0.000000
# 2 -0.001913 0.011687 -0.004885 0.000000 0.000000 0.000000
# 3 -0.001560 -0.004885 0.015500 0.000000 0.000000 0.000000
# 4 0.000000 0.000000 0.000000 0.045660 0.000000 0.000000
# 5 0.000000 0.000000 0.000000 0.000000 0.018795 0.000000
# 6 0.000000 0.000000 0.000000 0.000000 0.000000 0.030244
#
#
# Mechanical properties :
#
#
# Convention : Reuss Voigt Hill
#
# Bulk Modulus (GPa) = 52.32072 54.10709 53.21391
# Shear Modulus (GPa) = 32.54885 36.41869 34.48377
#
# Velocity S-wave (km/s) = 3.66547 3.87726 3.77285
# Velocity P-wave (km/s) = 6.28582 6.50990 6.39884
#
# Compressibility (1/GPa) = 0.01911289
#
# Stress axis : x y z
#
# Youngs Moduli (GPa) = 115.71247 85.56636 64.51811
#
# Poissons Ratio (x) = 0.16368 0.10067
# Poissons Ratio (y) = 0.22134 0.31514
# Poissons Ratio (z) = 0.18055 0.41795
#
# Static dielectric constant tensor:
#      x y z
#    x 4.461130 0.000000 0.000000 
#    y 0.000000 4.288070 0.000000 
#    z 0.000000 0.000000 4.345820 
# 
# 
# High freq. dielectric constant tensor:
#      x y z
#    x 1.984740 0.000000 0.000000 
#    y 0.000000 1.963130 0.000000 
#    z 0.000000 0.000000 1.965940 
# 
# From -- ./inp_files/181.got.cif
#   From: 2010.03.12/outbox.cif.g09.slc.cpg/sg19_1_cif.got.tgz:181.got - 2010.04.10 18:59:41.
