data_PCOD8157978
_publ_section_title
;
Structure prediction by ZEFSAII (Michael W. Deem and Ramdas Pophale) SiO2 
 PCOD8157978
Probable space group: C 2 2 21
;
_chemical_formula_sum "Si O2"
_cell_formula_units_Z 48
_cell_length_a 25.285903
_cell_length_b 22.937583
_cell_length_c 5.374170
_cell_angle_alpha 90.000000
_cell_angle_beta 90.000000
_cell_angle_gamma 90.000000
_cell_volume 3117.005158
_symmetry_space_group_name_H-M "C 2 2 21"
_symmetry_group_IT_number 20
_symmetry_cell_setting 'orthorhombic'
loop_
_space_group_symop_operation_xyz
x,y,z
-x,-y,1/2+z
x,-y,-z
-x,y,1/2-z
1/2+x,1/2+y,z
1/2-x,1/2-y,1/2+z
1/2+x,1/2-y,-z
1/2-x,1/2+y,1/2-z
loop_
_atom_site_type_symbol
_atom_site_label
_atom_site_fract_x
_atom_site_fract_y
_atom_site_fract_z
Si Si1 0.790639 0.000000 0.500000
Si Si2 0.728562 0.829907 0.903617
Si Si3 0.354615 0.324277 0.911462
Si Si4 0.335341 0.711801 0.590500
Si Si5 0.755459 0.619092 0.901683
Si Si6 0.116418 0.951321 0.693812
Si Si7 0.532072 0.500000 0.000000
O O1 0.753964 0.049954 0.617196
O O2 0.826007 0.030012 0.288644
O O3 0.791215 0.822477 0.904401
O O4 0.702874 0.766667 0.907972
O O5 0.711706 0.864559 0.652666
O O6 0.711080 0.863829 0.154785
O O7 0.372432 0.291309 0.656724
O O8 0.379000 0.388573 0.932701
O O9 0.372062 0.289238 0.160821
O O10 0.300848 0.652310 0.595348
O O11 0.096077 0.000000 0.500000
O O12 0.071978 0.947865 0.912863
O O13 0.500000 0.480613 0.250000
#
# Coordination Sequence:
#
# PCOD8157978 Si02
#       7
#     4   8   8   8   8   8   4
#     4  11  20  28  40  64  84 102 128 180 214 258
#     4  10  17  28  40  53  79 106 131 154 190 257
#     4  10  18  27  40  63  75  96 127 154 204 243
#     4  10  17  28  40  56  80 103 128 156 190 258
#     4  10  18  26  37  53  76 101 132 154 201 240
#     4  11  21  32  51  62  83 100 127 177 219 266
#     4  11  24  40  50  62  78 108 136 164 222 290
#
# _framework density 15.399398
#
# number of rings (size 3 to 8) (size 9 to 14) (size 15 to 20)
#    0.000    1.667    4.167    7.000    2.333    0.000 
#    0.000    0.000    0.000    0.000    0.000    0.000 
#    0.000    0.000    0.000    0.000    0.000    0.000 
#
# Total GULP energy -297328.565197 kJ/mol
# GULP energy per Si atom -12388.690217 kJ/mol
# Density = 1.536435 g / cm^3
# Si number density = 15.399398 Si / 1000 Ang^3
#
#
#
# Elastic Constant Matrix: (Units=GPa)
#
#
# Indices 1 2 3 4 5 6 
#
# 1 20.0109 25.0719 19.1919 0.0000 0.0000 0.0000
# 2 25.0719 78.2936 35.0308 0.0000 0.0000 0.0000
# 3 19.1919 35.0308 162.8131 0.0000 0.0000 0.0000
# 4 0.0000 0.0000 0.0000 24.7447 0.0000 0.0000
# 5 0.0000 0.0000 0.0000 0.0000 14.0890 0.0000
# 6 0.0000 0.0000 0.0000 0.0000 0.0000 4.2028
#
#
#
# Elastic Compliance Matrix: (Units=1/GPa)
#
#
# Indices 1 2 3 4 5 6 
#
# 1 0.086580 -0.025626 -0.004692 0.000000 0.000000 0.000000
# 2 -0.025626 0.021718 -0.001652 0.000000 0.000000 0.000000
# 3 -0.004692 -0.001652 0.007051 0.000000 0.000000 0.000000
# 4 0.000000 0.000000 0.000000 0.040413 0.000000 0.000000
# 5 0.000000 0.000000 0.000000 0.000000 0.070977 0.000000
# 6 0.000000 0.000000 0.000000 0.000000 0.000000 0.237937
#
#
# Mechanical properties :
#
#
# Convention : Reuss Voigt Hill
#
# Bulk Modulus (GPa) = 19.45227 46.63409 33.04318
# Shear Modulus (GPa) = 9.16167 20.72884 14.94526
#
# Velocity S-wave (km/s) = 2.44178 3.67288 3.11868
# Velocity P-wave (km/s) = 4.53971 6.95237 5.87131
#
# Compressibility (1/GPa) = 0.05140787
#
# Stress axis : x y z
#
# Youngs Moduli (GPa) = 11.55002 46.04507 141.83270
#
# Poissons Ratio (x) = 1.17995 0.66549
# Poissons Ratio (y) = 0.29598 0.23432
# Poissons Ratio (z) = 0.05419 0.07607
#
# Static dielectric constant tensor:
#      x y z
#    x 2.364870 0.000000 0.000000 
#    y 0.000000 2.825640 0.000000 
#    z 0.000000 0.000000 4.709520 
# 
# 
# High freq. dielectric constant tensor:
#      x y z
#    x 1.493520 0.000000 0.000000 
#    y 0.000000 1.573370 0.000000 
#    z 0.000000 0.000000 1.634880 
# 
# From -- ./inp_files/4353.got.cif
#   From: 2010.03.12/outbox.cif.g09.slc.cpg/sg20_3_cif.got.tgz:4353.got - 2010.04.14 01:38:04.
