data_PCOD8157614
_publ_section_title
;
Structure prediction by ZEFSAII (Michael W. Deem and Ramdas Pophale) SiO2 
 PCOD8157614
Probable space group: P 21 21 21
;
_chemical_formula_sum "Si O2"
_cell_formula_units_Z 28
_cell_length_a 8.270586
_cell_length_b 16.741529
_cell_length_c 8.552977
_cell_angle_alpha 90.000000
_cell_angle_beta 90.000000
_cell_angle_gamma 90.000000
_cell_volume 1184.264486
_symmetry_space_group_name_H-M "P 21 21 21"
_symmetry_group_IT_number 19
_symmetry_cell_setting 'orthorhombic'
loop_
_space_group_symop_operation_xyz
x,y,z
1/2-x,-y,1/2+z
1/2+x,1/2-y,-z
-x,1/2+y,1/2-z
loop_
_atom_site_type_symbol
_atom_site_label
_atom_site_fract_x
_atom_site_fract_y
_atom_site_fract_z
Si Si1 0.167388 0.018924 0.071479
Si Si2 0.368764 0.859118 0.076838
Si Si3 0.158239 0.461622 0.996226
Si Si4 0.554190 0.955837 0.301374
Si Si5 0.095406 0.843140 0.534930
Si Si6 0.058303 0.599375 0.199381
Si Si7 0.794597 0.768256 0.694957
O O1 0.289179 0.091354 0.116721
O O2 0.016416 0.033115 0.185709
O O3 0.248280 0.933652 0.098351
O O4 0.111003 0.017368 0.889639
O O5 0.516281 0.878307 0.196171
O O6 0.290486 0.776557 0.137419
O O7 0.425525 0.847229 0.896437
O O8 0.135145 0.473219 0.806621
O O9 0.027992 0.398465 0.065068
O O10 0.329292 0.428852 0.056613
O O11 0.141297 0.550326 0.061631
O O12 0.979502 0.791388 0.650407
O O13 0.211718 0.787107 0.434907
O O14 0.186279 0.652568 0.293778
#
# Coordination Sequence:
#
# PCOD8157614 Si02
#       7
#     4   4   4   4   4   4   4
#     4  12  22  46  78 101 140 198 247 286 354 450
#     4  11  25  45  72 104 146 187 241 300 361 435
#     4  11  24  44  73 107 135 191 240 292 356 430
#     4  11  22  43  72 106 138 175 245 295 339 435
#     4  12  25  44  72 102 139 191 242 295 362 434
#     4  11  25  46  70 107 147 189 239 301 364 429
#     4  12  27  46  67 111 147 185 240 309 374 419
#
# _framework density 23.643366
#
# number of rings (size 3 to 8) (size 9 to 14) (size 15 to 20)
#    0.000    0.571    4.286    5.143    2.000    1.143 
#    7.714    0.000    0.000    0.000    0.000    0.000 
#    0.000    0.000    0.000    0.000    0.000    0.000 
#
# Total GULP energy -346892.878056 kJ/mol
# GULP energy per Si atom -12389.031359 kJ/mol
# Density = 2.358955 g / cm^3
# Si number density = 23.643366 Si / 1000 Ang^3
#
#
#
# Elastic Constant Matrix: (Units=GPa)
#
#
# Indices 1 2 3 4 5 6 
#
# 1 82.0034 9.7497 31.1362 0.0000 0.0000 0.0000
# 2 9.7497 70.8750 -5.6432 0.0000 0.0000 0.0000
# 3 31.1362 -5.6432 70.4063 0.0000 0.0000 0.0000
# 4 0.0000 0.0000 0.0000 37.4971 0.0000 0.0000
# 5 0.0000 0.0000 0.0000 0.0000 49.5611 0.0000
# 6 0.0000 0.0000 0.0000 0.0000 0.0000 29.1813
#
#
#
# Elastic Compliance Matrix: (Units=1/GPa)
#
#
# Indices 1 2 3 4 5 6 
#
# 1 0.015128 -0.002630 -0.006901 0.000000 0.000000 0.000000
# 2 -0.002630 0.014657 0.002338 0.000000 0.000000 0.000000
# 3 -0.006901 0.002338 0.017442 0.000000 0.000000 0.000000
# 4 0.000000 0.000000 0.000000 0.026669 0.000000 0.000000
# 5 0.000000 0.000000 0.000000 0.000000 0.020177 0.000000
# 6 0.000000 0.000000 0.000000 0.000000 0.000000 0.034268
#
#
# Mechanical properties :
#
#
# Convention : Reuss Voigt Hill
#
# Bulk Modulus (GPa) = 30.44964 32.64112 31.54538
# Shear Modulus (GPa) = 32.53621 35.78404 34.16012
#
# Velocity S-wave (km/s) = 3.71364 3.89458 3.80519
# Velocity P-wave (km/s) = 5.59418 5.83603 5.71639
#
# Compressibility (1/GPa) = 0.03284111
#
# Stress axis : x y z
#
# Youngs Moduli (GPa) = 66.10458 68.22511 57.33143
#
# Poissons Ratio (x) = 0.17946 0.39563
# Poissons Ratio (y) = 0.17388 -0.13405
# Poissons Ratio (z) = 0.45617 -0.15952
#
# Static dielectric constant tensor:
#      x y z
#    x 4.562720 0.000000 0.000000 
#    y 0.000000 4.237310 0.000000 
#    z 0.000000 0.000000 4.475730 
# 
# 
# High freq. dielectric constant tensor:
#      x y z
#    x 1.946040 0.000000 0.000000 
#    y 0.000000 1.925830 0.000000 
#    z 0.000000 0.000000 1.937890 
# 
# From -- ./inp_files/3024.got.cif
#   From: 2010.03.12/outbox.cif.g09.slc.cpg/sg19_2_cif.got.tgz:3024.got - 2010.04.10 18:59:41.
