data_PCOD8157875
_publ_section_title
;
Structure prediction by ZEFSAII (Michael W. Deem and Ramdas Pophale) SiO2 
 PCOD8157875
Probable space group: P 21 21 21
;
_chemical_formula_sum "Si O2"
_cell_formula_units_Z 28
_cell_length_a 13.585259
_cell_length_b 18.666222
_cell_length_c 4.999173
_cell_angle_alpha 90.000000
_cell_angle_beta 90.000000
_cell_angle_gamma 90.000000
_cell_volume 1267.717587
_symmetry_space_group_name_H-M "P 21 21 21"
_symmetry_group_IT_number 19
_symmetry_cell_setting 'orthorhombic'
loop_
_space_group_symop_operation_xyz
x,y,z
1/2-x,-y,1/2+z
1/2+x,1/2-y,-z
-x,1/2+y,1/2-z
loop_
_atom_site_type_symbol
_atom_site_label
_atom_site_fract_x
_atom_site_fract_y
_atom_site_fract_z
Si Si1 0.651937 0.209387 0.802615
Si Si2 0.834528 0.310142 0.767110
Si Si3 0.667297 0.113715 0.301758
Si Si4 0.934351 0.250670 0.266596
Si Si5 0.115133 0.588310 0.206336
Si Si6 0.029729 0.515526 0.710500
Si Si7 0.807222 0.475481 0.767932
O O1 0.734705 0.266366 0.728372
O O2 0.655579 0.142337 0.602299
O O3 0.549925 0.251160 0.784997
O O4 0.666858 0.180635 0.101452
O O5 0.915550 0.279257 0.564017
O O6 0.812651 0.392006 0.700427
O O7 0.878439 0.303541 0.063602
O O8 0.769092 0.069229 0.281485
O O9 0.577154 0.061732 0.227558
O O10 0.894379 0.171268 0.220732
O O11 0.056251 0.538449 0.410638
O O12 0.072216 0.574855 0.911982
O O13 0.913177 0.512075 0.739972
O O14 0.731569 0.513500 0.567371
#
# Coordination Sequence:
#
# PCOD8157875 Si02
#       7
#     4   4   4   4   4   4   4
#     4  12  24  42  74  99 134 178 225 279 343 406
#     4  12  25  49  68 102 137 180 223 291 336 407
#     4  12  24  47  68 106 134 179 226 282 350 409
#     4  12  25  44  73 100 141 178 233 281 344 406
#     4  12  24  45  69 105 136 178 229 289 342 408
#     4  12  26  43  71  98 143 183 228 280 347 406
#     4  12  28  48  71 102 143 186 238 282 342 418
#
# _framework density 22.086939000000001
#
# number of rings (size 3 to 8) (size 9 to 14) (size 15 to 20)
#    0.000    0.000    2.857    7.714    4.000    0.000 
#    0.000    0.000    0.000    0.000    0.000    0.000 
#    0.000    0.000    0.000    0.000    0.000    0.000 
#
# Total GULP energy -347542.323651 kJ/mol
# GULP energy per Si atom -12412.225845 kJ/mol
# Density = 2.203667 g / cm^3
# Si number density = 22.086939 Si / 1000 Ang^3
#
#
#
# Elastic Constant Matrix: (Units=GPa)
#
#
# Indices 1 2 3 4 5 6 
#
# 1 118.4294 13.2453 17.0911 0.0000 0.0000 0.0000
# 2 13.2453 73.1304 9.5188 0.0000 0.0000 0.0000
# 3 17.0911 9.5188 85.1476 0.0000 0.0000 0.0000
# 4 0.0000 0.0000 0.0000 39.8407 0.0000 0.0000
# 5 0.0000 0.0000 0.0000 0.0000 37.3063 0.0000
# 6 0.0000 0.0000 0.0000 0.0000 0.0000 22.1041
#
#
#
# Elastic Compliance Matrix: (Units=1/GPa)
#
#
# Indices 1 2 3 4 5 6 
#
# 1 0.008833 -0.001389 -0.001618 0.000000 0.000000 0.000000
# 2 -0.001389 0.014095 -0.001297 0.000000 0.000000 0.000000
# 3 -0.001618 -0.001297 0.012214 0.000000 0.000000 0.000000
# 4 0.000000 0.000000 0.000000 0.025100 0.000000 0.000000
# 5 0.000000 0.000000 0.000000 0.000000 0.026805 0.000000
# 6 0.000000 0.000000 0.000000 0.000000 0.000000 0.045240
#
#
# Mechanical properties :
#
#
# Convention : Reuss Voigt Hill
#
# Bulk Modulus (GPa) = 37.68755 39.60200 38.64477
# Shear Modulus (GPa) = 33.39150 35.64037 34.51593
#
# Velocity S-wave (km/s) = 3.89243 4.02137 3.95743
# Velocity P-wave (km/s) = 6.10751 6.28736 6.19809
#
# Compressibility (1/GPa) = 0.02653396
#
# Stress axis : x y z
#
# Youngs Moduli (GPa) = 113.21613 70.94904 81.87338
#
# Poissons Ratio (x) = 0.09856 0.13244
# Poissons Ratio (y) = 0.15728 0.10618
# Poissons Ratio (z) = 0.18314 0.09201
#
# Static dielectric constant tensor:
#      x y z
#    x 4.122790 0.000000 0.000000 
#    y 0.000000 3.805460 0.000000 
#    z 0.000000 0.000000 4.057980 
# 
# 
# High freq. dielectric constant tensor:
#      x y z
#    x 1.886270 0.000000 0.000000 
#    y 0.000000 1.868480 0.000000 
#    z 0.000000 0.000000 1.882670 
# 
# From -- ./inp_files/1040.got.cif
#   From: 2010.03.12/outbox.cif.g09.slc.cpg/sg19_1_cif.got.tgz:1040.got - 2010.04.10 18:59:41.
