data_PCOD8157713
_publ_section_title
;
Structure prediction by ZEFSAII (Michael W. Deem and Ramdas Pophale) SiO2 
 PCOD8157713
Probable space group: P 21 21 21
;
_chemical_formula_sum "Si O2"
_cell_formula_units_Z 28
_cell_length_a 11.144791
_cell_length_b 9.684421
_cell_length_c 11.585579
_cell_angle_alpha 90.000000
_cell_angle_beta 90.000000
_cell_angle_gamma 90.000000
_cell_volume 1250.441366
_symmetry_space_group_name_H-M "P 21 21 21"
_symmetry_group_IT_number 19
_symmetry_cell_setting 'orthorhombic'
loop_
_space_group_symop_operation_xyz
x,y,z
1/2-x,-y,1/2+z
1/2+x,1/2-y,-z
-x,1/2+y,1/2-z
loop_
_atom_site_type_symbol
_atom_site_label
_atom_site_fract_x
_atom_site_fract_y
_atom_site_fract_z
Si Si1 0.116480 0.005261 0.737568
Si Si2 0.185785 0.474617 0.375754
Si Si3 0.193819 0.118056 0.084228
Si Si4 0.046204 0.370154 0.160084
Si Si5 0.713976 0.710600 0.648737
Si Si6 0.473942 0.094111 0.473270
Si Si7 0.438259 0.406860 0.461504
O O1 0.170463 0.148243 0.786515
O O2 0.032698 0.035252 0.629621
O O3 0.225934 0.907130 0.697541
O O4 0.040568 0.927865 0.836040
O O5 0.121393 0.392754 0.274502
O O6 0.215982 0.626834 0.331046
O O7 0.307611 0.395074 0.404941
O O8 0.099291 0.474960 0.487679
O O9 0.086002 0.224260 0.106775
O O10 0.280773 0.180749 0.987402
O O11 0.137332 0.974322 0.040825
O O12 0.907382 0.359058 0.196519
O O13 0.067061 0.493739 0.071260
O O14 0.477122 0.255784 0.503740
#
# Coordination Sequence:
#
# PCOD8157713 Si02
#       7
#     4   4   4   4   4   4   4
#     4  11  27  47  76 104 150 191 242 301 370 433
#     4  12  28  46  76 109 147 190 251 296 360 442
#     4  11  23  49  73 104 145 194 243 297 368 433
#     4  12  26  46  75 106 148 192 243 298 368 433
#     4  11  25  47  74 105 145 195 241 302 362 435
#     4  11  28  46  74 107 146 184 241 305 365 425
#     4  12  29  45  76 111 145 192 245 301 365 435
#
# _framework density 22.392092999999999
#
# number of rings (size 3 to 8) (size 9 to 14) (size 15 to 20)
#    0.000    0.571    4.286    1.714   10.000    1.143 
#    0.000    0.000    0.000    0.000    0.000    0.000 
#    0.000    0.000    0.000    0.000    0.000    0.000 
#
# Total GULP energy -347441.877263 kJ/mol
# GULP energy per Si atom -12408.638474 kJ/mol
# Density = 2.234113 g / cm^3
# Si number density = 22.392093 Si / 1000 Ang^3
#
#
#
# Elastic Constant Matrix: (Units=GPa)
#
#
# Indices 1 2 3 4 5 6 
#
# 1 99.0680 11.0919 15.6667 0.0000 0.0000 0.0000
# 2 11.0919 93.7906 15.5618 0.0000 0.0000 0.0000
# 3 15.6667 15.5618 64.9660 0.0000 0.0000 0.0000
# 4 0.0000 0.0000 0.0000 25.5267 0.0000 0.0000
# 5 0.0000 0.0000 0.0000 0.0000 34.8533 0.0000
# 6 0.0000 0.0000 0.0000 0.0000 0.0000 26.6064
#
#
#
# Elastic Compliance Matrix: (Units=1/GPa)
#
#
# Indices 1 2 3 4 5 6 
#
# 1 0.010561 -0.000861 -0.002341 0.000000 0.000000 0.000000
# 2 -0.000861 0.011173 -0.002469 0.000000 0.000000 0.000000
# 3 -0.002341 -0.002469 0.016548 0.000000 0.000000 0.000000
# 4 0.000000 0.000000 0.000000 0.039175 0.000000 0.000000
# 5 0.000000 0.000000 0.000000 0.000000 0.028692 0.000000
# 6 0.000000 0.000000 0.000000 0.000000 0.000000 0.037585
#
#
# Mechanical properties :
#
#
# Convention : Reuss Voigt Hill
#
# Bulk Modulus (GPa) = 37.11626 38.05174 37.58400
# Shear Modulus (GPa) = 30.47764 31.76423 31.12093
#
# Velocity S-wave (km/s) = 3.69330 3.77045 3.73207
# Velocity P-wave (km/s) = 5.89905 5.99877 5.94912
#
# Compressibility (1/GPa) = 0.02694237
#
# Stress axis : x y z
#
# Youngs Moduli (GPa) = 94.69190 89.49765 60.42844
#
# Poissons Ratio (x) = 0.07702 0.14144
# Poissons Ratio (y) = 0.08149 0.14919
# Poissons Ratio (z) = 0.22163 0.22096
#
# Static dielectric constant tensor:
#      x y z
#    x 4.121580 0.000000 0.000000 
#    y 0.000000 3.973820 0.000000 
#    z 0.000000 0.000000 4.040800 
# 
# 
# High freq. dielectric constant tensor:
#      x y z
#    x 1.892640 0.000000 0.000000 
#    y 0.000000 1.887700 0.000000 
#    z 0.000000 0.000000 1.887750 
# 
# From -- ./inp_files/4938.got.cif
#   From: 2010.03.12/outbox.cif.g09.slc.cpg/sg19_3_cif.got.tgz:4938.got - 2010.04.10 18:59:41.
