data_PCOD8157877
_publ_section_title
;
Structure prediction by ZEFSAII (Michael W. Deem and Ramdas Pophale) SiO2 
 PCOD8157877
Probable space group: P 21 21 21
;
_chemical_formula_sum "Si O2"
_cell_formula_units_Z 28
_cell_length_a 17.378870
_cell_length_b 9.876225
_cell_length_c 6.708214
_cell_angle_alpha 90.000000
_cell_angle_beta 90.000000
_cell_angle_gamma 90.000000
_cell_volume 1151.381955
_symmetry_space_group_name_H-M "P 21 21 21"
_symmetry_group_IT_number 19
_symmetry_cell_setting 'orthorhombic'
loop_
_space_group_symop_operation_xyz
x,y,z
1/2-x,-y,1/2+z
1/2+x,1/2-y,-z
-x,1/2+y,1/2-z
loop_
_atom_site_type_symbol
_atom_site_label
_atom_site_fract_x
_atom_site_fract_y
_atom_site_fract_z
Si Si1 0.646118 0.986818 0.525188
Si Si2 0.579245 0.408979 0.817860
Si Si3 0.795129 0.661176 0.641389
Si Si4 0.656190 0.543768 0.449853
Si Si5 0.985081 0.819433 0.088445
Si Si6 0.784536 0.132527 0.388447
Si Si7 0.599844 0.772222 0.209904
O O1 0.646402 0.915488 0.742716
O O2 0.602750 0.899370 0.357646
O O3 0.600523 0.128712 0.539258
O O4 0.737680 0.007513 0.484877
O O5 0.624051 0.440444 0.613560
O O6 0.520154 0.285029 0.775586
O O7 0.538700 0.549654 0.875511
O O8 0.633227 0.349186 0.991796
O O9 0.713217 0.657816 0.532624
O O10 0.794662 0.536758 0.790463
O O11 0.787125 0.795790 0.773051
O O12 0.593217 0.632265 0.333449
O O13 0.019595 0.727404 0.910354
O O14 0.826677 0.223241 0.558034
#
# Coordination Sequence:
#
# PCOD8157877 Si02
#       7
#     4   4   4   4   4   4   4
#     4  12  28  48  78 111 158 205 266 327 390 468
#     4  12  29  50  75 111 158 210 255 325 391 476
#     4  12  24  43  77 110 147 191 259 321 391 455
#     4  12  24  45  74 109 146 194 258 322 385 460
#     4  12  30  51  76 114 160 210 262 319 402 473
#     4  12  26  48  77 117 147 205 263 329 392 464
#     4  12  27  49  77 112 156 205 259 327 395 468
#
# _framework density 24.318601999999998
#
# number of rings (size 3 to 8) (size 9 to 14) (size 15 to 20)
#    0.000    0.000    5.714    3.429    8.000    2.286 
#    0.000    0.000    0.000    0.000    0.000    0.000 
#    0.000    0.000    0.000    0.000    0.000    0.000 
#
# Total GULP energy -347077.192644 kJ/mol
# GULP energy per Si atom -12395.614023 kJ/mol
# Density = 2.426325 g / cm^3
# Si number density = 24.318602 Si / 1000 Ang^3
#
#
#
# Elastic Constant Matrix: (Units=GPa)
#
#
# Indices 1 2 3 4 5 6 
#
# 1 57.9266 5.0497 12.2771 0.0000 0.0000 0.0000
# 2 5.0497 82.5472 20.2313 0.0000 0.0000 0.0000
# 3 12.2771 20.2313 95.3904 0.0000 0.0000 0.0000
# 4 0.0000 0.0000 0.0000 44.9367 0.0000 0.0000
# 5 0.0000 0.0000 0.0000 0.0000 25.9026 0.0000
# 6 0.0000 0.0000 0.0000 0.0000 0.0000 47.8387
#
#
#
# Elastic Compliance Matrix: (Units=1/GPa)
#
#
# Indices 1 2 3 4 5 6 
#
# 1 0.017771 -0.000555 -0.002169 0.000000 0.000000 0.000000
# 2 -0.000555 0.012796 -0.002642 0.000000 0.000000 0.000000
# 3 -0.002169 -0.002642 0.011323 0.000000 0.000000 0.000000
# 4 0.000000 0.000000 0.000000 0.022254 0.000000 0.000000
# 5 0.000000 0.000000 0.000000 0.000000 0.038606 0.000000
# 6 0.000000 0.000000 0.000000 0.000000 0.000000 0.020904
#
#
# Mechanical properties :
#
#
# Convention : Reuss Voigt Hill
#
# Bulk Modulus (GPa) = 32.09691 34.55338 33.32514
# Shear Modulus (GPa) = 34.53676 36.95599 35.74638
#
# Velocity S-wave (km/s) = 3.77261 3.90251 3.83811
# Velocity P-wave (km/s) = 5.67486 5.87755 5.77709
#
# Compressibility (1/GPa) = 0.03115565
#
# Stress axis : x y z
#
# Youngs Moduli (GPa) = 56.27007 78.15020 88.31677
#
# Poissons Ratio (x) = 0.04341 0.19160
# Poissons Ratio (y) = 0.03125 0.23337
# Poissons Ratio (z) = 0.12208 0.20650
#
# Static dielectric constant tensor:
#      x y z
#    x 4.104680 0.000000 0.000000 
#    y 0.000000 4.258040 0.000000 
#    z 0.000000 0.000000 4.653480 
# 
# 
# High freq. dielectric constant tensor:
#      x y z
#    x 1.956190 0.000000 0.000000 
#    y 0.000000 1.972700 0.000000 
#    z 0.000000 0.000000 1.982870 
# 
# From -- ./inp_files/1729.got.cif
#   From: 2010.03.12/outbox.cif.g09.slc.cpg/sg19_1_cif.got.tgz:1729.got - 2010.04.10 18:59:41.
