data_PCOD8157529
_publ_section_title
;
Structure prediction by ZEFSAII (Michael W. Deem and Ramdas Pophale) SiO2 
 PCOD8157529
Probable space group: P 21 21 21
;
_chemical_formula_sum "Si O2"
_cell_formula_units_Z 28
_cell_length_a 9.125565
_cell_length_b 5.578022
_cell_length_c 23.609029
_cell_angle_alpha 90.000000
_cell_angle_beta 90.000000
_cell_angle_gamma 90.000000
_cell_volume 1201.761015
_symmetry_space_group_name_H-M "P 21 21 21"
_symmetry_group_IT_number 19
_symmetry_cell_setting 'orthorhombic'
loop_
_space_group_symop_operation_xyz
x,y,z
1/2-x,-y,1/2+z
1/2+x,1/2-y,-z
-x,1/2+y,1/2-z
loop_
_atom_site_type_symbol
_atom_site_label
_atom_site_fract_x
_atom_site_fract_y
_atom_site_fract_z
Si Si1 0.915240 0.993581 0.408708
Si Si2 0.307924 0.782645 0.951254
Si Si3 0.289059 0.797005 0.154919
Si Si4 0.426119 0.823430 0.694542
Si Si5 0.797522 0.790048 0.516043
Si Si6 0.098882 0.523277 0.877991
Si Si7 0.734341 0.969419 0.737755
O O1 0.977930 0.862660 0.353451
O O2 0.900403 0.806964 0.460895
O O3 0.756652 0.103415 0.392685
O O4 0.030909 0.201001 0.424696
O O5 0.305641 0.533205 0.987583
O O6 0.181366 0.759212 0.902832
O O7 0.281762 0.030626 0.986355
O O8 0.427677 0.939671 0.131858
O O9 0.326602 0.678810 0.215621
O O10 0.142253 0.952836 0.161967
O O11 0.295443 0.733269 0.736455
O O12 0.570502 0.867021 0.731076
O O13 0.885981 0.808276 0.575866
O O14 0.175029 0.456033 0.819333
#
# Coordination Sequence:
#
# PCOD8157529 Si02
#       7
#     4   4   4   4   4   4   4
#     4  11  26  44  75 104 143 192 246 301 362 433
#     4  10  25  47  74 106 142 195 233 299 354 431
#     4  11  26  44  68 104 143 186 241 303 358 439
#     4  11  24  41  71  98 137 184 249 295 361 431
#     4  10  26  44  76 106 149 186 242 294 362 430
#     4  10  26  42  69 105 147 185 240 294 374 424
#     4  11  23  44  65 101 133 192 233 306 355 436
#
# _framework density 23.299143000000001
#
# number of rings (size 3 to 8) (size 9 to 14) (size 15 to 20)
#    0.857    0.571    1.429    1.714   10.000    4.571 
#    0.000    0.000    0.000    0.000    0.000    0.000 
#    0.000    0.000    0.000    0.000    0.000    0.000 
#
# Total GULP energy -346926.239220 kJ/mol
# GULP energy per Si atom -12390.222829 kJ/mol
# Density = 2.324611 g / cm^3
# Si number density = 23.299143 Si / 1000 Ang^3
#
#
#
# Elastic Constant Matrix: (Units=GPa)
#
#
# Indices 1 2 3 4 5 6 
#
# 1 61.8790 -2.3775 8.2006 0.0000 0.0000 0.0000
# 2 -2.3775 87.0061 2.4127 0.0000 0.0000 0.0000
# 3 8.2006 2.4127 90.0708 0.0000 0.0000 0.0000
# 4 0.0000 0.0000 0.0000 18.2557 0.0000 0.0000
# 5 0.0000 0.0000 0.0000 0.0000 26.3085 0.0000
# 6 0.0000 0.0000 0.0000 0.0000 0.0000 16.2543
#
#
#
# Elastic Compliance Matrix: (Units=1/GPa)
#
#
# Indices 1 2 3 4 5 6 
#
# 1 0.016379 0.000489 -0.001504 0.000000 0.000000 0.000000
# 2 0.000489 0.011517 -0.000353 0.000000 0.000000 0.000000
# 3 -0.001504 -0.000353 0.011249 0.000000 0.000000 0.000000
# 4 0.000000 0.000000 0.000000 0.054777 0.000000 0.000000
# 5 0.000000 0.000000 0.000000 0.000000 0.038011 0.000000
# 6 0.000000 0.000000 0.000000 0.000000 0.000000 0.061522
#
#
# Mechanical properties :
#
#
# Convention : Reuss Voigt Hill
#
# Bulk Modulus (GPa) = 27.46651 28.38083 27.92367
# Shear Modulus (GPa) = 24.00079 27.54504 25.77291
#
# Velocity S-wave (km/s) = 3.21302 3.44209 3.32953
# Velocity P-wave (km/s) = 5.05756 5.29196 5.17609
#
# Compressibility (1/GPa) = 0.03640797
#
# Stress axis : x y z
#
# Youngs Moduli (GPa) = 61.05476 86.83115 88.89842
#
# Poissons Ratio (x) = -0.04249 0.13373
# Poissons Ratio (y) = -0.02987 0.03138
# Poissons Ratio (z) = 0.09185 0.03066
#
# Static dielectric constant tensor:
#      x y z
#    x 3.819770 0.000000 0.000000 
#    y 0.000000 4.200190 0.000000 
#    z 0.000000 0.000000 4.279040 
# 
# 
# High freq. dielectric constant tensor:
#      x y z
#    x 1.899590 0.000000 0.000000 
#    y 0.000000 1.913520 0.000000 
#    z 0.000000 0.000000 1.936360 
# 
# From -- ./inp_files/7327.got.cif
#   From: 2010.03.12/outbox.cif.g09.slc.cpg/sg19_4_cif.got.tgz:7327.got - 2010.04.10 18:59:41.
