data_PCOD8157822
_publ_section_title
;
Structure prediction by ZEFSAII (Michael W. Deem and Ramdas Pophale) SiO2 
 PCOD8157822
Probable space group: P 21 21 21
;
_chemical_formula_sum "Si O2"
_cell_formula_units_Z 24
_cell_length_a 9.600183
_cell_length_b 12.144609
_cell_length_c 7.682066
_cell_angle_alpha 90.000000
_cell_angle_beta 90.000000
_cell_angle_gamma 90.000000
_cell_volume 895.655677
_symmetry_space_group_name_H-M "P 21 21 21"
_symmetry_group_IT_number 19
_symmetry_cell_setting 'orthorhombic'
loop_
_space_group_symop_operation_xyz
x,y,z
1/2-x,-y,1/2+z
1/2+x,1/2-y,-z
-x,1/2+y,1/2-z
loop_
_atom_site_type_symbol
_atom_site_label
_atom_site_fract_x
_atom_site_fract_y
_atom_site_fract_z
Si Si1 0.333193 0.421777 0.265642
Si Si2 0.489362 0.279043 0.518951
Si Si3 0.839005 0.562286 0.205841
Si Si4 0.875959 0.608051 0.591788
Si Si5 0.972071 0.862539 0.331465
Si Si6 0.900318 0.834351 0.703011
O O1 0.367916 0.360911 0.449786
O O2 0.459492 0.401595 0.131105
O O3 0.194399 0.366957 0.193838
O O4 0.311034 0.553195 0.295454
O O5 0.630742 0.351822 0.548910
O O6 0.453502 0.227270 0.706576
O O7 0.512721 0.179023 0.382251
O O8 0.838264 0.624290 0.390156
O O9 0.694139 0.500708 0.171775
O O10 0.967708 0.479841 0.216893
O O11 0.814376 0.719166 0.682921
O O12 0.003819 0.835642 0.534101
#
# Coordination Sequence:
#
# PCOD8157822 Si02
#       6
#     4   4   4   4   4   4
#     4  11  27  50  77 112 155 191 264 315 380 459
#     4  11  26  49  74 115 150 202 253 317 375 464
#     4  12  26  48  75 110 156 204 257 311 392 450
#     4  11  26  47  74 110 153 202 252 317 375 467
#     4  12  28  49  79 112 147 205 252 319 387 453
#     4  11  25  47  77 107 153 194 254 313 381 449
#
# _framework density 26.796012000000001
#
# number of rings (size 3 to 8) (size 9 to 14) (size 15 to 20)
#    0.000    0.667    3.333    3.000    4.667   10.667 
#    0.000    0.000    0.000    0.000    0.000    0.000 
#    0.000    0.000    0.000    0.000    0.000    0.000 
#
# Total GULP energy -297481.714029 kJ/mol
# GULP energy per Si atom -12395.071418 kJ/mol
# Density = 2.673502 g / cm^3
# Si number density = 26.796012 Si / 1000 Ang^3
#
#
#
# Elastic Constant Matrix: (Units=GPa)
#
#
# Indices 1 2 3 4 5 6 
#
# 1 105.0274 14.6659 23.7760 0.0000 0.0000 0.0000
# 2 14.6659 137.2418 33.0820 0.0000 0.0000 0.0000
# 3 23.7760 33.0820 123.5879 0.0000 0.0000 0.0000
# 4 0.0000 0.0000 0.0000 49.5601 0.0000 0.0000
# 5 0.0000 0.0000 0.0000 0.0000 21.1199 0.0000
# 6 0.0000 0.0000 0.0000 0.0000 0.0000 16.3220
#
#
#
# Elastic Compliance Matrix: (Units=1/GPa)
#
#
# Indices 1 2 3 4 5 6 
#
# 1 0.010008 -0.000647 -0.001752 0.000000 0.000000 0.000000
# 2 -0.000647 0.007831 -0.001972 0.000000 0.000000 0.000000
# 3 -0.001752 -0.001972 0.008956 0.000000 0.000000 0.000000
# 4 0.000000 0.000000 0.000000 0.020178 0.000000 0.000000
# 5 0.000000 0.000000 0.000000 0.000000 0.047349 0.000000
# 6 0.000000 0.000000 0.000000 0.000000 0.000000 0.061267
#
#
# Mechanical properties :
#
#
# Convention : Reuss Voigt Hill
#
# Bulk Modulus (GPa) = 55.39105 56.54500 55.96802
# Shear Modulus (GPa) = 29.35164 37.02264 33.18714
#
# Velocity S-wave (km/s) = 3.31323 3.72108 3.52307
# Velocity P-wave (km/s) = 5.94583 6.29363 6.12220
#
# Compressibility (1/GPa) = 0.01805346
#
# Stress axis : x y z
#
# Youngs Moduli (GPa) = 99.91660 127.70041 111.65368
#
# Poissons Ratio (x) = 0.08264 0.19564
# Poissons Ratio (y) = 0.06466 0.22014
# Poissons Ratio (z) = 0.17507 0.25178
#
# Static dielectric constant tensor:
#      x y z
#    x 4.274380 0.000000 0.000000 
#    y 0.000000 5.249380 0.000000 
#    z 0.000000 0.000000 5.062350 
# 
# 
# High freq. dielectric constant tensor:
#      x y z
#    x 2.037450 0.000000 0.000000 
#    y 0.000000 2.103020 0.000000 
#    z 0.000000 0.000000 2.089570 
# 
# From -- ./inp_files/3379.got.cif
#   From: 2010.03.12/outbox.cif.g09.slc.cpg/sg19_2_cif.got.tgz:3379.got - 2010.04.10 18:59:41.
