data_PCOD8157838
_publ_section_title
;
Structure prediction by ZEFSAII (Michael W. Deem and Ramdas Pophale) SiO2 
 PCOD8157838
Probable space group: P 21 21 21
;
_chemical_formula_sum "Si O2"
_cell_formula_units_Z 28
_cell_length_a 25.410632
_cell_length_b 5.074558
_cell_length_c 8.701039
_cell_angle_alpha 90.000000
_cell_angle_beta 90.000000
_cell_angle_gamma 90.000000
_cell_volume 1121.979192
_symmetry_space_group_name_H-M "P 21 21 21"
_symmetry_group_IT_number 19
_symmetry_cell_setting 'orthorhombic'
loop_
_space_group_symop_operation_xyz
x,y,z
1/2-x,-y,1/2+z
1/2+x,1/2-y,-z
-x,1/2+y,1/2-z
loop_
_atom_site_type_symbol
_atom_site_label
_atom_site_fract_x
_atom_site_fract_y
_atom_site_fract_z
Si Si1 0.165246 0.180178 0.792658
Si Si2 0.792436 0.035960 0.469550
Si Si3 0.500980 0.198870 0.349883
Si Si4 0.255670 0.841628 0.778474
Si Si5 0.635398 0.533312 0.667104
Si Si6 0.610533 0.040687 0.475229
Si Si7 0.397645 0.162539 0.517881
O O1 0.207842 0.298089 0.909595
O O2 0.141127 0.407475 0.684391
O O3 0.202218 0.966353 0.704074
O O4 0.118149 0.045158 0.886566
O O5 0.756387 0.268028 0.541920
O O6 0.854096 0.111456 0.457180
O O7 0.768614 0.929168 0.311283
O O8 0.517641 0.470429 0.267566
O O9 0.453586 0.277755 0.464773
O O10 0.548749 0.082022 0.449089
O O11 0.304202 0.051574 0.769341
O O12 0.621621 0.746197 0.535835
O O13 0.631463 0.241738 0.600726
O O14 0.595665 0.539984 0.811584
#
# Coordination Sequence:
#
# PCOD8157838 Si02
#       7
#     4   4   4   4   4   4   4
#     4  11  26  45  75 108 151 203 263 310 380 478
#     4  11  26  47  73 109 152 210 260 316 385 464
#     4  12  26  50  85 114 146 201 258 328 390 465
#     4  11  28  45  72 110 156 213 254 318 391 463
#     4  12  29  49  72 112 163 199 249 326 390 463
#     4  12  29  48  77 118 150 200 263 324 390 462
#     4  11  26  50  76 107 156 202 261 318 396 471
#
# _framework density 24.955902999999999
#
# number of rings (size 3 to 8) (size 9 to 14) (size 15 to 20)
#    0.000    0.571    2.857    2.571   12.000    1.143 
#    0.000    0.000    0.000    0.000    0.000    0.000 
#    0.000    0.000    0.000    0.000    0.000    0.000 
#
# Total GULP energy -347229.404152 kJ/mol
# GULP energy per Si atom -12401.050148 kJ/mol
# Density = 2.489910 g / cm^3
# Si number density = 24.955903 Si / 1000 Ang^3
#
#
#
# Elastic Constant Matrix: (Units=GPa)
#
#
# Indices 1 2 3 4 5 6 
#
# 1 117.9515 13.0308 31.0800 0.0000 0.0000 0.0000
# 2 13.0308 68.9596 1.9962 0.0000 0.0000 0.0000
# 3 31.0800 1.9962 79.0754 0.0000 0.0000 0.0000
# 4 0.0000 0.0000 0.0000 40.2932 0.0000 0.0000
# 5 0.0000 0.0000 0.0000 0.0000 40.4944 0.0000
# 6 0.0000 0.0000 0.0000 0.0000 0.0000 34.0524
#
#
#
# Elastic Compliance Matrix: (Units=1/GPa)
#
#
# Indices 1 2 3 4 5 6 
#
# 1 0.009656 -0.001716 -0.003752 0.000000 0.000000 0.000000
# 2 -0.001716 0.014817 0.000300 0.000000 0.000000 0.000000
# 3 -0.003752 0.000300 0.014113 0.000000 0.000000 0.000000
# 4 0.000000 0.000000 0.000000 0.024818 0.000000 0.000000
# 5 0.000000 0.000000 0.000000 0.000000 0.024695 0.000000
# 6 0.000000 0.000000 0.000000 0.000000 0.000000 0.029366
#
#
# Mechanical properties :
#
#
# Convention : Reuss Voigt Hill
#
# Bulk Modulus (GPa) = 35.39683 39.80006 37.59844
# Shear Modulus (GPa) = 36.43837 37.62665 37.03251
#
# Velocity S-wave (km/s) = 3.82528 3.88716 3.85634
# Velocity P-wave (km/s) = 5.80732 6.01078 5.90992
#
# Compressibility (1/GPa) = 0.02825112
#
# Stress axis : x y z
#
# Youngs Moduli (GPa) = 103.55934 67.49085 70.85530
#
# Poissons Ratio (x) = 0.11582 0.26585
# Poissons Ratio (y) = 0.17772 -0.02129
# Poissons Ratio (z) = 0.38856 -0.02028
#
# Static dielectric constant tensor:
#      x y z
#    x 4.420830 0.000000 0.000000 
#    y 0.000000 4.440840 0.000000 
#    z 0.000000 0.000000 4.553530 
# 
# 
# High freq. dielectric constant tensor:
#      x y z
#    x 1.990140 0.000000 0.000000 
#    y 0.000000 2.000900 0.000000 
#    z 0.000000 0.000000 1.998440 
# 
# From -- ./inp_files/4361.got.cif
#   From: 2010.03.12/outbox.cif.g09.slc.cpg/sg19_3_cif.got.tgz:4361.got - 2010.04.10 18:59:41.
