data_PCOD8157357
_publ_section_title
;
Structure prediction by ZEFSAII (Michael W. Deem and Ramdas Pophale) SiO2 
 PCOD8157357
Probable space group: P 21 21 21
;
_chemical_formula_sum "Si O2"
_cell_formula_units_Z 28
_cell_length_a 16.511600
_cell_length_b 4.940835
_cell_length_c 14.149501
_cell_angle_alpha 90.000000
_cell_angle_beta 90.000000
_cell_angle_gamma 90.000000
_cell_volume 1154.331731
_symmetry_space_group_name_H-M "P 21 21 21"
_symmetry_group_IT_number 19
_symmetry_cell_setting 'orthorhombic'
loop_
_space_group_symop_operation_xyz
x,y,z
1/2-x,-y,1/2+z
1/2+x,1/2-y,-z
-x,1/2+y,1/2-z
loop_
_atom_site_type_symbol
_atom_site_label
_atom_site_fract_x
_atom_site_fract_y
_atom_site_fract_z
Si Si1 0.545274 0.069786 0.254316
Si Si2 0.868589 0.192431 0.921137
Si Si3 0.795450 0.711664 0.689339
Si Si4 0.212019 0.596974 0.128177
Si Si5 0.528222 0.955895 0.808919
Si Si6 0.402869 0.813909 0.962370
Si Si7 0.763222 0.216950 0.582778
O O1 0.513347 0.354573 0.298012
O O2 0.569820 0.877491 0.339854
O O3 0.618817 0.138410 0.186567
O O4 0.774280 0.154512 0.888134
O O5 0.892698 0.998674 0.008379
O O6 0.890346 0.499792 0.945768
O O7 0.752718 0.707177 0.792540
O O8 0.815483 0.407544 0.652920
O O9 0.750047 0.905206 0.613915
O O10 0.123668 0.506101 0.166902
O O11 0.205085 0.744421 0.025818
O O12 0.489302 0.235121 0.772270
O O13 0.485041 0.868893 0.906119
O O14 0.323353 0.867000 0.898728
#
# Coordination Sequence:
#
# PCOD8157357 Si02
#       7
#     4   4   4   4   4   4   4
#     4  11  23  40  62  91 126 165 210 270 335 384
#     4  10  23  42  65  90 127 173 218 270 328 394
#     4  11  24  42  66  97 134 172 225 283 329 405
#     4  10  25  45  69  99 137 182 227 274 343 416
#     4  12  26  43  67  99 137 177 219 279 347 408
#     4  11  22  41  65  92 126 166 218 271 320 389
#     4  11  23  41  68  98 129 177 225 269 332 400
#
# _framework density 24.256459
#
# number of rings (size 3 to 8) (size 9 to 14) (size 15 to 20)
#    0.000    1.143    0.000    6.000    0.000   13.714 
#    0.000    1.429    0.000    0.000    0.000    0.000 
#    0.000    0.000    0.000    0.000    0.000    0.000 
#
# Total GULP energy -346892.902953 kJ/mol
# GULP energy per Si atom -12389.032248 kJ/mol
# Density = 2.420125 g / cm^3
# Si number density = 24.256459 Si / 1000 Ang^3
#
#
#
# Elastic Constant Matrix: (Units=GPa)
#
#
# Indices 1 2 3 4 5 6 
#
# 1 101.1167 10.1530 20.4960 0.0000 0.0000 0.0000
# 2 10.1530 86.5839 17.8899 0.0000 0.0000 0.0000
# 3 20.4960 17.8899 109.5409 0.0000 0.0000 0.0000
# 4 0.0000 0.0000 0.0000 41.8507 0.0000 0.0000
# 5 0.0000 0.0000 0.0000 0.0000 26.0858 0.0000
# 6 0.0000 0.0000 0.0000 0.0000 0.0000 12.6258
#
#
#
# Elastic Compliance Matrix: (Units=1/GPa)
#
#
# Indices 1 2 3 4 5 6 
#
# 1 0.010338 -0.000841 -0.001797 0.000000 0.000000 0.000000
# 2 -0.000841 0.012021 -0.001806 0.000000 0.000000 0.000000
# 3 -0.001797 -0.001806 0.009760 0.000000 0.000000 0.000000
# 4 0.000000 0.000000 0.000000 0.023894 0.000000 0.000000
# 5 0.000000 0.000000 0.000000 0.000000 0.038335 0.000000
# 6 0.000000 0.000000 0.000000 0.000000 0.000000 0.079203
#
#
# Mechanical properties :
#
#
# Convention : Reuss Voigt Hill
#
# Bulk Modulus (GPa) = 43.04439 43.81325 43.42882
# Shear Modulus (GPa) = 26.29034 32.69264 29.49149
#
# Velocity S-wave (km/s) = 3.29576 3.67521 3.49064
# Velocity P-wave (km/s) = 5.68038 6.00927 5.84714
#
# Compressibility (1/GPa) = 0.02323183
#
# Stress axis : x y z
#
# Youngs Moduli (GPa) = 96.72812 83.18604 102.45706
#
# Poissons Ratio (x) = 0.06996 0.18412
# Poissons Ratio (y) = 0.08135 0.18503
# Poissons Ratio (z) = 0.17382 0.15023
#
# Static dielectric constant tensor:
#      x y z
#    x 4.546120 0.000000 0.000000 
#    y 0.000000 4.444160 0.000000 
#    z 0.000000 0.000000 4.255670 
# 
# 
# High freq. dielectric constant tensor:
#      x y z
#    x 1.963830 0.000000 0.000000 
#    y 0.000000 1.969620 0.000000 
#    z 0.000000 0.000000 1.964410 
# 
# From -- ./inp_files/6241.got.cif
#   From: 2010.03.12/outbox.cif.g09.slc.cpg/sg19_4_cif.got.tgz:6241.got - 2010.04.10 18:59:41.
