data_PCOD8157092
_publ_section_title
;
Structure prediction by ZEFSAII (Michael W. Deem and Ramdas Pophale) SiO2 
 PCOD8157092
Probable space group: P 21 21 21
;
_chemical_formula_sum "Si O2"
_cell_formula_units_Z 32
_cell_length_a 10.369509
_cell_length_b 11.028246
_cell_length_c 13.268817
_cell_angle_alpha 90.000000
_cell_angle_beta 90.000000
_cell_angle_gamma 90.000000
_cell_volume 1517.388689
_symmetry_space_group_name_H-M "P 21 21 21"
_symmetry_group_IT_number 19
_symmetry_cell_setting 'orthorhombic'
loop_
_space_group_symop_operation_xyz
x,y,z
1/2-x,-y,1/2+z
1/2+x,1/2-y,-z
-x,1/2+y,1/2-z
loop_
_atom_site_type_symbol
_atom_site_label
_atom_site_fract_x
_atom_site_fract_y
_atom_site_fract_z
Si Si1 0.327812 0.949640 0.327009
Si Si2 0.144046 0.171427 0.138978
Si Si3 0.716565 0.361356 0.512460
Si Si4 0.355229 0.406022 0.825925
Si Si5 0.630532 0.210350 0.061862
Si Si6 0.646924 0.697125 0.814334
Si Si7 0.903387 0.464296 0.874713
Si Si8 0.353360 0.679619 0.824762
O O1 0.394953 0.841211 0.387400
O O2 0.211630 0.902241 0.257643
O O3 0.279311 0.050293 0.404875
O O4 0.426731 0.003715 0.243356
O O5 0.257978 0.083673 0.101579
O O6 0.205035 0.232870 0.238933
O O7 0.009251 0.098291 0.152498
O O8 0.120417 0.277064 0.057895
O O9 0.821150 0.317183 0.431376
O O10 0.594980 0.420339 0.451486
O O11 0.667608 0.239291 0.566375
O O12 0.272871 0.340388 0.913594
O O13 0.322010 0.334726 0.722207
O O14 0.299860 0.542669 0.820357
O O15 0.516254 0.125252 0.097505
O O16 0.500408 0.669719 0.795208
#
# Coordination Sequence:
#
# PCOD8157092 Si02
#       8
#     4   4   4   4   4   4   4   4
#     4  10  21  43  64  89 134 169 215 264 330 394
#     4  11  22  41  66  92 122 175 222 253 327 391
#     4  11  22  41  65  94 127 173 219 262 332 390
#     4  10  23  43  61  93 137 164 213 279 324 379
#     4  11  24  40  65  97 129 172 210 277 333 379
#     4   9  23  42  62  90 131 174 210 269 331 385
#     4  11  23  41  66  93 127 175 219 262 324 397
#     4  11  24  37  69  96 123 168 226 272 313 387
#
# _framework density 21.088861999999999
#
# number of rings (size 3 to 8) (size 9 to 14) (size 15 to 20)
#    0.000    1.500    2.500    2.250    5.250    3.000 
#    6.750    0.000    0.000    0.000    0.000    0.000 
#    0.000    0.000    0.000    0.000    0.000    0.000 
#
# Total GULP energy -396665.991787 kJ/mol
# GULP energy per Si atom -12395.812243 kJ/mol
# Density = 2.104086 g / cm^3
# Si number density = 21.088862 Si / 1000 Ang^3
#
#
#
# Elastic Constant Matrix: (Units=GPa)
#
#
# Indices 1 2 3 4 5 6 
#
# 1 47.9657 9.8029 3.3577 0.0000 0.0000 0.0000
# 2 9.8029 112.4432 40.2102 0.0000 0.0000 0.0000
# 3 3.3577 40.2102 128.8966 0.0000 0.0000 0.0000
# 4 0.0000 0.0000 0.0000 32.9345 0.0000 0.0000
# 5 0.0000 0.0000 0.0000 0.0000 18.3334 0.0000
# 6 0.0000 0.0000 0.0000 0.0000 0.0000 23.7088
#
#
#
# Elastic Compliance Matrix: (Units=1/GPa)
#
#
# Indices 1 2 3 4 5 6 
#
# 1 0.021227 -0.001860 0.000027 0.000000 0.000000 0.000000
# 2 -0.001860 0.010173 -0.003125 0.000000 0.000000 0.000000
# 3 0.000027 -0.003125 0.008732 0.000000 0.000000 0.000000
# 4 0.000000 0.000000 0.000000 0.030363 0.000000 0.000000
# 5 0.000000 0.000000 0.000000 0.000000 0.054545 0.000000
# 6 0.000000 0.000000 0.000000 0.000000 0.000000 0.042178
#
#
# Mechanical properties :
#
#
# Convention : Reuss Voigt Hill
#
# Bulk Modulus (GPa) = 33.09521 44.00524 38.55022
# Shear Modulus (GPa) = 26.70842 30.72433 28.71638
#
# Velocity S-wave (km/s) = 3.56261 3.82108 3.69410
# Velocity P-wave (km/s) = 5.71404 6.35448 6.04275
#
# Compressibility (1/GPa) = 0.03021586
#
# Stress axis : x y z
#
# Youngs Moduli (GPa) = 47.11091 98.29827 114.51678
#
# Poissons Ratio (x) = 0.18287 -0.00314
# Poissons Ratio (y) = 0.08764 0.35788
# Poissons Ratio (z) = -0.00129 0.30719
#
# Static dielectric constant tensor:
#      x y z
#    x 3.553100 0.000000 0.000000 
#    y 0.000000 4.108550 0.000000 
#    z 0.000000 0.000000 4.173010 
# 
# 
# High freq. dielectric constant tensor:
#      x y z
#    x 1.802200 0.000000 0.000000 
#    y 0.000000 1.836720 0.000000 
#    z 0.000000 0.000000 1.839620 
# 
# From -- ./inp_files/5055.got.cif
#   From: 2010.03.12/outbox.cif.g09.slc.cpg/sg19_3_cif.got.tgz:5055.got - 2010.04.10 18:59:41.
