data_PCOD8157360
_publ_section_title
;
Structure prediction by ZEFSAII (Michael W. Deem and Ramdas Pophale) SiO2 
 PCOD8157360
Probable space group: P 21 21 21
;
_chemical_formula_sum "Si O2"
_cell_formula_units_Z 32
_cell_length_a 5.428843
_cell_length_b 12.791679
_cell_length_c 20.242446
_cell_angle_alpha 90.000000
_cell_angle_beta 90.000000
_cell_angle_gamma 90.000000
_cell_volume 1405.716764
_symmetry_space_group_name_H-M "P 21 21 21"
_symmetry_group_IT_number 19
_symmetry_cell_setting 'orthorhombic'
loop_
_space_group_symop_operation_xyz
x,y,z
1/2-x,-y,1/2+z
1/2+x,1/2-y,-z
-x,1/2+y,1/2-z
loop_
_atom_site_type_symbol
_atom_site_label
_atom_site_fract_x
_atom_site_fract_y
_atom_site_fract_z
Si Si1 0.514799 0.087472 0.062200
Si Si2 0.932706 0.548953 0.263204
Si Si3 0.489248 0.147087 0.918714
Si Si4 0.608400 0.745800 0.959585
Si Si5 0.609750 0.420134 0.173631
Si Si6 0.335418 0.225447 0.166600
Si Si7 0.280223 0.436168 0.635327
Si Si8 0.997092 0.476187 0.406100
O O1 0.546207 0.161900 0.126244
O O2 0.259099 0.024464 0.068614
O O3 0.494452 0.159275 0.997171
O O4 0.758909 0.015209 0.054664
O O5 0.786586 0.449923 0.233369
O O6 0.765897 0.650466 0.276377
O O7 0.050915 0.504051 0.329915
O O8 0.132465 0.586613 0.210145
O O9 0.217596 0.146323 0.887755
O O10 0.628924 0.246289 0.888067
O O11 0.584537 0.033153 0.897752
O O12 0.690194 0.836297 0.909897
O O13 0.527507 0.646885 0.916501
O O14 0.358228 0.779306 0.998710
O O15 0.415690 0.334404 0.201727
O O16 0.502922 0.528439 0.143864
#
# Coordination Sequence:
#
# PCOD8157360 Si02
#       8
#     4   4   4   4   4   4   4   4
#     4  11  26  44  73 102 149 182 234 303 363 432
#     4  10  25  45  67 101 142 189 240 304 365 427
#     4  10  23  42  66 102 134 181 230 294 363 424
#     4  12  27  46  75 108 146 196 252 299 375 446
#     4  10  24  43  71 100 140 186 243 295 366 438
#     4  10  25  41  69 104 138 187 239 293 363 443
#     4  10  24  44  70  98 141 186 239 304 354 432
#     4  11  26  47  69 107 144 193 239 300 365 432
#
# _framework density 22.764188000000001
#
# number of rings (size 3 to 8) (size 9 to 14) (size 15 to 20)
#    0.000    1.500    0.000    2.250   17.500    4.000 
#    0.000    0.000    0.000    0.000    0.000    0.000 
#    0.000    0.000    0.000    0.000    0.000    0.000 
#
# Total GULP energy -396563.638653 kJ/mol
# GULP energy per Si atom -12392.613708 kJ/mol
# Density = 2.271238 g / cm^3
# Si number density = 22.764188 Si / 1000 Ang^3
#
#
#
# Elastic Constant Matrix: (Units=GPa)
#
#
# Indices 1 2 3 4 5 6 
#
# 1 107.8174 24.3335 15.8867 0.0000 0.0000 0.0000
# 2 24.3335 104.6891 14.8577 0.0000 0.0000 0.0000
# 3 15.8867 14.8577 72.2426 0.0000 0.0000 0.0000
# 4 0.0000 0.0000 0.0000 29.3404 0.0000 0.0000
# 5 0.0000 0.0000 0.0000 0.0000 19.6085 0.0000
# 6 0.0000 0.0000 0.0000 0.0000 0.0000 36.2061
#
#
#
# Elastic Compliance Matrix: (Units=1/GPa)
#
#
# Indices 1 2 3 4 5 6 
#
# 1 0.010004 -0.002074 -0.001774 0.000000 0.000000 0.000000
# 2 -0.002074 0.010269 -0.001656 0.000000 0.000000 0.000000
# 3 -0.001774 -0.001656 0.014573 0.000000 0.000000 0.000000
# 4 0.000000 0.000000 0.000000 0.034083 0.000000 0.000000
# 5 0.000000 0.000000 0.000000 0.000000 0.050998 0.000000
# 6 0.000000 0.000000 0.000000 0.000000 0.000000 0.027620
#
#
# Mechanical properties :
#
#
# Convention : Reuss Voigt Hill
#
# Bulk Modulus (GPa) = 41.94651 43.87833 42.91242
# Shear Modulus (GPa) = 30.03007 32.34241 31.18624
#
# Velocity S-wave (km/s) = 3.63599 3.77338 3.70533
# Velocity P-wave (km/s) = 6.00781 6.18883 6.09899
#
# Compressibility (1/GPa) = 0.02383989
#
# Stress axis : x y z
#
# Youngs Moduli (GPa) = 99.95731 97.37946 68.62076
#
# Poissons Ratio (x) = 0.20193 0.12170
# Poissons Ratio (y) = 0.20728 0.11363
# Poissons Ratio (z) = 0.17728 0.16126
#
# Static dielectric constant tensor:
#      x y z
#    x 4.431340 0.000000 0.000000 
#    y 0.000000 4.102740 0.000000 
#    z 0.000000 0.000000 4.038360 
# 
# 
# High freq. dielectric constant tensor:
#      x y z
#    x 1.904220 0.000000 0.000000 
#    y 0.000000 1.908500 0.000000 
#    z 0.000000 0.000000 1.891480 
# 
# From -- ./inp_files/6937.got.cif
#   From: 2010.03.12/outbox.cif.g09.slc.cpg/sg19_4_cif.got.tgz:6937.got - 2010.04.10 18:59:41.
