data_PCOD8157197
_publ_section_title
;
Structure prediction by ZEFSAII (Michael W. Deem and Ramdas Pophale) SiO2 
 PCOD8157197
Probable space group: P 21 21 21
;
_chemical_formula_sum "Si O2"
_cell_formula_units_Z 32
_cell_length_a 15.690536
_cell_length_b 16.341132
_cell_length_c 5.255527
_cell_angle_alpha 90.000000
_cell_angle_beta 90.000000
_cell_angle_gamma 90.000000
_cell_volume 1347.523009
_symmetry_space_group_name_H-M "P 21 21 21"
_symmetry_group_IT_number 19
_symmetry_cell_setting 'orthorhombic'
loop_
_space_group_symop_operation_xyz
x,y,z
1/2-x,-y,1/2+z
1/2+x,1/2-y,-z
-x,1/2+y,1/2-z
loop_
_atom_site_type_symbol
_atom_site_label
_atom_site_fract_x
_atom_site_fract_y
_atom_site_fract_z
Si Si1 0.873683 0.480728 0.879927
Si Si2 0.278414 0.890694 0.839159
Si Si3 0.822882 0.918898 0.096713
Si Si4 0.069065 0.115007 0.010808
Si Si5 0.083819 0.729844 0.513022
Si Si6 0.512067 0.547747 0.804319
Si Si7 0.269545 0.393726 0.907462
Si Si8 0.370865 0.177181 0.521227
O O1 0.814008 0.404975 0.798062
O O2 0.892576 0.564464 0.725103
O O3 0.813217 0.519622 0.099412
O O4 0.958213 0.441180 0.009851
O O5 0.351288 0.846725 0.671826
O O6 0.233926 0.832292 0.056510
O O7 0.781289 0.873363 0.335862
O O8 0.923635 0.909197 0.132581
O O9 0.799571 0.013498 0.096767
O O10 0.790305 0.876180 0.837681
O O11 0.009827 0.191410 0.940069
O O12 0.009753 0.050495 0.162358
O O13 0.148318 0.662701 0.404020
O O14 0.109037 0.762472 0.789407
O O15 0.083732 0.795804 0.284679
O O16 0.581173 0.586341 0.007874
#
# Coordination Sequence:
#
# PCOD8157197 Si02
#       8
#     4   4   4   4   4   4   4   4
#     4  11  21  39  79 109 140 180 246 309 378 418
#     4  11  22  43  69 109 138 186 237 305 365 442
#     4  10  22  40  73 101 129 175 252 302 350 411
#     4  11  25  43  77 105 139 192 252 303 354 455
#     4  12  28  50  66 103 150 200 237 298 382 432
#     4  11  24  43  72 107 140 185 241 316 355 438
#     4  10  22  43  68  96 132 187 240 301 348 426
#     4  12  28  47  70 100 154 193 233 300 382 440
#
# _framework density 23.747274000000001
#
# number of rings (size 3 to 8) (size 9 to 14) (size 15 to 20)
#    0.000    1.000    3.750    2.250    7.000    1.000 
#    6.750    0.000    0.000    0.000    0.000    0.000 
#    0.000    0.000    0.000    0.000    0.000    0.000 
#
# Total GULP energy -396473.876093 kJ/mol
# GULP energy per Si atom -12389.808628 kJ/mol
# Density = 2.369322 g / cm^3
# Si number density = 23.747274 Si / 1000 Ang^3
#
#
#
# Elastic Constant Matrix: (Units=GPa)
#
#
# Indices 1 2 3 4 5 6 
#
# 1 135.9034 24.6935 21.3294 0.0000 0.0000 0.0000
# 2 24.6935 50.0348 13.2158 0.0000 0.0000 0.0000
# 3 21.3294 13.2158 89.6249 0.0000 0.0000 0.0000
# 4 0.0000 0.0000 0.0000 26.7385 0.0000 0.0000
# 5 0.0000 0.0000 0.0000 0.0000 34.3595 0.0000
# 6 0.0000 0.0000 0.0000 0.0000 0.0000 38.8017
#
#
#
# Elastic Compliance Matrix: (Units=1/GPa)
#
#
# Indices 1 2 3 4 5 6 
#
# 1 0.008253 -0.003698 -0.001419 0.000000 0.000000 0.000000
# 2 -0.003698 0.022453 -0.002431 0.000000 0.000000 0.000000
# 3 -0.001419 -0.002431 0.011854 0.000000 0.000000 0.000000
# 4 0.000000 0.000000 0.000000 0.037399 0.000000 0.000000
# 5 0.000000 0.000000 0.000000 0.000000 0.029104 0.000000
# 6 0.000000 0.000000 0.000000 0.000000 0.000000 0.025772
#
#
# Mechanical properties :
#
#
# Convention : Reuss Voigt Hill
#
# Bulk Modulus (GPa) = 36.41084 43.78228 40.09656
# Shear Modulus (GPa) = 31.42966 34.40157 32.91561
#
# Velocity S-wave (km/s) = 3.64195 3.81025 3.72705
# Velocity P-wave (km/s) = 5.74900 6.15094 5.95336
#
# Compressibility (1/GPa) = 0.02746435
#
# Stress axis : x y z
#
# Youngs Moduli (GPa) = 121.17106 44.53679 84.36198
#
# Poissons Ratio (x) = 0.16471 0.11968
# Poissons Ratio (y) = 0.44812 0.20507
# Poissons Ratio (z) = 0.17191 0.10826
#
# Static dielectric constant tensor:
#      x y z
#    x 4.276050 0.000000 0.000000 
#    y 0.000000 4.137180 0.000000 
#    z 0.000000 0.000000 4.569290 
# 
# 
# High freq. dielectric constant tensor:
#      x y z
#    x 1.947050 0.000000 0.000000 
#    y 0.000000 1.929090 0.000000 
#    z 0.000000 0.000000 1.948840 
# 
# From -- ./inp_files/1580.got.cif
#   From: 2010.03.12/outbox.cif.g09.slc.cpg/sg19_1_cif.got.tgz:1580.got - 2010.04.10 18:59:41.
