data_PCOD8157929
_publ_section_title
;
Structure prediction by ZEFSAII (Michael W. Deem and Ramdas Pophale) SiO2 
 PCOD8157929
Probable space group: P 21 21 21
;
_chemical_formula_sum "Si O2"
_cell_formula_units_Z 24
_cell_length_a 11.686119
_cell_length_b 8.397426
_cell_length_c 10.591723
_cell_angle_alpha 90.000000
_cell_angle_beta 90.000000
_cell_angle_gamma 90.000000
_cell_volume 1039.400938
_symmetry_space_group_name_H-M "P 21 21 21"
_symmetry_group_IT_number 19
_symmetry_cell_setting 'orthorhombic'
loop_
_space_group_symop_operation_xyz
x,y,z
1/2-x,-y,1/2+z
1/2+x,1/2-y,-z
-x,1/2+y,1/2-z
loop_
_atom_site_type_symbol
_atom_site_label
_atom_site_fract_x
_atom_site_fract_y
_atom_site_fract_z
Si Si1 0.076909 0.004237 0.398949
Si Si2 0.602149 0.225372 0.798260
Si Si3 0.798438 0.987894 0.086130
Si Si4 0.512164 0.996780 0.370224
Si Si5 0.068508 0.653002 0.888178
Si Si6 0.705902 0.318095 0.046900
O O1 0.208343 0.963788 0.428519
O O2 0.008029 0.841445 0.373146
O O3 0.066175 0.119154 0.278878
O O4 0.032350 0.096177 0.521152
O O5 0.647886 0.083461 0.712322
O O6 0.699726 0.276726 0.897794
O O7 0.691024 0.876967 0.043998
O O8 0.751832 0.163206 0.120121
O O9 0.891009 0.991783 0.975860
O O10 0.445683 0.162506 0.357051
O O11 0.569808 0.950819 0.238895
O O12 0.420060 0.861775 0.404811
#
# Coordination Sequence:
#
# PCOD8157929 Si02
#       6
#     4   4   4   4   4   4
#     4  12  27  49  77 112 150 205 254 317 387 457
#     4  12  26  51  75 113 155 199 258 319 379 468
#     4  12  26  50  77 110 155 200 257 321 383 453
#     4  12  28  52  78 114 157 202 259 317 387 461
#     4  12  28  49  78 111 151 204 258 314 385 457
#     4  12  27  47  79 110 154 202 252 316 391 450
#
# _framework density 23.090223999999999
#
# number of rings (size 3 to 8) (size 9 to 14) (size 15 to 20)
#    0.000    0.000    3.333    6.000    7.000    0.000 
#    3.000    0.000    0.000    0.000    0.000    0.000 
#    0.000    0.000    0.000    0.000    0.000    0.000 
#
# Total GULP energy -297780.446507 kJ/mol
# GULP energy per Si atom -12407.518604 kJ/mol
# Density = 2.303767 g / cm^3
# Si number density = 23.090224 Si / 1000 Ang^3
#
#
#
# Elastic Constant Matrix: (Units=GPa)
#
#
# Indices 1 2 3 4 5 6 
#
# 1 118.6299 42.1397 19.6662 0.0000 0.0000 0.0000
# 2 42.1397 126.4819 30.9730 0.0000 0.0000 0.0000
# 3 19.6662 30.9730 90.6807 0.0000 0.0000 0.0000
# 4 0.0000 0.0000 0.0000 44.7311 0.0000 0.0000
# 5 0.0000 0.0000 0.0000 0.0000 30.7735 0.0000
# 6 0.0000 0.0000 0.0000 0.0000 0.0000 46.2480
#
#
#
# Elastic Compliance Matrix: (Units=1/GPa)
#
#
# Indices 1 2 3 4 5 6 
#
# 1 0.009658 -0.002952 -0.001086 0.000000 0.000000 0.000000
# 2 -0.002952 0.009530 -0.002615 0.000000 0.000000 0.000000
# 3 -0.001086 -0.002615 0.012156 0.000000 0.000000 0.000000
# 4 0.000000 0.000000 0.000000 0.022356 0.000000 0.000000
# 5 0.000000 0.000000 0.000000 0.000000 0.032495 0.000000
# 6 0.000000 0.000000 0.000000 0.000000 0.000000 0.021623
#
#
# Mechanical properties :
#
#
# Convention : Reuss Voigt Hill
#
# Bulk Modulus (GPa) = 55.43689 57.92782 56.68235
# Shear Modulus (GPa) = 39.32749 40.55145 39.93947
#
# Velocity S-wave (km/s) = 4.13147 4.19527 4.16349
# Velocity P-wave (km/s) = 6.84249 6.97202 6.90756
#
# Compressibility (1/GPa) = 0.01803853
#
# Stress axis : x y z
#
# Youngs Moduli (GPa) = 103.53899 104.93129 82.26071
#
# Poissons Ratio (x) = 0.30973 0.08937
# Poissons Ratio (y) = 0.30562 0.21511
# Poissons Ratio (z) = 0.11248 0.27439
#
# Static dielectric constant tensor:
#      x y z
#    x 4.297460 0.000000 0.000000 
#    y 0.000000 4.308450 0.000000 
#    z 0.000000 0.000000 4.105190 
# 
# 
# High freq. dielectric constant tensor:
#      x y z
#    x 1.928000 0.000000 0.000000 
#    y 0.000000 1.928310 0.000000 
#    z 0.000000 0.000000 1.910550 
# 
# From -- ./inp_files/2688.got.cif
#   From: 2010.03.12/outbox.cif.g09.slc.cpg/sg19_2_cif.got.tgz:2688.got - 2010.04.10 18:59:41.
