data_PCOD8157949
_publ_section_title
;
Structure prediction by ZEFSAII (Michael W. Deem and Ramdas Pophale) SiO2 
 PCOD8157949
Probable space group: C 2 2 21
;
_chemical_formula_sum "Si O2"
_cell_formula_units_Z 48
_cell_length_a 24.927105
_cell_length_b 27.878737
_cell_length_c 5.004852
_cell_angle_alpha 90.000000
_cell_angle_beta 90.000000
_cell_angle_gamma 90.000000
_cell_volume 3478.052853
_symmetry_space_group_name_H-M "C 2 2 21"
_symmetry_group_IT_number 20
_symmetry_cell_setting 'orthorhombic'
loop_
_space_group_symop_operation_xyz
x,y,z
-x,-y,1/2+z
x,-y,-z
-x,y,1/2-z
1/2+x,1/2+y,z
1/2-x,1/2-y,1/2+z
1/2+x,1/2-y,-z
1/2-x,1/2+y,1/2-z
loop_
_atom_site_type_symbol
_atom_site_label
_atom_site_fract_x
_atom_site_fract_y
_atom_site_fract_z
Si Si1 0.792221 0.150318 0.440716
Si Si2 0.277336 0.769078 0.052266
Si Si3 0.849919 0.809532 0.059200
Si Si4 0.166725 0.052684 0.958911
Si Si5 0.464441 0.648967 0.998883
Si Si6 0.405189 0.552863 0.041098
O O1 0.733177 0.174355 0.489300
O O2 0.836016 0.173430 0.642052
O O3 0.788238 0.093083 0.486831
O O4 0.812787 0.159833 0.142026
O O5 0.265202 0.759575 0.363442
O O6 0.336122 0.747601 0.979316
O O7 0.911883 0.817920 0.997976
O O8 0.144786 0.059326 0.659841
O O9 0.116418 0.059258 0.158510
O O10 0.192852 0.000000 0.000000
O O11 0.500000 0.663178 0.750000
O O12 0.500000 0.662202 0.250000
O O13 0.450217 0.592550 0.990302
O O14 0.430997 0.500000 0.000000
#
# Coordination Sequence:
#
# PCOD8157949 Si02
#       6
#     8   8   8   8   8   8
#     4  10  15  28  45  58  74  94 116 151 187 226
#     4   8  16  25  42  61  72  89 113 144 192 224
#     4  10  18  30  41  56  76  91 119 160 185 227
#     4  10  17  27  43  58  74  98 121 150 192 226
#     4  12  22  30  42  54  70  99 130 160 199 222
#     4  10  20  32  41  51  70  97 129 165 195 217
#
# _framework density 13.800826000000001
#
# number of rings (size 3 to 8) (size 9 to 14) (size 15 to 20)
#    0.000    2.000    3.333    2.000    0.000    0.667 
#    0.000    0.000    0.000    0.000    0.000    0.000 
#    0.000    0.000    0.000    0.000    0.000    1.667 
#
# Total GULP energy -297433.817594 kJ/mol
# GULP energy per Si atom -12393.075733 kJ/mol
# Density = 1.376942 g / cm^3
# Si number density = 13.800826 Si / 1000 Ang^3
#
#
#
# Elastic Constant Matrix: (Units=GPa)
#
#
# Indices 1 2 3 4 5 6 
#
# 1 60.0793 50.8396 11.5830 0.0000 0.0000 0.0000
# 2 50.8396 77.2233 12.3346 0.0000 0.0000 0.0000
# 3 11.5830 12.3346 65.0461 0.0000 0.0000 0.0000
# 4 0.0000 0.0000 0.0000 15.7406 0.0000 0.0000
# 5 0.0000 0.0000 0.0000 0.0000 15.3598 0.0000
# 6 0.0000 0.0000 0.0000 0.0000 0.0000 26.9723
#
#
#
# Elastic Compliance Matrix: (Units=1/GPa)
#
#
# Indices 1 2 3 4 5 6 
#
# 1 0.037851 -0.024587 -0.002078 0.000000 0.000000 0.000000
# 2 -0.024587 0.029325 -0.001183 0.000000 0.000000 0.000000
# 3 -0.002078 -0.001183 0.015968 0.000000 0.000000 0.000000
# 4 0.000000 0.000000 0.000000 0.063530 0.000000 0.000000
# 5 0.000000 0.000000 0.000000 0.000000 0.065105 0.000000
# 6 0.000000 0.000000 0.000000 0.000000 0.000000 0.037075
#
#
# Mechanical properties :
#
#
# Convention : Reuss Voigt Hill
#
# Bulk Modulus (GPa) = 36.43113 39.09591 37.76352
# Shear Modulus (GPa) = 15.93883 20.12063 18.02973
#
# Velocity S-wave (km/s) = 3.40210 3.82243 3.61837
# Velocity P-wave (km/s) = 6.47205 6.91892 6.69921
#
# Compressibility (1/GPa) = 0.02744906
#
# Stress axis : x y z
#
# Youngs Moduli (GPa) = 26.41926 34.10035 62.62533
#
# Poissons Ratio (x) = 0.83843 0.13013
# Poissons Ratio (y) = 0.64958 0.07406
# Poissons Ratio (z) = 0.05490 0.04033
#
# Static dielectric constant tensor:
#      x y z
#    x 2.462830 0.000000 0.000000 
#    y 0.000000 2.985760 0.000000 
#    z 0.000000 0.000000 2.964780 
# 
# 
# High freq. dielectric constant tensor:
#      x y z
#    x 1.467190 0.000000 0.000000 
#    y 0.000000 1.513640 0.000000 
#    z 0.000000 0.000000 1.557730 
# 
# From -- ./inp_files/3348.got.cif
#   From: 2010.03.12/outbox.cif.g09.slc.cpg/sg20_2_cif.got.tgz:3348.got - 2010.04.14 01:38:04.
