data_PCOD8157240
_publ_section_title
;
Structure prediction by ZEFSAII (Michael W. Deem and Ramdas Pophale) SiO2 
 PCOD8157240
Probable space group: P 21 21 21
;
_chemical_formula_sum "Si O2"
_cell_formula_units_Z 32
_cell_length_a 8.471734
_cell_length_b 18.531503
_cell_length_c 9.325630
_cell_angle_alpha 90.000000
_cell_angle_beta 90.000000
_cell_angle_gamma 90.000000
_cell_volume 1464.067621
_symmetry_space_group_name_H-M "P 21 21 21"
_symmetry_group_IT_number 19
_symmetry_cell_setting 'orthorhombic'
loop_
_space_group_symop_operation_xyz
x,y,z
1/2-x,-y,1/2+z
1/2+x,1/2-y,-z
-x,1/2+y,1/2-z
loop_
_atom_site_type_symbol
_atom_site_label
_atom_site_fract_x
_atom_site_fract_y
_atom_site_fract_z
Si Si1 0.504950 0.793491 0.560147
Si Si2 0.389384 0.091702 0.315022
Si Si3 0.754274 0.051606 0.308813
Si Si4 0.691077 0.440013 0.166819
Si Si5 0.775624 0.668442 0.928049
Si Si6 0.330466 0.157874 0.026942
Si Si7 0.363717 0.433711 0.006263
Si Si8 0.069755 0.690907 0.120760
O O1 0.340702 0.810864 0.482798
O O2 0.536271 0.710584 0.530022
O O3 0.645555 0.845674 0.496702
O O4 0.481936 0.808482 0.727533
O O5 0.573286 0.075483 0.297575
O O6 0.340788 0.123641 0.468508
O O7 0.348255 0.150596 0.195858
O O8 0.281752 0.021230 0.276839
O O9 0.835591 0.037848 0.155474
O O10 0.839586 0.114919 0.398087
O O11 0.763965 0.974692 0.393518
O O12 0.675517 0.382539 0.295406
O O13 0.838510 0.416684 0.064362
O O14 0.537994 0.451164 0.064142
O O15 0.687448 0.741202 0.881036
O O16 0.938171 0.694936 0.998631
#
# Coordination Sequence:
#
# PCOD8157240 Si02
#       8
#     4   4   4   4   4   4   4   4
#     4  10  22  42  64  95 132 167 219 272 332 399
#     4  11  24  42  66 100 132 175 222 278 334 401
#     4  10  23  44  66  96 137 173 227 278 337 407
#     4  10  23  44  67  95 132 178 222 274 331 399
#     4  12  24  44  70  98 138 177 227 281 339 407
#     4  11  22  42  68  94 130 171 219 268 333 397
#     4   9  22  41  65  94 133 173 222 274 337 399
#     4  11  24  43  66  98 132 174 220 281 337 395
#
# _framework density 21.856914
#
# number of rings (size 3 to 8) (size 9 to 14) (size 15 to 20)
#    0.000    1.500    2.500    1.500    7.000    2.000 
#    0.000    1.250    0.000    0.000    0.000    0.000 
#    0.000    0.000    0.000    0.000    0.000    0.000 
#
# Total GULP energy -396564.581699 kJ/mol
# GULP energy per Si atom -12392.643178 kJ/mol
# Density = 2.180717 g / cm^3
# Si number density = 21.856914 Si / 1000 Ang^3
#
#
#
# Elastic Constant Matrix: (Units=GPa)
#
#
# Indices 1 2 3 4 5 6 
#
# 1 59.9016 10.3125 21.9532 0.0000 0.0000 0.0000
# 2 10.3125 40.0837 10.6145 0.0000 0.0000 0.0000
# 3 21.9532 10.6145 94.0945 0.0000 0.0000 0.0000
# 4 0.0000 0.0000 0.0000 41.2288 0.0000 0.0000
# 5 0.0000 0.0000 0.0000 0.0000 28.4656 0.0000
# 6 0.0000 0.0000 0.0000 0.0000 0.0000 28.4337
#
#
#
# Elastic Compliance Matrix: (Units=1/GPa)
#
#
# Indices 1 2 3 4 5 6 
#
# 1 0.018797 -0.003788 -0.003958 0.000000 0.000000 0.000000
# 2 -0.003788 0.026479 -0.002103 0.000000 0.000000 0.000000
# 3 -0.003958 -0.002103 0.011788 0.000000 0.000000 0.000000
# 4 0.000000 0.000000 0.000000 0.024255 0.000000 0.000000
# 5 0.000000 0.000000 0.000000 0.000000 0.035130 0.000000
# 6 0.000000 0.000000 0.000000 0.000000 0.000000 0.035169
#
#
# Mechanical properties :
#
#
# Convention : Reuss Voigt Hill
#
# Bulk Modulus (GPa) = 26.76239 31.09336 28.92787
# Shear Modulus (GPa) = 27.20753 29.70560 28.45657
#
# Velocity S-wave (km/s) = 3.53200 3.69059 3.61217
# Velocity P-wave (km/s) = 5.37627 5.69362 5.53722
#
# Compressibility (1/GPa) = 0.03736587
#
# Stress axis : x y z
#
# Youngs Moduli (GPa) = 53.20067 37.76540 84.82933
#
# Poissons Ratio (x) = 0.14305 0.33577
# Poissons Ratio (y) = 0.20151 0.17842
# Poissons Ratio (z) = 0.21058 0.07943
#
# Static dielectric constant tensor:
#      x y z
#    x 3.704930 0.000000 0.000000 
#    y 0.000000 4.385820 0.000000 
#    z 0.000000 0.000000 4.004430 
# 
# 
# High freq. dielectric constant tensor:
#      x y z
#    x 1.845420 0.000000 0.000000 
#    y 0.000000 1.872960 0.000000 
#    z 0.000000 0.000000 1.863660 
# 
# From -- ./inp_files/3181.got.cif
#   From: 2010.03.12/outbox.cif.g09.slc.cpg/sg19_2_cif.got.tgz:3181.got - 2010.04.10 18:59:41.
