data_PCOD8157939
_publ_section_title
;
Structure prediction by ZEFSAII (Michael W. Deem and Ramdas Pophale) SiO2 
 PCOD8157939
Probable space group: P 21 21 21
;
_chemical_formula_sum "Si O2"
_cell_formula_units_Z 16
_cell_length_a 21.606158
_cell_length_b 5.575940
_cell_length_c 4.889009
_cell_angle_alpha 90.000000
_cell_angle_beta 90.000000
_cell_angle_gamma 90.000000
_cell_volume 589.001602
_symmetry_space_group_name_H-M "P 21 21 21"
_symmetry_group_IT_number 19
_symmetry_cell_setting 'orthorhombic'
loop_
_space_group_symop_operation_xyz
x,y,z
1/2-x,-y,1/2+z
1/2+x,1/2-y,-z
-x,1/2+y,1/2-z
loop_
_atom_site_type_symbol
_atom_site_label
_atom_site_fract_x
_atom_site_fract_y
_atom_site_fract_z
Si Si1 0.153690 0.993410 0.213725
Si Si2 0.941470 0.842557 0.467192
Si Si3 0.572134 0.848045 0.454415
Si Si4 0.753837 0.837705 0.017762
O O1 0.130269 0.803663 0.438244
O O2 0.202591 0.869838 0.011233
O O3 0.097061 0.093259 0.028484
O O4 0.183312 0.219881 0.370556
O O5 0.010965 0.813499 0.577915
O O6 0.908974 0.041551 0.660655
O O7 0.943816 0.934709 0.158007
O O8 0.769228 0.957327 0.726205
#
# Coordination Sequence:
#
# PCOD8157939 Si02
#       4
#     4   4   4   4
#     4  12  30  54  86 120 166 216 264 344 400 484
#     4  12  28  52  81 122 166 212 268 330 407 483
#     4  12  28  52  81 122 166 212 268 330 407 483
#     4  12  30  56  82 122 162 216 276 328 402 482
#
# _framework density 27.164614
#
# number of rings (size 3 to 8) (size 9 to 14) (size 15 to 20)
#    0.000    0.000    2.500    4.500    0.000   20.000 
#    0.000    0.000    0.000    0.000    0.000    0.000 
#    0.000    0.000    0.000    0.000    0.000    0.000 
#
# Total GULP energy -198632.165290 kJ/mol
# GULP energy per Si atom -12414.510331 kJ/mol
# Density = 2.710279 g / cm^3
# Si number density = 27.164614 Si / 1000 Ang^3
#
#
#
# Elastic Constant Matrix: (Units=GPa)
#
#
# Indices 1 2 3 4 5 6 
#
# 1 102.3626 17.9834 16.8488 0.0000 0.0000 0.0000
# 2 17.9834 93.7171 17.2353 0.0000 0.0000 0.0000
# 3 16.8488 17.2353 98.9351 0.0000 0.0000 0.0000
# 4 0.0000 0.0000 0.0000 56.9168 0.0000 0.0000
# 5 0.0000 0.0000 0.0000 0.0000 33.2817 0.0000
# 6 0.0000 0.0000 0.0000 0.0000 0.0000 51.1947
#
#
#
# Elastic Compliance Matrix: (Units=1/GPa)
#
#
# Indices 1 2 3 4 5 6 
#
# 1 0.010310 -0.001710 -0.001458 0.000000 0.000000 0.000000
# 2 -0.001710 0.011307 -0.001679 0.000000 0.000000 0.000000
# 3 -0.001458 -0.001679 0.010648 0.000000 0.000000 0.000000
# 4 0.000000 0.000000 0.000000 0.017570 0.000000 0.000000
# 5 0.000000 0.000000 0.000000 0.000000 0.030047 0.000000
# 6 0.000000 0.000000 0.000000 0.000000 0.000000 0.019533
#
#
# Mechanical properties :
#
#
# Convention : Reuss Voigt Hill
#
# Bulk Modulus (GPa) = 44.30262 44.34999 44.32631
# Shear Modulus (GPa) = 42.86999 44.47512 43.67255
#
# Velocity S-wave (km/s) = 3.97691 4.05068 4.01396
# Velocity P-wave (km/s) = 6.11818 6.18378 6.15107
#
# Compressibility (1/GPa) = 0.02257203
#
# Stress axis : x y z
#
# Youngs Moduli (GPa) = 96.99692 88.43853 93.91150
#
# Poissons Ratio (x) = 0.15125 0.13691
# Poissons Ratio (y) = 0.16589 0.15764
# Poissons Ratio (z) = 0.14140 0.14845
#
# Static dielectric constant tensor:
#      x y z
#    x 4.930730 0.000000 0.000000 
#    y 0.000000 4.944760 0.000000 
#    z 0.000000 0.000000 4.742140 
# 
# 
# High freq. dielectric constant tensor:
#      x y z
#    x 2.101700 0.000000 0.000000 
#    y 0.000000 2.105590 0.000000 
#    z 0.000000 0.000000 2.094500 
# 
# From -- ./inp_files/114.got.cif
#   From: 2010.03.12/outbox.cif.g09.slc.cpg/sg19_1_cif.got.tgz:114.got - 2010.04.10 18:59:41.
