data_PCOD8157947
_publ_section_title
;
Structure prediction by ZEFSAII (Michael W. Deem and Ramdas Pophale) SiO2 
 PCOD8157947
Probable space group: C 2 2 21
;
_chemical_formula_sum "Si O2"
_cell_formula_units_Z 48
_cell_length_a 17.101673
_cell_length_b 8.021033
_cell_length_c 18.085815
_cell_angle_alpha 90.000000
_cell_angle_beta 90.000000
_cell_angle_gamma 90.000000
_cell_volume 2480.887011
_symmetry_space_group_name_H-M "C 2 2 21"
_symmetry_group_IT_number 20
_symmetry_cell_setting 'orthorhombic'
loop_
_space_group_symop_operation_xyz
x,y,z
-x,-y,1/2+z
x,-y,-z
-x,y,1/2-z
1/2+x,1/2+y,z
1/2-x,1/2-y,1/2+z
1/2+x,1/2-y,-z
1/2-x,1/2+y,1/2-z
loop_
_atom_site_type_symbol
_atom_site_label
_atom_site_fract_x
_atom_site_fract_y
_atom_site_fract_z
Si Si1 0.615828 0.523062 0.319224
Si Si2 0.500000 0.260566 0.750000
Si Si3 0.966475 0.272660 0.880404
Si Si4 0.369282 0.674286 0.669000
Si Si5 0.297268 0.830246 0.123691
Si Si6 0.107673 0.517725 0.260109
Si Si7 0.395592 0.000000 0.000000
O O1 0.534900 0.629506 0.316796
O O2 0.602087 0.366324 0.373244
O O3 0.630721 0.463150 0.234556
O O4 0.683691 0.638728 0.353087
O O5 0.429887 0.142986 0.719164
O O6 0.960774 0.393646 0.809231
O O7 0.952846 0.378648 0.954208
O O8 0.050584 0.180142 0.878444
O O9 0.296059 0.645210 0.614301
O O10 0.354546 0.857458 0.702350
O O11 0.322572 0.957746 0.187403
O O12 0.340653 0.880573 0.048587
#
# Coordination Sequence:
#
# PCOD8157947 Si02
#       7
#     8   4   8   8   8   8   4
#     4  10  19  33  60  92 112 143 184 250 300 341
#     4  10  14  28  52  90 116 136 174 222 296 352
#     4  10  19  37  60  78 115 151 200 231 273 355
#     4  11  18  35  59  93 113 139 189 259 293 329
#     4  10  22  35  58  81 124 150 188 230 296 351
#     4   9  17  31  56  85 118 147 174 234 304 351
#     4  10  24  44  54  74 114 180 196 214 284 362
#
# _framework density 19.347919999999998
#
# number of rings (size 3 to 8) (size 9 to 14) (size 15 to 20)
#    0.000    2.000    3.333    2.000    0.000    0.667 
#    0.000    3.333    0.000    0.000    0.000    0.000 
#    0.000    0.000    0.000    0.000    0.000    0.000 
#
# Total GULP energy -297427.653758 kJ/mol
# GULP energy per Si atom -12392.818907 kJ/mol
# Density = 1.930388 g / cm^3
# Si number density = 19.347920 Si / 1000 Ang^3
#
#
#
# Elastic Constant Matrix: (Units=GPa)
#
#
# Indices 1 2 3 4 5 6 
#
# 1 115.1243 25.1009 36.2594 0.0000 0.0000 0.0000
# 2 25.1009 95.2466 32.8151 0.0000 0.0000 0.0000
# 3 36.2594 32.8151 74.5536 0.0000 0.0000 0.0000
# 4 0.0000 0.0000 0.0000 30.3202 0.0000 0.0000
# 5 0.0000 0.0000 0.0000 0.0000 18.8015 0.0000
# 6 0.0000 0.0000 0.0000 0.0000 0.0000 18.9204
#
#
#
# Elastic Compliance Matrix: (Units=1/GPa)
#
#
# Indices 1 2 3 4 5 6 
#
# 1 0.010367 -0.001173 -0.004526 0.000000 0.000000 0.000000
# 2 -0.001173 0.012508 -0.004935 0.000000 0.000000 0.000000
# 3 -0.004526 -0.004935 0.017787 0.000000 0.000000 0.000000
# 4 0.000000 0.000000 0.000000 0.032981 0.000000 0.000000
# 5 0.000000 0.000000 0.000000 0.000000 0.053187 0.000000
# 6 0.000000 0.000000 0.000000 0.000000 0.000000 0.052853
#
#
# Mechanical properties :
#
#
# Convention : Reuss Voigt Hill
#
# Bulk Modulus (GPa) = 51.56123 52.58612 52.07367
# Shear Modulus (GPa) = 24.10600 26.32503 25.21551
#
# Velocity S-wave (km/s) = 3.53359 3.69265 3.61400
# Velocity P-wave (km/s) = 6.58451 6.73937 6.66239
#
# Compressibility (1/GPa) = 0.01939442
#
# Stress axis : x y z
#
# Youngs Moduli (GPa) = 96.45529 79.94575 56.22180
#
# Poissons Ratio (x) = 0.09377 0.25446
# Poissons Ratio (y) = 0.11313 0.27747
# Poissons Ratio (z) = 0.43656 0.39455
#
# Static dielectric constant tensor:
#      x y z
#    x 3.395080 0.000000 0.000000 
#    y 0.000000 3.851010 0.000000 
#    z 0.000000 0.000000 3.087740 
# 
# 
# High freq. dielectric constant tensor:
#      x y z
#    x 1.747640 0.000000 0.000000 
#    y 0.000000 1.774050 0.000000 
#    z 0.000000 0.000000 1.699360 
# 
# From -- ./inp_files/26609.got.cif
#   From: 2010.03.12/outbox.cif.g09.slc.cpg/sg20_14_cif.got.tgz:26609.got - 2010.04.14 01:38:04.
