data_PCOD8157809
_publ_section_title
;
Structure prediction by ZEFSAII (Michael W. Deem and Ramdas Pophale) SiO2 
 PCOD8157809
Probable space group: P 21 21 21
;
_chemical_formula_sum "Si O2"
_cell_formula_units_Z 20
_cell_length_a 14.054233
_cell_length_b 5.001206
_cell_length_c 10.527176
_cell_angle_alpha 90.000000
_cell_angle_beta 90.000000
_cell_angle_gamma 90.000000
_cell_volume 739.935351
_symmetry_space_group_name_H-M "P 21 21 21"
_symmetry_group_IT_number 19
_symmetry_cell_setting 'orthorhombic'
loop_
_space_group_symop_operation_xyz
x,y,z
1/2-x,-y,1/2+z
1/2+x,1/2-y,-z
-x,1/2+y,1/2-z
loop_
_atom_site_type_symbol
_atom_site_label
_atom_site_fract_x
_atom_site_fract_y
_atom_site_fract_z
Si Si1 0.764284 0.981763 0.013541
Si Si2 0.461857 0.747925 0.688046
Si Si3 0.467496 0.477490 0.053154
Si Si4 0.122099 0.742562 0.805603
Si Si5 0.766335 0.509864 0.353868
O O1 0.876534 0.896780 0.021948
O O2 0.716562 0.784448 0.909696
O O3 0.761409 0.287729 0.968349
O O4 0.704902 0.959182 0.144093
O O5 0.465035 0.444814 0.737705
O O6 0.359519 0.878442 0.715359
O O7 0.487008 0.748456 0.537069
O O8 0.439347 0.381930 0.192853
O O9 0.552562 0.688005 0.077546
O O10 0.179494 0.996986 0.747871
#
# Coordination Sequence:
#
# PCOD8157809 Si02
#       5
#     4   4   4   4   4
#     4  11  25  46  71 107 154 190 249 308 383 443
#     4  12  27  48  75 107 154 200 252 309 383 462
#     4  11  26  46  78 117 147 205 254 317 386 458
#     4  11  25  46  78 114 153 197 259 323 373 464
#     4  11  25  46  70 107 150 198 242 313 375 453
#
# _framework density 27.029388999999998
#
# number of rings (size 3 to 8) (size 9 to 14) (size 15 to 20)
#    0.000    0.800    2.000    3.600    2.800   11.200 
#    0.000    0.000    0.000    0.000    0.000    0.000 
#    0.000    0.000    0.000    0.000    0.000    0.000 
#
# Total GULP energy -247923.914209 kJ/mol
# GULP energy per Si atom -12396.195710 kJ/mol
# Density = 2.696787 g / cm^3
# Si number density = 27.029389 Si / 1000 Ang^3
#
#
#
# Elastic Constant Matrix: (Units=GPa)
#
#
# Indices 1 2 3 4 5 6 
#
# 1 116.6157 -22.2116 33.5913 0.0000 0.0000 0.0000
# 2 -22.2116 45.1326 15.8780 0.0000 0.0000 0.0000
# 3 33.5913 15.8780 114.5811 0.0000 0.0000 0.0000
# 4 0.0000 0.0000 0.0000 31.9105 0.0000 0.0000
# 5 0.0000 0.0000 0.0000 0.0000 56.4080 0.0000
# 6 0.0000 0.0000 0.0000 0.0000 0.0000 28.9546
#
#
#
# Elastic Compliance Matrix: (Units=1/GPa)
#
#
# Indices 1 2 3 4 5 6 
#
# 1 0.011117 0.006957 -0.004223 0.000000 0.000000 0.000000
# 2 0.006957 0.027646 -0.005870 0.000000 0.000000 0.000000
# 3 -0.004223 -0.005870 0.010779 0.000000 0.000000 0.000000
# 4 0.000000 0.000000 0.000000 0.031338 0.000000 0.000000
# 5 0.000000 0.000000 0.000000 0.000000 0.017728 0.000000
# 6 0.000000 0.000000 0.000000 0.000000 0.000000 0.034537
#
#
# Mechanical properties :
#
#
# Convention : Reuss Voigt Hill
#
# Bulk Modulus (GPa) = 23.11189 36.76056 29.93623
# Shear Modulus (GPa) = 32.50127 40.05942 36.28035
#
# Velocity S-wave (km/s) = 3.47139 3.85394 3.66766
# Velocity P-wave (km/s) = 4.96353 5.78218 5.38842
#
# Compressibility (1/GPa) = 0.04326776
#
# Stress axis : x y z
#
# Youngs Moduli (GPa) = 89.95518 36.17181 92.77309
#
# Poissons Ratio (x) = -0.25163 0.39178
# Poissons Ratio (y) = -0.62579 0.54462
# Poissons Ratio (z) = 0.37988 0.21235
#
# Static dielectric constant tensor:
#      x y z
#    x 5.415550 0.000000 0.000000 
#    y 0.000000 4.424590 0.000000 
#    z 0.000000 0.000000 4.866820 
# 
# 
# High freq. dielectric constant tensor:
#      x y z
#    x 2.113580 0.000000 0.000000 
#    y 0.000000 2.053190 0.000000 
#    z 0.000000 0.000000 2.089390 
# 
# From -- ./inp_files/853.got.cif
#   From: 2010.03.12/outbox.cif.g09.slc.cpg/sg19_1_cif.got.tgz:853.got - 2010.04.10 18:59:41.
