data_PCOD8157744
_publ_section_title
;
Structure prediction by ZEFSAII (Michael W. Deem and Ramdas Pophale) SiO2 
 PCOD8157744
Probable space group: P 21 21 21
;
_chemical_formula_sum "Si O2"
_cell_formula_units_Z 28
_cell_length_a 8.543887
_cell_length_b 15.630600
_cell_length_c 9.305669
_cell_angle_alpha 90.000000
_cell_angle_beta 90.000000
_cell_angle_gamma 90.000000
_cell_volume 1242.735618
_symmetry_space_group_name_H-M "P 21 21 21"
_symmetry_group_IT_number 19
_symmetry_cell_setting 'orthorhombic'
loop_
_space_group_symop_operation_xyz
x,y,z
1/2-x,-y,1/2+z
1/2+x,1/2-y,-z
-x,1/2+y,1/2-z
loop_
_atom_site_type_symbol
_atom_site_label
_atom_site_fract_x
_atom_site_fract_y
_atom_site_fract_z
Si Si1 0.689225 0.300901 0.585266
Si Si2 0.960869 0.347253 0.398270
Si Si3 0.960751 0.612371 0.722299
Si Si4 0.969825 0.066260 0.459237
Si Si5 0.054213 0.799787 0.682848
Si Si6 0.612100 0.056563 0.371258
Si Si7 0.374347 0.107276 0.902008
O O1 0.582076 0.221796 0.541682
O O2 0.581124 0.378487 0.646500
O O3 0.806237 0.277528 0.710830
O O4 0.782867 0.323404 0.438416
O O5 0.009899 0.432968 0.483483
O O6 0.979066 0.356106 0.228035
O O7 0.791497 0.578928 0.666937
O O8 0.970150 0.708455 0.658408
O O9 0.088863 0.542551 0.670160
O O10 0.994460 0.615629 0.891782
O O11 0.793585 0.072326 0.404971
O O12 0.032194 0.971166 0.469976
O O13 0.131411 0.824651 0.530296
O O14 0.944052 0.875795 0.747628
#
# Coordination Sequence:
#
# PCOD8157744 Si02
#       7
#     4   4   4   4   4   4   4
#     4  11  24  44  76 102 143 198 249 296 376 452
#     4  11  24  45  72 105 143 193 249 303 371 447
#     4  12  27  49  75 109 156 195 247 311 381 448
#     4  12  26  47  77 108 149 202 254 308 374 451
#     4  11  27  50  75 112 151 192 250 313 381 444
#     4  11  26  48  76 106 146 198 251 307 370 458
#     4  12  28  45  73 110 152 190 248 314 373 442
#
# _framework density 22.530939
#
# number of rings (size 3 to 8) (size 9 to 14) (size 15 to 20)
#    0.000    0.571    2.857    5.143    8.000    0.000 
#    0.000    0.000    0.000    0.000    0.000    0.000 
#    0.000    0.000    0.000    0.000    0.000    0.000 
#
# Total GULP energy -347108.154324 kJ/mol
# GULP energy per Si atom -12396.719797 kJ/mol
# Density = 2.247966 g / cm^3
# Si number density = 22.530939 Si / 1000 Ang^3
#
#
#
# Elastic Constant Matrix: (Units=GPa)
#
#
# Indices 1 2 3 4 5 6 
#
# 1 128.4938 32.5957 25.8793 0.0000 0.0000 0.0000
# 2 32.5957 118.5595 31.7197 0.0000 0.0000 0.0000
# 3 25.8793 31.7197 101.4458 0.0000 0.0000 0.0000
# 4 0.0000 0.0000 0.0000 30.4830 0.0000 0.0000
# 5 0.0000 0.0000 0.0000 0.0000 27.4199 0.0000
# 6 0.0000 0.0000 0.0000 0.0000 0.0000 38.9425
#
#
#
# Elastic Compliance Matrix: (Units=1/GPa)
#
#
# Indices 1 2 3 4 5 6 
#
# 1 0.008594 -0.001938 -0.001586 0.000000 0.000000 0.000000
# 2 -0.001938 0.009642 -0.002520 0.000000 0.000000 0.000000
# 3 -0.001586 -0.002520 0.011050 0.000000 0.000000 0.000000
# 4 0.000000 0.000000 0.000000 0.032805 0.000000 0.000000
# 5 0.000000 0.000000 0.000000 0.000000 0.036470 0.000000
# 6 0.000000 0.000000 0.000000 0.000000 0.000000 0.025679
#
#
# Mechanical properties :
#
#
# Convention : Reuss Voigt Hill
#
# Bulk Modulus (GPa) = 58.15308 58.76538 58.45923
# Shear Modulus (GPa) = 35.19613 36.58938 35.89276
#
# Velocity S-wave (km/s) = 3.95666 4.03421 3.99562
# Velocity P-wave (km/s) = 6.83666 6.91654 6.87672
#
# Compressibility (1/GPa) = 0.01719599
#
# Stress axis : x y z
#
# Youngs Moduli (GPa) = 116.36505 103.71551 90.49636
#
# Poissons Ratio (x) = 0.20103 0.14355
# Poissons Ratio (y) = 0.22555 0.22808
# Poissons Ratio (z) = 0.18458 0.26139
#
# Static dielectric constant tensor:
#      x y z
#    x 4.090620 0.000000 0.000000 
#    y 0.000000 4.118770 0.000000 
#    z 0.000000 0.000000 3.962890 
# 
# 
# High freq. dielectric constant tensor:
#      x y z
#    x 1.898920 0.000000 0.000000 
#    y 0.000000 1.896020 0.000000 
#    z 0.000000 0.000000 1.882160 
# 
# From -- ./inp_files/2853.got.cif
#   From: 2010.03.12/outbox.cif.g09.slc.cpg/sg19_2_cif.got.tgz:2853.got - 2010.04.10 18:59:41.
