data_PCOD8157416
_publ_section_title
;
Structure prediction by ZEFSAII (Michael W. Deem and Ramdas Pophale) SiO2 
 PCOD8157416
Probable space group: P 21 21 21
;
_chemical_formula_sum "Si O2"
_cell_formula_units_Z 28
_cell_length_a 5.313309
_cell_length_b 15.393309
_cell_length_c 14.361940
_cell_angle_alpha 90.000000
_cell_angle_beta 90.000000
_cell_angle_gamma 90.000000
_cell_volume 1174.654560
_symmetry_space_group_name_H-M "P 21 21 21"
_symmetry_group_IT_number 19
_symmetry_cell_setting 'orthorhombic'
loop_
_space_group_symop_operation_xyz
x,y,z
1/2-x,-y,1/2+z
1/2+x,1/2-y,-z
-x,1/2+y,1/2-z
loop_
_atom_site_type_symbol
_atom_site_label
_atom_site_fract_x
_atom_site_fract_y
_atom_site_fract_z
Si Si1 0.995740 0.274371 0.259407
Si Si2 0.854028 0.958524 0.277008
Si Si3 0.206539 0.225469 0.453318
Si Si4 0.487845 0.889166 0.425999
Si Si5 0.004252 0.283433 0.834466
Si Si6 0.181697 0.454549 0.909680
Si Si7 0.893568 0.536508 0.060926
O O1 0.958193 0.375926 0.232644
O O2 0.070408 0.270287 0.366859
O O3 0.225364 0.231363 0.203769
O O4 0.730957 0.225286 0.241371
O O5 0.605128 0.923045 0.328377
O O6 0.818197 0.999005 0.175738
O O7 0.955748 0.036522 0.341836
O O8 0.479514 0.268460 0.470552
O O9 0.272438 0.123337 0.439250
O O10 0.432878 0.786435 0.415909
O O11 0.644176 0.901338 0.519807
O O12 0.240096 0.944028 0.442286
O O13 0.990051 0.381953 0.871228
O O14 0.061272 0.534241 0.967502
#
# Coordination Sequence:
#
# PCOD8157416 Si02
#       7
#     4   4   4   4   4   4   4
#     4  11  24  46  70 102 141 190 240 291 356 426
#     4  10  23  45  67 101 140 186 234 294 353 425
#     4  12  28  46  73 102 144 188 241 296 354 422
#     4  10  25  42  68 100 142 180 237 302 348 421
#     4  11  25  45  71 103 142 187 234 297 358 425
#     4  11  26  41  74 101 139 189 242 282 369 423
#     4  11  25  45  69 103 142 182 236 300 348 418
#
# _framework density 23.836796
#
# number of rings (size 3 to 8) (size 9 to 14) (size 15 to 20)
#    0.000    1.143    1.429    2.571   12.000    2.286 
#    0.000    0.000    0.000    0.000    0.000    0.000 
#    0.000    0.000    0.000    0.000    0.000    0.000 
#
# Total GULP energy -347016.217035 kJ/mol
# GULP energy per Si atom -12393.436323 kJ/mol
# Density = 2.378254 g / cm^3
# Si number density = 23.836796 Si / 1000 Ang^3
#
#
#
# Elastic Constant Matrix: (Units=GPa)
#
#
# Indices 1 2 3 4 5 6 
#
# 1 49.1086 -8.3556 -10.0990 0.0000 0.0000 0.0000
# 2 -8.3556 84.3341 8.5707 0.0000 0.0000 0.0000
# 3 -10.0990 8.5707 92.7565 0.0000 0.0000 0.0000
# 4 0.0000 0.0000 0.0000 26.5625 0.0000 0.0000
# 5 0.0000 0.0000 0.0000 0.0000 22.3741 0.0000
# 6 0.0000 0.0000 0.0000 0.0000 0.0000 19.5619
#
#
#
# Elastic Compliance Matrix: (Units=1/GPa)
#
#
# Indices 1 2 3 4 5 6 
#
# 1 0.021120 0.001876 0.002126 0.000000 0.000000 0.000000
# 2 0.001876 0.012137 -0.000917 0.000000 0.000000 0.000000
# 3 0.002126 -0.000917 0.011097 0.000000 0.000000 0.000000
# 4 0.000000 0.000000 0.000000 0.037647 0.000000 0.000000
# 5 0.000000 0.000000 0.000000 0.000000 0.044695 0.000000
# 6 0.000000 0.000000 0.000000 0.000000 0.000000 0.051120
#
#
# Mechanical properties :
#
#
# Convention : Reuss Voigt Hill
#
# Bulk Modulus (GPa) = 19.79259 22.93683 21.36471
# Shear Modulus (GPa) = 26.52723 29.43857 27.98290
#
# Velocity S-wave (km/s) = 3.33959 3.51808 3.42999
# Velocity P-wave (km/s) = 4.81579 5.11330 4.96677
#
# Compressibility (1/GPa) = 0.05052395
#
# Stress axis : x y z
#
# Youngs Moduli (GPa) = 47.34958 82.39462 90.11336
#
# Poissons Ratio (x) = -0.15461 -0.19158
# Poissons Ratio (y) = -0.08885 0.08265
# Poissons Ratio (z) = -0.10067 0.07557
#
# Static dielectric constant tensor:
#      x y z
#    x 4.123960 0.000000 0.000000 
#    y 0.000000 4.271570 0.000000 
#    z 0.000000 0.000000 4.578940 
# 
# 
# High freq. dielectric constant tensor:
#      x y z
#    x 1.931300 0.000000 0.000000 
#    y 0.000000 1.953930 0.000000 
#    z 0.000000 0.000000 1.954730 
# 
# From -- ./inp_files/5681.got.cif
#   From: 2010.03.12/outbox.cif.g09.slc.cpg/sg19_3_cif.got.tgz:5681.got - 2010.04.10 18:59:41.
