data_PCOD8157795
_publ_section_title
;
Structure prediction by ZEFSAII (Michael W. Deem and Ramdas Pophale) SiO2 
 PCOD8157795
Probable space group: P 21 21 21
;
_chemical_formula_sum "Si O2"
_cell_formula_units_Z 28
_cell_length_a 17.040584
_cell_length_b 5.618950
_cell_length_c 11.490299
_cell_angle_alpha 90.000000
_cell_angle_beta 90.000000
_cell_angle_gamma 90.000000
_cell_volume 1100.198306
_symmetry_space_group_name_H-M "P 21 21 21"
_symmetry_group_IT_number 19
_symmetry_cell_setting 'orthorhombic'
loop_
_space_group_symop_operation_xyz
x,y,z
1/2-x,-y,1/2+z
1/2+x,1/2-y,-z
-x,1/2+y,1/2-z
loop_
_atom_site_type_symbol
_atom_site_label
_atom_site_fract_x
_atom_site_fract_y
_atom_site_fract_z
Si Si1 0.358549 0.574197 0.960161
Si Si2 0.596845 0.018278 0.133979
Si Si3 0.831313 0.858791 0.411112
Si Si4 0.544855 0.263220 0.740986
Si Si5 0.241109 0.677878 0.280767
Si Si6 0.070099 0.755449 0.644612
Si Si7 0.780149 0.529373 0.914466
O O1 0.411527 0.747784 0.882492
O O2 0.321385 0.353690 0.885638
O O3 0.410537 0.476443 0.066543
O O4 0.284668 0.730896 0.007097
O O5 0.667323 0.167137 0.190010
O O6 0.519383 0.177291 0.120729
O O7 0.578928 0.793623 0.216560
O O8 0.628748 0.956944 0.003460
O O9 0.898977 0.703683 0.351104
O O10 0.771041 0.676008 0.477910
O O11 0.777862 0.973324 0.312539
O O12 0.494106 0.502089 0.738724
O O13 0.233823 0.924436 0.208686
O O14 0.129345 0.962915 0.608588
#
# Coordination Sequence:
#
# PCOD8157795 Si02
#       7
#     4   4   4   4   4   4   4
#     4  11  27  49  79 108 162 200 271 338 396 494
#     4  12  25  48  72 107 158 196 255 326 393 493
#     4  11  27  47  78 113 155 208 269 331 404 488
#     4  11  28  51  81 120 162 211 269 340 417 488
#     4  11  24  50  73 112 148 200 266 329 393 477
#     4  12  27  49  73 115 155 210 259 325 417 479
#     4  12  24  50  78 113 148 211 267 329 412 485
#
# _framework density 25.449954999999999
#
# number of rings (size 3 to 8) (size 9 to 14) (size 15 to 20)
#    0.000    0.571    2.857    3.429    8.000    3.429 
#   10.286    0.000    0.000    0.000    0.000    0.000 
#    0.000    0.000    0.000    0.000    0.000    0.000 
#
# Total GULP energy -346957.648014 kJ/mol
# GULP energy per Si atom -12391.344572 kJ/mol
# Density = 2.539203 g / cm^3
# Si number density = 25.449955 Si / 1000 Ang^3
#
#
#
# Elastic Constant Matrix: (Units=GPa)
#
#
# Indices 1 2 3 4 5 6 
#
# 1 143.5433 36.2566 47.6887 0.0000 0.0000 0.0000
# 2 36.2566 78.9062 24.7104 0.0000 0.0000 0.0000
# 3 47.6887 24.7104 119.3644 0.0000 0.0000 0.0000
# 4 0.0000 0.0000 0.0000 31.9768 0.0000 0.0000
# 5 0.0000 0.0000 0.0000 0.0000 45.7164 0.0000
# 6 0.0000 0.0000 0.0000 0.0000 0.0000 31.9104
#
#
#
# Elastic Compliance Matrix: (Units=1/GPa)
#
#
# Indices 1 2 3 4 5 6 
#
# 1 0.008691 -0.003108 -0.002829 0.000000 0.000000 0.000000
# 2 -0.003108 0.014663 -0.001794 0.000000 0.000000 0.000000
# 3 -0.002829 -0.001794 0.009879 0.000000 0.000000 0.000000
# 4 0.000000 0.000000 0.000000 0.031273 0.000000 0.000000
# 5 0.000000 0.000000 0.000000 0.000000 0.021874 0.000000
# 6 0.000000 0.000000 0.000000 0.000000 0.000000 0.031338
#
#
# Mechanical properties :
#
#
# Convention : Reuss Voigt Hill
#
# Bulk Modulus (GPa) = 56.26674 62.12502 59.19588
# Shear Modulus (GPa) = 35.94445 37.46459 36.70452
#
# Velocity S-wave (km/s) = 3.76221 3.84094 3.80178
# Velocity P-wave (km/s) = 6.40540 6.64335 6.52546
#
# Compressibility (1/GPa) = 0.01777249
#
# Stress axis : x y z
#
# Youngs Moduli (GPa) = 115.05677 68.19890 101.22134
#
# Poissons Ratio (x) = 0.21194 0.28636
# Poissons Ratio (y) = 0.35756 0.18158
# Poissons Ratio (z) = 0.32550 0.12234
#
# Static dielectric constant tensor:
#      x y z
#    x 4.741140 0.000000 0.000000 
#    y 0.000000 4.154850 0.000000 
#    z 0.000000 0.000000 5.079950 
# 
# 
# High freq. dielectric constant tensor:
#      x y z
#    x 2.031170 0.000000 0.000000 
#    y 0.000000 1.992870 0.000000 
#    z 0.000000 0.000000 2.036200 
# 
# From -- ./inp_files/5341.got.cif
#   From: 2010.03.12/outbox.cif.g09.slc.cpg/sg19_3_cif.got.tgz:5341.got - 2010.04.10 18:59:41.
