data_PCOD8157252
_publ_section_title
;
Structure prediction by ZEFSAII (Michael W. Deem and Ramdas Pophale) SiO2 
 PCOD8157252
Probable space group: P 21 21 21
;
_chemical_formula_sum "Si O2"
_cell_formula_units_Z 28
_cell_length_a 13.551397
_cell_length_b 12.293553
_cell_length_c 8.274175
_cell_angle_alpha 90.000000
_cell_angle_beta 90.000000
_cell_angle_gamma 90.000000
_cell_volume 1378.434672
_symmetry_space_group_name_H-M "P 21 21 21"
_symmetry_group_IT_number 19
_symmetry_cell_setting 'orthorhombic'
loop_
_space_group_symop_operation_xyz
x,y,z
1/2-x,-y,1/2+z
1/2+x,1/2-y,-z
-x,1/2+y,1/2-z
loop_
_atom_site_type_symbol
_atom_site_label
_atom_site_fract_x
_atom_site_fract_y
_atom_site_fract_z
Si Si1 0.892831 0.042065 0.930794
Si Si2 0.521855 0.620049 0.888388
Si Si3 0.701847 0.726040 0.039338
Si Si4 0.297297 0.476512 0.417978
Si Si5 0.577383 0.309490 0.476257
Si Si6 0.989777 0.958431 0.459721
Si Si7 0.553032 0.732720 0.312348
O O1 0.936007 0.163217 0.928960
O O2 0.839295 0.014440 0.762600
O O3 0.811192 0.029760 0.072906
O O4 0.982927 0.959716 0.968450
O O5 0.523725 0.555993 0.722209
O O6 0.632129 0.661277 0.917067
O O7 0.453471 0.728039 0.878529
O O8 0.656389 0.710014 0.218773
O O9 0.707756 0.854841 0.009709
O O10 0.806826 0.671968 0.999968
O O11 0.371020 0.545951 0.531468
O O12 0.522771 0.423766 0.478919
O O13 0.538980 0.251686 0.310762
O O14 0.036525 0.869429 0.575072
#
# Coordination Sequence:
#
# PCOD8157252 Si02
#       7
#     4   4   4   4   4   4   4
#     4  11  22  42  69  98 132 173 219 289 325 394
#     4  11  24  42  64  96 137 168 219 282 329 390
#     4  10  22  42  67  93 130 179 216 271 336 391
#     4  11  21  38  69  98 121 176 229 268 331 386
#     4  11  23  45  68  93 138 174 220 278 333 391
#     4  12  25  42  67  99 135 176 221 271 339 397
#     4  10  25  45  66  97 137 172 228 273 335 391
#
# _framework density 20.312895000000001
#
# number of rings (size 3 to 8) (size 9 to 14) (size 15 to 20)
#    0.000    1.143    5.714    2.571    4.000    2.286 
#    0.000    0.000    0.000    0.000    0.000    0.000 
#    0.000    0.000    0.000    0.000    0.000    0.000 
#
# Total GULP energy -347113.061715 kJ/mol
# GULP energy per Si atom -12396.895061 kJ/mol
# Density = 2.026666 g / cm^3
# Si number density = 20.312895 Si / 1000 Ang^3
#
#
#
# Elastic Constant Matrix: (Units=GPa)
#
#
# Indices 1 2 3 4 5 6 
#
# 1 106.9453 9.0565 9.2398 0.0000 0.0000 0.0000
# 2 9.0565 94.5873 28.1079 0.0000 0.0000 0.0000
# 3 9.2398 28.1079 72.5127 0.0000 0.0000 0.0000
# 4 0.0000 0.0000 0.0000 25.9993 0.0000 0.0000
# 5 0.0000 0.0000 0.0000 0.0000 27.1463 0.0000
# 6 0.0000 0.0000 0.0000 0.0000 0.0000 26.9479
#
#
#
# Elastic Compliance Matrix: (Units=1/GPa)
#
#
# Indices 1 2 3 4 5 6 
#
# 1 0.009487 -0.000621 -0.000968 0.000000 0.000000 0.000000
# 2 -0.000621 0.011989 -0.004568 0.000000 0.000000 0.000000
# 3 -0.000968 -0.004568 0.015685 0.000000 0.000000 0.000000
# 4 0.000000 0.000000 0.000000 0.038463 0.000000 0.000000
# 5 0.000000 0.000000 0.000000 0.000000 0.036837 0.000000
# 6 0.000000 0.000000 0.000000 0.000000 0.000000 0.037109
#
#
# Mechanical properties :
#
#
# Convention : Reuss Voigt Hill
#
# Bulk Modulus (GPa) = 40.24702 40.76152 40.50427
# Shear Modulus (GPa) = 29.38308 31.19477 30.28893
#
# Velocity S-wave (km/s) = 3.80745 3.92307 3.86569
# Velocity P-wave (km/s) = 6.25982 6.37425 6.31729
#
# Compressibility (1/GPa) = 0.02484656
#
# Stress axis : x y z
#
# Youngs Moduli (GPa) = 105.40980 83.40858 63.75585
#
# Poissons Ratio (x) = 0.05176 0.06173
# Poissons Ratio (y) = 0.06542 0.29125
# Poissons Ratio (z) = 0.10206 0.38103
#
# Static dielectric constant tensor:
#      x y z
#    x 3.815810 0.000000 0.000000 
#    y 0.000000 3.769070 0.000000 
#    z 0.000000 0.000000 3.560460 
# 
# 
# High freq. dielectric constant tensor:
#      x y z
#    x 1.795550 0.000000 0.000000 
#    y 0.000000 1.800900 0.000000 
#    z 0.000000 0.000000 1.782190 
# 
# From -- ./inp_files/3906.got.cif
#   From: 2010.03.12/outbox.cif.g09.slc.cpg/sg19_2_cif.got.tgz:3906.got - 2010.04.10 18:59:41.
