data_PCOD8157133
_publ_section_title
;
Structure prediction by ZEFSAII (Michael W. Deem and Ramdas Pophale) SiO2 
 PCOD8157133
Probable space group: P 21 21 21
;
_chemical_formula_sum "Si O2"
_cell_formula_units_Z 28
_cell_length_a 9.378771
_cell_length_b 8.725194
_cell_length_c 18.253210
_cell_angle_alpha 90.000000
_cell_angle_beta 90.000000
_cell_angle_gamma 90.000000
_cell_volume 1493.689315
_symmetry_space_group_name_H-M "P 21 21 21"
_symmetry_group_IT_number 19
_symmetry_cell_setting 'orthorhombic'
loop_
_space_group_symop_operation_xyz
x,y,z
1/2-x,-y,1/2+z
1/2+x,1/2-y,-z
-x,1/2+y,1/2-z
loop_
_atom_site_type_symbol
_atom_site_label
_atom_site_fract_x
_atom_site_fract_y
_atom_site_fract_z
Si Si1 0.960292 0.100120 0.026926
Si Si2 0.017509 0.417631 0.956131
Si Si3 0.758344 0.861352 0.656244
Si Si4 0.267802 0.068964 0.586906
Si Si5 0.229296 0.573841 0.060126
Si Si6 0.604033 0.948352 0.789340
Si Si7 0.837972 0.375430 0.257351
O O1 0.856926 0.152091 0.091876
O O2 0.081885 0.988980 0.057049
O O3 0.031139 0.251023 0.992631
O O4 0.874168 0.007720 0.965112
O O5 0.089320 0.411296 0.875340
O O6 0.854638 0.467093 0.949565
O O7 0.101311 0.543290 0.003650
O O8 0.701037 0.984221 0.716999
O O9 0.771653 0.694690 0.696856
O O10 0.243108 0.245273 0.565693
O O11 0.259378 0.040645 0.675102
O O12 0.187142 0.497844 0.138068
O O13 0.574932 0.765717 0.794319
O O14 0.448241 0.019575 0.785639
#
# Coordination Sequence:
#
# PCOD8157133 Si02
#       7
#     4   4   4   4   4   4   4
#     4  11  21  38  63  88 116 159 200 243 298 363
#     4  11  23  38  61  87 123 155 195 252 304 355
#     4   9  20  38  58  82 118 152 198 241 291 355
#     4  11  20  38  61  86 117 159 197 251 299 353
#     4  10  22  37  59  88 120 150 201 251 294 351
#     4   9  18  35  60  83 115 155 195 244 291 356
#     4   9  18  34  60  82 115 154 202 236 291 359
#
# _framework density 18.745532000000001
#
# number of rings (size 3 to 8) (size 9 to 14) (size 15 to 20)
#    0.857    1.143    1.429    3.429    0.000    1.143 
#    2.571    0.000    3.143    0.000    0.000    0.000 
#    0.000    0.000    0.000    0.000    0.000    0.000 
#
# Total GULP energy -347047.471794 kJ/mol
# GULP energy per Si atom -12394.552564 kJ/mol
# Density = 1.870287 g / cm^3
# Si number density = 18.745532 Si / 1000 Ang^3
#
#
#
# Elastic Constant Matrix: (Units=GPa)
#
#
# Indices 1 2 3 4 5 6 
#
# 1 66.3896 13.4278 26.0919 0.0000 0.0000 0.0000
# 2 13.4278 54.2852 22.7626 0.0000 0.0000 0.0000
# 3 26.0919 22.7626 110.7228 0.0000 0.0000 0.0000
# 4 0.0000 0.0000 0.0000 29.9726 0.0000 0.0000
# 5 0.0000 0.0000 0.0000 0.0000 28.8003 0.0000
# 6 0.0000 0.0000 0.0000 0.0000 0.0000 28.4710
#
#
#
# Elastic Compliance Matrix: (Units=1/GPa)
#
#
# Indices 1 2 3 4 5 6 
#
# 1 0.016969 -0.002758 -0.003432 0.000000 0.000000 0.000000
# 2 -0.002758 0.020607 -0.003586 0.000000 0.000000 0.000000
# 3 -0.003432 -0.003586 0.010578 0.000000 0.000000 0.000000
# 4 0.000000 0.000000 0.000000 0.033364 0.000000 0.000000
# 5 0.000000 0.000000 0.000000 0.000000 0.034722 0.000000
# 6 0.000000 0.000000 0.000000 0.000000 0.000000 0.035123
#
#
# Mechanical properties :
#
#
# Convention : Reuss Voigt Hill
#
# Bulk Modulus (GPa) = 34.96400 39.55138 37.25769
# Shear Modulus (GPa) = 27.70848 28.72315 28.21581
#
# Velocity S-wave (km/s) = 3.84883 3.91866 3.88390
# Velocity P-wave (km/s) = 6.20030 6.45132 6.32705
#
# Compressibility (1/GPa) = 0.02860085
#
# Stress axis : x y z
#
# Youngs Moduli (GPa) = 58.93021 48.52626 94.53974
#
# Poissons Ratio (x) = 0.13386 0.32443
# Poissons Ratio (y) = 0.16256 0.33906
# Poissons Ratio (z) = 0.20223 0.17404
#
# Static dielectric constant tensor:
#      x y z
#    x 3.187600 0.000000 0.000000 
#    y 0.000000 3.277460 0.000000 
#    z 0.000000 0.000000 3.632500 
# 
# 
# High freq. dielectric constant tensor:
#      x y z
#    x 1.711280 0.000000 0.000000 
#    y 0.000000 1.716900 0.000000 
#    z 0.000000 0.000000 1.742080 
# 
# From -- ./inp_files/6579.got.cif
#   From: 2010.03.12/outbox.cif.g09.slc.cpg/sg19_4_cif.got.tgz:6579.got - 2010.04.10 18:59:41.
