data_PCOD8157784
_publ_section_title
;
Structure prediction by ZEFSAII (Michael W. Deem and Ramdas Pophale) SiO2 
 PCOD8157784
Probable space group: P 21 21 21
;
_chemical_formula_sum "Si O2"
_cell_formula_units_Z 28
_cell_length_a 18.950148
_cell_length_b 5.063936
_cell_length_c 11.790717
_cell_angle_alpha 90.000000
_cell_angle_beta 90.000000
_cell_angle_gamma 90.000000
_cell_volume 1131.464754
_symmetry_space_group_name_H-M "P 21 21 21"
_symmetry_group_IT_number 19
_symmetry_cell_setting 'orthorhombic'
loop_
_space_group_symop_operation_xyz
x,y,z
1/2-x,-y,1/2+z
1/2+x,1/2-y,-z
-x,1/2+y,1/2-z
loop_
_atom_site_type_symbol
_atom_site_label
_atom_site_fract_x
_atom_site_fract_y
_atom_site_fract_z
Si Si1 0.635753 0.920311 0.475145
Si Si2 0.456378 0.945447 0.726227
Si Si3 0.162786 0.388381 0.287417
Si Si4 0.351205 0.205734 0.593701
Si Si5 0.824138 0.229609 0.669217
Si Si6 0.701423 0.431036 0.366671
Si Si7 0.957029 0.013268 0.781069
O O1 0.672069 0.639467 0.456656
O O2 0.558667 0.933886 0.414734
O O3 0.627292 0.948632 0.609269
O O4 0.684498 0.142424 0.414340
O O5 0.500404 0.675589 0.709442
O O6 0.382364 0.884570 0.792368
O O7 0.427126 0.059017 0.606135
O O8 0.146496 0.524288 0.166443
O O9 0.245885 0.379973 0.309795
O O10 0.338237 0.244091 0.462037
O O11 0.286069 0.030284 0.641600
O O12 0.830683 0.504335 0.741104
O O13 0.881982 0.026201 0.716598
O O14 0.012794 0.220641 0.732307
#
# Coordination Sequence:
#
# PCOD8157784 Si02
#       7
#     4   4   4   4   4   4   4
#     4  11  26  47  81 109 155 198 260 323 404 463
#     4  12  28  54  74 110 164 212 264 322 405 492
#     4  12  27  50  83 116 158 210 272 338 400 470
#     4  12  26  49  79 116 159 205 269 330 408 477
#     4  11  26  49  83 117 155 205 272 337 395 476
#     4  11  24  48  73 121 145 192 255 331 393 463
#     4  11  25  53  73 111 156 204 254 315 397 473
#
# _framework density 24.746684999999999
#
# number of rings (size 3 to 8) (size 9 to 14) (size 15 to 20)
#    0.000    0.571    4.286    3.429    4.000    1.143 
#   12.857    0.000    0.000    0.000    0.000    0.000 
#    0.000    0.000    0.000    0.000    0.000    0.000 
#
# Total GULP energy -347007.446821 kJ/mol
# GULP energy per Si atom -12393.123101 kJ/mol
# Density = 2.469036 g / cm^3
# Si number density = 24.746685 Si / 1000 Ang^3
#
#
#
# Elastic Constant Matrix: (Units=GPa)
#
#
# Indices 1 2 3 4 5 6 
#
# 1 110.2364 33.3358 21.4132 0.0000 0.0000 0.0000
# 2 33.3358 83.7537 23.0262 0.0000 0.0000 0.0000
# 3 21.4132 23.0262 145.0580 0.0000 0.0000 0.0000
# 4 0.0000 0.0000 0.0000 21.9574 0.0000 0.0000
# 5 0.0000 0.0000 0.0000 0.0000 25.1998 0.0000
# 6 0.0000 0.0000 0.0000 0.0000 0.0000 47.4876
#
#
#
# Elastic Compliance Matrix: (Units=1/GPa)
#
#
# Indices 1 2 3 4 5 6 
#
# 1 0.010429 -0.003898 -0.000921 0.000000 0.000000 0.000000
# 2 -0.003898 0.013941 -0.001638 0.000000 0.000000 0.000000
# 3 -0.000921 -0.001638 0.007290 0.000000 0.000000 0.000000
# 4 0.000000 0.000000 0.000000 0.045543 0.000000 0.000000
# 5 0.000000 0.000000 0.000000 0.000000 0.039683 0.000000
# 6 0.000000 0.000000 0.000000 0.000000 0.000000 0.021058
#
#
# Mechanical properties :
#
#
# Convention : Reuss Voigt Hill
#
# Bulk Modulus (GPa) = 53.34013 54.95537 54.14775
# Shear Modulus (GPa) = 31.82574 36.34715 34.08645
#
# Velocity S-wave (km/s) = 3.59006 3.83661 3.71538
# Velocity P-wave (km/s) = 6.22784 6.47159 6.35088
#
# Compressibility (1/GPa) = 0.01874761
#
# Stress axis : x y z
#
# Youngs Moduli (GPa) = 95.88664 71.72874 137.18033
#
# Poissons Ratio (x) = 0.27959 0.12631
# Poissons Ratio (y) = 0.37375 0.22465
# Poissons Ratio (z) = 0.08829 0.11747
#
# Static dielectric constant tensor:
#      x y z
#    x 4.889840 0.000000 0.000000 
#    y 0.000000 4.375100 0.000000 
#    z 0.000000 0.000000 4.546080 
# 
# 
# High freq. dielectric constant tensor:
#      x y z
#    x 2.003860 0.000000 0.000000 
#    y 0.000000 1.986360 0.000000 
#    z 0.000000 0.000000 1.975270 
# 
# From -- ./inp_files/5350.got.cif
#   From: 2010.03.12/outbox.cif.g09.slc.cpg/sg19_3_cif.got.tgz:5350.got - 2010.04.10 18:59:41.
