data_PCOD8157761
_publ_section_title
;
Structure prediction by ZEFSAII (Michael W. Deem and Ramdas Pophale) SiO2 
 PCOD8157761
Probable space group: P 21 21 21
;
_chemical_formula_sum "Si O2"
_cell_formula_units_Z 32
_cell_length_a 24.997815
_cell_length_b 9.299999
_cell_length_c 6.048272
_cell_angle_alpha 90.000000
_cell_angle_beta 90.000000
_cell_angle_gamma 90.000000
_cell_volume 1406.100185
_symmetry_space_group_name_H-M "P 21 21 21"
_symmetry_group_IT_number 19
_symmetry_cell_setting 'orthorhombic'
loop_
_space_group_symop_operation_xyz
x,y,z
1/2-x,-y,1/2+z
1/2+x,1/2-y,-z
-x,1/2+y,1/2-z
loop_
_atom_site_type_symbol
_atom_site_label
_atom_site_fract_x
_atom_site_fract_y
_atom_site_fract_z
Si Si1 0.198264 0.052704 0.774607
Si Si2 0.277213 0.478714 0.883675
Si Si3 0.552267 0.281923 0.765507
Si Si4 0.143425 0.305157 0.539980
Si Si5 0.689658 0.652891 0.586488
Si Si6 0.609969 0.543184 0.921993
Si Si7 0.942939 0.916801 0.657277
Si Si8 0.031274 0.739594 0.915274
O O1 0.186511 0.192934 0.629956
O O2 0.260907 0.056776 0.825208
O O3 0.184198 0.898872 0.664999
O O4 0.158750 0.051847 0.982958
O O5 0.248875 0.495714 0.637525
O O6 0.298895 0.319121 0.893144
O O7 0.326320 0.588883 0.871526
O O8 0.597894 0.285566 0.580134
O O9 0.560200 0.433516 0.890443
O O10 0.493208 0.278731 0.661029
O O11 0.560395 0.137064 0.906062
O O12 0.115355 0.395405 0.735064
O O13 0.633551 0.617085 0.703228
O O14 0.586276 0.670201 0.074731
O O15 0.988974 0.819786 0.762847
O O16 0.956789 0.083555 0.683966
#
# Coordination Sequence:
#
# PCOD8157761 Si02
#       8
#     4   4   4   4   4   4   4   4
#     4  12  25  47  73 106 145 196 250 309 378 459
#     4  12  31  49  77 110 159 204 256 320 385 458
#     4  11  24  46  73 100 140 188 246 311 381 451
#     4  11  26  46  71 104 142 200 240 309 383 451
#     4  12  28  45  75 109 150 194 256 310 375 463
#     4  12  26  45  75 106 145 192 249 313 383 459
#     4  11  25  47  72  99 144 186 244 316 380 458
#     4  11  27  45  72 104 139 188 249 306 385 457
#
# _framework density 22.75798
#
# number of rings (size 3 to 8) (size 9 to 14) (size 15 to 20)
#    0.000    0.500    5.000    1.500   12.250    2.000 
#    0.000    0.000    0.000    0.000    0.000    0.000 
#    0.000    0.000    0.000    0.000    0.000    0.000 
#
# Total GULP energy -396558.527866 kJ/mol
# GULP energy per Si atom -12392.453996 kJ/mol
# Density = 2.270618 g / cm^3
# Si number density = 22.757980 Si / 1000 Ang^3
#
#
#
# Elastic Constant Matrix: (Units=GPa)
#
#
# Indices 1 2 3 4 5 6 
#
# 1 76.9324 14.3541 8.8938 0.0000 0.0000 0.0000
# 2 14.3541 132.2767 11.5046 0.0000 0.0000 0.0000
# 3 8.8938 11.5046 70.3239 0.0000 0.0000 0.0000
# 4 0.0000 0.0000 0.0000 35.9581 0.0000 0.0000
# 5 0.0000 0.0000 0.0000 0.0000 31.3890 0.0000
# 6 0.0000 0.0000 0.0000 0.0000 0.0000 41.6422
#
#
#
# Elastic Compliance Matrix: (Units=1/GPa)
#
#
# Indices 1 2 3 4 5 6 
#
# 1 0.013417 -0.001327 -0.001480 0.000000 0.000000 0.000000
# 2 -0.001327 0.007800 -0.001108 0.000000 0.000000 0.000000
# 3 -0.001480 -0.001108 0.014588 0.000000 0.000000 0.000000
# 4 0.000000 0.000000 0.000000 0.027810 0.000000 0.000000
# 5 0.000000 0.000000 0.000000 0.000000 0.031858 0.000000
# 6 0.000000 0.000000 0.000000 0.000000 0.000000 0.024014
#
#
# Mechanical properties :
#
#
# Convention : Reuss Voigt Hill
#
# Bulk Modulus (GPa) = 35.74574 38.78201 37.26388
# Shear Modulus (GPa) = 36.59145 38.11656 37.35401
#
# Velocity S-wave (km/s) = 4.01415 4.09695 4.05576
# Velocity P-wave (km/s) = 6.10128 6.28157 6.19208
#
# Compressibility (1/GPa) = 0.02797536
#
# Stress axis : x y z
#
# Youngs Moduli (GPa) = 74.53158 128.19979 68.54787
#
# Poissons Ratio (x) = 0.17016 0.10143
# Poissons Ratio (y) = 0.09892 0.07597
# Poissons Ratio (z) = 0.11029 0.14207
#
# Static dielectric constant tensor:
#      x y z
#    x 4.133150 0.000000 0.000000 
#    y 0.000000 4.066970 0.000000 
#    z 0.000000 0.000000 4.528180 
# 
# 
# High freq. dielectric constant tensor:
#      x y z
#    x 1.901740 0.000000 0.000000 
#    y 0.000000 1.909570 0.000000 
#    z 0.000000 0.000000 1.898650 
# 
# From -- ./inp_files/2263.got.cif
#   From: 2010.03.12/outbox.cif.g09.slc.cpg/sg19_2_cif.got.tgz:2263.got - 2010.04.10 18:59:41.
