data_PCOD8157423
_publ_section_title
;
Structure prediction by ZEFSAII (Michael W. Deem and Ramdas Pophale) SiO2 
 PCOD8157423
Probable space group: P 21 21 21
;
_chemical_formula_sum "Si O2"
_cell_formula_units_Z 28
_cell_length_a 9.292661
_cell_length_b 23.117230
_cell_length_c 5.604391
_cell_angle_alpha 90.000000
_cell_angle_beta 90.000000
_cell_angle_gamma 90.000000
_cell_volume 1203.938534
_symmetry_space_group_name_H-M "P 21 21 21"
_symmetry_group_IT_number 19
_symmetry_cell_setting 'orthorhombic'
loop_
_space_group_symop_operation_xyz
x,y,z
1/2-x,-y,1/2+z
1/2+x,1/2-y,-z
-x,1/2+y,1/2-z
loop_
_atom_site_type_symbol
_atom_site_label
_atom_site_fract_x
_atom_site_fract_y
_atom_site_fract_z
Si Si1 0.169237 0.989327 0.118086
Si Si2 0.807140 0.683695 0.156991
Si Si3 0.458147 0.314585 0.282434
Si Si4 0.740265 0.151147 0.353655
Si Si5 0.047974 0.864628 0.094998
Si Si6 0.570612 0.219619 0.966563
Si Si7 0.487050 0.403654 0.903228
O O1 0.125019 0.923648 0.165903
O O2 0.243047 0.008643 0.368038
O O3 0.029657 0.029424 0.075989
O O4 0.830426 0.745364 0.281228
O O5 0.873978 0.632320 0.315551
O O6 0.638950 0.670855 0.104420
O O7 0.885689 0.685934 0.902836
O O8 0.328899 0.305836 0.471287
O O9 0.457241 0.261693 0.096391
O O10 0.438568 0.377020 0.156577
O O11 0.607388 0.120968 0.484743
O O12 0.851110 0.101164 0.274016
O O13 0.686727 0.188745 0.132932
O O14 0.029729 0.826810 0.332895
#
# Coordination Sequence:
#
# PCOD8157423 Si02
#       7
#     4   4   4   4   4   4   4
#     4  12  28  54  85 114 148 201 269 331 383 461
#     4  10  23  45  72 106 143 200 249 312 375 459
#     4  10  23  45  72 102 150 204 248 311 383 457
#     4  11  26  45  65 112 157 198 249 307 392 463
#     4  12  27  46  75 113 152 196 261 316 389 465
#     4  11  26  43  72 111 157 197 250 311 389 471
#     4  10  23  48  75 102 147 196 252 310 389 446
#
# _framework density 23.257002
#
# number of rings (size 3 to 8) (size 9 to 14) (size 15 to 20)
#    0.000    1.143    1.429    2.571    4.000   17.143 
#    5.143    1.429    0.000    0.000    0.000    0.000 
#    0.000    0.000    0.000    0.000    0.000    0.000 
#
# Total GULP energy -347263.567086 kJ/mol
# GULP energy per Si atom -12402.270253 kJ/mol
# Density = 2.320407 g / cm^3
# Si number density = 23.257002 Si / 1000 Ang^3
#
#
#
# Elastic Constant Matrix: (Units=GPa)
#
#
# Indices 1 2 3 4 5 6 
#
# 1 120.8947 32.0981 39.4493 0.0000 0.0000 0.0000
# 2 32.0981 139.0149 46.9027 0.0000 0.0000 0.0000
# 3 39.4493 46.9027 126.7506 0.0000 0.0000 0.0000
# 4 0.0000 0.0000 0.0000 26.0170 0.0000 0.0000
# 5 0.0000 0.0000 0.0000 0.0000 47.6316 0.0000
# 6 0.0000 0.0000 0.0000 0.0000 0.0000 34.4294
#
#
#
# Elastic Compliance Matrix: (Units=1/GPa)
#
#
# Indices 1 2 3 4 5 6 
#
# 1 0.009425 -0.001356 -0.002432 0.000000 0.000000 0.000000
# 2 -0.001356 0.008415 -0.002692 0.000000 0.000000 0.000000
# 3 -0.002432 -0.002692 0.009642 0.000000 0.000000 0.000000
# 4 0.000000 0.000000 0.000000 0.038436 0.000000 0.000000
# 5 0.000000 0.000000 0.000000 0.000000 0.020994 0.000000
# 6 0.000000 0.000000 0.000000 0.000000 0.000000 0.029045
#
#
# Mechanical properties :
#
#
# Convention : Reuss Voigt Hill
#
# Bulk Modulus (GPa) = 68.85339 69.28449 69.06894
# Shear Modulus (GPa) = 37.38094 39.49626 38.43860
#
# Velocity S-wave (km/s) = 4.01346 4.12546 4.06984
# Velocity P-wave (km/s) = 7.15171 7.24900 7.20052
#
# Compressibility (1/GPa) = 0.01452361
#
# Stress axis : x y z
#
# Youngs Moduli (GPa) = 106.09930 118.83938 103.70832
#
# Poissons Ratio (x) = 0.16112 0.25219
# Poissons Ratio (y) = 0.14385 0.27916
# Poissons Ratio (z) = 0.25801 0.31989
#
# Static dielectric constant tensor:
#      x y z
#    x 4.184170 0.000000 0.000000 
#    y 0.000000 3.975560 0.000000 
#    z 0.000000 0.000000 4.473270 
# 
# 
# High freq. dielectric constant tensor:
#      x y z
#    x 1.928700 0.000000 0.000000 
#    y 0.000000 1.900100 0.000000 
#    z 0.000000 0.000000 1.939040 
# 
# From -- ./inp_files/555.got.cif
#   From: 2010.03.12/outbox.cif.g09.slc.cpg/sg19_1_cif.got.tgz:555.got - 2010.04.10 18:59:41.
