data_PCOD8157474
_publ_section_title
;
Structure prediction by ZEFSAII (Michael W. Deem and Ramdas Pophale) SiO2 
 PCOD8157474
Probable space group: P 21 21 21
;
_chemical_formula_sum "Si O2"
_cell_formula_units_Z 32
_cell_length_a 8.691815
_cell_length_b 11.776135
_cell_length_c 15.261889
_cell_angle_alpha 90.000000
_cell_angle_beta 90.000000
_cell_angle_gamma 90.000000
_cell_volume 1562.145710
_symmetry_space_group_name_H-M "P 21 21 21"
_symmetry_group_IT_number 19
_symmetry_cell_setting 'orthorhombic'
loop_
_space_group_symop_operation_xyz
x,y,z
1/2-x,-y,1/2+z
1/2+x,1/2-y,-z
-x,1/2+y,1/2-z
loop_
_atom_site_type_symbol
_atom_site_label
_atom_site_fract_x
_atom_site_fract_y
_atom_site_fract_z
Si Si1 0.921325 0.012824 0.857733
Si Si2 0.073620 0.114023 0.501312
Si Si3 0.923962 0.746061 0.411615
Si Si4 0.937755 0.977269 0.661513
Si Si5 0.430615 0.516486 0.657146
Si Si6 0.576884 0.978070 0.646967
Si Si7 0.071982 0.768427 0.587706
Si Si8 0.434202 0.138435 0.503448
O O1 0.743199 0.976408 0.862242
O O2 0.952162 0.135828 0.897731
O O3 0.980466 0.020012 0.758265
O O4 0.013079 0.920730 0.913632
O O5 0.252402 0.137693 0.506565
O O6 0.983873 0.231528 0.495188
O O7 0.029297 0.048320 0.589518
O O8 0.040507 0.039359 0.414882
O O9 0.934494 0.846281 0.340664
O O10 0.751130 0.698761 0.419955
O O11 0.038731 0.645245 0.389614
O O12 0.980788 0.803941 0.500774
O O13 0.758747 0.993550 0.642249
O O14 0.991902 0.845647 0.661647
O O15 0.486038 0.481324 0.753818
O O16 0.501467 0.075940 0.588639
#
# Coordination Sequence:
#
# PCOD8157474 Si02
#       8
#     4   4   4   4   4   4   4   4
#     4  10  24  44  66  94 130 170 214 264 318 376
#     4  12  26  44  67  94 130 171 214 263 321 383
#     4  11  22  40  66  95 127 167 213 265 319 376
#     4  11  24  43  66  96 131 168 214 266 319 380
#     4  10  24  44  66  94 130 170 214 264 318 376
#     4  11  24  43  66  96 131 168 214 266 319 380
#     4  11  22  40  66  95 127 167 213 265 319 376
#     4  12  26  44  67  94 130 171 214 263 321 383
#
# _framework density 20.484645
#
# number of rings (size 3 to 8) (size 9 to 14) (size 15 to 20)
#    0.000    1.000    2.500    3.750    3.500    3.000 
#    0.000    0.000    0.000    0.000    0.000    0.000 
#    0.000    0.000    0.000    0.000    0.000    0.000 
#
# Total GULP energy -396937.876765 kJ/mol
# GULP energy per Si atom -12404.308649 kJ/mol
# Density = 2.043802 g / cm^3
# Si number density = 20.484645 Si / 1000 Ang^3
#
#
#
# Elastic Constant Matrix: (Units=GPa)
#
#
# Indices 1 2 3 4 5 6 
#
# 1 90.8003 15.1775 38.9389 0.0000 0.0000 0.0000
# 2 15.1775 76.3598 24.7424 0.0000 0.0000 0.0000
# 3 38.9389 24.7424 119.6038 0.0000 0.0000 0.0000
# 4 0.0000 0.0000 0.0000 16.8237 0.0000 0.0000
# 5 0.0000 0.0000 0.0000 0.0000 22.3889 0.0000
# 6 0.0000 0.0000 0.0000 0.0000 0.0000 29.1544
#
#
#
# Elastic Compliance Matrix: (Units=1/GPa)
#
#
# Indices 1 2 3 4 5 6 
#
# 1 0.012918 -0.001291 -0.003939 0.000000 0.000000 0.000000
# 2 -0.001291 0.014166 -0.002510 0.000000 0.000000 0.000000
# 3 -0.003939 -0.002510 0.010162 0.000000 0.000000 0.000000
# 4 0.000000 0.000000 0.000000 0.059440 0.000000 0.000000
# 5 0.000000 0.000000 0.000000 0.000000 0.044665 0.000000
# 6 0.000000 0.000000 0.000000 0.000000 0.000000 0.034300
#
#
# Mechanical properties :
#
#
# Convention : Reuss Voigt Hill
#
# Bulk Modulus (GPa) = 45.94244 49.38682 47.66463
# Shear Modulus (GPa) = 25.20327 27.53374 26.36850
#
# Velocity S-wave (km/s) = 3.51144 3.67020 3.59169
# Velocity P-wave (km/s) = 6.23833 6.49015 6.36548
#
# Compressibility (1/GPa) = 0.02176637
#
# Stress axis : x y z
#
# Youngs Moduli (GPa) = 77.41110 70.59209 98.40166
#
# Poissons Ratio (x) = 0.09117 0.38756
# Poissons Ratio (y) = 0.09997 0.24699
# Poissons Ratio (z) = 0.30488 0.17719
#
# Static dielectric constant tensor:
#      x y z
#    x 3.748130 0.000000 0.000000 
#    y 0.000000 3.720420 0.000000 
#    z 0.000000 0.000000 3.851920 
# 
# 
# High freq. dielectric constant tensor:
#      x y z
#    x 1.807820 0.000000 0.000000 
#    y 0.000000 1.812010 0.000000 
#    z 0.000000 0.000000 1.809080 
# 
# From -- ./inp_files/5239.got.cif
#   From: 2010.03.12/outbox.cif.g09.slc.cpg/sg19_3_cif.got.tgz:5239.got - 2010.04.10 18:59:41.
