data_PCOD8157788
_publ_section_title
;
Structure prediction by ZEFSAII (Michael W. Deem and Ramdas Pophale) SiO2 
 PCOD8157788
Probable space group: P 21 21 21
;
_chemical_formula_sum "Si O2"
_cell_formula_units_Z 20
_cell_length_a 16.522010
_cell_length_b 9.757235
_cell_length_c 4.878393
_cell_angle_alpha 90.000000
_cell_angle_beta 90.000000
_cell_angle_gamma 90.000000
_cell_volume 786.441512
_symmetry_space_group_name_H-M "P 21 21 21"
_symmetry_group_IT_number 19
_symmetry_cell_setting 'orthorhombic'
loop_
_space_group_symop_operation_xyz
x,y,z
1/2-x,-y,1/2+z
1/2+x,1/2-y,-z
-x,1/2+y,1/2-z
loop_
_atom_site_type_symbol
_atom_site_label
_atom_site_fract_x
_atom_site_fract_y
_atom_site_fract_z
Si Si1 0.588234 0.302274 0.782121
Si Si2 0.658364 0.940579 0.381888
Si Si3 0.053864 0.503556 0.114775
Si Si4 0.271323 0.918181 0.420849
Si Si5 0.758511 0.793205 0.984090
O O1 0.528991 0.418697 0.671349
O O2 0.654452 0.271112 0.551877
O O3 0.541751 0.160136 0.848622
O O4 0.636228 0.365462 0.043100
O O5 0.625634 0.932442 0.693476
O O6 0.725710 0.059504 0.343859
O O7 0.579275 0.970153 0.197425
O O8 0.703398 0.805274 0.260089
O O9 0.219412 0.802684 0.253611
O O10 0.231518 0.947557 0.721177
#
# Coordination Sequence:
#
# PCOD8157788 Si02
#       5
#     4   4   4   4   4
#     4  11  26  51  73 110 159 203 256 315 382 463
#     4  11  25  44  77 109 140 200 256 308 379 452
#     4  11  27  46  75 108 155 203 252 313 387 453
#     4  12  26  45  75 107 149 199 249 318 380 444
#     4  11  24  48  78 110 151 197 253 324 372 454
#
# _framework density 25.431007999999999
#
# number of rings (size 3 to 8) (size 9 to 14) (size 15 to 20)
#    0.000    0.800    4.000    2.400    5.600    1.600 
#    3.600    0.000    0.000    0.000    0.000    0.000 
#    0.000    0.000    0.000    0.000    0.000    0.000 
#
# Total GULP energy -247927.697057 kJ/mol
# GULP energy per Si atom -12396.384853 kJ/mol
# Density = 2.537313 g / cm^3
# Si number density = 25.431008 Si / 1000 Ang^3
#
#
#
# Elastic Constant Matrix: (Units=GPa)
#
#
# Indices 1 2 3 4 5 6 
#
# 1 79.2078 57.4360 20.0385 0.0000 0.0000 0.0000
# 2 57.4360 107.2373 15.7877 0.0000 0.0000 0.0000
# 3 20.0385 15.7877 112.6011 0.0000 0.0000 0.0000
# 4 0.0000 0.0000 0.0000 40.4343 0.0000 0.0000
# 5 0.0000 0.0000 0.0000 0.0000 34.6170 0.0000
# 6 0.0000 0.0000 0.0000 0.0000 0.0000 56.6396
#
#
#
# Elastic Compliance Matrix: (Units=1/GPa)
#
#
# Indices 1 2 3 4 5 6 
#
# 1 0.021174 -0.011013 -0.002224 0.000000 0.000000 0.000000
# 2 -0.011013 0.015250 -0.000178 0.000000 0.000000 0.000000
# 3 -0.002224 -0.000178 0.009302 0.000000 0.000000 0.000000
# 4 0.000000 0.000000 0.000000 0.024731 0.000000 0.000000
# 5 0.000000 0.000000 0.000000 0.000000 0.028888 0.000000
# 6 0.000000 0.000000 0.000000 0.000000 0.000000 0.017656
#
#
# Mechanical properties :
#
#
# Convention : Reuss Voigt Hill
#
# Bulk Modulus (GPa) = 52.92523 53.95231 53.43877
# Shear Modulus (GPa) = 33.30480 40.05710 36.68095
#
# Velocity S-wave (km/s) = 3.62278 3.97309 3.80198
# Velocity P-wave (km/s) = 6.19321 6.50450 6.35076
#
# Compressibility (1/GPa) = 0.01889458
#
# Stress axis : x y z
#
# Youngs Moduli (GPa) = 47.22870 65.57403 107.50748
#
# Poissons Ratio (x) = 0.72217 0.23909
# Poissons Ratio (y) = 0.52013 0.01917
# Poissons Ratio (z) = 0.10503 0.01169
#
# Static dielectric constant tensor:
#      x y z
#    x 4.094870 0.000000 0.000000 
#    y 0.000000 5.116120 0.000000 
#    z 0.000000 0.000000 4.738410 
# 
# 
# High freq. dielectric constant tensor:
#      x y z
#    x 1.976790 0.000000 0.000000 
#    y 0.000000 2.034930 0.000000 
#    z 0.000000 0.000000 2.039920 
# 
# From -- ./inp_files/1676.got.cif
#   From: 2010.03.12/outbox.cif.g09.slc.cpg/sg19_1_cif.got.tgz:1676.got - 2010.04.10 18:59:41.
