data_PCOD8157511
_publ_section_title
;
Structure prediction by ZEFSAII (Michael W. Deem and Ramdas Pophale) SiO2 
 PCOD8157511
Probable space group: P 21 21 21
;
_chemical_formula_sum "Si O2"
_cell_formula_units_Z 24
_cell_length_a 11.707649
_cell_length_b 8.044709
_cell_length_c 12.333686
_cell_angle_alpha 90.000000
_cell_angle_beta 90.000000
_cell_angle_gamma 90.000000
_cell_volume 1161.643644
_symmetry_space_group_name_H-M "P 21 21 21"
_symmetry_group_IT_number 19
_symmetry_cell_setting 'orthorhombic'
loop_
_space_group_symop_operation_xyz
x,y,z
1/2-x,-y,1/2+z
1/2+x,1/2-y,-z
-x,1/2+y,1/2-z
loop_
_atom_site_type_symbol
_atom_site_label
_atom_site_fract_x
_atom_site_fract_y
_atom_site_fract_z
Si Si1 0.756906 0.332844 0.000735
Si Si2 0.403872 0.023136 0.182951
Si Si3 0.602624 0.785298 0.127537
Si Si4 0.700580 0.675349 0.736209
Si Si5 0.197303 0.517244 0.389527
Si Si6 0.440030 0.064622 0.571591
O O1 0.856426 0.365433 0.914570
O O2 0.635032 0.406602 0.965723
O O3 0.797968 0.411603 0.116656
O O4 0.743109 0.133324 0.017484
O O5 0.418649 0.138463 0.287651
O O6 0.525141 0.945367 0.152623
O O7 0.317619 0.870471 0.202637
O O8 0.733571 0.848277 0.131312
O O9 0.580091 0.720132 0.007027
O O10 0.692628 0.875438 0.722195
O O11 0.593114 0.613413 0.805704
O O12 0.071784 0.478790 0.431975
#
# Coordination Sequence:
#
# PCOD8157511 Si02
#       6
#     4   4   4   4   4   4
#     4   9  23  45  64  96 134 178 219 274 338 389
#     4  11  24  41  71  91 141 173 223 285 323 410
#     4  12  26  40  68 102 130 178 228 273 346 394
#     4   9  22  46  65  94 134 174 226 270 336 397
#     4  10  25  42  67  96 137 173 225 272 336 404
#     4  11  24  42  71  99 136 176 227 280 327 412
#
# _framework density 20.660381999999998
#
# number of rings (size 3 to 8) (size 9 to 14) (size 15 to 20)
#    1.000    0.667    1.667    1.000    9.333    5.333 
#    0.000    0.000    0.000    0.000    0.000    0.000 
#    0.000    0.000    0.000    0.000    0.000    0.000 
#
# Total GULP energy -297528.764807 kJ/mol
# GULP energy per Si atom -12397.031867 kJ/mol
# Density = 2.061336 g / cm^3
# Si number density = 20.660382 Si / 1000 Ang^3
#
#
#
# Elastic Constant Matrix: (Units=GPa)
#
#
# Indices 1 2 3 4 5 6 
#
# 1 122.3994 44.0691 20.9112 0.0000 0.0000 0.0000
# 2 44.0691 75.3284 8.2890 0.0000 0.0000 0.0000
# 3 20.9112 8.2890 82.0385 0.0000 0.0000 0.0000
# 4 0.0000 0.0000 0.0000 41.4330 0.0000 0.0000
# 5 0.0000 0.0000 0.0000 0.0000 21.8702 0.0000
# 6 0.0000 0.0000 0.0000 0.0000 0.0000 32.3097
#
#
#
# Elastic Compliance Matrix: (Units=1/GPa)
#
#
# Indices 1 2 3 4 5 6 
#
# 1 0.010702 -0.006028 -0.002119 0.000000 0.000000 0.000000
# 2 -0.006028 0.016820 -0.000163 0.000000 0.000000 0.000000
# 3 -0.002119 -0.000163 0.012746 0.000000 0.000000 0.000000
# 4 0.000000 0.000000 0.000000 0.024135 0.000000 0.000000
# 5 0.000000 0.000000 0.000000 0.000000 0.045724 0.000000
# 6 0.000000 0.000000 0.000000 0.000000 0.000000 0.030950
#
#
# Mechanical properties :
#
#
# Convention : Reuss Voigt Hill
#
# Bulk Modulus (GPa) = 42.28629 47.36718 44.82673
# Shear Modulus (GPa) = 30.19680 32.88905 31.54292
#
# Velocity S-wave (km/s) = 3.82721 3.99418 3.91158
# Velocity P-wave (km/s) = 6.32786 6.65189 6.49190
#
# Compressibility (1/GPa) = 0.02364833
#
# Stress axis : x y z
#
# Youngs Moduli (GPa) = 93.43777 59.45426 78.45619
#
# Poissons Ratio (x) = 0.35839 0.16624
# Poissons Ratio (y) = 0.56324 0.01278
# Poissons Ratio (z) = 0.19799 0.00969
#
# Static dielectric constant tensor:
#      x y z
#    x 3.579840 0.000000 0.000000 
#    y 0.000000 3.605500 0.000000 
#    z 0.000000 0.000000 3.805890 
# 
# 
# High freq. dielectric constant tensor:
#      x y z
#    x 1.805530 0.000000 0.000000 
#    y 0.000000 1.800510 0.000000 
#    z 0.000000 0.000000 1.811990 
# 
# From -- ./inp_files/5840.got.cif
#   From: 2010.03.12/outbox.cif.g09.slc.cpg/sg19_3_cif.got.tgz:5840.got - 2010.04.10 18:59:41.
