data_PCOD8157383
_publ_section_title
;
Structure prediction by ZEFSAII (Michael W. Deem and Ramdas Pophale) SiO2 
 PCOD8157383
Probable space group: P 21 21 21
;
_chemical_formula_sum "Si O2"
_cell_formula_units_Z 32
_cell_length_a 10.298355
_cell_length_b 5.693484
_cell_length_c 21.616925
_cell_angle_alpha 90.000000
_cell_angle_beta 90.000000
_cell_angle_gamma 90.000000
_cell_volume 1267.476392
_symmetry_space_group_name_H-M "P 21 21 21"
_symmetry_group_IT_number 19
_symmetry_cell_setting 'orthorhombic'
loop_
_space_group_symop_operation_xyz
x,y,z
1/2-x,-y,1/2+z
1/2+x,1/2-y,-z
-x,1/2+y,1/2-z
loop_
_atom_site_type_symbol
_atom_site_label
_atom_site_fract_x
_atom_site_fract_y
_atom_site_fract_z
Si Si1 0.183438 0.341598 0.287805
Si Si2 0.127325 0.983502 0.387282
Si Si3 0.361090 0.726242 0.438850
Si Si4 0.428590 0.569494 0.239263
Si Si5 0.405932 0.465606 0.104234
Si Si6 0.536787 0.352986 0.481645
Si Si7 0.717564 0.394063 0.935318
Si Si8 0.443063 0.860592 0.675545
O O1 0.301016 0.528142 0.281811
O O2 0.046366 0.468516 0.293943
O O3 0.171730 0.191089 0.224698
O O4 0.209181 0.171169 0.346537
O O5 0.220277 0.762968 0.406879
O O6 0.010406 0.880140 0.347036
O O7 0.066295 0.116209 0.446073
O O8 0.395448 0.463556 0.463502
O O9 0.360500 0.888214 0.500656
O O10 0.474946 0.780575 0.389486
O O11 0.493869 0.817465 0.258202
O O12 0.392558 0.611280 0.167386
O O13 0.460664 0.589480 0.042012
O O14 0.264796 0.362496 0.088148
O O15 0.652621 0.457791 0.440255
O O16 0.621351 0.495409 0.882851
#
# Coordination Sequence:
#
# PCOD8157383 Si02
#       8
#     4   4   4   4   4   4   4   4
#     4  12  28  46  80 109 151 208 268 331 398 482
#     4  11  25  46  69 112 150 198 260 325 396 478
#     4  10  23  43  70 105 145 192 248 311 398 471
#     4  12  31  53  81 116 160 215 270 335 404 483
#     4  11  25  45  72 106 146 196 256 320 397 472
#     4  10  24  43  75 105 144 199 250 325 400 477
#     4  10  23  44  68 100 148 191 245 318 390 475
#     4  12  25  46  71 105 150 199 255 325 397 472
#
# _framework density 25.247019000000002
#
# number of rings (size 3 to 8) (size 9 to 14) (size 15 to 20)
#    0.000    1.000    3.750    0.750    8.750    5.000 
#    0.000    0.000    0.000    0.000    0.000    0.000 
#    0.000    0.000    0.000    0.000    0.000    0.000 
#
# Total GULP energy -396520.016589 kJ/mol
# GULP energy per Si atom -12391.250518 kJ/mol
# Density = 2.518956 g / cm^3
# Si number density = 25.247019 Si / 1000 Ang^3
#
#
#
# Elastic Constant Matrix: (Units=GPa)
#
#
# Indices 1 2 3 4 5 6 
#
# 1 85.1403 17.1808 20.6866 0.0000 0.0000 0.0000
# 2 17.1808 55.7420 17.7378 0.0000 0.0000 0.0000
# 3 20.6866 17.7378 112.5503 0.0000 0.0000 0.0000
# 4 0.0000 0.0000 0.0000 37.5605 0.0000 0.0000
# 5 0.0000 0.0000 0.0000 0.0000 44.8175 0.0000
# 6 0.0000 0.0000 0.0000 0.0000 0.0000 43.4227
#
#
#
# Elastic Compliance Matrix: (Units=1/GPa)
#
#
# Indices 1 2 3 4 5 6 
#
# 1 0.012874 -0.003385 -0.001833 0.000000 0.000000 0.000000
# 2 -0.003385 0.019777 -0.002495 0.000000 0.000000 0.000000
# 3 -0.001833 -0.002495 0.009615 0.000000 0.000000 0.000000
# 4 0.000000 0.000000 0.000000 0.026624 0.000000 0.000000
# 5 0.000000 0.000000 0.000000 0.000000 0.022313 0.000000
# 6 0.000000 0.000000 0.000000 0.000000 0.000000 0.023029
#
#
# Mechanical properties :
#
#
# Convention : Reuss Voigt Hill
#
# Bulk Modulus (GPa) = 37.25623 40.51588 38.88606
# Shear Modulus (GPa) = 36.07435 38.34865 37.21150
#
# Velocity S-wave (km/s) = 3.78412 3.90158 3.84330
# Velocity P-wave (km/s) = 5.82078 6.03151 5.92708
#
# Compressibility (1/GPa) = 0.02684115
#
# Stress axis : x y z
#
# Youngs Moduli (GPa) = 77.67811 50.56407 104.00486
#
# Poissons Ratio (x) = 0.17115 0.19061
# Poissons Ratio (y) = 0.26292 0.25946
# Poissons Ratio (z) = 0.14236 0.12614
#
# Static dielectric constant tensor:
#      x y z
#    x 4.431440 0.000000 0.000000 
#    y 0.000000 4.408330 0.000000 
#    z 0.000000 0.000000 4.607440 
# 
# 
# High freq. dielectric constant tensor:
#      x y z
#    x 2.009700 0.000000 0.000000 
#    y 0.000000 1.983730 0.000000 
#    z 0.000000 0.000000 2.026370 
# 
# From -- ./inp_files/7182.got.cif
#   From: 2010.03.12/outbox.cif.g09.slc.cpg/sg19_4_cif.got.tgz:7182.got - 2010.04.10 18:59:41.
