data_PCOD8157223
_publ_section_title
;
Structure prediction by ZEFSAII (Michael W. Deem and Ramdas Pophale) SiO2 
 PCOD8157223
Probable space group: P 21 21 21
;
_chemical_formula_sum "Si O2"
_cell_formula_units_Z 32
_cell_length_a 7.814302
_cell_length_b 14.941469
_cell_length_c 11.471577
_cell_angle_alpha 90.000000
_cell_angle_beta 90.000000
_cell_angle_gamma 90.000000
_cell_volume 1339.388649
_symmetry_space_group_name_H-M "P 21 21 21"
_symmetry_group_IT_number 19
_symmetry_cell_setting 'orthorhombic'
loop_
_space_group_symop_operation_xyz
x,y,z
1/2-x,-y,1/2+z
1/2+x,1/2-y,-z
-x,1/2+y,1/2-z
loop_
_atom_site_type_symbol
_atom_site_label
_atom_site_fract_x
_atom_site_fract_y
_atom_site_fract_z
Si Si1 0.609392 0.471187 0.164615
Si Si2 0.079721 0.535819 0.903889
Si Si3 0.776506 0.622881 0.033775
Si Si4 0.097508 0.902282 0.193892
Si Si5 0.218079 0.345756 0.944664
Si Si6 0.288389 0.699938 0.847645
Si Si7 0.359687 0.222131 0.136012
Si Si8 0.939594 0.591469 0.407178
O O1 0.466670 0.479128 0.266664
O O2 0.683984 0.570716 0.140400
O O3 0.755576 0.401431 0.208336
O O4 0.536376 0.430073 0.045070
O O5 0.166765 0.449210 0.960358
O O6 0.208463 0.618944 0.921898
O O7 0.913879 0.553880 0.981468
O O8 0.855439 0.717922 0.072475
O O9 0.647073 0.643061 0.928986
O O10 0.939430 0.840409 0.233960
O O11 0.042205 0.004442 0.172387
O O12 0.398276 0.345246 0.870773
O O13 0.059859 0.292087 0.889388
O O14 0.266375 0.299829 0.064962
O O15 0.140883 0.743137 0.768001
O O16 0.247291 0.132419 0.118332
#
# Coordination Sequence:
#
# PCOD8157223 Si02
#       8
#     4   4   4   4   4   4   4   4
#     4  10  22  44  70  99 134 185 231 286 353 419
#     4  11  24  43  70  99 140 182 230 283 358 426
#     4  10  22  43  69  95 141 177 227 292 346 413
#     4  10  22  41  70  98 136 182 231 281 351 423
#     4  12  24  46  68 101 138 186 228 296 352 408
#     4  12  24  43  66 103 137 181 234 283 347 430
#     4  12  27  43  72 103 143 175 240 299 349 415
#     4  11  23  47  71 100 141 186 229 290 354 414
#
# _framework density 23.891497000000001
#
# number of rings (size 3 to 8) (size 9 to 14) (size 15 to 20)
#    0.000    1.000    2.500    5.250    3.500    0.000 
#    2.250    0.000    0.000    0.000    0.000    0.000 
#    0.000    0.000    0.000    0.000    0.000    0.000 
#
# Total GULP energy -396645.815897 kJ/mol
# GULP energy per Si atom -12395.181747 kJ/mol
# Density = 2.383712 g / cm^3
# Si number density = 23.891497 Si / 1000 Ang^3
#
#
#
# Elastic Constant Matrix: (Units=GPa)
#
#
# Indices 1 2 3 4 5 6 
#
# 1 105.6771 25.5771 12.1776 0.0000 0.0000 0.0000
# 2 25.5771 124.7200 26.1210 0.0000 0.0000 0.0000
# 3 12.1776 26.1210 57.5127 0.0000 0.0000 0.0000
# 4 0.0000 0.0000 0.0000 21.2641 0.0000 0.0000
# 5 0.0000 0.0000 0.0000 0.0000 14.9686 0.0000
# 6 0.0000 0.0000 0.0000 0.0000 0.0000 47.4491
#
#
#
# Elastic Compliance Matrix: (Units=1/GPa)
#
#
# Indices 1 2 3 4 5 6 
#
# 1 0.010046 -0.001785 -0.001317 0.000000 0.000000 0.000000
# 2 -0.001785 0.009178 -0.003791 0.000000 0.000000 0.000000
# 3 -0.001317 -0.003791 0.019388 0.000000 0.000000 0.000000
# 4 0.000000 0.000000 0.000000 0.047028 0.000000 0.000000
# 5 0.000000 0.000000 0.000000 0.000000 0.066806 0.000000
# 6 0.000000 0.000000 0.000000 0.000000 0.000000 0.021075
#
#
# Mechanical properties :
#
#
# Convention : Reuss Voigt Hill
#
# Bulk Modulus (GPa) = 40.27620 46.18461 43.23041
# Shear Modulus (GPa) = 25.56488 31.67198 28.61843
#
# Velocity S-wave (km/s) = 3.27470 3.64491 3.46475
# Velocity P-wave (km/s) = 5.58505 6.08989 5.84292
#
# Compressibility (1/GPa) = 0.02482856
#
# Stress axis : x y z
#
# Youngs Moduli (GPa) = 99.53789 108.95866 51.57876
#
# Poissons Ratio (x) = 0.19444 0.06791
# Poissons Ratio (y) = 0.17763 0.19551
# Poissons Ratio (z) = 0.13106 0.41301
#
# Static dielectric constant tensor:
#      x y z
#    x 4.553740 0.000000 0.000000 
#    y 0.000000 4.376000 0.000000 
#    z 0.000000 0.000000 4.046010 
# 
# 
# High freq. dielectric constant tensor:
#      x y z
#    x 1.952340 0.000000 0.000000 
#    y 0.000000 1.960530 0.000000 
#    z 0.000000 0.000000 1.926810 
# 
# From -- ./inp_files/4707.got.cif
#   From: 2010.03.12/outbox.cif.g09.slc.cpg/sg19_3_cif.got.tgz:4707.got - 2010.04.10 18:59:41.
