data_PCOD8157869
_publ_section_title
;
Structure prediction by ZEFSAII (Michael W. Deem and Ramdas Pophale) SiO2 
 PCOD8157869
Probable space group: P 21 21 21
;
_chemical_formula_sum "Si O2"
_cell_formula_units_Z 20
_cell_length_a 21.834664
_cell_length_b 4.979724
_cell_length_c 8.618262
_cell_angle_alpha 90.000000
_cell_angle_beta 90.000000
_cell_angle_gamma 90.000000
_cell_volume 937.068801
_symmetry_space_group_name_H-M "P 21 21 21"
_symmetry_group_IT_number 19
_symmetry_cell_setting 'orthorhombic'
loop_
_space_group_symop_operation_xyz
x,y,z
1/2-x,-y,1/2+z
1/2+x,1/2-y,-z
-x,1/2+y,1/2-z
loop_
_atom_site_type_symbol
_atom_site_label
_atom_site_fract_x
_atom_site_fract_y
_atom_site_fract_z
Si Si1 0.626808 0.251268 0.007741
Si Si2 0.331462 0.252377 0.670183
Si Si3 0.132079 0.717472 0.513064
Si Si4 0.812883 0.723811 0.832063
Si Si5 0.501675 0.724629 0.355223
O O1 0.660793 0.181816 0.167534
O O2 0.554429 0.205471 0.025500
O O3 0.639056 0.556069 0.957018
O O4 0.652923 0.056160 0.875888
O O5 0.360257 0.188092 0.836929
O O6 0.259518 0.207457 0.677077
O O7 0.166107 0.434267 0.537119
O O8 0.060538 0.681757 0.548750
O O9 0.162043 0.930745 0.628787
O O10 0.514363 0.435354 0.279945
#
# Coordination Sequence:
#
# PCOD8157869 Si02
#       5
#     4   4   4   4   4
#     4  12  25  43  70  98 134 179 219 278 332 387
#     4  12  26  41  64 105 138 165 221 281 340 384
#     4  12  25  44  70  97 133 179 221 276 331 391
#     4  12  23  44  68  96 133 182 221 264 328 414
#     4  12  23  46  70  96 130 175 236 271 321 408
#
# _framework density 21.343149
#
# number of rings (size 3 to 8) (size 9 to 14) (size 15 to 20)
#    0.000    0.000    4.000    7.200    0.000    1.600 
#    0.000    0.000    0.000    0.000    0.000    0.000 
#    0.000    0.000    0.000    0.000    0.000    0.000 
#
# Total GULP energy -248246.646274 kJ/mol
# GULP energy per Si atom -12412.332314 kJ/mol
# Density = 2.129457 g / cm^3
# Si number density = 21.343149 Si / 1000 Ang^3
#
#
#
# Elastic Constant Matrix: (Units=GPa)
#
#
# Indices 1 2 3 4 5 6 
#
# 1 112.5617 10.4251 41.7521 0.0000 0.0000 0.0000
# 2 10.4251 81.5066 15.6865 0.0000 0.0000 0.0000
# 3 41.7521 15.6865 88.7685 0.0000 0.0000 0.0000
# 4 0.0000 0.0000 0.0000 40.4178 0.0000 0.0000
# 5 0.0000 0.0000 0.0000 0.0000 -22.6204 0.0000
# 6 0.0000 0.0000 0.0000 0.0000 0.0000 29.4175
#
#
#
# Elastic Compliance Matrix: (Units=1/GPa)
#
#
# Indices 1 2 3 4 5 6 
#
# 1 0.010775 -0.000417 -0.004994 0.000000 0.000000 0.000000
# 2 -0.000417 0.012717 -0.002051 0.000000 0.000000 0.000000
# 3 -0.004994 -0.002051 0.013977 0.000000 0.000000 0.000000
# 4 0.000000 0.000000 0.000000 0.024742 0.000000 0.000000
# 5 0.000000 0.000000 0.000000 0.000000 -0.044208 0.000000
# 6 0.000000 0.000000 0.000000 0.000000 0.000000 0.033993
#
#
# Mechanical properties :
#
#
# Convention : Reuss Voigt Hill
#
# Bulk Modulus (GPa) = 44.35768 46.50712 45.43240
# Shear Modulus (GPa) = 67.17212 23.77455 45.47334
#
# Velocity S-wave (km/s) = 5.61612 3.34116 4.62083
# Velocity P-wave (km/s) = 7.92985 6.05987 7.05707
#
# Compressibility (1/GPa) = 0.02254401
#
# Stress axis : x y z
#
# Youngs Moduli (GPa) = 92.80582 78.63473 71.54705
#
# Poissons Ratio (x) = 0.03279 0.35733
# Poissons Ratio (y) = 0.03870 0.14675
# Poissons Ratio (z) = 0.46351 0.16129
#
# Static dielectric constant tensor:
#      x y z
#    x 3.964080 0.000000 0.000000 
#    y 0.000000 4.082250 0.000000 
#    z 0.000000 0.000000 3.733740 
# 
# 
# High freq. dielectric constant tensor:
#      x y z
#    x 1.854250 0.000000 0.000000 
#    y 0.000000 1.851520 0.000000 
#    z 0.000000 0.000000 1.834360 
# 
# From -- ./inp_files/1907.got.cif
#   From: 2010.03.12/outbox.cif.g09.slc.cpg/sg19_1_cif.got.tgz:1907.got - 2010.04.10 18:59:41.
