data_PCOD8157333
_publ_section_title
;
Structure prediction by ZEFSAII (Michael W. Deem and Ramdas Pophale) SiO2 
 PCOD8157333
Probable space group: P 21 21 21
;
_chemical_formula_sum "Si O2"
_cell_formula_units_Z 20
_cell_length_a 18.399016
_cell_length_b 8.740560
_cell_length_c 4.854998
_cell_angle_alpha 90.000000
_cell_angle_beta 90.000000
_cell_angle_gamma 90.000000
_cell_volume 780.769628
_symmetry_space_group_name_H-M "P 21 21 21"
_symmetry_group_IT_number 19
_symmetry_cell_setting 'orthorhombic'
loop_
_space_group_symop_operation_xyz
x,y,z
1/2-x,-y,1/2+z
1/2+x,1/2-y,-z
-x,1/2+y,1/2-z
loop_
_atom_site_type_symbol
_atom_site_label
_atom_site_fract_x
_atom_site_fract_y
_atom_site_fract_z
Si Si1 0.457641 0.862163 0.359574
Si Si2 0.720329 0.081776 0.857693
Si Si3 0.925432 0.819415 0.157774
Si Si4 0.773324 0.406969 0.045593
Si Si5 0.937814 0.362029 0.021047
O O1 0.415984 0.835667 0.651297
O O2 0.542390 0.809367 0.407933
O O3 0.450732 0.030172 0.243337
O O4 0.422080 0.735204 0.154877
O O5 0.722894 0.978166 0.129850
O O6 0.640185 0.065554 0.725162
O O7 0.736824 0.256940 0.924987
O O8 0.002570 0.903700 0.238241
O O9 0.770598 0.540629 0.816158
O O10 0.856298 0.370693 0.132220
#
# Coordination Sequence:
#
# PCOD8157333 Si02
#       5
#     4   4   4   4   4
#     4  10  23  39  66  94 129 171 229 277 335 391
#     4  12  26  44  71 103 141 183 233 287 345 411
#     4  10  24  40  67  93 139 167 229 274 338 389
#     4  12  27  46  71 101 148 184 230 282 365 416
#     4  10  26  41  73  95 137 177 233 276 341 407
#
# _framework density 25.615752000000001
#
# number of rings (size 3 to 8) (size 9 to 14) (size 15 to 20)
#    1.200    0.000    0.000    4.800    8.400    1.600 
#    0.000    0.000    0.000    0.000    0.000    0.000 
#    0.000    0.000    0.000    0.000    0.000    0.000 
#
# Total GULP energy -247915.143932 kJ/mol
# GULP energy per Si atom -12395.757197 kJ/mol
# Density = 2.555745 g / cm^3
# Si number density = 25.615752 Si / 1000 Ang^3
#
#
#
# Elastic Constant Matrix: (Units=GPa)
#
#
# Indices 1 2 3 4 5 6 
#
# 1 138.3435 26.8765 9.0732 0.0000 0.0000 0.0000
# 2 26.8765 21.4870 -21.2755 0.0000 0.0000 0.0000
# 3 9.0732 -21.2755 62.8389 0.0000 0.0000 0.0000
# 4 0.0000 0.0000 0.0000 29.2166 0.0000 0.0000
# 5 0.0000 0.0000 0.0000 0.0000 28.2477 0.0000
# 6 0.0000 0.0000 0.0000 0.0000 0.0000 27.7566
#
#
#
# Elastic Compliance Matrix: (Units=1/GPa)
#
#
# Indices 1 2 3 4 5 6 
#
# 1 0.013470 -0.028242 -0.011507 0.000000 0.000000 0.000000
# 2 -0.028242 0.129223 0.047829 0.000000 0.000000 0.000000
# 3 -0.011507 0.047829 0.033769 0.000000 0.000000 0.000000
# 4 0.000000 0.000000 0.000000 0.034227 0.000000 0.000000
# 5 0.000000 0.000000 0.000000 0.000000 0.035401 0.000000
# 6 0.000000 0.000000 0.000000 0.000000 0.000000 0.036027
#
#
# Mechanical properties :
#
#
# Convention : Reuss Voigt Hill
#
# Bulk Modulus (GPa) = 5.19148 28.00200 16.59674
# Shear Modulus (GPa) = 15.14402 30.91051 23.02727
#
# Velocity S-wave (km/s) = 2.43410 3.47753 3.00150
# Velocity P-wave (km/s) = 3.15133 5.20380 4.30177
#
# Compressibility (1/GPa) = 0.19262323
#
# Stress axis : x y z
#
# Youngs Moduli (GPa) = 74.24102 7.73855 29.61320
#
# Poissons Ratio (x) = 0.21855 0.34075
# Poissons Ratio (y) = 2.09668 -1.41637
# Poissons Ratio (z) = 0.85427 -0.37013
#
# Static dielectric constant tensor:
#      x y z
#    x 4.645520 0.000000 0.000000 
#    y 0.000000 4.366560 0.000000 
#    z 0.000000 0.000000 4.619900 
# 
# 
# High freq. dielectric constant tensor:
#      x y z
#    x 2.017290 0.000000 0.000000 
#    y 0.000000 2.015140 0.000000 
#    z 0.000000 0.000000 2.035580 
# 
# From -- ./inp_files/438.got.cif
#   From: 2010.03.12/outbox.cif.g09.slc.cpg/sg19_1_cif.got.tgz:438.got - 2010.04.10 18:59:41.
