data_PCOD8157411
_publ_section_title
;
Structure prediction by ZEFSAII (Michael W. Deem and Ramdas Pophale) SiO2 
 PCOD8157411
Probable space group: P 21 21 21
;
_chemical_formula_sum "Si O2"
_cell_formula_units_Z 32
_cell_length_a 5.324175
_cell_length_b 7.994853
_cell_length_c 31.914754
_cell_angle_alpha 90.000000
_cell_angle_beta 90.000000
_cell_angle_gamma 90.000000
_cell_volume 1358.483306
_symmetry_space_group_name_H-M "P 21 21 21"
_symmetry_group_IT_number 19
_symmetry_cell_setting 'orthorhombic'
loop_
_space_group_symop_operation_xyz
x,y,z
1/2-x,-y,1/2+z
1/2+x,1/2-y,-z
-x,1/2+y,1/2-z
loop_
_atom_site_type_symbol
_atom_site_label
_atom_site_fract_x
_atom_site_fract_y
_atom_site_fract_z
Si Si1 0.643457 0.216982 0.381031
Si Si2 0.821210 0.677331 0.323170
Si Si3 0.878002 0.656422 0.497378
Si Si4 0.107244 0.800227 0.795589
Si Si5 0.710390 0.567297 0.410910
Si Si6 0.684513 0.063934 0.223592
Si Si7 0.026231 0.008737 0.342474
Si Si8 0.392706 0.902025 0.413509
O O1 0.452539 0.246321 0.343212
O O2 0.607019 0.377576 0.410431
O O3 0.918983 0.183297 0.361184
O O4 0.596083 0.046351 0.406396
O O5 0.060169 0.640741 0.293989
O O6 0.868938 0.588652 0.368083
O O7 0.561537 0.612136 0.303740
O O8 0.805301 0.878799 0.329294
O O9 0.667370 0.800310 0.492539
O O10 0.880931 0.562388 0.452816
O O11 0.783888 0.560371 0.539570
O O12 0.215720 0.635845 0.772996
O O13 0.864368 0.867074 0.770440
O O14 0.316559 0.946722 0.800193
O O15 0.500009 0.712088 0.412028
O O16 0.181620 0.910756 0.378114
#
# Coordination Sequence:
#
# PCOD8157411 Si02
#       8
#     4   4   4   4   4   4   4   4
#     4  11  24  45  70 106 140 189 245 296 365 440
#     4  12  25  44  75 102 137 197 234 297 365 439
#     4  10  23  44  74 108 145 190 238 294 355 428
#     4  11  27  45  69 104 140 187 240 314 358 446
#     4  11  22  47  74 104 147 194 239 295 365 435
#     4  12  28  45  72 103 142 183 249 298 375 424
#     4  11  24  44  74  98 147 184 246 295 370 430
#     4  10  23  46  70 107 144 192 237 301 357 434
#
# _framework density 23.555682000000001
#
# number of rings (size 3 to 8) (size 9 to 14) (size 15 to 20)
#    0.000    1.000    2.500    3.000    7.000    1.000 
#   11.250    0.000    0.000    0.000    0.000    0.000 
#    0.000    0.000    0.000    0.000    0.000    0.000 
#
# Total GULP energy -396531.667154 kJ/mol
# GULP energy per Si atom -12391.614599 kJ/mol
# Density = 2.350207 g / cm^3
# Si number density = 23.555682 Si / 1000 Ang^3
#
#
#
# Elastic Constant Matrix: (Units=GPa)
#
#
# Indices 1 2 3 4 5 6 
#
# 1 63.3564 11.1513 -5.2284 0.0000 0.0000 0.0000
# 2 11.1513 119.3508 21.7526 0.0000 0.0000 0.0000
# 3 -5.2284 21.7526 95.3290 0.0000 0.0000 0.0000
# 4 0.0000 0.0000 0.0000 30.8248 0.0000 0.0000
# 5 0.0000 0.0000 0.0000 0.0000 27.2657 0.0000
# 6 0.0000 0.0000 0.0000 0.0000 0.0000 26.8856
#
#
#
# Elastic Compliance Matrix: (Units=1/GPa)
#
#
# Indices 1 2 3 4 5 6 
#
# 1 0.016198 -0.001748 0.001287 0.000000 0.000000 0.000000
# 2 -0.001748 0.008931 -0.002134 0.000000 0.000000 0.000000
# 3 0.001287 -0.002134 0.011047 0.000000 0.000000 0.000000
# 4 0.000000 0.000000 0.000000 0.032441 0.000000 0.000000
# 5 0.000000 0.000000 0.000000 0.000000 0.036676 0.000000
# 6 0.000000 0.000000 0.000000 0.000000 0.000000 0.037195
#
#
# Mechanical properties :
#
#
# Convention : Reuss Voigt Hill
#
# Bulk Modulus (GPa) = 32.27168 37.04303 34.65736
# Shear Modulus (GPa) = 31.64435 33.68594 32.66514
#
# Velocity S-wave (km/s) = 3.66920 3.78571 3.72791
# Velocity P-wave (km/s) = 5.62855 5.90497 5.76842
#
# Compressibility (1/GPa) = 0.03098692
#
# Stress axis : x y z
#
# Youngs Moduli (GPa) = 61.73747 111.97108 90.51842
#
# Poissons Ratio (x) = 0.19572 -0.11652
# Poissons Ratio (y) = 0.10792 0.19314
# Poissons Ratio (z) = -0.07947 0.23892
#
# Static dielectric constant tensor:
#      x y z
#    x 4.206570 0.000000 0.000000 
#    y 0.000000 4.242290 0.000000 
#    z 0.000000 0.000000 4.770840 
# 
# 
# High freq. dielectric constant tensor:
#      x y z
#    x 1.922480 0.000000 0.000000 
#    y 0.000000 1.923770 0.000000 
#    z 0.000000 0.000000 1.951360 
# 
# From -- ./inp_files/7529.got.cif
#   From: 2010.03.12/outbox.cif.g09.slc.cpg/sg19_4_cif.got.tgz:7529.got - 2010.04.10 18:59:41.
