data_PCOD8157835
_publ_section_title
;
Structure prediction by ZEFSAII (Michael W. Deem and Ramdas Pophale) SiO2 
 PCOD8157835
Probable space group: P 21 21 21
;
_chemical_formula_sum "Si O2"
_cell_formula_units_Z 32
_cell_length_a 15.138696
_cell_length_b 16.772097
_cell_length_c 5.282682
_cell_angle_alpha 90.000000
_cell_angle_beta 90.000000
_cell_angle_gamma 90.000000
_cell_volume 1341.313519
_symmetry_space_group_name_H-M "P 21 21 21"
_symmetry_group_IT_number 19
_symmetry_cell_setting 'orthorhombic'
loop_
_space_group_symop_operation_xyz
x,y,z
1/2-x,-y,1/2+z
1/2+x,1/2-y,-z
-x,1/2+y,1/2-z
loop_
_atom_site_type_symbol
_atom_site_label
_atom_site_fract_x
_atom_site_fract_y
_atom_site_fract_z
Si Si1 0.638164 0.118239 0.934943
Si Si2 0.377994 0.088271 0.412992
Si Si3 0.110114 0.083201 0.013632
Si Si4 0.950262 0.050874 0.352666
Si Si5 0.521739 0.826155 0.224918
Si Si6 0.823820 0.171454 0.057107
Si Si7 0.552298 0.172833 0.455483
Si Si8 0.794854 0.349148 0.078525
O O1 0.622137 0.170680 0.683763
O O2 0.600583 0.031615 0.870426
O O3 0.743371 0.114692 0.972449
O O4 0.595032 0.156829 0.182520
O O5 0.476663 0.108277 0.508319
O O6 0.313773 0.106154 0.654561
O O7 0.372502 0.994755 0.339159
O O8 0.364926 0.136164 0.148335
O O9 0.206512 0.119788 0.064772
O O10 0.058372 0.161147 0.917565
O O11 0.049753 0.047129 0.240590
O O12 0.965149 0.083038 0.632667
O O13 0.887285 0.118478 0.230722
O O14 0.615800 0.797730 0.327192
O O15 0.490401 0.760702 0.023370
O O16 0.788275 0.255866 0.165739
#
# Coordination Sequence:
#
# PCOD8157835 Si02
#       8
#     4   4   4   4   4   4   4   4
#     4  12  29  48  79 108 148 195 258 301 370 451
#     4  12  25  47  75 104 148 189 241 301 371 427
#     4  11  26  45  72 112 140 194 242 302 367 438
#     4  11  27  47  74 103 152 192 243 305 367 440
#     4  11  26  46  75 102 155 188 247 302 376 436
#     4  11  28  46  71 109 143 197 242 304 367 438
#     4  12  26  49  76 107 147 199 243 311 371 443
#     4  12  27  46  74 107 147 188 246 304 363 441
#
# _framework density 23.857212000000001
#
# number of rings (size 3 to 8) (size 9 to 14) (size 15 to 20)
#    0.000    0.500    2.500    3.750   14.000    0.000 
#    0.000    0.000    0.000    0.000    0.000    0.000 
#    0.000    0.000    0.000    0.000    0.000    0.000 
#
# Total GULP energy -396427.288347 kJ/mol
# GULP energy per Si atom -12388.352761 kJ/mol
# Density = 2.380291 g / cm^3
# Si number density = 23.857212 Si / 1000 Ang^3
#
#
#
# Elastic Constant Matrix: (Units=GPa)
#
#
# Indices 1 2 3 4 5 6 
#
# 1 111.7625 27.1392 25.1387 0.0000 0.0000 0.0000
# 2 27.1392 99.4982 24.1296 0.0000 0.0000 0.0000
# 3 25.1387 24.1296 97.7615 0.0000 0.0000 0.0000
# 4 0.0000 0.0000 0.0000 30.4146 0.0000 0.0000
# 5 0.0000 0.0000 0.0000 0.0000 8.5878 0.0000
# 6 0.0000 0.0000 0.0000 0.0000 0.0000 33.8820
#
#
#
# Elastic Compliance Matrix: (Units=1/GPa)
#
#
# Indices 1 2 3 4 5 6 
#
# 1 0.009939 -0.002224 -0.002007 0.000000 0.000000 0.000000
# 2 -0.002224 0.011188 -0.002189 0.000000 0.000000 0.000000
# 3 -0.002007 -0.002189 0.011285 0.000000 0.000000 0.000000
# 4 0.000000 0.000000 0.000000 0.032879 0.000000 0.000000
# 5 0.000000 0.000000 0.000000 0.000000 0.116445 0.000000
# 6 0.000000 0.000000 0.000000 0.000000 0.000000 0.029514
#
#
# Mechanical properties :
#
#
# Convention : Reuss Voigt Hill
#
# Bulk Modulus (GPa) = 51.09483 51.31525 51.20504
# Shear Modulus (GPa) = 21.68112 30.08453 25.88282
#
# Velocity S-wave (km/s) = 3.01788 3.55494 3.29736
# Velocity P-wave (km/s) = 5.79714 6.19727 6.00054
#
# Compressibility (1/GPa) = 0.01957145
#
# Stress axis : x y z
#
# Youngs Moduli (GPa) = 100.61327 89.38047 88.61003
#
# Poissons Ratio (x) = 0.19881 0.17782
# Poissons Ratio (y) = 0.22380 0.19401
# Poissons Ratio (z) = 0.20191 0.19570
#
# Static dielectric constant tensor:
#      x y z
#    x 4.375500 0.000000 0.000000 
#    y 0.000000 4.356500 0.000000 
#    z 0.000000 0.000000 4.081670 
# 
# 
# High freq. dielectric constant tensor:
#      x y z
#    x 1.956100 0.000000 0.000000 
#    y 0.000000 1.964200 0.000000 
#    z 0.000000 0.000000 1.930710 
# 
# From -- ./inp_files/1570.got.cif
#   From: 2010.03.12/outbox.cif.g09.slc.cpg/sg19_1_cif.got.tgz:1570.got - 2010.04.10 18:59:41.
