data_PCOD8157603
_publ_section_title
;
Structure prediction by ZEFSAII (Michael W. Deem and Ramdas Pophale) SiO2 
 PCOD8157603
Probable space group: P 21 21 21
;
_chemical_formula_sum "Si O2"
_cell_formula_units_Z 24
_cell_length_a 5.050469
_cell_length_b 12.678225
_cell_length_c 15.709517
_cell_angle_alpha 90.000000
_cell_angle_beta 90.000000
_cell_angle_gamma 90.000000
_cell_volume 1005.895806
_symmetry_space_group_name_H-M "P 21 21 21"
_symmetry_group_IT_number 19
_symmetry_cell_setting 'orthorhombic'
loop_
_space_group_symop_operation_xyz
x,y,z
1/2-x,-y,1/2+z
1/2+x,1/2-y,-z
-x,1/2+y,1/2-z
loop_
_atom_site_type_symbol
_atom_site_label
_atom_site_fract_x
_atom_site_fract_y
_atom_site_fract_z
Si Si1 0.422012 0.365846 0.782936
Si Si2 0.388390 0.226604 0.947133
Si Si3 0.522134 0.631696 0.027751
Si Si4 0.766193 0.289552 0.360772
Si Si5 0.565236 0.508710 0.325646
Si Si6 0.512444 0.001438 0.976017
O O1 0.352412 0.294584 0.863251
O O2 0.410631 0.292889 0.699962
O O3 0.711021 0.415615 0.787054
O O4 0.206431 0.460271 0.777928
O O5 0.480873 0.108569 0.922349
O O6 0.604797 0.281485 0.007295
O O7 0.466251 0.733838 0.084832
O O8 0.304578 0.541360 0.040049
O O9 0.805046 0.585807 0.056544
O O10 0.520579 0.664378 0.928026
O O11 0.632782 0.385824 0.308249
O O12 0.540111 0.529938 0.425932
#
# Coordination Sequence:
#
# PCOD8157603 Si02
#       6
#     4   4   4   4   4   4
#     4  12  26  43  70 104 138 181 228 291 344 422
#     4  12  22  42  69 103 139 185 226 278 349 425
#     4  11  25  44  69 102 131 189 229 293 331 421
#     4  11  27  47  73 101 143 182 242 284 359 408
#     4  11  24  44  68  97 141 183 221 289 355 401
#     4  11  22  42  73 101 138 180 238 271 352 415
#
# _framework density 23.859328999999999
#
# number of rings (size 3 to 8) (size 9 to 14) (size 15 to 20)
#    0.000    0.667    3.333    5.000    0.000   10.667 
#    0.000    0.000    0.000    0.000    0.000    0.000 
#    0.000    0.000    0.000    0.000    0.000    0.000 
#
# Total GULP energy -297753.009929 kJ/mol
# GULP energy per Si atom -12406.375414 kJ/mol
# Density = 2.380502 g / cm^3
# Si number density = 23.859329 Si / 1000 Ang^3
#
#
#
# Elastic Constant Matrix: (Units=GPa)
#
#
# Indices 1 2 3 4 5 6 
#
# 1 66.1998 -1.6589 2.8355 0.0000 0.0000 0.0000
# 2 -1.6589 120.5711 19.2803 0.0000 0.0000 0.0000
# 3 2.8355 19.2803 52.2175 0.0000 0.0000 0.0000
# 4 0.0000 0.0000 0.0000 45.5069 0.0000 0.0000
# 5 0.0000 0.0000 0.0000 0.0000 23.6708 0.0000
# 6 0.0000 0.0000 0.0000 0.0000 0.0000 39.5926
#
#
#
# Elastic Compliance Matrix: (Units=1/GPa)
#
#
# Indices 1 2 3 4 5 6 
#
# 1 0.015156 0.000361 -0.000956 0.000000 0.000000 0.000000
# 2 0.000361 0.008823 -0.003277 0.000000 0.000000 0.000000
# 3 -0.000956 -0.003277 0.020413 0.000000 0.000000 0.000000
# 4 0.000000 0.000000 0.000000 0.021975 0.000000 0.000000
# 5 0.000000 0.000000 0.000000 0.000000 0.042246 0.000000
# 6 0.000000 0.000000 0.000000 0.000000 0.000000 0.025257
#
#
# Mechanical properties :
#
#
# Convention : Reuss Voigt Hill
#
# Bulk Modulus (GPa) = 27.28750 31.10024 29.19387
# Shear Modulus (GPa) = 32.50347 36.32282 34.41314
#
# Velocity S-wave (km/s) = 3.69493 3.90599 3.80193
# Velocity P-wave (km/s) = 5.44656 5.77975 5.61563
#
# Compressibility (1/GPa) = 0.03664682
#
# Stress axis : x y z
#
# Youngs Moduli (GPa) = 65.98126 113.34134 48.98910
#
# Poissons Ratio (x) = -0.04097 0.04686
# Poissons Ratio (y) = -0.02385 0.16055
# Poissons Ratio (z) = 0.06311 0.37146
#
# Static dielectric constant tensor:
#      x y z
#    x 4.284620 0.000000 0.000000 
#    y 0.000000 4.600100 0.000000 
#    z 0.000000 0.000000 4.155700 
# 
# 
# High freq. dielectric constant tensor:
#      x y z
#    x 1.954900 0.000000 0.000000 
#    y 0.000000 1.966880 0.000000 
#    z 0.000000 0.000000 1.920120 
# 
# From -- ./inp_files/6413.got.cif
#   From: 2010.03.12/outbox.cif.g09.slc.cpg/sg19_4_cif.got.tgz:6413.got - 2010.04.10 18:59:41.
