data_PCOD8157179
_publ_section_title
;
Structure prediction by ZEFSAII (Michael W. Deem and Ramdas Pophale) SiO2 
 PCOD8157179
Probable space group: P 21 21 21
;
_chemical_formula_sum "Si O2"
_cell_formula_units_Z 32
_cell_length_a 7.589758
_cell_length_b 30.386780
_cell_length_c 6.541048
_cell_angle_alpha 90.000000
_cell_angle_beta 90.000000
_cell_angle_gamma 90.000000
_cell_volume 1508.550824
_symmetry_space_group_name_H-M "P 21 21 21"
_symmetry_group_IT_number 19
_symmetry_cell_setting 'orthorhombic'
loop_
_space_group_symop_operation_xyz
x,y,z
1/2-x,-y,1/2+z
1/2+x,1/2-y,-z
-x,1/2+y,1/2-z
loop_
_atom_site_type_symbol
_atom_site_label
_atom_site_fract_x
_atom_site_fract_y
_atom_site_fract_z
Si Si1 0.373627 0.738972 0.752954
Si Si2 0.017392 0.101910 0.456767
Si Si3 0.022154 0.695651 0.914104
Si Si4 0.595547 0.453337 0.166384
Si Si5 0.007640 0.473553 0.916731
Si Si6 0.722812 0.695376 0.580699
Si Si7 0.881326 0.023366 0.217505
Si Si8 0.814287 0.396744 0.868771
O O1 0.538482 0.710163 0.678077
O O2 0.301662 0.768642 0.570524
O O3 0.210525 0.708623 0.820285
O O4 0.444236 0.766302 0.944201
O O5 0.943096 0.151708 0.454489
O O6 0.035845 0.087260 0.690865
O O7 0.205398 0.102490 0.339616
O O8 0.885193 0.069694 0.340405
O O9 0.873323 0.685356 0.745362
O O10 0.644401 0.495659 0.308774
O O11 0.447310 0.467830 0.008794
O O12 0.755584 0.434287 0.034674
O O13 0.183481 0.493001 0.814037
O O14 0.001877 0.421554 0.845033
O O15 0.013056 0.485005 0.159953
O O16 0.675248 0.651711 0.455896
#
# Coordination Sequence:
#
# PCOD8157179 Si02
#       8
#     4   4   4   4   4   4   4   4
#     4  12  26  45  77 102 138 191 228 292 363 426
#     4  10  23  43  66  94 134 177 215 287 344 407
#     4  12  24  47  72 101 143 181 233 290 355 426
#     4  10  22  40  65  89 128 177 216 273 340 391
#     4  11  23  41  63  92 133 178 227 280 338 416
#     4  12  25  48  70 105 141 181 241 290 355 431
#     4  10  22  43  62  92 132 176 225 276 343 405
#     4  11  25  41  67  97 133 175 233 284 342 420
#
# _framework density 21.212409999999998
#
# number of rings (size 3 to 8) (size 9 to 14) (size 15 to 20)
#    0.000    1.000    6.250    0.000    5.250    1.000 
#    6.750    0.000    0.000    0.000    0.000    0.000 
#    0.000    0.000    0.000    0.000    0.000    0.000 
#
# Total GULP energy -396505.209496 kJ/mol
# GULP energy per Si atom -12390.787797 kJ/mol
# Density = 2.116413 g / cm^3
# Si number density = 21.212410 Si / 1000 Ang^3
#
#
#
# Elastic Constant Matrix: (Units=GPa)
#
#
# Indices 1 2 3 4 5 6 
#
# 1 82.8536 28.0087 28.7963 0.0000 0.0000 0.0000
# 2 28.0087 111.8591 31.4895 0.0000 0.0000 0.0000
# 3 28.7963 31.4895 109.0184 0.0000 0.0000 0.0000
# 4 0.0000 0.0000 0.0000 40.5954 0.0000 0.0000
# 5 0.0000 0.0000 0.0000 0.0000 36.4951 0.0000
# 6 0.0000 0.0000 0.0000 0.0000 0.0000 24.9245
#
#
#
# Elastic Compliance Matrix: (Units=1/GPa)
#
#
# Indices 1 2 3 4 5 6 
#
# 1 0.013991 -0.002681 -0.002921 0.000000 0.000000 0.000000
# 2 -0.002681 0.010245 -0.002251 0.000000 0.000000 0.000000
# 3 -0.002921 -0.002251 0.010595 0.000000 0.000000 0.000000
# 4 0.000000 0.000000 0.000000 0.024633 0.000000 0.000000
# 5 0.000000 0.000000 0.000000 0.000000 0.027401 0.000000
# 6 0.000000 0.000000 0.000000 0.000000 0.000000 0.040121
#
#
# Mechanical properties :
#
#
# Convention : Reuss Voigt Hill
#
# Bulk Modulus (GPa) = 52.29007 53.36887 52.82947
# Shear Modulus (GPa) = 33.54198 34.76544 34.15371
#
# Velocity S-wave (km/s) = 3.98080 4.05275 4.01694
# Velocity P-wave (km/s) = 6.77002 6.86393 6.81714
#
# Compressibility (1/GPa) = 0.01912409
#
# Stress axis : x y z
#
# Youngs Moduli (GPa) = 71.47420 97.61067 94.38786
#
# Poissons Ratio (x) = 0.26168 0.27573
# Poissons Ratio (y) = 0.19161 0.21247
# Poissons Ratio (z) = 0.20879 0.21972
#
# Static dielectric constant tensor:
#      x y z
#    x 3.934790 0.000000 0.000000 
#    y 0.000000 3.925080 0.000000 
#    z 0.000000 0.000000 4.129860 
# 
# 
# High freq. dielectric constant tensor:
#      x y z
#    x 1.825280 0.000000 0.000000 
#    y 0.000000 1.838580 0.000000 
#    z 0.000000 0.000000 1.850710 
# 
# From -- ./inp_files/699.got.cif
#   From: 2010.03.12/outbox.cif.g09.slc.cpg/sg19_1_cif.got.tgz:699.got - 2010.04.10 18:59:41.
