data_PCOD8157703
_publ_section_title
;
Structure prediction by ZEFSAII (Michael W. Deem and Ramdas Pophale) SiO2 
 PCOD8157703
Probable space group: P 21 21 21
;
_chemical_formula_sum "Si O2"
_cell_formula_units_Z 28
_cell_length_a 17.376536
_cell_length_b 11.297866
_cell_length_c 6.213626
_cell_angle_alpha 90.000000
_cell_angle_beta 90.000000
_cell_angle_gamma 90.000000
_cell_volume 1219.845233
_symmetry_space_group_name_H-M "P 21 21 21"
_symmetry_group_IT_number 19
_symmetry_cell_setting 'orthorhombic'
loop_
_space_group_symop_operation_xyz
x,y,z
1/2-x,-y,1/2+z
1/2+x,1/2-y,-z
-x,1/2+y,1/2-z
loop_
_atom_site_type_symbol
_atom_site_label
_atom_site_fract_x
_atom_site_fract_y
_atom_site_fract_z
Si Si1 0.088852 0.795231 0.725501
Si Si2 0.471538 0.641653 0.940785
Si Si3 0.707719 0.128417 0.102946
Si Si4 0.723070 0.712209 0.947970
Si Si5 0.384492 0.070147 0.814353
Si Si6 0.356352 0.811964 0.740870
Si Si7 0.635206 0.951537 0.392725
O O1 0.116129 0.904417 0.571841
O O2 0.083947 0.668057 0.608948
O O3 0.147442 0.760657 0.915219
O O4 0.007369 0.835775 0.822699
O O5 0.538445 0.634144 0.765232
O O6 0.421396 0.753658 0.883377
O O7 0.413363 0.530492 0.940555
O O8 0.739794 0.174184 0.332390
O O9 0.646862 0.024149 0.166381
O O10 0.665199 0.233730 0.969257
O O11 0.778223 0.076863 0.968132
O O12 0.697238 0.622128 0.762701
O O13 0.783498 0.657425 0.111586
O O14 0.390591 0.941891 0.701699
#
# Coordination Sequence:
#
# PCOD8157703 Si02
#       7
#     4   4   4   4   4   4   4
#     4  11  26  49  69 107 145 199 240 302 376 437
#     4  11  29  44  68 112 142 202 244 298 378 437
#     4  12  25  46  75 116 144 189 249 321 374 436
#     4  11  23  47  70 111 139 187 252 302 373 431
#     4  11  28  46  75 101 158 195 247 309 370 451
#     4  12  27  46  75 112 147 198 252 307 374 446
#     4  12  24  46  76 101 151 186 248 309 367 442
#
# _framework density 22.953731000000001
#
# number of rings (size 3 to 8) (size 9 to 14) (size 15 to 20)
#    0.000    0.571    4.286    1.714   10.000    1.143 
#    0.000    0.000    0.000    0.000    0.000    0.000 
#    0.000    0.000    0.000    0.000    0.000    0.000 
#
# Total GULP energy -346971.759662 kJ/mol
# GULP energy per Si atom -12391.848559 kJ/mol
# Density = 2.290149 g / cm^3
# Si number density = 22.953731 Si / 1000 Ang^3
#
#
#
# Elastic Constant Matrix: (Units=GPa)
#
#
# Indices 1 2 3 4 5 6 
#
# 1 73.2237 17.6860 13.9768 0.0000 0.0000 0.0000
# 2 17.6860 108.2855 20.3874 0.0000 0.0000 0.0000
# 3 13.9768 20.3874 88.7215 0.0000 0.0000 0.0000
# 4 0.0000 0.0000 0.0000 33.1699 0.0000 0.0000
# 5 0.0000 0.0000 0.0000 0.0000 42.4600 0.0000
# 6 0.0000 0.0000 0.0000 0.0000 0.0000 21.8792
#
#
#
# Elastic Compliance Matrix: (Units=1/GPa)
#
#
# Indices 1 2 3 4 5 6 
#
# 1 0.014493 -0.002025 -0.001818 0.000000 0.000000 0.000000
# 2 -0.002025 0.009935 -0.001964 0.000000 0.000000 0.000000
# 3 -0.001818 -0.001964 0.012009 0.000000 0.000000 0.000000
# 4 0.000000 0.000000 0.000000 0.030148 0.000000 0.000000
# 5 0.000000 0.000000 0.000000 0.000000 0.023552 0.000000
# 6 0.000000 0.000000 0.000000 0.000000 0.000000 0.045706
#
#
# Mechanical properties :
#
#
# Convention : Reuss Voigt Hill
#
# Bulk Modulus (GPa) = 40.28423 41.59235 40.93829
# Shear Modulus (GPa) = 32.10683 34.04717 33.07700
#
# Velocity S-wave (km/s) = 3.74406 3.85554 3.80021
# Velocity P-wave (km/s) = 6.02320 6.16276 6.09338
#
# Compressibility (1/GPa) = 0.02482361
#
# Stress axis : x y z
#
# Youngs Moduli (GPa) = 68.99962 100.65078 83.27134
#
# Poissons Ratio (x) = 0.20380 0.15137
# Poissons Ratio (y) = 0.13971 0.16355
# Poissons Ratio (z) = 0.12543 0.19769
#
# Static dielectric constant tensor:
#      x y z
#    x 4.258980 0.000000 0.000000 
#    y 0.000000 4.183220 0.000000 
#    z 0.000000 0.000000 4.202750 
# 
# 
# High freq. dielectric constant tensor:
#      x y z
#    x 1.914850 0.000000 0.000000 
#    y 0.000000 1.907570 0.000000 
#    z 0.000000 0.000000 1.903350 
# 
# From -- ./inp_files/1014.got.cif
#   From: 2010.03.12/outbox.cif.g09.slc.cpg/sg19_1_cif.got.tgz:1014.got - 2010.04.10 18:59:41.
