data_PCOD8157200
_publ_section_title
;
Structure prediction by ZEFSAII (Michael W. Deem and Ramdas Pophale) SiO2 
 PCOD8157200
Probable space group: P 21 21 21
;
_chemical_formula_sum "Si O2"
_cell_formula_units_Z 28
_cell_length_a 11.295904
_cell_length_b 22.586030
_cell_length_c 5.070674
_cell_angle_alpha 90.000000
_cell_angle_beta 90.000000
_cell_angle_gamma 90.000000
_cell_volume 1293.679164
_symmetry_space_group_name_H-M "P 21 21 21"
_symmetry_group_IT_number 19
_symmetry_cell_setting 'orthorhombic'
loop_
_space_group_symop_operation_xyz
x,y,z
1/2-x,-y,1/2+z
1/2+x,1/2-y,-z
-x,1/2+y,1/2-z
loop_
_atom_site_type_symbol
_atom_site_label
_atom_site_fract_x
_atom_site_fract_y
_atom_site_fract_z
Si Si1 0.036106 0.050727 0.466422
Si Si2 0.623008 0.855251 0.118868
Si Si3 0.078261 0.115674 0.957257
Si Si4 0.908561 0.265889 0.391797
Si Si5 0.197889 0.820159 0.615676
Si Si6 0.898707 0.861521 0.116198
Si Si7 0.505823 0.584052 0.380145
O O1 0.905520 0.081400 0.481508
O O2 0.119795 0.084521 0.681961
O O3 0.082603 0.062824 0.172787
O O4 0.029931 0.982828 0.540479
O O5 0.565906 0.803271 0.938812
O O6 0.553589 0.856007 0.403991
O O7 0.761739 0.845368 0.129483
O O8 0.165770 0.168380 0.041334
O O9 0.810517 0.287854 0.603622
O O10 0.030490 0.301199 0.441728
O O11 0.859823 0.276657 0.099491
O O12 0.131990 0.883379 0.628379
O O13 0.923922 0.886758 0.401932
O O14 0.935059 0.910187 0.895932
#
# Coordination Sequence:
#
# PCOD8157200 Si02
#       7
#     4   4   4   4   4   4   4
#     4  10  23  39  62  94 125 162 211 255 318 366
#     4  10  26  39  63  93 127 160 217 251 323 367
#     4  10  23  39  59  96 121 163 203 263 311 371
#     4  10  23  40  62  92 119 170 202 264 311 382
#     4  10  22  41  63  90 127 163 213 255 322 369
#     4  10  23  40  64  89 124 163 211 255 311 373
#     4  10  22  42  63  92 123 167 211 253 312 378
#
# _framework density 21.643697
#
# number of rings (size 3 to 8) (size 9 to 14) (size 15 to 20)
#    0.857    1.143    0.000    1.714    6.000    2.286 
#    2.571    0.000    0.000    0.000    0.000    0.000 
#    0.000    0.000    0.000    0.000    0.000    0.000 
#
# Total GULP energy -347027.961022 kJ/mol
# GULP energy per Si atom -12393.855751 kJ/mol
# Density = 2.159443 g / cm^3
# Si number density = 21.643697 Si / 1000 Ang^3
#
#
#
# Elastic Constant Matrix: (Units=GPa)
#
#
# Indices 1 2 3 4 5 6 
#
# 1 74.6421 -10.1082 21.1720 0.0000 0.0000 0.0000
# 2 -10.1082 38.1331 -17.9402 0.0000 0.0000 0.0000
# 3 21.1720 -17.9402 70.9647 0.0000 0.0000 0.0000
# 4 0.0000 0.0000 0.0000 18.9038 0.0000 0.0000
# 5 0.0000 0.0000 0.0000 0.0000 24.8772 0.0000
# 6 0.0000 0.0000 0.0000 0.0000 0.0000 18.1478
#
#
#
# Elastic Compliance Matrix: (Units=1/GPa)
#
#
# Indices 1 2 3 4 5 6 
#
# 1 0.014781 0.002092 -0.003881 0.000000 0.000000 0.000000
# 2 0.002092 0.030060 0.006975 0.000000 0.000000 0.000000
# 3 -0.003881 0.006975 0.017013 0.000000 0.000000 0.000000
# 4 0.000000 0.000000 0.000000 0.052899 0.000000 0.000000
# 5 0.000000 0.000000 0.000000 0.000000 0.040197 0.000000
# 6 0.000000 0.000000 0.000000 0.000000 0.000000 0.055103
#
#
# Mechanical properties :
#
#
# Convention : Reuss Voigt Hill
#
# Bulk Modulus (GPa) = 13.84524 18.88747 16.36636
# Shear Modulus (GPa) = 22.34567 25.09352 23.71960
#
# Velocity S-wave (km/s) = 3.21664 3.40868 3.31405
# Velocity P-wave (km/s) = 4.49516 4.92317 4.71402
#
# Compressibility (1/GPa) = 0.07222698
#
# Stress axis : x y z
#
# Youngs Moduli (GPa) = 67.65237 33.26674 58.77955
#
# Poissons Ratio (x) = -0.06961 0.22812
# Poissons Ratio (y) = -0.14155 -0.40999
# Poissons Ratio (z) = 0.26256 -0.23204
#
# Static dielectric constant tensor:
#      x y z
#    x 3.616720 0.000000 0.000000 
#    y 0.000000 3.775250 0.000000 
#    z 0.000000 0.000000 4.111550 
# 
# 
# High freq. dielectric constant tensor:
#      x y z
#    x 1.828590 0.000000 0.000000 
#    y 0.000000 1.845760 0.000000 
#    z 0.000000 0.000000 1.865980 
# 
# From -- ./inp_files/1103.got.cif
#   From: 2010.03.12/outbox.cif.g09.slc.cpg/sg19_1_cif.got.tgz:1103.got - 2010.04.10 18:59:41.
