data_PCOD8157032
_publ_section_title
;
Structure prediction by ZEFSAII (Michael W. Deem and Ramdas Pophale) SiO2 
 PCOD8157032
Probable space group: P 21 21 21
;
_chemical_formula_sum "Si O2"
_cell_formula_units_Z 28
_cell_length_a 13.744505
_cell_length_b 10.412376
_cell_length_c 9.946744
_cell_angle_alpha 90.000000
_cell_angle_beta 90.000000
_cell_angle_gamma 90.000000
_cell_volume 1423.507916
_symmetry_space_group_name_H-M "P 21 21 21"
_symmetry_group_IT_number 19
_symmetry_cell_setting 'orthorhombic'
loop_
_space_group_symop_operation_xyz
x,y,z
1/2-x,-y,1/2+z
1/2+x,1/2-y,-z
-x,1/2+y,1/2-z
loop_
_atom_site_type_symbol
_atom_site_label
_atom_site_fract_x
_atom_site_fract_y
_atom_site_fract_z
Si Si1 0.733625 0.100316 0.570770
Si Si2 0.873733 0.485632 0.231410
Si Si3 0.755452 0.287849 0.803656
Si Si4 0.657786 0.162039 0.056279
Si Si5 0.426955 0.424610 0.848981
Si Si6 0.781778 0.230438 0.306461
Si Si7 0.066115 0.826942 0.521636
O O1 0.773099 0.169076 0.704322
O O2 0.730703 0.197953 0.446540
O O3 0.802986 0.981169 0.539371
O O4 0.623116 0.052908 0.593155
O O5 0.795414 0.599040 0.218614
O O6 0.828115 0.371134 0.318978
O O7 0.906703 0.436702 0.085631
O O8 0.964480 0.542266 0.311268
O O9 0.686267 0.246322 0.926949
O O10 0.859900 0.338055 0.854159
O O11 0.702594 0.229790 0.187300
O O12 0.542395 0.153308 0.074288
O O13 0.366412 0.374491 0.720206
O O14 0.421760 0.314405 0.960787
#
# Coordination Sequence:
#
# PCOD8157032 Si02
#       7
#     4   4   4   4   4   4   4
#     4  11  23  41  66  94 128 171 223 260 334 399
#     4  11  23  41  66  94 132 170 222 269 330 395
#     4  12  24  42  67  95 133 177 210 281 333 387
#     4  11  21  46  69  88 133 171 221 278 322 393
#     4  10  21  39  71  89 126 171 224 261 328 394
#     4  10  23  41  63  97 129 170 214 276 325 392
#     4  11  23  44  66  99 127 180 224 269 338 394
#
# _framework density 19.669718
#
# number of rings (size 3 to 8) (size 9 to 14) (size 15 to 20)
#    0.000    1.143    5.714    3.429    4.000    0.000 
#    5.143    0.000    0.000    0.000    0.000    0.000 
#    0.000    0.000    0.000    0.000    0.000    0.000 
#
# Total GULP energy -347312.263989 kJ/mol
# GULP energy per Si atom -12404.009428 kJ/mol
# Density = 1.962495 g / cm^3
# Si number density = 19.669718 Si / 1000 Ang^3
#
#
#
# Elastic Constant Matrix: (Units=GPa)
#
#
# Indices 1 2 3 4 5 6 
#
# 1 106.1115 36.6991 32.6625 0.0000 0.0000 0.0000
# 2 36.6991 77.2236 25.1121 0.0000 0.0000 0.0000
# 3 32.6625 25.1121 85.7827 0.0000 0.0000 0.0000
# 4 0.0000 0.0000 0.0000 22.2200 0.0000 0.0000
# 5 0.0000 0.0000 0.0000 0.0000 14.5114 0.0000
# 6 0.0000 0.0000 0.0000 0.0000 0.0000 26.4255
#
#
#
# Elastic Compliance Matrix: (Units=1/GPa)
#
#
# Indices 1 2 3 4 5 6 
#
# 1 0.012029 -0.004672 -0.003212 0.000000 0.000000 0.000000
# 2 -0.004672 0.016126 -0.002942 0.000000 0.000000 0.000000
# 3 -0.003212 -0.002942 0.013742 0.000000 0.000000 0.000000
# 4 0.000000 0.000000 0.000000 0.045004 0.000000 0.000000
# 5 0.000000 0.000000 0.000000 0.000000 0.068911 0.000000
# 6 0.000000 0.000000 0.000000 0.000000 0.000000 0.037842
#
#
# Mechanical properties :
#
#
# Convention : Reuss Voigt Hill
#
# Bulk Modulus (GPa) = 49.39652 50.89615 50.14633
# Shear Modulus (GPa) = 22.51694 24.27432 23.39563
#
# Velocity S-wave (km/s) = 3.38709 3.51678 3.45254
# Velocity P-wave (km/s) = 6.36113 6.51321 6.43762
#
# Compressibility (1/GPa) = 0.02024434
#
# Stress axis : x y z
#
# Youngs Moduli (GPa) = 83.13508 62.01057 72.77087
#
# Poissons Ratio (x) = 0.28970 0.23377
# Poissons Ratio (y) = 0.38839 0.21409
# Poissons Ratio (z) = 0.26706 0.18244
#
# Static dielectric constant tensor:
#      x y z
#    x 3.674300 0.000000 0.000000 
#    y 0.000000 3.625230 0.000000 
#    z 0.000000 0.000000 3.453640 
# 
# 
# High freq. dielectric constant tensor:
#      x y z
#    x 1.769550 0.000000 0.000000 
#    y 0.000000 1.774400 0.000000 
#    z 0.000000 0.000000 1.756120 
# 
# From -- ./inp_files/3908.got.cif
#   From: 2010.03.12/outbox.cif.g09.slc.cpg/sg19_2_cif.got.tgz:3908.got - 2010.04.10 18:59:41.
