data_PCOD8157915
_publ_section_title
;
Structure prediction by ZEFSAII (Michael W. Deem and Ramdas Pophale) SiO2 
 PCOD8157915
Probable space group: P 21 21 21
;
_chemical_formula_sum "Si O2"
_cell_formula_units_Z 28
_cell_length_a 5.354791
_cell_length_b 8.813928
_cell_length_c 22.957395
_cell_angle_alpha 90.000000
_cell_angle_beta 90.000000
_cell_angle_gamma 90.000000
_cell_volume 1083.514256
_symmetry_space_group_name_H-M "P 21 21 21"
_symmetry_group_IT_number 19
_symmetry_cell_setting 'orthorhombic'
loop_
_space_group_symop_operation_xyz
x,y,z
1/2-x,-y,1/2+z
1/2+x,1/2-y,-z
-x,1/2+y,1/2-z
loop_
_atom_site_type_symbol
_atom_site_label
_atom_site_fract_x
_atom_site_fract_y
_atom_site_fract_z
Si Si1 0.649655 0.068914 0.544345
Si Si2 0.021207 0.898735 0.361671
Si Si3 0.867830 0.890437 0.818886
Si Si4 0.892752 0.071803 0.165853
Si Si5 0.612837 0.442562 0.277105
Si Si6 0.140071 0.883929 0.930885
Si Si7 0.375215 0.670721 0.519992
O O1 0.433908 0.071661 0.495825
O O2 0.687982 0.236736 0.567981
O O3 0.563619 0.966424 0.598288
O O4 0.893009 0.995314 0.512194
O O5 0.125509 0.754279 0.326220
O O6 0.819480 0.843436 0.410662
O O7 0.894401 0.017620 0.316615
O O8 0.227985 0.972283 0.402922
O O9 0.855554 0.739089 0.779966
O O10 0.915255 0.845150 0.886055
O O11 0.080929 0.001576 0.790403
O O12 0.137531 0.016945 0.199137
O O13 0.638510 0.995464 0.189223
O O14 0.626894 0.760029 0.508240
#
# Coordination Sequence:
#
# PCOD8157915 Si02
#       7
#     4   4   4   4   4   4   4
#     4  12  26  48  79 114 169 207 270 333 419 507
#     4  12  28  48  80 115 164 210 279 333 414 494
#     4  12  29  53  85 115 168 214 293 342 430 486
#     4  12  30  49  86 118 164 215 279 338 426 489
#     4  12  31  55  82 121 158 222 277 356 404 504
#     4  12  28  49  77 120 162 220 263 347 415 511
#     4  12  26  44  73 113 157 208 253 319 396 483
#
# _framework density 25.841837999999999
#
# number of rings (size 3 to 8) (size 9 to 14) (size 15 to 20)
#    0.000    0.000    4.286    3.429   10.000    0.000 
#    0.000    0.000    0.000    0.000    0.000    0.000 
#    0.000    0.000    0.000    0.000    0.000    0.000 
#
# Total GULP energy -347172.153728 kJ/mol
# GULP energy per Si atom -12399.005490 kJ/mol
# Density = 2.578302 g / cm^3
# Si number density = 25.841838 Si / 1000 Ang^3
#
#
#
# Elastic Constant Matrix: (Units=GPa)
#
#
# Indices 1 2 3 4 5 6 
#
# 1 117.0880 43.8288 37.1739 0.0000 0.0000 0.0000
# 2 43.8288 171.1172 25.4989 0.0000 0.0000 0.0000
# 3 37.1739 25.4989 105.7911 0.0000 0.0000 0.0000
# 4 0.0000 0.0000 0.0000 39.1099 0.0000 0.0000
# 5 0.0000 0.0000 0.0000 0.0000 44.2206 0.0000
# 6 0.0000 0.0000 0.0000 0.0000 0.0000 34.4592
#
#
#
# Elastic Compliance Matrix: (Units=1/GPa)
#
#
# Indices 1 2 3 4 5 6 
#
# 1 0.010346 -0.002187 -0.003108 0.000000 0.000000 0.000000
# 2 -0.002187 0.006524 -0.000804 0.000000 0.000000 0.000000
# 3 -0.003108 -0.000804 0.010739 0.000000 0.000000 0.000000
# 4 0.000000 0.000000 0.000000 0.025569 0.000000 0.000000
# 5 0.000000 0.000000 0.000000 0.000000 0.022614 0.000000
# 6 0.000000 0.000000 0.000000 0.000000 0.000000 0.029020
#
#
# Mechanical properties :
#
#
# Convention : Reuss Voigt Hill
#
# Bulk Modulus (GPa) = 64.89249 67.44440 66.16844
# Shear Modulus (GPa) = 40.93452 42.72428 41.82940
#
# Velocity S-wave (km/s) = 3.98432 4.07049 4.02763
# Velocity P-wave (km/s) = 6.80678 6.94604 6.87676
#
# Compressibility (1/GPa) = 0.01541010
#
# Stress axis : x y z
#
# Youngs Moduli (GPa) = 96.65556 153.28341 93.12156
#
# Poissons Ratio (x) = 0.33519 0.28946
# Poissons Ratio (y) = 0.21136 0.07487
# Poissons Ratio (z) = 0.30044 0.12325
#
# Static dielectric constant tensor:
#      x y z
#    x 4.493980 0.000000 0.000000 
#    y 0.000000 5.158740 0.000000 
#    z 0.000000 0.000000 5.371780 
# 
# 
# High freq. dielectric constant tensor:
#      x y z
#    x 2.024630 0.000000 0.000000 
#    y 0.000000 2.055230 0.000000 
#    z 0.000000 0.000000 2.057780 
# 
# From -- ./inp_files/7268.got.cif
#   From: 2010.03.12/outbox.cif.g09.slc.cpg/sg19_4_cif.got.tgz:7268.got - 2010.04.10 18:59:41.
