data_PCOD8157417
_publ_section_title
;
Structure prediction by ZEFSAII (Michael W. Deem and Ramdas Pophale) SiO2 
 PCOD8157417
Probable space group: P 21 21 21
;
_chemical_formula_sum "Si O2"
_cell_formula_units_Z 32
_cell_length_a 11.923375
_cell_length_b 5.790350
_cell_length_c 19.669735
_cell_angle_alpha 90.000000
_cell_angle_beta 90.000000
_cell_angle_gamma 90.000000
_cell_volume 1358.008623
_symmetry_space_group_name_H-M "P 21 21 21"
_symmetry_group_IT_number 19
_symmetry_cell_setting 'orthorhombic'
loop_
_space_group_symop_operation_xyz
x,y,z
1/2-x,-y,1/2+z
1/2+x,1/2-y,-z
-x,1/2+y,1/2-z
loop_
_atom_site_type_symbol
_atom_site_label
_atom_site_fract_x
_atom_site_fract_y
_atom_site_fract_z
Si Si1 0.984466 0.663279 0.210383
Si Si2 0.632318 0.843503 0.316070
Si Si3 0.316724 0.645835 0.010524
Si Si4 0.650402 0.046188 0.885146
Si Si5 0.709355 0.454241 0.616532
Si Si6 0.928020 0.340796 0.674140
Si Si7 0.040514 0.010639 0.581613
Si Si8 0.039243 0.737204 0.451619
O O1 0.860079 0.666209 0.177714
O O2 0.000616 0.911313 0.249244
O O3 0.071335 0.656091 0.146307
O O4 0.762785 0.900910 0.324920
O O5 0.623212 0.707069 0.247075
O O6 0.596035 0.704060 0.381856
O O7 0.552069 0.064520 0.314112
O O8 0.213290 0.510755 0.044166
O O9 0.361701 0.801609 0.072064
O O10 0.272466 0.781511 0.945968
O O11 0.426352 0.498266 0.987642
O O12 0.569428 0.269119 0.901808
O O13 0.836417 0.514370 0.640859
O O14 0.649006 0.686240 0.591364
O O15 0.938787 0.112863 0.626853
O O16 0.002158 0.930607 0.506844
#
# Coordination Sequence:
#
# PCOD8157417 Si02
#       8
#     4   4   4   4   4   4   4   4
#     4  11  27  51  77 110 152 200 255 310 378 453
#     4  12  25  44  67 104 136 189 240 287 367 432
#     4  11  23  45  70 103 139 183 239 297 372 437
#     4  11  24  46  75 105 144 195 238 310 374 450
#     4  10  26  43  70 105 136 189 241 306 372 434
#     4  12  24  44  68  95 141 183 234 301 348 441
#     4  11  22  44  66 100 138 177 237 288 363 432
#     4  10  23  45  69 104 138 176 236 301 366 447
#
# _framework density 23.563915000000001
#
# number of rings (size 3 to 8) (size 9 to 14) (size 15 to 20)
#    0.000    1.000    3.750    1.500    3.500    6.000 
#    4.500    0.000    0.000    0.000    0.000    0.000 
#    0.000    0.000    0.000    0.000    0.000    0.000 
#
# Total GULP energy -396502.348619 kJ/mol
# GULP energy per Si atom -12390.698394 kJ/mol
# Density = 2.351028 g / cm^3
# Si number density = 23.563915 Si / 1000 Ang^3
#
#
#
# Elastic Constant Matrix: (Units=GPa)
#
#
# Indices 1 2 3 4 5 6 
#
# 1 113.6795 6.9324 22.9941 0.0000 0.0000 0.0000
# 2 6.9324 52.9858 9.2101 0.0000 0.0000 0.0000
# 3 22.9941 9.2101 89.1494 0.0000 0.0000 0.0000
# 4 0.0000 0.0000 0.0000 27.8387 0.0000 0.0000
# 5 0.0000 0.0000 0.0000 0.0000 38.5960 0.0000
# 6 0.0000 0.0000 0.0000 0.0000 0.0000 15.8477
#
#
#
# Elastic Compliance Matrix: (Units=1/GPa)
#
#
# Indices 1 2 3 4 5 6 
#
# 1 0.009315 -0.000816 -0.002318 0.000000 0.000000 0.000000
# 2 -0.000816 0.019290 -0.001782 0.000000 0.000000 0.000000
# 3 -0.002318 -0.001782 0.011999 0.000000 0.000000 0.000000
# 4 0.000000 0.000000 0.000000 0.035921 0.000000 0.000000
# 5 0.000000 0.000000 0.000000 0.000000 0.025909 0.000000
# 6 0.000000 0.000000 0.000000 0.000000 0.000000 0.063101
#
#
# Mechanical properties :
#
#
# Convention : Reuss Voigt Hill
#
# Bulk Modulus (GPa) = 32.49819 37.12088 34.80954
# Shear Modulus (GPa) = 26.93595 30.90169 28.91882
#
# Velocity S-wave (km/s) = 3.38465 3.62525 3.50701
# Velocity P-wave (km/s) = 5.39406 5.77155 5.58599
#
# Compressibility (1/GPa) = 0.03077094
#
# Stress axis : x y z
#
# Youngs Moduli (GPa) = 107.34965 51.84164 83.33857
#
# Poissons Ratio (x) = 0.04229 0.19321
# Poissons Ratio (y) = 0.08757 0.14854
# Poissons Ratio (z) = 0.24888 0.09240
#
# Static dielectric constant tensor:
#      x y z
#    x 4.492160 0.000000 0.000000 
#    y 0.000000 4.013650 0.000000 
#    z 0.000000 0.000000 4.519510 
# 
# 
# High freq. dielectric constant tensor:
#      x y z
#    x 1.939250 0.000000 0.000000 
#    y 0.000000 1.904180 0.000000 
#    z 0.000000 0.000000 1.956990 
# 
# From -- ./inp_files/7146.got.cif
#   From: 2010.03.12/outbox.cif.g09.slc.cpg/sg19_4_cif.got.tgz:7146.got - 2010.04.10 18:59:41.
