data_PCOD8157244
_publ_section_title
;
Structure prediction by ZEFSAII (Michael W. Deem and Ramdas Pophale) SiO2 
 PCOD8157244
Probable space group: P 21 21 21
;
_chemical_formula_sum "Si O2"
_cell_formula_units_Z 20
_cell_length_a 8.118660
_cell_length_b 5.144807
_cell_length_c 22.974783
_cell_angle_alpha 90.000000
_cell_angle_beta 90.000000
_cell_angle_gamma 90.000000
_cell_volume 959.632305
_symmetry_space_group_name_H-M "P 21 21 21"
_symmetry_group_IT_number 19
_symmetry_cell_setting 'orthorhombic'
loop_
_space_group_symop_operation_xyz
x,y,z
1/2-x,-y,1/2+z
1/2+x,1/2-y,-z
-x,1/2+y,1/2-z
loop_
_atom_site_type_symbol
_atom_site_label
_atom_site_fract_x
_atom_site_fract_y
_atom_site_fract_z
Si Si1 0.639386 0.643178 0.307431
Si Si2 0.400659 0.449923 0.532232
Si Si3 0.892182 0.538014 0.400665
Si Si4 0.930500 0.355756 0.677363
Si Si5 0.211267 0.284511 0.424453
O O1 0.816002 0.600072 0.337655
O O2 0.667662 0.623717 0.238317
O O3 0.513241 0.424715 0.328767
O O4 0.567258 0.920541 0.326618
O O5 0.348599 0.730879 0.555024
O O6 0.344277 0.425918 0.465440
O O7 0.598760 0.410646 0.536665
O O8 0.314158 0.225951 0.572043
O O9 0.090570 0.500344 0.394484
O O10 0.800773 0.384003 0.625165
#
# Coordination Sequence:
#
# PCOD8157244 Si02
#       5
#     4   4   4   4   4
#     4  10  22  42  65  92 121 167 208 260 314 376
#     4  10  25  39  60  94 125 169 204 262 307 383
#     4  10  24  40  62  92 122 167 205 263 310 371
#     4  10  23  41  66  91 124 164 211 257 315 378
#     4  10  26  40  63  95 128 167 212 256 322 366
#
# _framework density 20.841317
#
# number of rings (size 3 to 8) (size 9 to 14) (size 15 to 20)
#    1.200    0.800    0.000    1.200   11.200    0.000 
#    3.600    0.000    0.000    0.000    0.000    0.000 
#    0.000    0.000    0.000    0.000    0.000    0.000 
#
# Total GULP energy -247909.625422 kJ/mol
# GULP energy per Si atom -12395.481271 kJ/mol
# Density = 2.079388 g / cm^3
# Si number density = 20.841317 Si / 1000 Ang^3
#
#
#
# Elastic Constant Matrix: (Units=GPa)
#
#
# Indices 1 2 3 4 5 6 
#
# 1 90.7915 9.8647 69.3653 0.0000 0.0000 0.0000
# 2 9.8647 96.3036 13.5096 0.0000 0.0000 0.0000
# 3 69.3653 13.5096 107.4605 0.0000 0.0000 0.0000
# 4 0.0000 0.0000 0.0000 26.4839 0.0000 0.0000
# 5 0.0000 0.0000 0.0000 0.0000 48.5233 0.0000
# 6 0.0000 0.0000 0.0000 0.0000 0.0000 19.4782
#
#
#
# Elastic Compliance Matrix: (Units=1/GPa)
#
#
# Indices 1 2 3 4 5 6 
#
# 1 0.021738 -0.000263 -0.013999 0.000000 0.000000 0.000000
# 2 -0.000263 0.010573 -0.001160 0.000000 0.000000 0.000000
# 3 -0.013999 -0.001160 0.018488 0.000000 0.000000 0.000000
# 4 0.000000 0.000000 0.000000 0.037759 0.000000 0.000000
# 5 0.000000 0.000000 0.000000 0.000000 0.020609 0.000000
# 6 0.000000 0.000000 0.000000 0.000000 0.000000 0.051339
#
#
# Mechanical properties :
#
#
# Convention : Reuss Voigt Hill
#
# Bulk Modulus (GPa) = 50.10863 53.33722 51.72292
# Shear Modulus (GPa) = 25.25251 32.35150 28.80201
#
# Velocity S-wave (km/s) = 3.48466 3.94417 3.72151
# Velocity P-wave (km/s) = 6.34709 6.81099 6.58313
#
# Compressibility (1/GPa) = 0.01995664
#
# Stress axis : x y z
#
# Youngs Moduli (GPa) = 46.00267 94.57671 54.09034
#
# Poissons Ratio (x) = 0.02487 0.75719
# Poissons Ratio (y) = 0.01210 0.06272
# Poissons Ratio (z) = 0.64398 0.10967
#
# Static dielectric constant tensor:
#      x y z
#    x 3.478120 0.000000 0.000000 
#    y 0.000000 3.743290 0.000000 
#    z 0.000000 0.000000 3.650210 
# 
# 
# High freq. dielectric constant tensor:
#      x y z
#    x 1.794670 0.000000 0.000000 
#    y 0.000000 1.822950 0.000000 
#    z 0.000000 0.000000 1.810910 
# 
# From -- ./inp_files/443.got.cif
#   From: 2010.03.12/outbox.cif.g09.slc.cpg/sg19_1_cif.got.tgz:443.got - 2010.04.10 18:59:41.
