data_PCOD8157574
_publ_section_title
;
Structure prediction by ZEFSAII (Michael W. Deem and Ramdas Pophale) SiO2 
 PCOD8157574
Probable space group: P 21 21 21
;
_chemical_formula_sum "Si O2"
_cell_formula_units_Z 20
_cell_length_a 9.503338
_cell_length_b 6.386134
_cell_length_c 14.386949
_cell_angle_alpha 90.000000
_cell_angle_beta 90.000000
_cell_angle_gamma 90.000000
_cell_volume 873.138035
_symmetry_space_group_name_H-M "P 21 21 21"
_symmetry_group_IT_number 19
_symmetry_cell_setting 'orthorhombic'
loop_
_space_group_symop_operation_xyz
x,y,z
1/2-x,-y,1/2+z
1/2+x,1/2-y,-z
-x,1/2+y,1/2-z
loop_
_atom_site_type_symbol
_atom_site_label
_atom_site_fract_x
_atom_site_fract_y
_atom_site_fract_z
Si Si1 0.862287 0.930473 0.950002
Si Si2 0.163586 0.313381 0.177284
Si Si3 0.632383 0.891808 0.645382
Si Si4 0.916372 0.686208 0.645114
Si Si5 0.121020 0.034330 0.659030
O O1 0.738503 0.079595 0.911125
O O2 0.017174 0.990587 0.909964
O O3 0.826837 0.693143 0.920767
O O4 0.872477 0.944092 0.060969
O O5 0.165120 0.476713 0.262146
O O6 0.249407 0.101914 0.200056
O O7 0.006538 0.247356 0.152518
O O8 0.752385 0.719367 0.624783
O O9 0.944244 0.662508 0.755138
O O10 0.001062 0.892344 0.612633
#
# Coordination Sequence:
#
# PCOD8157574 Si02
#       5
#     4   4   4   4   4
#     4  11  25  45  72 101 133 185 239 273 342 418
#     4  11  26  47  66 104 143 179 226 285 352 400
#     4  12  25  46  69 101 145 181 221 293 344 408
#     4  11  21  42  70  96 133 177 226 282 337 400
#     4  11  21  44  69  96 130 176 230 281 335 410
#
# _framework density 22.905885999999999
#
# number of rings (size 3 to 8) (size 9 to 14) (size 15 to 20)
#    0.000    0.800    4.000    3.600    0.000    1.600 
#   14.400    0.000    0.000    0.000    0.000    0.000 
#    0.000    0.000    0.000    0.000    0.000    0.000 
#
# Total GULP energy -248062.187866 kJ/mol
# GULP energy per Si atom -12403.109393 kJ/mol
# Density = 2.285375 g / cm^3
# Si number density = 22.905886 Si / 1000 Ang^3
#
#
#
# Elastic Constant Matrix: (Units=GPa)
#
#
# Indices 1 2 3 4 5 6 
#
# 1 168.3992 45.5356 17.8203 0.0000 0.0000 0.0000
# 2 45.5356 86.3232 -0.3095 0.0000 0.0000 0.0000
# 3 17.8203 -0.3095 83.1075 0.0000 0.0000 0.0000
# 4 0.0000 0.0000 0.0000 18.2939 0.0000 0.0000
# 5 0.0000 0.0000 0.0000 0.0000 15.0022 0.0000
# 6 0.0000 0.0000 0.0000 0.0000 0.0000 25.0011
#
#
#
# Elastic Compliance Matrix: (Units=1/GPa)
#
#
# Indices 1 2 3 4 5 6 
#
# 1 0.007118 -0.003760 -0.001540 0.000000 0.000000 0.000000
# 2 -0.003760 0.013571 0.000857 0.000000 0.000000 0.000000
# 3 -0.001540 0.000857 0.012366 0.000000 0.000000 0.000000
# 4 0.000000 0.000000 0.000000 0.054663 0.000000 0.000000
# 5 0.000000 0.000000 0.000000 0.000000 0.066657 0.000000
# 6 0.000000 0.000000 0.000000 0.000000 0.000000 0.039998
#
#
# Mechanical properties :
#
#
# Convention : Reuss Voigt Hill
#
# Bulk Modulus (GPa) = 41.37766 51.54697 46.46232
# Shear Modulus (GPa) = 23.66115 29.97833 26.81974
#
# Velocity S-wave (km/s) = 3.21748 3.62160 3.42551
# Velocity P-wave (km/s) = 5.64856 6.32777 5.99779
#
# Compressibility (1/GPa) = 0.02416763
#
# Stress axis : x y z
#
# Youngs Moduli (GPa) = 140.48762 73.68644 80.86642
#
# Poissons Ratio (x) = 0.27708 0.12456
# Poissons Ratio (y) = 0.52828 -0.06929
# Poissons Ratio (z) = 0.21639 -0.06314
#
# Static dielectric constant tensor:
#      x y z
#    x 4.212240 0.000000 0.000000 
#    y 0.000000 4.107090 0.000000 
#    z 0.000000 0.000000 3.945570 
# 
# 
# High freq. dielectric constant tensor:
#      x y z
#    x 1.911890 0.000000 0.000000 
#    y 0.000000 1.906040 0.000000 
#    z 0.000000 0.000000 1.894870 
# 
# From -- ./inp_files/2369.got.cif
#   From: 2010.03.12/outbox.cif.g09.slc.cpg/sg19_2_cif.got.tgz:2369.got - 2010.04.10 18:59:41.
