data_PCOD8157680
_publ_section_title
;
Structure prediction by ZEFSAII (Michael W. Deem and Ramdas Pophale) SiO2 
 PCOD8157680
Probable space group: P 21 21 21
;
_chemical_formula_sum "Si O2"
_cell_formula_units_Z 28
_cell_length_a 11.571981
_cell_length_b 8.730956
_cell_length_c 13.045551
_cell_angle_alpha 90.000000
_cell_angle_beta 90.000000
_cell_angle_gamma 90.000000
_cell_volume 1318.050161
_symmetry_space_group_name_H-M "P 21 21 21"
_symmetry_group_IT_number 19
_symmetry_cell_setting 'orthorhombic'
loop_
_space_group_symop_operation_xyz
x,y,z
1/2-x,-y,1/2+z
1/2+x,1/2-y,-z
-x,1/2+y,1/2-z
loop_
_atom_site_type_symbol
_atom_site_label
_atom_site_fract_x
_atom_site_fract_y
_atom_site_fract_z
Si Si1 0.296202 0.654258 0.860553
Si Si2 0.565913 0.427547 0.586821
Si Si3 0.469245 0.328137 0.371494
Si Si4 0.222693 0.799350 0.383595
Si Si5 0.455874 0.966199 0.337608
Si Si6 0.667454 0.951188 0.465936
Si Si7 0.168604 0.574808 0.198368
O O1 0.325787 0.832111 0.868680
O O2 0.162452 0.618686 0.883783
O O3 0.328418 0.594068 0.748051
O O4 0.375198 0.559326 0.940970
O O5 0.540177 0.378762 0.470921
O O6 0.605910 0.602986 0.597363
O O7 0.458470 0.387495 0.659041
O O8 0.529987 0.419942 0.280009
O O9 0.471644 0.147633 0.350151
O O10 0.333905 0.908088 0.379911
O O11 0.237142 0.690229 0.483071
O O12 0.210907 0.704133 0.278120
O O13 0.557689 0.886690 0.403730
O O14 0.745726 0.063822 0.397371
#
# Coordination Sequence:
#
# PCOD8157680 Si02
#       7
#     4   4   4   4   4   4   4
#     4  11  23  45  63 101 135 184 225 274 353 403
#     4  12  25  46  69 104 138 179 230 288 346 410
#     4  12  26  42  74  96 140 181 229 285 342 418
#     4  11  28  44  70 106 138 182 234 285 345 413
#     4  12  26  47  67 105 137 178 237 285 342 413
#     4  11  24  43  71  97 137 183 224 281 346 409
#     4  11  24  45  70  97 141 183 225 280 346 416
#
# _framework density 21.243499
#
# number of rings (size 3 to 8) (size 9 to 14) (size 15 to 20)
#    0.000    0.571    5.714    1.714    6.000    0.000 
#    0.000    0.000    0.000    0.000    0.000    0.000 
#    0.000    0.000    0.000    0.000    0.000    0.000 
#
# Total GULP energy -347235.299580 kJ/mol
# GULP energy per Si atom -12401.260699 kJ/mol
# Density = 2.119515 g / cm^3
# Si number density = 21.243499 Si / 1000 Ang^3
#
#
#
# Elastic Constant Matrix: (Units=GPa)
#
#
# Indices 1 2 3 4 5 6 
#
# 1 100.5248 28.2432 33.0293 0.0000 0.0000 0.0000
# 2 28.2432 111.3917 46.9834 0.0000 0.0000 0.0000
# 3 33.0293 46.9834 97.0609 0.0000 0.0000 0.0000
# 4 0.0000 0.0000 0.0000 32.0038 0.0000 0.0000
# 5 0.0000 0.0000 0.0000 0.0000 29.1983 0.0000
# 6 0.0000 0.0000 0.0000 0.0000 0.0000 34.7296
#
#
#
# Elastic Compliance Matrix: (Units=1/GPa)
#
#
# Indices 1 2 3 4 5 6 
#
# 1 0.011417 -0.001578 -0.003121 0.000000 0.000000 0.000000
# 2 -0.001578 0.011499 -0.005029 0.000000 0.000000 0.000000
# 3 -0.003121 -0.005029 0.013799 0.000000 0.000000 0.000000
# 4 0.000000 0.000000 0.000000 0.031246 0.000000 0.000000
# 5 0.000000 0.000000 0.000000 0.000000 0.034249 0.000000
# 6 0.000000 0.000000 0.000000 0.000000 0.000000 0.028794
#
#
# Mechanical properties :
#
#
# Convention : Reuss Voigt Hill
#
# Bulk Modulus (GPa) = 57.94427 58.38769 58.16598
# Shear Modulus (GPa) = 32.00768 32.56779 32.28773
#
# Velocity S-wave (km/s) = 3.88584 3.91969 3.90280
# Velocity P-wave (km/s) = 6.88974 6.93036 6.91008
#
# Compressibility (1/GPa) = 0.01725796
#
# Stress axis : x y z
#
# Youngs Moduli (GPa) = 87.59100 86.96684 72.46791
#
# Poissons Ratio (x) = 0.13726 0.22618
# Poissons Ratio (y) = 0.13824 0.36444
# Poissons Ratio (z) = 0.27338 0.43735
#
# Static dielectric constant tensor:
#      x y z
#    x 3.812120 0.000000 0.000000 
#    y 0.000000 3.885280 0.000000 
#    z 0.000000 0.000000 3.914150 
# 
# 
# High freq. dielectric constant tensor:
#      x y z
#    x 1.833300 0.000000 0.000000 
#    y 0.000000 1.836850 0.000000 
#    z 0.000000 0.000000 1.845060 
# 
# From -- ./inp_files/3423.got.cif
#   From: 2010.03.12/outbox.cif.g09.slc.cpg/sg19_2_cif.got.tgz:3423.got - 2010.04.10 18:59:41.
