data_PCOD8157469
_publ_section_title
;
Structure prediction by ZEFSAII (Michael W. Deem and Ramdas Pophale) SiO2 
 PCOD8157469
Probable space group: P 21 21 21
;
_chemical_formula_sum "Si O2"
_cell_formula_units_Z 28
_cell_length_a 8.572613
_cell_length_b 7.625473
_cell_length_c 19.200685
_cell_angle_alpha 90.000000
_cell_angle_beta 90.000000
_cell_angle_gamma 90.000000
_cell_volume 1255.153175
_symmetry_space_group_name_H-M "P 21 21 21"
_symmetry_group_IT_number 19
_symmetry_cell_setting 'orthorhombic'
loop_
_space_group_symop_operation_xyz
x,y,z
1/2-x,-y,1/2+z
1/2+x,1/2-y,-z
-x,1/2+y,1/2-z
loop_
_atom_site_type_symbol
_atom_site_label
_atom_site_fract_x
_atom_site_fract_y
_atom_site_fract_z
Si Si1 0.477712 0.951518 0.845947
Si Si2 0.467742 0.647155 0.521170
Si Si3 0.866934 0.409163 0.612332
Si Si4 0.209339 0.020918 0.030671
Si Si5 0.608727 0.388948 0.343621
Si Si6 0.663266 0.738490 0.738302
Si Si7 0.884503 0.818057 0.628600
O O1 0.560645 0.002275 0.918917
O O2 0.468202 0.118368 0.795248
O O3 0.304979 0.870954 0.856110
O O4 0.594136 0.825599 0.806574
O O5 0.424567 0.838978 0.552059
O O6 0.650248 0.639136 0.501447
O O7 0.366270 0.610316 0.450949
O O8 0.856973 0.389752 0.528433
O O9 0.919891 0.609341 0.628765
O O10 0.989382 0.269821 0.641573
O O11 0.261681 0.901854 0.095317
O O12 0.687691 0.366561 0.268518
O O13 0.525839 0.576948 0.336506
O O14 0.729617 0.858541 0.674710
#
# Coordination Sequence:
#
# PCOD8157469 Si02
#       7
#     4   4   4   4   4   4   4
#     4  10  24  43  65  97 135 173 220 283 341 402
#     4   9  19  43  69  93 132 176 227 269 328 398
#     4   9  21  45  67  95 136 175 228 279 328 403
#     4   9  20  39  66 102 131 176 226 277 332 397
#     4  11  24  40  67 101 130 180 227 272 340 405
#     4  11  26  42  64 100 136 173 224 280 347 398
#     4   9  22  44  68  94 128 181 224 272 330 395
#
# _framework density 22.308032999999998
#
# number of rings (size 3 to 8) (size 9 to 14) (size 15 to 20)
#    0.000    2.286    0.000    0.857    8.000    6.857 
#    0.000   10.000    0.000    0.000    0.000    0.000 
#    0.000    0.000    0.000    0.000    0.000    0.000 
#
# Total GULP energy -346960.318662 kJ/mol
# GULP energy per Si atom -12391.439952 kJ/mol
# Density = 2.225726 g / cm^3
# Si number density = 22.308033 Si / 1000 Ang^3
#
#
#
# Elastic Constant Matrix: (Units=GPa)
#
#
# Indices 1 2 3 4 5 6 
#
# 1 56.3830 31.9889 45.0315 0.0000 0.0000 0.0000
# 2 31.9889 62.6535 41.6473 0.0000 0.0000 0.0000
# 3 45.0315 41.6473 115.2698 0.0000 0.0000 0.0000
# 4 0.0000 0.0000 0.0000 29.1034 0.0000 0.0000
# 5 0.0000 0.0000 0.0000 0.0000 33.8906 0.0000
# 6 0.0000 0.0000 0.0000 0.0000 0.0000 47.1100
#
#
#
# Elastic Compliance Matrix: (Units=1/GPa)
#
#
# Indices 1 2 3 4 5 6 
#
# 1 0.029761 -0.009827 -0.008076 0.000000 0.000000 0.000000
# 2 -0.009827 0.024250 -0.004923 0.000000 0.000000 0.000000
# 3 -0.008076 -0.004923 0.013609 0.000000 0.000000 0.000000
# 4 0.000000 0.000000 0.000000 0.034360 0.000000 0.000000
# 5 0.000000 0.000000 0.000000 0.000000 0.029507 0.000000
# 6 0.000000 0.000000 0.000000 0.000000 0.000000 0.021227
#
#
# Mechanical properties :
#
#
# Convention : Reuss Voigt Hill
#
# Bulk Modulus (GPa) = 45.51832 52.40463 48.96148
# Shear Modulus (GPa) = 24.30856 29.73003 27.01930
#
# Velocity S-wave (km/s) = 3.30461 3.65458 3.48399
# Velocity P-wave (km/s) = 5.91687 6.43042 6.17898
#
# Compressibility (1/GPa) = 0.02196918
#
# Stress axis : x y z
#
# Youngs Moduli (GPa) = 33.60072 41.23659 73.48102
#
# Poissons Ratio (x) = 0.40522 0.59344
# Poissons Ratio (y) = 0.33019 0.36173
# Poissons Ratio (z) = 0.27136 0.20300
#
# Static dielectric constant tensor:
#      x y z
#    x 3.927400 0.000000 0.000000 
#    y 0.000000 3.712880 0.000000 
#    z 0.000000 0.000000 4.340860 
# 
# 
# High freq. dielectric constant tensor:
#      x y z
#    x 1.865720 0.000000 0.000000 
#    y 0.000000 1.851840 0.000000 
#    z 0.000000 0.000000 1.901330 
# 
# From -- ./inp_files/6578.got.cif
#   From: 2010.03.12/outbox.cif.g09.slc.cpg/sg19_4_cif.got.tgz:6578.got - 2010.04.10 18:59:41.
