data_PCOD8157057
_publ_section_title
;
Structure prediction by ZEFSAII (Michael W. Deem and Ramdas Pophale) SiO2 
 PCOD8157057
Probable space group: P 21 21 21
;
_chemical_formula_sum "Si O2"
_cell_formula_units_Z 28
_cell_length_a 8.501216
_cell_length_b 11.073890
_cell_length_c 13.758984
_cell_angle_alpha 90.000000
_cell_angle_beta 90.000000
_cell_angle_gamma 90.000000
_cell_volume 1295.291817
_symmetry_space_group_name_H-M "P 21 21 21"
_symmetry_group_IT_number 19
_symmetry_cell_setting 'orthorhombic'
loop_
_space_group_symop_operation_xyz
x,y,z
1/2-x,-y,1/2+z
1/2+x,1/2-y,-z
-x,1/2+y,1/2-z
loop_
_atom_site_type_symbol
_atom_site_label
_atom_site_fract_x
_atom_site_fract_y
_atom_site_fract_z
Si Si1 0.345551 0.989903 0.614874
Si Si2 0.004698 0.753229 0.414922
Si Si3 0.375581 0.579259 0.750452
Si Si4 0.741669 0.175933 0.233592
Si Si5 0.978974 0.392014 0.888659
Si Si6 0.851129 0.134502 0.586818
Si Si7 0.802693 0.717305 0.929427
O O1 0.417895 0.873392 0.561285
O O2 0.178898 0.945304 0.660058
O O3 0.460936 0.044998 0.695968
O O4 0.286693 0.093169 0.537297
O O5 0.902205 0.843419 0.347344
O O6 0.161704 0.720025 0.358650
O O7 0.055401 0.812057 0.516332
O O8 0.290983 0.454360 0.724084
O O9 0.256675 0.657539 0.817931
O O10 0.560620 0.181187 0.198516
O O11 0.766604 0.266825 0.321601
O O12 0.105137 0.494086 0.921213
O O13 0.738540 0.171118 0.497869
O O14 0.009100 0.212874 0.579290
#
# Coordination Sequence:
#
# PCOD8157057 Si02
#       7
#     4   4   4   4   4   4   4
#     4  10  22  39  61  90 129 155 221 256 302 391
#     4  11  21  39  65  86 127 169 203 258 319 376
#     4  10  21  41  61  93 120 171 208 259 311 379
#     4  10  22  38  62  88 128 159 211 259 308 374
#     4  10  22  41  60  95 126 165 211 261 312 371
#     4  10  23  39  66  87 130 160 210 265 309 382
#     4  11  21  41  61  95 124 169 206 266 319 367
#
# _framework density 21.616748999999999
#
# number of rings (size 3 to 8) (size 9 to 14) (size 15 to 20)
#    0.000    1.714    1.429    2.571    2.000    0.000 
#    2.571    2.857    0.000    0.000    0.000    0.000 
#    0.000    0.000    0.000    0.000    0.000    0.000 
#
# Total GULP energy -346967.507055 kJ/mol
# GULP energy per Si atom -12391.696681 kJ/mol
# Density = 2.156755 g / cm^3
# Si number density = 21.616749 Si / 1000 Ang^3
#
#
#
# Elastic Constant Matrix: (Units=GPa)
#
#
# Indices 1 2 3 4 5 6 
#
# 1 115.5945 29.6502 24.3227 0.0000 0.0000 0.0000
# 2 29.6502 67.0973 26.4735 0.0000 0.0000 0.0000
# 3 24.3227 26.4735 57.0703 0.0000 0.0000 0.0000
# 4 0.0000 0.0000 0.0000 21.0810 0.0000 0.0000
# 5 0.0000 0.0000 0.0000 0.0000 27.2048 0.0000
# 6 0.0000 0.0000 0.0000 0.0000 0.0000 30.1860
#
#
#
# Elastic Compliance Matrix: (Units=1/GPa)
#
#
# Indices 1 2 3 4 5 6 
#
# 1 0.010093 -0.003382 -0.002733 0.000000 0.000000 0.000000
# 2 -0.003382 0.019376 -0.007547 0.000000 0.000000 0.000000
# 3 -0.002733 -0.007547 0.022188 0.000000 0.000000 0.000000
# 4 0.000000 0.000000 0.000000 0.047436 0.000000 0.000000
# 5 0.000000 0.000000 0.000000 0.000000 0.036758 0.000000
# 6 0.000000 0.000000 0.000000 0.000000 0.000000 0.033128
#
#
# Mechanical properties :
#
#
# Convention : Reuss Voigt Hill
#
# Bulk Modulus (GPa) = 41.09484 44.51719 42.80602
# Shear Modulus (GPa) = 24.46025 26.31541 25.38783
#
# Velocity S-wave (km/s) = 3.36749 3.49286 3.43075
# Velocity P-wave (km/s) = 5.84567 6.07497 5.96142
#
# Compressibility (1/GPa) = 0.02433395
#
# Stress axis : x y z
#
# Youngs Moduli (GPa) = 99.07406 51.61090 45.07012
#
# Poissons Ratio (x) = 0.17455 0.12317
# Poissons Ratio (y) = 0.33507 0.34012
# Poissons Ratio (z) = 0.27076 0.38948
#
# Static dielectric constant tensor:
#      x y z
#    x 4.108170 0.000000 0.000000 
#    y 0.000000 4.065690 0.000000 
#    z 0.000000 0.000000 3.471030 
# 
# 
# High freq. dielectric constant tensor:
#      x y z
#    x 1.868500 0.000000 0.000000 
#    y 0.000000 1.858370 0.000000 
#    z 0.000000 0.000000 1.814250 
# 
# From -- ./inp_files/4618.got.cif
#   From: 2010.03.12/outbox.cif.g09.slc.cpg/sg19_3_cif.got.tgz:4618.got - 2010.04.10 18:59:41.
