data_PCOD8157227
_publ_section_title
;
Structure prediction by ZEFSAII (Michael W. Deem and Ramdas Pophale) SiO2 
 PCOD8157227
Probable space group: P 21 21 21
;
_chemical_formula_sum "Si O2"
_cell_formula_units_Z 32
_cell_length_a 5.156038
_cell_length_b 12.839826
_cell_length_c 18.070447
_cell_angle_alpha 90.000000
_cell_angle_beta 90.000000
_cell_angle_gamma 90.000000
_cell_volume 1196.311131
_symmetry_space_group_name_H-M "P 21 21 21"
_symmetry_group_IT_number 19
_symmetry_cell_setting 'orthorhombic'
loop_
_space_group_symop_operation_xyz
x,y,z
1/2-x,-y,1/2+z
1/2+x,1/2-y,-z
-x,1/2+y,1/2-z
loop_
_atom_site_type_symbol
_atom_site_label
_atom_site_fract_x
_atom_site_fract_y
_atom_site_fract_z
Si Si1 0.335931 0.544470 0.343642
Si Si2 0.613414 0.343103 0.324355
Si Si3 0.036536 0.966452 0.273521
Si Si4 0.187709 0.408196 0.078723
Si Si5 0.885638 0.297497 0.465532
Si Si6 0.295504 0.167687 0.255749
Si Si7 0.055116 0.184443 0.103559
Si Si8 0.704100 0.473138 0.002141
O O1 0.515860 0.447189 0.369626
O O2 0.451429 0.619143 0.281489
O O3 0.092306 0.487240 0.305633
O O4 0.220570 0.621207 0.408162
O O5 0.747461 0.378231 0.247038
O O6 0.804328 0.280317 0.379644
O O7 0.373564 0.266290 0.305749
O O8 0.827772 0.926665 0.332853
O O9 0.166337 0.074396 0.303752
O O10 0.072887 0.293079 0.060592
O O11 0.486977 0.417880 0.054953
O O12 0.981986 0.487942 0.041781
O O13 0.662462 0.254798 0.520049
O O14 0.924558 0.419085 0.480133
O O15 0.103023 0.204664 0.190380
O O16 0.263198 0.102694 0.068668
#
# Coordination Sequence:
#
# PCOD8157227 Si02
#       8
#     4   4   4   4   4   4   4   4
#     4  10  22  41  73 101 147 193 253 323 393 465
#     4  11  25  46  78 108 153 208 265 329 404 479
#     4  10  24  44  70 113 146 200 252 342 391 463
#     4  12  28  46  79 110 153 196 260 319 396 461
#     4  12  30  53  79 113 157 218 269 319 394 488
#     4  10  23  42  74 107 147 193 257 322 398 466
#     4  11  25  46  73 111 146 200 256 318 402 470
#     4  12  29  50  74 109 155 206 254 324 384 482
#
# _framework density 26.748896999999999
#
# number of rings (size 3 to 8) (size 9 to 14) (size 15 to 20)
#    0.000    1.000    0.000    5.250   15.750    2.000 
#    0.000    0.000    0.000    0.000    0.000    0.000 
#    0.000    0.000    0.000    0.000    0.000    0.000 
#
# Total GULP energy -396708.859759 kJ/mol
# GULP energy per Si atom -12397.151867 kJ/mol
# Density = 2.668801 g / cm^3
# Si number density = 26.748897 Si / 1000 Ang^3
#
#
#
# Elastic Constant Matrix: (Units=GPa)
#
#
# Indices 1 2 3 4 5 6 
#
# 1 68.6703 -2.2876 -24.3732 0.0000 0.0000 0.0000
# 2 -2.2876 111.4769 6.3762 0.0000 0.0000 0.0000
# 3 -24.3732 6.3762 36.0238 0.0000 0.0000 0.0000
# 4 0.0000 0.0000 0.0000 34.9124 0.0000 0.0000
# 5 0.0000 0.0000 0.0000 0.0000 33.4356 0.0000
# 6 0.0000 0.0000 0.0000 0.0000 0.0000 43.1790
#
#
#
# Elastic Compliance Matrix: (Units=1/GPa)
#
#
# Indices 1 2 3 4 5 6 
#
# 1 0.019178 -0.000352 0.013038 0.000000 0.000000 0.000000
# 2 -0.000352 0.009069 -0.001843 0.000000 0.000000 0.000000
# 3 0.013038 -0.001843 0.036907 0.000000 0.000000 0.000000
# 4 0.000000 0.000000 0.000000 0.028643 0.000000 0.000000
# 5 0.000000 0.000000 0.000000 0.000000 0.029908 0.000000
# 6 0.000000 0.000000 0.000000 0.000000 0.000000 0.023159
#
#
# Mechanical properties :
#
#
# Convention : Reuss Voigt Hill
#
# Bulk Modulus (GPa) = 11.51561 19.51132 15.51347
# Shear Modulus (GPa) = 32.44098 38.06912 35.25505
#
# Velocity S-wave (km/s) = 3.48630 3.77663 3.63437
# Velocity P-wave (km/s) = 4.52992 5.13102 4.83981
#
# Compressibility (1/GPa) = 0.08683867
#
# Stress axis : x y z
#
# Youngs Moduli (GPa) = 52.14253 110.26967 27.09512
#
# Poissons Ratio (x) = 0.03884 -0.35327
# Poissons Ratio (y) = 0.01836 0.04995
# Poissons Ratio (z) = -0.67984 0.20328
#
# Static dielectric constant tensor:
#      x y z
#    x 4.769900 0.000000 0.000000 
#    y 0.000000 4.972510 0.000000 
#    z 0.000000 0.000000 4.549990 
# 
# 
# High freq. dielectric constant tensor:
#      x y z
#    x 2.078360 0.000000 0.000000 
#    y 0.000000 2.086080 0.000000 
#    z 0.000000 0.000000 2.055900 
# 
# From -- ./inp_files/6926.got.cif
#   From: 2010.03.12/outbox.cif.g09.slc.cpg/sg19_4_cif.got.tgz:6926.got - 2010.04.10 18:59:41.
