data_PCOD8157618
_publ_section_title
;
Structure prediction by ZEFSAII (Michael W. Deem and Ramdas Pophale) SiO2 
 PCOD8157618
Probable space group: P 21 21 21
;
_chemical_formula_sum "Si O2"
_cell_formula_units_Z 20
_cell_length_a 5.006662
_cell_length_b 9.977839
_cell_length_c 17.671507
_cell_angle_alpha 90.000000
_cell_angle_beta 90.000000
_cell_angle_gamma 90.000000
_cell_volume 882.791926
_symmetry_space_group_name_H-M "P 21 21 21"
_symmetry_group_IT_number 19
_symmetry_cell_setting 'orthorhombic'
loop_
_space_group_symop_operation_xyz
x,y,z
1/2-x,-y,1/2+z
1/2+x,1/2-y,-z
-x,1/2+y,1/2-z
loop_
_atom_site_type_symbol
_atom_site_label
_atom_site_fract_x
_atom_site_fract_y
_atom_site_fract_z
Si Si1 0.295882 0.669451 0.478426
Si Si2 0.386856 0.148739 0.326128
Si Si3 0.402604 0.631045 0.748788
Si Si4 0.245692 0.368052 0.803596
Si Si5 0.859599 0.020420 0.391344
O O1 0.994394 0.712743 0.496312
O O2 0.329414 0.641670 0.390394
O O3 0.363773 0.532538 0.523058
O O4 0.296833 0.300597 0.309492
O O5 0.479726 0.090677 0.243748
O O6 0.643926 0.141064 0.382721
O O7 0.154009 0.063522 0.365331
O O8 0.467445 0.485086 0.786794
O O9 0.653336 0.728204 0.733095
O O10 0.272175 0.601784 0.665429
#
# Coordination Sequence:
#
# PCOD8157618 Si02
#       5
#     4   4   4   4   4
#     4  12  25  44  70 106 146 187 239 297 362 429
#     4  11  23  42  66  99 139 184 228 296 349 424
#     4  11  22  44  69 103 135 183 240 292 348 423
#     4  11  26  41  77 105 141 186 244 296 358 424
#     4  11  24  41  68  99 145 180 233 297 357 408
#
# _framework density 22.655394000000001
#
# number of rings (size 3 to 8) (size 9 to 14) (size 15 to 20)
#    0.000    0.800    6.000    2.400    5.600    0.000 
#    0.000    2.000    0.000    0.000    0.000    0.000 
#    0.000    0.000    0.000    0.000    0.000    0.000 
#
# Total GULP energy -247769.039498 kJ/mol
# GULP energy per Si atom -12388.451975 kJ/mol
# Density = 2.260383 g / cm^3
# Si number density = 22.655394 Si / 1000 Ang^3
#
#
#
# Elastic Constant Matrix: (Units=GPa)
#
#
# Indices 1 2 3 4 5 6 
#
# 1 98.5215 9.6808 19.6060 0.0000 0.0000 0.0000
# 2 9.6808 63.0479 7.7405 0.0000 0.0000 0.0000
# 3 19.6060 7.7405 98.1923 0.0000 0.0000 0.0000
# 4 0.0000 0.0000 0.0000 45.2140 0.0000 0.0000
# 5 0.0000 0.0000 0.0000 0.0000 30.6470 0.0000
# 6 0.0000 0.0000 0.0000 0.0000 0.0000 32.7340
#
#
#
# Elastic Compliance Matrix: (Units=1/GPa)
#
#
# Indices 1 2 3 4 5 6 
#
# 1 0.010690 -0.001393 -0.002025 0.000000 0.000000 0.000000
# 2 -0.001393 0.016197 -0.000999 0.000000 0.000000 0.000000
# 3 -0.002025 -0.000999 0.010667 0.000000 0.000000 0.000000
# 4 0.000000 0.000000 0.000000 0.022117 0.000000 0.000000
# 5 0.000000 0.000000 0.000000 0.000000 0.032630 0.000000
# 6 0.000000 0.000000 0.000000 0.000000 0.000000 0.030549
#
#
# Mechanical properties :
#
#
# Convention : Reuss Voigt Hill
#
# Bulk Modulus (GPa) = 34.81655 37.09069 35.95362
# Shear Modulus (GPa) = 35.39655 36.56795 35.98225
#
# Velocity S-wave (km/s) = 3.95700 4.02194 3.98960
# Velocity P-wave (km/s) = 6.02315 6.16240 6.09317
#
# Compressibility (1/GPa) = 0.02872198
#
# Stress axis : x y z
#
# Youngs Moduli (GPa) = 93.54683 61.73816 93.74627
#
# Poissons Ratio (x) = 0.08599 0.18980
# Poissons Ratio (y) = 0.13029 0.09363
# Poissons Ratio (z) = 0.18940 0.06166
#
# Static dielectric constant tensor:
#      x y z
#    x 4.158250 0.000000 0.000000 
#    y 0.000000 4.144670 0.000000 
#    z 0.000000 0.000000 4.049910 
# 
# 
# High freq. dielectric constant tensor:
#      x y z
#    x 1.896790 0.000000 0.000000 
#    y 0.000000 1.881040 0.000000 
#    z 0.000000 0.000000 1.879840 
# 
# From -- ./inp_files/1678.got.cif
#   From: 2010.03.12/outbox.cif.g09.slc.cpg/sg19_1_cif.got.tgz:1678.got - 2010.04.10 18:59:41.
