data_PCOD8157731
_publ_section_title
;
Structure prediction by ZEFSAII (Michael W. Deem and Ramdas Pophale) SiO2 
 PCOD8157731
Probable space group: P 21 21 21
;
_chemical_formula_sum "Si O2"
_cell_formula_units_Z 28
_cell_length_a 7.985136
_cell_length_b 8.630408
_cell_length_c 18.340811
_cell_angle_alpha 90.000000
_cell_angle_beta 90.000000
_cell_angle_gamma 90.000000
_cell_volume 1263.956653
_symmetry_space_group_name_H-M "P 21 21 21"
_symmetry_group_IT_number 19
_symmetry_cell_setting 'orthorhombic'
loop_
_space_group_symop_operation_xyz
x,y,z
1/2-x,-y,1/2+z
1/2+x,1/2-y,-z
-x,1/2+y,1/2-z
loop_
_atom_site_type_symbol
_atom_site_label
_atom_site_fract_x
_atom_site_fract_y
_atom_site_fract_z
Si Si1 0.749621 0.058026 0.816680
Si Si2 0.939050 0.625619 0.113796
Si Si3 0.123430 0.939973 0.518931
Si Si4 0.878930 0.517493 0.688612
Si Si5 0.893809 0.960292 0.163262
Si Si6 0.238406 0.085963 0.166348
Si Si7 0.690696 0.214197 0.090039
O O1 0.729828 0.075216 0.729724
O O2 0.758629 0.231357 0.847718
O O3 0.928665 0.975494 0.833815
O O4 0.594306 0.966631 0.850990
O O5 0.757386 0.588655 0.148422
O O6 0.964663 0.807225 0.124525
O O7 0.938641 0.588612 0.027228
O O8 0.234710 0.996022 0.587568
O O9 0.221796 0.833167 0.463205
O O10 0.975986 0.839236 0.551792
O O11 0.865723 0.489311 0.775437
O O12 0.844966 0.697724 0.667054
O O13 0.803659 0.064202 0.102943
O O14 0.051906 0.053909 0.195351
#
# Coordination Sequence:
#
# PCOD8157731 Si02
#       7
#     4   4   4   4   4   4   4
#     4  12  23  44  72 104 139 187 233 302 357 421
#     4  11  26  46  69 106 146 184 238 297 356 429
#     4  11  24  46  70  99 144 193 237 290 360 433
#     4  11  24  43  73 106 136 181 246 294 351 429
#     4  12  25  42  73 102 145 182 237 297 358 421
#     4  12  24  45  70 106 138 189 241 294 358 427
#     4  11  24  44  73 105 140 190 238 292 360 432
#
# _framework density 22.152660000000001
#
# number of rings (size 3 to 8) (size 9 to 14) (size 15 to 20)
#    0.000    0.571    4.286    4.286    2.000    1.143 
#    2.571    0.000    0.000    0.000    0.000    0.000 
#    0.000    0.000    0.000    0.000    0.000    0.000 
#
# Total GULP energy -347194.250883 kJ/mol
# GULP energy per Si atom -12399.794674 kJ/mol
# Density = 2.210224 g / cm^3
# Si number density = 22.152660 Si / 1000 Ang^3
#
#
#
# Elastic Constant Matrix: (Units=GPa)
#
#
# Indices 1 2 3 4 5 6 
#
# 1 143.0961 34.8242 23.6694 0.0000 0.0000 0.0000
# 2 34.8242 69.9169 28.9673 0.0000 0.0000 0.0000
# 3 23.6694 28.9673 112.7294 0.0000 0.0000 0.0000
# 4 0.0000 0.0000 0.0000 34.8538 0.0000 0.0000
# 5 0.0000 0.0000 0.0000 0.0000 36.6670 0.0000
# 6 0.0000 0.0000 0.0000 0.0000 0.0000 25.1289
#
#
#
# Elastic Compliance Matrix: (Units=1/GPa)
#
#
# Indices 1 2 3 4 5 6 
#
# 1 0.008006 -0.003683 -0.000735 0.000000 0.000000 0.000000
# 2 -0.003683 0.017701 -0.003775 0.000000 0.000000 0.000000
# 3 -0.000735 -0.003775 0.009995 0.000000 0.000000 0.000000
# 4 0.000000 0.000000 0.000000 0.028691 0.000000 0.000000
# 5 0.000000 0.000000 0.000000 0.000000 0.027272 0.000000
# 6 0.000000 0.000000 0.000000 0.000000 0.000000 0.039795
#
#
# Mechanical properties :
#
#
# Convention : Reuss Voigt Hill
#
# Bulk Modulus (GPa) = 51.76937 55.62934 53.69935
# Shear Modulus (GPa) = 32.40726 35.21539 33.81132
#
# Velocity S-wave (km/s) = 3.82894 3.99139 3.91101
# Velocity P-wave (km/s) = 6.55499 6.81234 6.68490
#
# Compressibility (1/GPa) = 0.01931644
#
# Stress axis : x y z
#
# Youngs Moduli (GPa) = 124.90309 56.49262 100.04883
#
# Poissons Ratio (x) = 0.20808 0.07349
# Poissons Ratio (y) = 0.46007 0.37771
# Poissons Ratio (z) = 0.09175 0.21327
#
# Static dielectric constant tensor:
#      x y z
#    x 4.180440 0.000000 0.000000 
#    y 0.000000 3.896590 0.000000 
#    z 0.000000 0.000000 3.828670 
# 
# 
# High freq. dielectric constant tensor:
#      x y z
#    x 1.889330 0.000000 0.000000 
#    y 0.000000 1.859230 0.000000 
#    z 0.000000 0.000000 1.873320 
# 
# From -- ./inp_files/6613.got.cif
#   From: 2010.03.12/outbox.cif.g09.slc.cpg/sg19_4_cif.got.tgz:6613.got - 2010.04.10 18:59:41.
