data_PCOD8157226
_publ_section_title
;
Structure prediction by ZEFSAII (Michael W. Deem and Ramdas Pophale) SiO2 
 PCOD8157226
Probable space group: P 21 21 21
;
_chemical_formula_sum "Si O2"
_cell_formula_units_Z 24
_cell_length_a 14.468909
_cell_length_b 13.791843
_cell_length_c 4.922723
_cell_angle_alpha 90.000000
_cell_angle_beta 90.000000
_cell_angle_gamma 90.000000
_cell_volume 982.343755
_symmetry_space_group_name_H-M "P 21 21 21"
_symmetry_group_IT_number 19
_symmetry_cell_setting 'orthorhombic'
loop_
_space_group_symop_operation_xyz
x,y,z
1/2-x,-y,1/2+z
1/2+x,1/2-y,-z
-x,1/2+y,1/2-z
loop_
_atom_site_type_symbol
_atom_site_label
_atom_site_fract_x
_atom_site_fract_y
_atom_site_fract_z
Si Si1 0.618299 0.287722 0.788918
Si Si2 0.810059 0.993528 0.905436
Si Si3 0.448995 0.606718 0.411621
Si Si4 0.788188 0.622860 0.797926
Si Si5 0.381300 0.064193 0.377291
Si Si6 0.028100 0.560609 0.302636
O O1 0.694601 0.336708 0.992975
O O2 0.516880 0.334917 0.774883
O O3 0.594039 0.177565 0.862864
O O4 0.656360 0.302107 0.487013
O O5 0.877033 0.076103 0.030698
O O6 0.760580 0.038865 0.641576
O O7 0.872937 0.899304 0.830881
O O8 0.552983 0.635280 0.307506
O O9 0.451626 0.495807 0.522525
O O10 0.682863 0.623197 0.909693
O O11 0.822750 0.510232 0.815283
O O12 0.453773 0.003656 0.544222
#
# Coordination Sequence:
#
# PCOD8157226 Si02
#       6
#     4   4   4   4   4   4
#     4  11  26  43  66 104 146 173 235 285 344 417
#     4  11  23  43  70  93 128 187 237 279 340 416
#     4  11  24  45  70 102 143 190 227 293 350 419
#     4  11  23  42  69 104 135 177 228 295 341 417
#     4  10  22  41  72  98 135 181 230 282 362 408
#     4  10  22  44  71  97 135 186 227 286 353 403
#
# _framework density 24.431367999999999
#
# number of rings (size 3 to 8) (size 9 to 14) (size 15 to 20)
#    0.000    1.333    3.333    2.000    7.000    0.000 
#    6.000    0.000    0.000    0.000    0.000    0.000 
#    0.000    0.000    0.000    0.000    0.000    0.000 
#
# Total GULP energy -297344.808537 kJ/mol
# GULP energy per Si atom -12389.367022 kJ/mol
# Density = 2.437576 g / cm^3
# Si number density = 24.431368 Si / 1000 Ang^3
#
#
#
# Elastic Constant Matrix: (Units=GPa)
#
#
# Indices 1 2 3 4 5 6 
#
# 1 124.5766 10.1930 26.6796 0.0000 0.0000 0.0000
# 2 10.1930 27.4937 -1.1881 0.0000 0.0000 0.0000
# 3 26.6796 -1.1881 92.5741 0.0000 0.0000 0.0000
# 4 0.0000 0.0000 0.0000 15.4890 0.0000 0.0000
# 5 0.0000 0.0000 0.0000 0.0000 40.4624 0.0000
# 6 0.0000 0.0000 0.0000 0.0000 0.0000 17.1364
#
#
#
# Elastic Compliance Matrix: (Units=1/GPa)
#
#
# Indices 1 2 3 4 5 6 
#
# 1 0.008861 -0.003398 -0.002597 0.000000 0.000000 0.000000
# 2 -0.003398 0.037695 0.001463 0.000000 0.000000 0.000000
# 3 -0.002597 0.001463 0.011570 0.000000 0.000000 0.000000
# 4 0.000000 0.000000 0.000000 0.064562 0.000000 0.000000
# 5 0.000000 0.000000 0.000000 0.000000 0.024714 0.000000
# 6 0.000000 0.000000 0.000000 0.000000 0.000000 0.058355
#
#
# Mechanical properties :
#
#
# Convention : Reuss Voigt Hill
#
# Bulk Modulus (GPa) = 20.38250 35.11260 27.74755
# Shear Modulus (GPa) = 21.62860 28.54822 25.08841
#
# Velocity S-wave (km/s) = 2.97859 3.42205 3.20799
# Velocity P-wave (km/s) = 4.49335 5.47878 5.01035
#
# Compressibility (1/GPa) = 0.04906169
#
# Stress axis : x y z
#
# Youngs Moduli (GPa) = 112.84831 26.52882 86.43406
#
# Poissons Ratio (x) = 0.09013 0.22451
# Poissons Ratio (y) = 0.38341 -0.12645
# Poissons Ratio (z) = 0.29312 -0.03881
#
# Static dielectric constant tensor:
#      x y z
#    x 5.257420 0.000000 0.000000 
#    y 0.000000 3.966320 0.000000 
#    z 0.000000 0.000000 4.674790 
# 
# 
# High freq. dielectric constant tensor:
#      x y z
#    x 1.990690 0.000000 0.000000 
#    y 0.000000 1.909600 0.000000 
#    z 0.000000 0.000000 1.987250 
# 
# From -- ./inp_files/1468.got.cif
#   From: 2010.03.12/outbox.cif.g09.slc.cpg/sg19_1_cif.got.tgz:1468.got - 2010.04.10 18:59:41.
