data_PCOD8157850
_publ_section_title
;
Structure prediction by ZEFSAII (Michael W. Deem and Ramdas Pophale) SiO2 
 PCOD8157850
Probable space group: P 21 21 21
;
_chemical_formula_sum "Si O2"
_cell_formula_units_Z 20
_cell_length_a 10.563294
_cell_length_b 9.998853
_cell_length_c 7.636037
_cell_angle_alpha 90.000000
_cell_angle_beta 90.000000
_cell_angle_gamma 90.000000
_cell_volume 806.524519
_symmetry_space_group_name_H-M "P 21 21 21"
_symmetry_group_IT_number 19
_symmetry_cell_setting 'orthorhombic'
loop_
_space_group_symop_operation_xyz
x,y,z
1/2-x,-y,1/2+z
1/2+x,1/2-y,-z
-x,1/2+y,1/2-z
loop_
_atom_site_type_symbol
_atom_site_label
_atom_site_fract_x
_atom_site_fract_y
_atom_site_fract_z
Si Si1 0.503097 0.876732 0.739105
Si Si2 0.399701 0.496217 0.406094
Si Si3 0.902533 0.497380 0.599076
Si Si4 0.735565 0.250822 0.195740
Si Si5 0.768840 0.753367 0.092017
O O1 0.475791 0.980517 0.583002
O O2 0.615156 0.776751 0.683063
O O3 0.380463 0.786789 0.777851
O O4 0.542415 0.962662 0.906386
O O5 0.506100 0.480294 0.260942
O O6 0.344949 0.645494 0.417300
O O7 0.284171 0.398106 0.352664
O O8 0.786491 0.602316 0.615781
O O9 0.848394 0.348931 0.601641
O O10 0.681530 0.241125 0.393065
#
# Coordination Sequence:
#
# PCOD8157850 Si02
#       5
#     4   4   4   4   4
#     4  11  28  46  79 106 153 197 250 313 380 452
#     4  11  27  48  74 106 153 196 255 315 371 451
#     4  12  26  47  77 107 149 199 253 312 382 446
#     4  11  27  49  74 113 148 199 254 313 383 446
#     4  11  26  50  74 110 153 195 254 315 378 453
#
# _framework density 24.797754999999999
#
# number of rings (size 3 to 8) (size 9 to 14) (size 15 to 20)
#    0.000    0.800    2.000    2.400   11.200    6.400 
#    0.000    0.000    0.000    0.000    0.000    0.000 
#    0.000    0.000    0.000    0.000    0.000    0.000 
#
# Total GULP energy -248201.023898 kJ/mol
# GULP energy per Si atom -12410.051195 kJ/mol
# Density = 2.474131 g / cm^3
# Si number density = 24.797755 Si / 1000 Ang^3
#
#
#
# Elastic Constant Matrix: (Units=GPa)
#
#
# Indices 1 2 3 4 5 6 
#
# 1 93.7822 -6.1118 32.5523 0.0000 0.0000 0.0000
# 2 -6.1118 69.7387 -2.5374 0.0000 0.0000 0.0000
# 3 32.5523 -2.5374 91.9782 0.0000 0.0000 0.0000
# 4 0.0000 0.0000 0.0000 34.9247 0.0000 0.0000
# 5 0.0000 0.0000 0.0000 0.0000 39.5143 0.0000
# 6 0.0000 0.0000 0.0000 0.0000 0.0000 17.3434
#
#
#
# Elastic Compliance Matrix: (Units=1/GPa)
#
#
# Indices 1 2 3 4 5 6 
#
# 1 0.012214 0.000914 -0.004298 0.000000 0.000000 0.000000
# 2 0.000914 0.014422 0.000074 0.000000 0.000000 0.000000
# 3 -0.004298 0.000074 0.012395 0.000000 0.000000 0.000000
# 4 0.000000 0.000000 0.000000 0.028633 0.000000 0.000000
# 5 0.000000 0.000000 0.000000 0.000000 0.025307 0.000000
# 6 0.000000 0.000000 0.000000 0.000000 0.000000 0.057659
#
#
# Mechanical properties :
#
#
# Convention : Reuss Voigt Hill
#
# Bulk Modulus (GPa) = 30.85159 33.70057 32.27608
# Shear Modulus (GPa) = 29.75245 33.79621 31.77433
#
# Velocity S-wave (km/s) = 3.46758 3.69572 3.58346
# Velocity P-wave (km/s) = 5.33858 5.64188 5.49232
#
# Compressibility (1/GPa) = 0.03241324
#
# Stress axis : x y z
#
# Youngs Moduli (GPa) = 81.87134 69.33820 80.67662
#
# Poissons Ratio (x) = -0.06338 0.34671
# Poissons Ratio (y) = -0.07484 -0.00600
# Poissons Ratio (z) = 0.35185 -0.00516
#
# Static dielectric constant tensor:
#      x y z
#    x 4.490230 0.000000 0.000000 
#    y 0.000000 4.542820 0.000000 
#    z 0.000000 0.000000 4.495250 
# 
# 
# High freq. dielectric constant tensor:
#      x y z
#    x 1.994970 0.000000 0.000000 
#    y 0.000000 1.994500 0.000000 
#    z 0.000000 0.000000 1.996060 
# 
# From -- ./inp_files/2632.got.cif
#   From: 2010.03.12/outbox.cif.g09.slc.cpg/sg19_2_cif.got.tgz:2632.got - 2010.04.10 18:59:41.
