data_PCOD8157059
_publ_section_title
;
Structure prediction by ZEFSAII (Michael W. Deem and Ramdas Pophale) SiO2 
 PCOD8157059
Probable space group: P 21 21 21
;
_chemical_formula_sum "Si O2"
_cell_formula_units_Z 28
_cell_length_a 8.094025
_cell_length_b 9.751312
_cell_length_c 15.181704
_cell_angle_alpha 90.000000
_cell_angle_beta 90.000000
_cell_angle_gamma 90.000000
_cell_volume 1198.251864
_symmetry_space_group_name_H-M "P 21 21 21"
_symmetry_group_IT_number 19
_symmetry_cell_setting 'orthorhombic'
loop_
_space_group_symop_operation_xyz
x,y,z
1/2-x,-y,1/2+z
1/2+x,1/2-y,-z
-x,1/2+y,1/2-z
loop_
_atom_site_type_symbol
_atom_site_label
_atom_site_fract_x
_atom_site_fract_y
_atom_site_fract_z
Si Si1 0.614200 0.128861 0.607324
Si Si2 0.367358 0.233305 0.749646
Si Si3 0.185772 0.508680 0.747055
Si Si4 0.638255 0.418404 0.938346
Si Si5 0.810670 0.476201 0.754355
Si Si6 0.110298 0.368259 0.104465
Si Si7 0.854284 0.582782 0.072815
O O1 0.465149 0.189651 0.663845
O O2 0.778905 0.097095 0.664592
O O3 0.545197 0.988680 0.563085
O O4 0.646399 0.257146 0.540248
O O5 0.325309 0.392101 0.746346
O O6 0.201331 0.141331 0.751603
O O7 0.472486 0.201571 0.835077
O O8 0.221916 0.597792 0.658935
O O9 0.004795 0.442831 0.747689
O O10 0.732326 0.421231 0.844600
O O11 0.638327 0.255956 0.965659
O O12 0.729753 0.498720 0.014202
O O13 0.706411 0.409552 0.674647
O O14 0.033759 0.507681 0.062625
#
# Coordination Sequence:
#
# PCOD8157059 Si02
#       7
#     4   4   4   4   4   4   4
#     4  10  21  41  63  90 123 177 209 256 317 379
#     4   9  18  37  63  91 123 164 213 252 309 381
#     4  11  20  36  69  95 130 166 216 258 322 374
#     4  11  24  45  66  92 133 165 218 263 317 383
#     4  10  24  39  64  98 127 166 213 266 317 371
#     4  10  21  41  63  90 123 177 209 256 317 379
#     4  11  24  45  66  92 133 165 218 263 317 383
#
# _framework density 23.367374000000002
#
# number of rings (size 3 to 8) (size 9 to 14) (size 15 to 20)
#    0.000    1.714    2.857    2.571    4.000    2.286 
#    5.143    2.857    0.000    0.000    0.000    0.000 
#    0.000    0.000    0.000    0.000    0.000    0.000 
#
# Total GULP energy -346992.976524 kJ/mol
# GULP energy per Si atom -12392.606304 kJ/mol
# Density = 2.331419 g / cm^3
# Si number density = 23.367374 Si / 1000 Ang^3
#
#
#
# Elastic Constant Matrix: (Units=GPa)
#
#
# Indices 1 2 3 4 5 6 
#
# 1 74.2931 -0.5659 -14.5467 0.0000 0.0000 0.0000
# 2 -0.5659 105.9562 -13.5709 0.0000 0.0000 0.0000
# 3 -14.5467 -13.5709 28.0465 0.0000 0.0000 0.0000
# 4 0.0000 0.0000 0.0000 14.9271 0.0000 0.0000
# 5 0.0000 0.0000 0.0000 0.0000 16.3772 0.0000
# 6 0.0000 0.0000 0.0000 0.0000 0.0000 30.0285
#
#
#
# Elastic Compliance Matrix: (Units=1/GPa)
#
#
# Indices 1 2 3 4 5 6 
#
# 1 0.015113 0.001156 0.008398 0.000000 0.000000 0.000000
# 2 0.001156 0.010150 0.005511 0.000000 0.000000 0.000000
# 3 0.008398 0.005511 0.042678 0.000000 0.000000 0.000000
# 4 0.000000 0.000000 0.000000 0.066992 0.000000 0.000000
# 5 0.000000 0.000000 0.000000 0.000000 0.061061 0.000000
# 6 0.000000 0.000000 0.000000 0.000000 0.000000 0.033302
#
#
# Mechanical properties :
#
#
# Convention : Reuss Voigt Hill
#
# Bulk Modulus (GPa) = 10.19655 16.76986 13.48320
# Shear Modulus (GPa) = 21.56523 28.06517 24.81520
#
# Velocity S-wave (km/s) = 3.04119 3.46936 3.26231
# Velocity P-wave (km/s) = 4.08715 4.82088 4.46910
#
# Compressibility (1/GPa) = 0.09807242
#
# Stress axis : x y z
#
# Youngs Moduli (GPa) = 66.16638 98.52320 23.43147
#
# Poissons Ratio (x) = -0.11393 -0.19678
# Poissons Ratio (y) = -0.07651 -0.12913
# Poissons Ratio (z) = -0.55569 -0.54296
#
# Static dielectric constant tensor:
#      x y z
#    x 3.961900 0.000000 0.000000 
#    y 0.000000 4.901290 0.000000 
#    z 0.000000 0.000000 3.831530 
# 
# 
# High freq. dielectric constant tensor:
#      x y z
#    x 1.908000 0.000000 0.000000 
#    y 0.000000 1.950830 0.000000 
#    z 0.000000 0.000000 1.886200 
# 
# From -- ./inp_files/2951.got.cif
#   From: 2010.03.12/outbox.cif.g09.slc.cpg/sg19_2_cif.got.tgz:2951.got - 2010.04.10 18:59:41.
