data_PCOD8157126
_publ_section_title
;
Structure prediction by ZEFSAII (Michael W. Deem and Ramdas Pophale) SiO2 
 PCOD8157126
Probable space group: P 21 21 21
;
_chemical_formula_sum "Si O2"
_cell_formula_units_Z 20
_cell_length_a 6.957018
_cell_length_b 6.996482
_cell_length_c 18.185640
_cell_angle_alpha 90.000000
_cell_angle_beta 90.000000
_cell_angle_gamma 90.000000
_cell_volume 885.179684
_symmetry_space_group_name_H-M "P 21 21 21"
_symmetry_group_IT_number 19
_symmetry_cell_setting 'orthorhombic'
loop_
_space_group_symop_operation_xyz
x,y,z
1/2-x,-y,1/2+z
1/2+x,1/2-y,-z
-x,1/2+y,1/2-z
loop_
_atom_site_type_symbol
_atom_site_label
_atom_site_fract_x
_atom_site_fract_y
_atom_site_fract_z
Si Si1 0.847287 0.560978 0.846347
Si Si2 0.377871 0.568955 0.471022
Si Si3 0.352422 0.127232 0.904977
Si Si4 0.923798 0.964556 0.130108
Si Si5 0.829520 0.319969 0.701508
O O1 0.636570 0.621570 0.875121
O O2 0.752644 0.471591 0.643052
O O3 0.954700 0.752569 0.818769
O O4 0.954965 0.456543 0.911747
O O5 0.300413 0.788468 0.464860
O O6 0.464098 0.533993 0.552150
O O7 0.198283 0.429431 0.446925
O O8 0.672845 0.594011 0.281955
O O9 0.425378 0.305758 0.854547
O O10 0.810915 0.864321 0.197575
#
# Coordination Sequence:
#
# PCOD8157126 Si02
#       5
#     4   4   4   4   4
#     4  11  23  46  68 104 143 186 238 293 356 427
#     4   9  21  43  67  95 138 185 226 296 350 415
#     4  10  21  47  67 100 141 183 237 292 354 420
#     4   9  24  43  64 101 135 181 238 286 354 421
#     4  11  25  43  70 104 143 187 237 295 360 427
#
# _framework density 22.594283999999998
#
# number of rings (size 3 to 8) (size 9 to 14) (size 15 to 20)
#    1.200    0.800    0.000    2.400    2.800    0.000 
#   21.600    0.000    0.000    0.000    0.000    0.000 
#    0.000    0.000    0.000    0.000    0.000    0.000 
#
# Total GULP energy -247763.838637 kJ/mol
# GULP energy per Si atom -12388.191932 kJ/mol
# Density = 2.254286 g / cm^3
# Si number density = 22.594284 Si / 1000 Ang^3
#
#
#
# Elastic Constant Matrix: (Units=GPa)
#
#
# Indices 1 2 3 4 5 6 
#
# 1 169.2109 31.3351 30.3203 0.0000 0.0000 0.0000
# 2 31.3351 68.0552 26.2239 0.0000 0.0000 0.0000
# 3 30.3203 26.2239 51.4839 0.0000 0.0000 0.0000
# 4 0.0000 0.0000 0.0000 25.6103 0.0000 0.0000
# 5 0.0000 0.0000 0.0000 0.0000 23.9984 0.0000
# 6 0.0000 0.0000 0.0000 0.0000 0.0000 29.8762
#
#
#
# Elastic Compliance Matrix: (Units=1/GPa)
#
#
# Indices 1 2 3 4 5 6 
#
# 1 0.006815 -0.001980 -0.003005 0.000000 0.000000 0.000000
# 2 -0.001980 0.018858 -0.008439 0.000000 0.000000 0.000000
# 3 -0.003005 -0.008439 0.025492 0.000000 0.000000 0.000000
# 4 0.000000 0.000000 0.000000 0.039047 0.000000 0.000000
# 5 0.000000 0.000000 0.000000 0.000000 0.041669 0.000000
# 6 0.000000 0.000000 0.000000 0.000000 0.000000 0.033472
#
#
# Mechanical properties :
#
#
# Convention : Reuss Voigt Hill
#
# Bulk Modulus (GPa) = 41.12521 51.61206 46.36864
# Shear Modulus (GPa) = 24.96185 29.28836 27.12511
#
# Velocity S-wave (km/s) = 3.32744 3.60429 3.46862
# Velocity P-wave (km/s) = 5.74487 6.34143 6.05051
#
# Compressibility (1/GPa) = 0.02431599
#
# Stress axis : x y z
#
# Youngs Moduli (GPa) = 146.73766 53.02927 39.22810
#
# Poissons Ratio (x) = 0.10499 0.11788
# Poissons Ratio (y) = 0.29053 0.33106
# Poissons Ratio (z) = 0.44095 0.44753
#
# Static dielectric constant tensor:
#      x y z
#    x 4.361420 0.000000 0.000000 
#    y 0.000000 3.900000 0.000000 
#    z 0.000000 0.000000 3.773050 
# 
# 
# High freq. dielectric constant tensor:
#      x y z
#    x 1.905820 0.000000 0.000000 
#    y 0.000000 1.876350 0.000000 
#    z 0.000000 0.000000 1.864480 
# 
# From -- ./inp_files/5801.got.cif
#   From: 2010.03.12/outbox.cif.g09.slc.cpg/sg19_3_cif.got.tgz:5801.got - 2010.04.10 18:59:41.
