data_PCOD8157436
_publ_section_title
;
Structure prediction by ZEFSAII (Michael W. Deem and Ramdas Pophale) SiO2 
 PCOD8157436
Probable space group: P 21 21 21
;
_chemical_formula_sum "Si O2"
_cell_formula_units_Z 32
_cell_length_a 13.937800
_cell_length_b 9.270085
_cell_length_c 11.493857
_cell_angle_alpha 90.000000
_cell_angle_beta 90.000000
_cell_angle_gamma 90.000000
_cell_volume 1485.059089
_symmetry_space_group_name_H-M "P 21 21 21"
_symmetry_group_IT_number 19
_symmetry_cell_setting 'orthorhombic'
loop_
_space_group_symop_operation_xyz
x,y,z
1/2-x,-y,1/2+z
1/2+x,1/2-y,-z
-x,1/2+y,1/2-z
loop_
_atom_site_type_symbol
_atom_site_label
_atom_site_fract_x
_atom_site_fract_y
_atom_site_fract_z
Si Si1 0.325094 0.977913 0.850065
Si Si2 0.632028 0.284706 0.440459
Si Si3 0.670876 0.858752 0.929886
Si Si4 0.401938 0.868871 0.632064
Si Si5 0.947055 0.381658 0.521806
Si Si6 0.192877 0.333823 0.960423
Si Si7 0.118297 0.103518 0.803941
Si Si8 0.613014 0.787697 0.671833
O O1 0.367634 0.857007 0.764510
O O2 0.219413 0.023516 0.813638
O O3 0.391209 0.116259 0.833783
O O4 0.329823 0.912239 0.977856
O O5 0.719009 0.180640 0.404921
O O6 0.552507 0.183486 0.500122
O O7 0.587988 0.367651 0.328550
O O8 0.618927 0.851538 0.803529
O O9 0.625295 0.754071 0.028289
O O10 0.658372 0.013888 0.989851
O O11 0.319663 0.779594 0.565176
O O12 0.511615 0.823017 0.613810
O O13 0.402723 0.033691 0.587973
O O14 0.953404 0.490341 0.633029
O O15 0.123033 0.263610 0.862032
O O16 0.301103 0.346813 0.910775
#
# Coordination Sequence:
#
# PCOD8157436 Si02
#       8
#     4   4   4   4   4   4   4   4
#     4  11  23  42  72  99 131 184 226 285 335 401
#     4  12  24  43  73  98 140 178 231 281 347 409
#     4  12  23  44  68 101 138 174 230 283 336 401
#     4  11  24  44  69 102 133 175 234 275 343 406
#     4  11  24  44  69  98 136 178 224 282 343 414
#     4  10  25  42  69  99 139 177 219 286 339 395
#     4  10  23  48  64  97 143 179 226 278 343 421
#     4  11  24  43  68  98 142 171 228 286 330 407
#
# _framework density 21.547964
#
# number of rings (size 3 to 8) (size 9 to 14) (size 15 to 20)
#    0.000    1.000    5.000    1.500    7.000    2.000 
#    2.250    0.000    0.000    0.000    0.000    0.000 
#    0.000    0.000    0.000    0.000    0.000    0.000 
#
# Total GULP energy -396562.020067 kJ/mol
# GULP energy per Si atom -12392.563127 kJ/mol
# Density = 2.149892 g / cm^3
# Si number density = 21.547964 Si / 1000 Ang^3
#
#
#
# Elastic Constant Matrix: (Units=GPa)
#
#
# Indices 1 2 3 4 5 6 
#
# 1 60.3986 27.4855 13.9720 0.0000 0.0000 0.0000
# 2 27.4855 103.5757 44.8845 0.0000 0.0000 0.0000
# 3 13.9720 44.8845 111.5627 0.0000 0.0000 0.0000
# 4 0.0000 0.0000 0.0000 26.0434 0.0000 0.0000
# 5 0.0000 0.0000 0.0000 0.0000 25.3525 0.0000
# 6 0.0000 0.0000 0.0000 0.0000 0.0000 27.1936
#
#
#
# Elastic Compliance Matrix: (Units=1/GPa)
#
#
# Indices 1 2 3 4 5 6 
#
# 1 0.018847 -0.004819 -0.000422 0.000000 0.000000 0.000000
# 2 -0.004819 0.012925 -0.004597 0.000000 0.000000 0.000000
# 3 -0.000422 -0.004597 0.010866 0.000000 0.000000 0.000000
# 4 0.000000 0.000000 0.000000 0.038398 0.000000 0.000000
# 5 0.000000 0.000000 0.000000 0.000000 0.039444 0.000000
# 6 0.000000 0.000000 0.000000 0.000000 0.000000 0.036773
#
#
# Mechanical properties :
#
#
# Convention : Reuss Voigt Hill
#
# Bulk Modulus (GPa) = 43.54627 49.80233 46.67430
# Shear Modulus (GPa) = 27.08823 28.33088 27.70955
#
# Velocity S-wave (km/s) = 3.54943 3.62993 3.58990
# Velocity P-wave (km/s) = 6.08693 6.38208 6.23625
#
# Compressibility (1/GPa) = 0.02296408
#
# Stress axis : x y z
#
# Youngs Moduli (GPa) = 53.05871 77.36656 92.03203
#
# Poissons Ratio (x) = 0.37280 0.03881
# Poissons Ratio (y) = 0.25567 0.42305
# Poissons Ratio (z) = 0.02238 0.35564
#
# Static dielectric constant tensor:
#      x y z
#    x 3.733130 0.000000 0.000000 
#    y 0.000000 4.070710 0.000000 
#    z 0.000000 0.000000 3.936170 
# 
# 
# High freq. dielectric constant tensor:
#      x y z
#    x 1.838050 0.000000 0.000000 
#    y 0.000000 1.850900 0.000000 
#    z 0.000000 0.000000 1.846490 
# 
# From -- ./inp_files/3649.got.cif
#   From: 2010.03.12/outbox.cif.g09.slc.cpg/sg19_2_cif.got.tgz:3649.got - 2010.04.10 18:59:41.
