data_PCOD8157727
_publ_section_title
;
Structure prediction by ZEFSAII (Michael W. Deem and Ramdas Pophale) SiO2 
 PCOD8157727
Probable space group: P 21 21 21
;
_chemical_formula_sum "Si O2"
_cell_formula_units_Z 32
_cell_length_a 19.907786
_cell_length_b 11.961391
_cell_length_c 6.045192
_cell_angle_alpha 90.000000
_cell_angle_beta 90.000000
_cell_angle_gamma 90.000000
_cell_volume 1439.510210
_symmetry_space_group_name_H-M "P 21 21 21"
_symmetry_group_IT_number 19
_symmetry_cell_setting 'orthorhombic'
loop_
_space_group_symop_operation_xyz
x,y,z
1/2-x,-y,1/2+z
1/2+x,1/2-y,-z
-x,1/2+y,1/2-z
loop_
_atom_site_type_symbol
_atom_site_label
_atom_site_fract_x
_atom_site_fract_y
_atom_site_fract_z
Si Si1 0.363519 0.066199 0.405811
Si Si2 0.783399 0.015145 0.747782
Si Si3 0.699975 0.747994 0.371828
Si Si4 0.525938 0.515264 0.411993
Si Si5 0.540853 0.286665 0.627115
Si Si6 0.410254 0.194165 0.804860
Si Si7 0.845116 0.674434 0.465486
Si Si8 0.093897 0.354053 0.740615
O O1 0.314502 0.127231 0.234930
O O2 0.436070 0.024917 0.321200
O O3 0.376697 0.166514 0.573607
O O4 0.326459 0.954937 0.490567
O O5 0.807440 0.143248 0.715662
O O6 0.754424 0.985487 0.497900
O O7 0.842414 0.930285 0.804367
O O8 0.645167 0.766294 0.564993
O O9 0.776553 0.743456 0.451269
O O10 0.515385 0.386740 0.471610
O O11 0.574107 0.574241 0.588596
O O12 0.454577 0.577746 0.404570
O O13 0.479176 0.264718 0.793482
O O14 0.610307 0.319076 0.744861
O O15 0.554858 0.174263 0.486441
O O16 0.886399 0.733186 0.661680
#
# Coordination Sequence:
#
# PCOD8157727 Si02
#       8
#     4   4   4   4   4   4   4   4
#     4  11  25  44  71 104 147 182 246 314 384 457
#     4  12  29  53  76 110 158 206 265 321 388 474
#     4  11  29  46  72 108 149 196 254 312 397 460
#     4  11  24  43  68 110 135 190 243 313 381 461
#     4  12  25  43  76 104 146 192 257 316 390 464
#     4  11  25  45  70 104 146 192 243 314 388 460
#     4  12  25  48  72 105 144 193 250 311 383 472
#     4  12  26  44  77 103 149 199 256 317 389 454
#
# _framework density 22.229782
#
# number of rings (size 3 to 8) (size 9 to 14) (size 15 to 20)
#    0.000    0.500    6.250    0.750    5.250    3.000 
#    0.000    0.000    0.000    0.000    0.000    0.000 
#    0.000    0.000    0.000    0.000    0.000    0.000 
#
# Total GULP energy -396523.866249 kJ/mol
# GULP energy per Si atom -12391.370820 kJ/mol
# Density = 2.217919 g / cm^3
# Si number density = 22.229782 Si / 1000 Ang^3
#
#
#
# Elastic Constant Matrix: (Units=GPa)
#
#
# Indices 1 2 3 4 5 6 
#
# 1 113.4238 37.2143 36.3461 0.0000 0.0000 0.0000
# 2 37.2143 121.6683 24.4397 0.0000 0.0000 0.0000
# 3 36.3461 24.4397 86.0800 0.0000 0.0000 0.0000
# 4 0.0000 0.0000 0.0000 35.0895 0.0000 0.0000
# 5 0.0000 0.0000 0.0000 0.0000 30.2948 0.0000
# 6 0.0000 0.0000 0.0000 0.0000 0.0000 38.8030
#
#
#
# Elastic Compliance Matrix: (Units=1/GPa)
#
#
# Indices 1 2 3 4 5 6 
#
# 1 0.010897 -0.002554 -0.003876 0.000000 0.000000 0.000000
# 2 -0.002554 0.009315 -0.001566 0.000000 0.000000 0.000000
# 3 -0.003876 -0.001566 0.013698 0.000000 0.000000 0.000000
# 4 0.000000 0.000000 0.000000 0.028499 0.000000 0.000000
# 5 0.000000 0.000000 0.000000 0.000000 0.033009 0.000000
# 6 0.000000 0.000000 0.000000 0.000000 0.000000 0.025771
#
#
# Mechanical properties :
#
#
# Convention : Reuss Voigt Hill
#
# Bulk Modulus (GPa) = 55.81195 57.46360 56.63777
# Shear Modulus (GPa) = 34.92761 35.71559 35.32160
#
# Velocity S-wave (km/s) = 3.96815 4.01266 3.99046
# Velocity P-wave (km/s) = 6.79384 6.88291 6.83852
#
# Compressibility (1/GPa) = 0.01791731
#
# Stress axis : x y z
#
# Youngs Moduli (GPa) = 91.77237 107.35417 73.00225
#
# Poissons Ratio (x) = 0.27422 0.28293
# Poissons Ratio (y) = 0.23442 0.11433
# Poissons Ratio (z) = 0.35568 0.16813
#
# Static dielectric constant tensor:
#      x y z
#    x 3.945600 0.000000 0.000000 
#    y 0.000000 3.957620 0.000000 
#    z 0.000000 0.000000 4.161800 
# 
# 
# High freq. dielectric constant tensor:
#      x y z
#    x 1.875400 0.000000 0.000000 
#    y 0.000000 1.888850 0.000000 
#    z 0.000000 0.000000 1.872590 
# 
# From -- ./inp_files/2020.got.cif
#   From: 2010.03.12/outbox.cif.g09.slc.cpg/sg19_2_cif.got.tgz:2020.got - 2010.04.10 18:59:41.
