data_PCOD8157147
_publ_section_title
;
Structure prediction by ZEFSAII (Michael W. Deem and Ramdas Pophale) SiO2 
 PCOD8157147
Probable space group: P 21 21 21
;
_chemical_formula_sum "Si O2"
_cell_formula_units_Z 32
_cell_length_a 11.223523
_cell_length_b 5.388354
_cell_length_c 23.206419
_cell_angle_alpha 90.000000
_cell_angle_beta 90.000000
_cell_angle_gamma 90.000000
_cell_volume 1403.438707
_symmetry_space_group_name_H-M "P 21 21 21"
_symmetry_group_IT_number 19
_symmetry_cell_setting 'orthorhombic'
loop_
_space_group_symop_operation_xyz
x,y,z
1/2-x,-y,1/2+z
1/2+x,1/2-y,-z
-x,1/2+y,1/2-z
loop_
_atom_site_type_symbol
_atom_site_label
_atom_site_fract_x
_atom_site_fract_y
_atom_site_fract_z
Si Si1 0.790162 0.138939 0.476937
Si Si2 0.162977 0.093450 0.752429
Si Si3 0.444681 0.379759 0.015995
Si Si4 0.631748 0.151105 0.078666
Si Si5 0.517816 0.664308 0.904110
Si Si6 0.576708 0.904188 0.189215
Si Si7 0.320861 0.004657 0.943597
Si Si8 0.558109 0.557203 0.775902
O O1 0.859288 0.189883 0.417437
O O2 0.784847 0.353545 0.525465
O O3 0.656698 0.063143 0.460679
O O4 0.859308 0.925121 0.511396
O O5 0.136014 0.854812 0.792432
O O6 0.065312 0.084986 0.700979
O O7 0.143629 0.354974 0.784428
O O8 0.298925 0.074331 0.731151
O O9 0.505610 0.482665 0.958077
O O10 0.394814 0.112767 0.997142
O O11 0.525085 0.350578 0.073371
O O12 0.599519 0.926990 0.121029
O O13 0.757868 0.281790 0.095791
O O14 0.403062 0.844531 0.900792
O O15 0.530309 0.524062 0.843696
O O16 0.504313 0.311832 0.745741
#
# Coordination Sequence:
#
# PCOD8157147 Si02
#       8
#     4   4   4   4   4   4   4   4
#     4  10  22  40  64  97 138 183 219 288 347 440
#     4  10  24  51  69 107 138 189 245 310 362 418
#     4  10  22  40  65 100 142 175 232 276 362 441
#     4  11  22  39  69 106 132 189 228 285 365 439
#     4  11  24  45  68  98 144 185 232 300 359 422
#     4  10  24  45  78 101 147 181 244 311 361 423
#     4  10  22  39  63  95 138 177 228 277 352 432
#     4  12  30  49  76 106 143 197 258 303 368 437
#
# _framework density 22.801138999999999
#
# number of rings (size 3 to 8) (size 9 to 14) (size 15 to 20)
#    0.000    1.500    2.500    0.750    5.250    5.000 
#    9.000    0.000    0.000    0.000    0.000    0.000 
#    0.000    0.000    0.000    0.000    0.000    0.000 
#
# Total GULP energy -396519.342037 kJ/mol
# GULP energy per Si atom -12391.229439 kJ/mol
# Density = 2.274924 g / cm^3
# Si number density = 22.801139 Si / 1000 Ang^3
#
#
#
# Elastic Constant Matrix: (Units=GPa)
#
#
# Indices 1 2 3 4 5 6 
#
# 1 119.0257 21.6198 34.5449 0.0000 0.0000 0.0000
# 2 21.6198 91.6716 10.5581 0.0000 0.0000 0.0000
# 3 34.5449 10.5581 72.5780 0.0000 0.0000 0.0000
# 4 0.0000 0.0000 0.0000 31.2034 0.0000 0.0000
# 5 0.0000 0.0000 0.0000 0.0000 25.8842 0.0000
# 6 0.0000 0.0000 0.0000 0.0000 0.0000 29.8661
#
#
#
# Elastic Compliance Matrix: (Units=1/GPa)
#
#
# Indices 1 2 3 4 5 6 
#
# 1 0.010047 -0.001850 -0.004513 0.000000 0.000000 0.000000
# 2 -0.001850 0.011435 -0.000783 0.000000 0.000000 0.000000
# 3 -0.004513 -0.000783 0.016040 0.000000 0.000000 0.000000
# 4 0.000000 0.000000 0.000000 0.032048 0.000000 0.000000
# 5 0.000000 0.000000 0.000000 0.000000 0.038634 0.000000
# 6 0.000000 0.000000 0.000000 0.000000 0.000000 0.033483
#
#
# Mechanical properties :
#
#
# Convention : Reuss Voigt Hill
#
# Bulk Modulus (GPa) = 43.04645 46.30232 44.67438
# Shear Modulus (GPa) = 30.53952 31.82758 31.18355
#
# Velocity S-wave (km/s) = 3.66373 3.74020 3.70216
# Velocity P-wave (km/s) = 6.06773 6.24525 6.15713
#
# Compressibility (1/GPa) = 0.02323072
#
# Stress axis : x y z
#
# Youngs Moduli (GPa) = 99.52827 87.45124 62.34289
#
# Poissons Ratio (x) = 0.16177 0.28136
# Poissons Ratio (y) = 0.18411 0.04882
# Poissons Ratio (z) = 0.44919 0.06848
#
# Static dielectric constant tensor:
#      x y z
#    x 4.430350 0.000000 0.000000 
#    y 0.000000 4.281310 0.000000 
#    z 0.000000 0.000000 3.748400 
# 
# 
# High freq. dielectric constant tensor:
#      x y z
#    x 1.921660 0.000000 0.000000 
#    y 0.000000 1.913190 0.000000 
#    z 0.000000 0.000000 1.866990 
# 
# From -- ./inp_files/7393.got.cif
#   From: 2010.03.12/outbox.cif.g09.slc.cpg/sg19_4_cif.got.tgz:7393.got - 2010.04.10 18:59:41.
