data_PCOD8157170
_publ_section_title
;
Structure prediction by ZEFSAII (Michael W. Deem and Ramdas Pophale) SiO2 
 PCOD8157170
Probable space group: P 21 21 21
;
_chemical_formula_sum "Si O2"
_cell_formula_units_Z 28
_cell_length_a 13.265726
_cell_length_b 7.727530
_cell_length_c 12.554251
_cell_angle_alpha 90.000000
_cell_angle_beta 90.000000
_cell_angle_gamma 90.000000
_cell_volume 1286.952536
_symmetry_space_group_name_H-M "P 21 21 21"
_symmetry_group_IT_number 19
_symmetry_cell_setting 'orthorhombic'
loop_
_space_group_symop_operation_xyz
x,y,z
1/2-x,-y,1/2+z
1/2+x,1/2-y,-z
-x,1/2+y,1/2-z
loop_
_atom_site_type_symbol
_atom_site_label
_atom_site_fract_x
_atom_site_fract_y
_atom_site_fract_z
Si Si1 0.139777 0.546171 0.703194
Si Si2 0.943698 0.543100 0.591322
Si Si3 0.115521 0.038424 0.301448
Si Si4 0.240384 0.404557 0.012972
Si Si5 0.270746 0.765186 0.300132
Si Si6 0.210305 0.750973 0.904430
Si Si7 0.535715 0.241649 0.894089
O O1 0.178806 0.650277 0.601149
O O2 0.213906 0.381873 0.712832
O O3 0.149643 0.666018 0.806060
O O4 0.027394 0.480217 0.676341
O O5 0.880746 0.676885 0.662179
O O6 0.867331 0.394015 0.550817
O O7 0.999534 0.626407 0.487641
O O8 0.180174 0.168678 0.375542
O O9 0.055144 0.147966 0.213586
O O10 0.199813 0.912119 0.248608
O O11 0.039651 0.917835 0.369813
O O12 0.281576 0.313774 0.905882
O O13 0.231510 0.610443 0.994756
O O14 0.135172 0.338226 0.056469
#
# Coordination Sequence:
#
# PCOD8157170 Si02
#       7
#     4   4   4   4   4   4   4
#     4  11  20  38  66  91 126 173 210 272 326 383
#     4  10  22  41  62  96 127 170 215 272 312 398
#     4  11  24  43  64  94 128 178 211 273 323 391
#     4  10  22  40  63  96 129 171 214 272 313 394
#     4   9  22  40  61  91 131 166 218 263 321 382
#     4  10  23  42  66  93 133 167 222 265 335 380
#     4  11  25  40  66  93 134 169 224 263 328 378
#
# _framework density 21.756826
#
# number of rings (size 3 to 8) (size 9 to 14) (size 15 to 20)
#    0.000    1.714    1.429    1.714    4.000    2.286 
#    0.000    1.429    0.000    0.000    0.000    0.000 
#    0.000    0.000    0.000    0.000    0.000    0.000 
#
# Total GULP energy -346970.671215 kJ/mol
# GULP energy per Si atom -12391.809686 kJ/mol
# Density = 2.170731 g / cm^3
# Si number density = 21.756826 Si / 1000 Ang^3
#
#
#
# Elastic Constant Matrix: (Units=GPa)
#
#
# Indices 1 2 3 4 5 6 
#
# 1 39.0612 -0.4372 15.6736 0.0000 0.0000 0.0000
# 2 -0.4372 83.9883 16.8964 0.0000 0.0000 0.0000
# 3 15.6736 16.8964 69.5510 0.0000 0.0000 0.0000
# 4 0.0000 0.0000 0.0000 30.9997 0.0000 0.0000
# 5 0.0000 0.0000 0.0000 0.0000 28.0230 0.0000
# 6 0.0000 0.0000 0.0000 0.0000 0.0000 29.8261
#
#
#
# Elastic Compliance Matrix: (Units=1/GPa)
#
#
# Indices 1 2 3 4 5 6 
#
# 1 0.028326 0.001505 -0.006749 0.000000 0.000000 0.000000
# 2 0.001505 0.012598 -0.003400 0.000000 0.000000 0.000000
# 3 -0.006749 -0.003400 0.016725 0.000000 0.000000 0.000000
# 4 0.000000 0.000000 0.000000 0.032258 0.000000 0.000000
# 5 0.000000 0.000000 0.000000 0.000000 0.035685 0.000000
# 6 0.000000 0.000000 0.000000 0.000000 0.000000 0.033528
#
#
# Mechanical properties :
#
#
# Convention : Reuss Voigt Hill
#
# Bulk Modulus (GPa) = 24.77601 28.54069 26.65835
# Shear Modulus (GPa) = 26.33507 28.46760 27.40134
#
# Velocity S-wave (km/s) = 3.48290 3.62117 3.55270
# Velocity P-wave (km/s) = 5.25228 5.53447 5.39522
#
# Compressibility (1/GPa) = 0.04036162
#
# Stress axis : x y z
#
# Youngs Moduli (GPa) = 35.30354 79.37638 59.79145
#
# Poissons Ratio (x) = -0.11948 0.40353
# Poissons Ratio (y) = -0.05314 0.20328
# Poissons Ratio (z) = 0.23826 0.26986
#
# Static dielectric constant tensor:
#      x y z
#    x 3.874950 0.000000 0.000000 
#    y 0.000000 4.074920 0.000000 
#    z 0.000000 0.000000 3.812540 
# 
# 
# High freq. dielectric constant tensor:
#      x y z
#    x 1.859980 0.000000 0.000000 
#    y 0.000000 1.859870 0.000000 
#    z 0.000000 0.000000 1.847410 
# 
# From -- ./inp_files/5208.got.cif
#   From: 2010.03.12/outbox.cif.g09.slc.cpg/sg19_3_cif.got.tgz:5208.got - 2010.04.10 18:59:41.
