data_PCOD8157276
_publ_section_title
;
Structure prediction by ZEFSAII (Michael W. Deem and Ramdas Pophale) SiO2 
 PCOD8157276
Probable space group: P 21 21 21
;
_chemical_formula_sum "Si O2"
_cell_formula_units_Z 28
_cell_length_a 9.084070
_cell_length_b 14.039265
_cell_length_c 10.142851
_cell_angle_alpha 90.000000
_cell_angle_beta 90.000000
_cell_angle_gamma 90.000000
_cell_volume 1293.554972
_symmetry_space_group_name_H-M "P 21 21 21"
_symmetry_group_IT_number 19
_symmetry_cell_setting 'orthorhombic'
loop_
_space_group_symop_operation_xyz
x,y,z
1/2-x,-y,1/2+z
1/2+x,1/2-y,-z
-x,1/2+y,1/2-z
loop_
_atom_site_type_symbol
_atom_site_label
_atom_site_fract_x
_atom_site_fract_y
_atom_site_fract_z
Si Si1 0.557780 0.536325 0.931568
Si Si2 0.014687 0.343928 0.946255
Si Si3 0.169328 0.172809 0.059186
Si Si4 0.921742 0.996539 0.335637
Si Si5 0.412887 0.817502 0.852199
Si Si6 0.205455 0.784189 0.074302
Si Si7 0.873231 0.887556 0.830381
O O1 0.619639 0.434205 0.972603
O O2 0.434279 0.531814 0.818129
O O3 0.690139 0.605411 0.877754
O O4 0.494059 0.587533 0.060935
O O5 0.056808 0.400824 0.813765
O O6 0.843637 0.320059 0.947122
O O7 0.101751 0.243922 0.951228
O O8 0.062624 0.405915 0.071411
O O9 0.105491 0.207328 0.199276
O O10 0.761999 0.041693 0.354642
O O11 0.053007 0.070219 0.369733
O O12 0.543789 0.760018 0.920298
O O13 0.262281 0.787609 0.923528
O O14 0.318608 0.722364 0.161058
#
# Coordination Sequence:
#
# PCOD8157276 Si02
#       7
#     4   4   4   4   4   4   4
#     4  11  23  47  71 100 141 188 237 293 357 424
#     4  12  27  47  69 108 144 190 242 294 368 423
#     4  11  28  45  72 103 150 192 239 301 360 433
#     4  10  24  43  74  99 144 183 235 299 356 425
#     4  10  22  43  67 105 139 185 241 293 358 423
#     4  11  21  41  71 101 138 182 235 293 354 419
#     4  11  25  44  72 106 138 186 243 295 357 429
#
# _framework density 21.645775
#
# number of rings (size 3 to 8) (size 9 to 14) (size 15 to 20)
#    0.000    1.143    1.429    3.429   10.000    1.143 
#    2.571    0.000    0.000    0.000    0.000    0.000 
#    0.000    0.000    0.000    0.000    0.000    0.000 
#
# Total GULP energy -347213.653131 kJ/mol
# GULP energy per Si atom -12400.487612 kJ/mol
# Density = 2.159651 g / cm^3
# Si number density = 21.645775 Si / 1000 Ang^3
#
#
#
# Elastic Constant Matrix: (Units=GPa)
#
#
# Indices 1 2 3 4 5 6 
#
# 1 128.1594 50.0278 45.2124 0.0000 0.0000 0.0000
# 2 50.0278 125.1204 49.7578 0.0000 0.0000 0.0000
# 3 45.2124 49.7578 88.7046 0.0000 0.0000 0.0000
# 4 0.0000 0.0000 0.0000 31.4165 0.0000 0.0000
# 5 0.0000 0.0000 0.0000 0.0000 34.8870 0.0000
# 6 0.0000 0.0000 0.0000 0.0000 0.0000 33.2248
#
#
#
# Elastic Compliance Matrix: (Units=1/GPa)
#
#
# Indices 1 2 3 4 5 6 
#
# 1 0.010116 -0.002567 -0.003716 0.000000 0.000000 0.000000
# 2 -0.002567 0.010938 -0.004827 0.000000 0.000000 0.000000
# 3 -0.003716 -0.004827 0.015875 0.000000 0.000000 0.000000
# 4 0.000000 0.000000 0.000000 0.031830 0.000000 0.000000
# 5 0.000000 0.000000 0.000000 0.000000 0.028664 0.000000
# 6 0.000000 0.000000 0.000000 0.000000 0.000000 0.030098
#
#
# Mechanical properties :
#
#
# Convention : Reuss Voigt Hill
#
# Bulk Modulus (GPa) = 67.98702 70.22004 69.10353
# Shear Modulus (GPa) = 32.33198 33.03808 32.68503
#
# Velocity S-wave (km/s) = 3.86902 3.91104 3.89008
# Velocity P-wave (km/s) = 7.17190 7.27364 7.22295
#
# Compressibility (1/GPa) = 0.01470869
#
# Stress axis : x y z
#
# Youngs Moduli (GPa) = 98.85587 91.42106 62.99058
#
# Poissons Ratio (x) = 0.23466 0.23408
# Poissons Ratio (y) = 0.25375 0.30409
# Poissons Ratio (z) = 0.36736 0.44133
#
# Static dielectric constant tensor:
#      x y z
#    x 3.867870 0.000000 0.000000 
#    y 0.000000 4.173160 0.000000 
#    z 0.000000 0.000000 3.800830 
# 
# 
# High freq. dielectric constant tensor:
#      x y z
#    x 1.852320 0.000000 0.000000 
#    y 0.000000 1.863430 0.000000 
#    z 0.000000 0.000000 1.847220 
# 
# From -- ./inp_files/2856.got.cif
#   From: 2010.03.12/outbox.cif.g09.slc.cpg/sg19_2_cif.got.tgz:2856.got - 2010.04.10 18:59:41.
