data_PCOD8157595
_publ_section_title
;
Structure prediction by ZEFSAII (Michael W. Deem and Ramdas Pophale) SiO2 
 PCOD8157595
Probable space group: P 21 21 21
;
_chemical_formula_sum "Si O2"
_cell_formula_units_Z 28
_cell_length_a 23.582223
_cell_length_b 7.711950
_cell_length_c 6.775954
_cell_angle_alpha 90.000000
_cell_angle_beta 90.000000
_cell_angle_gamma 90.000000
_cell_volume 1232.308364
_symmetry_space_group_name_H-M "P 21 21 21"
_symmetry_group_IT_number 19
_symmetry_cell_setting 'orthorhombic'
loop_
_space_group_symop_operation_xyz
x,y,z
1/2-x,-y,1/2+z
1/2+x,1/2-y,-z
-x,1/2+y,1/2-z
loop_
_atom_site_type_symbol
_atom_site_label
_atom_site_fract_x
_atom_site_fract_y
_atom_site_fract_z
Si Si1 0.565259 0.217451 0.325462
Si Si2 0.834755 0.414771 0.317013
Si Si3 0.692742 0.157463 0.346049
Si Si4 0.948685 0.499982 0.150019
Si Si5 0.236991 0.872726 0.840850
Si Si6 0.710499 0.822440 0.548603
Si Si7 0.016365 0.633045 0.505958
O O1 0.632657 0.246089 0.297039
O O2 0.543279 0.345601 0.495724
O O3 0.550214 0.013436 0.366886
O O4 0.536114 0.285930 0.126479
O O5 0.888788 0.528949 0.263416
O O6 0.822802 0.421630 0.551538
O O7 0.776162 0.461827 0.199391
O O8 0.837141 0.224592 0.216898
O O9 0.727961 0.247448 0.519253
O O10 0.678164 0.974045 0.437828
O O11 0.728867 0.129688 0.146904
O O12 0.948419 0.306206 0.055974
O O13 0.997123 0.526557 0.312796
O O14 0.222672 0.814061 0.623326
#
# Coordination Sequence:
#
# PCOD8157595 Si02
#       7
#     4   4   4   4   4   4   4
#     4  12  26  47  76 105 139 191 242 306 368 427
#     4  11  24  40  68  95 137 179 222 279 351 421
#     4  11  24  42  69  96 140 182 222 283 355 418
#     4  12  26  48  74 105 140 188 243 307 362 432
#     4  11  22  40  63  98 137 174 219 273 332 432
#     4  11  23  43  62 102 141 176 226 281 340 438
#     4  12  27  50  72 105 142 184 252 311 360 424
#
# _framework density 22.721587
#
# number of rings (size 3 to 8) (size 9 to 14) (size 15 to 20)
#    0.000    0.571    7.143    0.857    2.000    1.143 
#    5.143    0.000    0.000    0.000    0.000    0.000 
#    0.000    0.000    0.000    0.000    0.000    0.000 
#
# Total GULP energy -346879.469616 kJ/mol
# GULP energy per Si atom -12388.552486 kJ/mol
# Density = 2.266987 g / cm^3
# Si number density = 22.721587 Si / 1000 Ang^3
#
#
#
# Elastic Constant Matrix: (Units=GPa)
#
#
# Indices 1 2 3 4 5 6 
#
# 1 41.2347 5.0952 3.3106 0.0000 0.0000 0.0000
# 2 5.0952 99.5737 20.8090 0.0000 0.0000 0.0000
# 3 3.3106 20.8090 93.0816 0.0000 0.0000 0.0000
# 4 0.0000 0.0000 0.0000 42.2686 0.0000 0.0000
# 5 0.0000 0.0000 0.0000 0.0000 30.4233 0.0000
# 6 0.0000 0.0000 0.0000 0.0000 0.0000 26.1262
#
#
#
# Elastic Compliance Matrix: (Units=1/GPa)
#
#
# Indices 1 2 3 4 5 6 
#
# 1 0.024440 -0.001121 -0.000619 0.000000 0.000000 0.000000
# 2 -0.001121 0.010586 -0.002327 0.000000 0.000000 0.000000
# 3 -0.000619 -0.002327 0.011285 0.000000 0.000000 0.000000
# 4 0.000000 0.000000 0.000000 0.023658 0.000000 0.000000
# 5 0.000000 0.000000 0.000000 0.000000 0.032870 0.000000
# 6 0.000000 0.000000 0.000000 0.000000 0.000000 0.038276
#
#
# Mechanical properties :
#
#
# Convention : Reuss Voigt Hill
#
# Bulk Modulus (GPa) = 26.19295 32.47993 29.33644
# Shear Modulus (GPa) = 30.86906 33.40863 32.13884
#
# Velocity S-wave (km/s) = 3.68989 3.83867 3.76501
# Velocity P-wave (km/s) = 5.45037 5.82863 5.64267
#
# Compressibility (1/GPa) = 0.03817822
#
# Stress axis : x y z
#
# Youngs Moduli (GPa) = 40.91715 94.46047 88.60985
#
# Poissons Ratio (x) = 0.10592 0.05481
# Poissons Ratio (y) = 0.04588 0.20618
# Poissons Ratio (z) = 0.02531 0.21979
#
# Static dielectric constant tensor:
#      x y z
#    x 4.037150 0.000000 0.000000 
#    y 0.000000 4.473070 0.000000 
#    z 0.000000 0.000000 4.290640 
# 
# 
# High freq. dielectric constant tensor:
#      x y z
#    x 1.879640 0.000000 0.000000 
#    y 0.000000 1.907150 0.000000 
#    z 0.000000 0.000000 1.912450 
# 
# From -- ./inp_files/2151.got.cif
#   From: 2010.03.12/outbox.cif.g09.slc.cpg/sg19_2_cif.got.tgz:2151.got - 2010.04.10 18:59:41.
