data_PCOD8157071
_publ_section_title
;
Structure prediction by ZEFSAII (Michael W. Deem and Ramdas Pophale) SiO2 
 PCOD8157071
Probable space group: P 21 21 21
;
_chemical_formula_sum "Si O2"
_cell_formula_units_Z 28
_cell_length_a 17.334849
_cell_length_b 8.226245
_cell_length_c 9.183313
_cell_angle_alpha 90.000000
_cell_angle_beta 90.000000
_cell_angle_gamma 90.000000
_cell_volume 1309.546999
_symmetry_space_group_name_H-M "P 21 21 21"
_symmetry_group_IT_number 19
_symmetry_cell_setting 'orthorhombic'
loop_
_space_group_symop_operation_xyz
x,y,z
1/2-x,-y,1/2+z
1/2+x,1/2-y,-z
-x,1/2+y,1/2-z
loop_
_atom_site_type_symbol
_atom_site_label
_atom_site_fract_x
_atom_site_fract_y
_atom_site_fract_z
Si Si1 0.663539 0.743344 0.075027
Si Si2 0.748122 0.787530 0.357282
Si Si3 0.989773 0.348134 0.945507
Si Si4 0.755220 0.592104 0.835259
Si Si5 0.650153 0.777193 0.611965
Si Si6 0.080942 0.056300 0.793207
Si Si7 0.895147 0.000096 0.355995
O O1 0.690437 0.826307 0.224822
O O2 0.606658 0.590377 0.100732
O O3 0.739558 0.687009 0.985679
O O4 0.618119 0.878808 0.988734
O O5 0.759771 0.595299 0.367570
O O6 0.715121 0.860564 0.509444
O O7 0.828980 0.870154 0.330786
O O8 0.980967 0.488386 0.823760
O O9 0.038874 0.197189 0.883804
O O10 0.903161 0.306504 0.991171
O O11 0.027304 0.408796 0.097325
O O12 0.692119 0.649503 0.717270
O O13 0.842255 0.629773 0.783342
O O14 0.598529 0.904401 0.703277
#
# Coordination Sequence:
#
# PCOD8157071 Si02
#       7
#     4   4   4   4   4   4   4
#     4  10  21  41  68  96 127 176 230 275 332 401
#     4  11  20  40  66  95 127 172 225 276 327 401
#     4  12  25  44  65 100 138 181 223 276 349 409
#     4  10  21  41  70  94 127 176 226 279 334 403
#     4  11  24  43  65  99 133 172 226 276 332 407
#     4  11  24  43  70  97 135 179 225 282 339 418
#     4  11  25  40  64  97 137 170 217 282 337 397
#
# _framework density 21.381439
#
# number of rings (size 3 to 8) (size 9 to 14) (size 15 to 20)
#    0.000    1.143    2.857    5.143    0.000    4.571 
#    2.571    0.000    0.000    0.000    0.000    0.000 
#    0.000    0.000    0.000    0.000    0.000    0.000 
#
# Total GULP energy -347154.607555 kJ/mol
# GULP energy per Si atom -12398.378841 kJ/mol
# Density = 2.133277 g / cm^3
# Si number density = 21.381439 Si / 1000 Ang^3
#
#
#
# Elastic Constant Matrix: (Units=GPa)
#
#
# Indices 1 2 3 4 5 6 
#
# 1 73.2688 31.8029 23.4423 0.0000 0.0000 0.0000
# 2 31.8029 51.2509 27.4843 0.0000 0.0000 0.0000
# 3 23.4423 27.4843 108.5174 0.0000 0.0000 0.0000
# 4 0.0000 0.0000 0.0000 35.5170 0.0000 0.0000
# 5 0.0000 0.0000 0.0000 0.0000 33.1562 0.0000
# 6 0.0000 0.0000 0.0000 0.0000 0.0000 34.0056
#
#
#
# Elastic Compliance Matrix: (Units=1/GPa)
#
#
# Indices 1 2 3 4 5 6 
#
# 1 0.018833 -0.010998 -0.001283 0.000000 0.000000 0.000000
# 2 -0.010998 0.029002 -0.004969 0.000000 0.000000 0.000000
# 3 -0.001283 -0.004969 0.010751 0.000000 0.000000 0.000000
# 4 0.000000 0.000000 0.000000 0.028156 0.000000 0.000000
# 5 0.000000 0.000000 0.000000 0.000000 0.030160 0.000000
# 6 0.000000 0.000000 0.000000 0.000000 0.000000 0.029407
#
#
# Mechanical properties :
#
#
# Convention : Reuss Voigt Hill
#
# Bulk Modulus (GPa) = 41.52106 44.27733 42.89920
# Shear Modulus (GPa) = 26.47786 30.55628 28.51707
#
# Velocity S-wave (km/s) = 3.52285 3.78445 3.65599
# Velocity P-wave (km/s) = 6.00072 6.31263 6.15865
#
# Compressibility (1/GPa) = 0.02408416
#
# Stress axis : x y z
#
# Youngs Moduli (GPa) = 53.09903 34.48076 93.01628
#
# Poissons Ratio (x) = 0.37923 0.11931
# Poissons Ratio (y) = 0.58401 0.46223
# Poissons Ratio (z) = 0.06811 0.17135
#
# Static dielectric constant tensor:
#      x y z
#    x 3.821150 0.000000 0.000000 
#    y 0.000000 3.824400 0.000000 
#    z 0.000000 0.000000 4.156090 
# 
# 
# High freq. dielectric constant tensor:
#      x y z
#    x 1.835410 0.000000 0.000000 
#    y 0.000000 1.832970 0.000000 
#    z 0.000000 0.000000 1.856790 
# 
# From -- ./inp_files/4130.got.cif
#   From: 2010.03.12/outbox.cif.g09.slc.cpg/sg19_3_cif.got.tgz:4130.got - 2010.04.10 18:59:41.
