data_PCOD8157706
_publ_section_title
;
Structure prediction by ZEFSAII (Michael W. Deem and Ramdas Pophale) SiO2 
 PCOD8157706
Probable space group: P 21 21 21
;
_chemical_formula_sum "Si O2"
_cell_formula_units_Z 28
_cell_length_a 11.333829
_cell_length_b 11.115580
_cell_length_c 9.224775
_cell_angle_alpha 90.000000
_cell_angle_beta 90.000000
_cell_angle_gamma 90.000000
_cell_volume 1162.156369
_symmetry_space_group_name_H-M "P 21 21 21"
_symmetry_group_IT_number 19
_symmetry_cell_setting 'orthorhombic'
loop_
_space_group_symop_operation_xyz
x,y,z
1/2-x,-y,1/2+z
1/2+x,1/2-y,-z
-x,1/2+y,1/2-z
loop_
_atom_site_type_symbol
_atom_site_label
_atom_site_fract_x
_atom_site_fract_y
_atom_site_fract_z
Si Si1 0.183431 0.831942 0.155418
Si Si2 0.092194 0.454237 0.037746
Si Si3 0.238433 0.359227 0.441761
Si Si4 0.874196 0.471930 0.830957
Si Si5 0.054933 0.628791 0.298517
Si Si6 0.816126 0.729916 0.331463
Si Si7 0.503483 0.044121 0.475798
O O1 0.139834 0.747275 0.288725
O O2 0.304763 0.901826 0.188857
O O3 0.189098 0.746058 0.016893
O O4 0.085235 0.927790 0.108498
O O5 0.095636 0.518603 0.195645
O O6 0.124840 0.311679 0.040877
O O7 0.194281 0.514068 0.941976
O O8 0.965997 0.476900 0.962397
O O9 0.238383 0.328432 0.273926
O O10 0.112325 0.363484 0.523919
O O11 0.783647 0.365919 0.875818
O O12 0.941255 0.453004 0.679209
O O13 0.922622 0.663011 0.248950
O O14 0.054290 0.585597 0.468166
#
# Coordination Sequence:
#
# PCOD8157706 Si02
#       7
#     4   4   4   4   4   4   4
#     4  11  24  46  79 109 150 201 254 314 390 465
#     4  11  28  49  76 109 155 199 257 317 381 467
#     4  11  25  49  75 101 149 206 245 303 393 462
#     4  12  29  48  78 121 150 195 265 331 377 459
#     4  11  23  47  77 106 146 207 240 306 386 465
#     4  12  24  48  77 108 154 196 256 309 385 469
#     4  12  25  47  76 110 150 198 253 314 388 463
#
# _framework density 24.093143000000001
#
# number of rings (size 3 to 8) (size 9 to 14) (size 15 to 20)
#    0.000    0.571    5.714    0.857    4.000    1.143 
#    5.143    0.000    0.000    0.000    0.000    0.000 
#    0.000    0.000    0.000    0.000    0.000    0.000 
#
# Total GULP energy -347065.416153 kJ/mol
# GULP energy per Si atom -12395.193434 kJ/mol
# Density = 2.403831 g / cm^3
# Si number density = 24.093143 Si / 1000 Ang^3
#
#
#
# Elastic Constant Matrix: (Units=GPa)
#
#
# Indices 1 2 3 4 5 6 
#
# 1 106.8149 37.2898 16.1519 0.0000 0.0000 0.0000
# 2 37.2898 110.6242 36.6888 0.0000 0.0000 0.0000
# 3 16.1519 36.6888 48.5230 0.0000 0.0000 0.0000
# 4 0.0000 0.0000 0.0000 32.2953 0.0000 0.0000
# 5 0.0000 0.0000 0.0000 0.0000 33.6964 0.0000
# 6 0.0000 0.0000 0.0000 0.0000 0.0000 44.5122
#
#
#
# Elastic Compliance Matrix: (Units=1/GPa)
#
#
# Indices 1 2 3 4 5 6 
#
# 1 0.010655 -0.003224 -0.001109 0.000000 0.000000 0.000000
# 2 -0.003224 0.013041 -0.008787 0.000000 0.000000 0.000000
# 3 -0.001109 -0.008787 0.027622 0.000000 0.000000 0.000000
# 4 0.000000 0.000000 0.000000 0.030964 0.000000 0.000000
# 5 0.000000 0.000000 0.000000 0.000000 0.029677 0.000000
# 6 0.000000 0.000000 0.000000 0.000000 0.000000 0.022466
#
#
# Mechanical properties :
#
#
# Convention : Reuss Voigt Hill
#
# Bulk Modulus (GPa) = 39.87626 49.58037 44.72832
# Shear Modulus (GPa) = 29.58166 33.82291 31.70228
#
# Velocity S-wave (km/s) = 3.50781 3.75085 3.63136
# Velocity P-wave (km/s) = 5.74396 6.27549 6.01560
#
# Compressibility (1/GPa) = 0.02507758
#
# Stress axis : x y z
#
# Youngs Moduli (GPa) = 93.85110 76.68393 36.20311
#
# Poissons Ratio (x) = 0.24722 0.04016
# Poissons Ratio (y) = 0.30256 0.31812
# Poissons Ratio (z) = 0.10410 0.67382
#
# Static dielectric constant tensor:
#      x y z
#    x 4.556360 0.000000 0.000000 
#    y 0.000000 4.543430 0.000000 
#    z 0.000000 0.000000 3.970360 
# 
# 
# High freq. dielectric constant tensor:
#      x y z
#    x 1.972010 0.000000 0.000000 
#    y 0.000000 1.971420 0.000000 
#    z 0.000000 0.000000 1.929240 
# 
# From -- ./inp_files/3428.got.cif
#   From: 2010.03.12/outbox.cif.g09.slc.cpg/sg19_2_cif.got.tgz:3428.got - 2010.04.10 18:59:41.
