data_PCOD8157858
_publ_section_title
;
Structure prediction by ZEFSAII (Michael W. Deem and Ramdas Pophale) SiO2 
 PCOD8157858
Probable space group: P 21 21 21
;
_chemical_formula_sum "Si O2"
_cell_formula_units_Z 20
_cell_length_a 9.001852
_cell_length_b 11.281007
_cell_length_c 8.644561
_cell_angle_alpha 90.000000
_cell_angle_beta 90.000000
_cell_angle_gamma 90.000000
_cell_volume 877.854784
_symmetry_space_group_name_H-M "P 21 21 21"
_symmetry_group_IT_number 19
_symmetry_cell_setting 'orthorhombic'
loop_
_space_group_symop_operation_xyz
x,y,z
1/2-x,-y,1/2+z
1/2+x,1/2-y,-z
-x,1/2+y,1/2-z
loop_
_atom_site_type_symbol
_atom_site_label
_atom_site_fract_x
_atom_site_fract_y
_atom_site_fract_z
Si Si1 0.547731 0.860722 0.375864
Si Si2 0.247357 0.141786 0.053682
Si Si3 0.092187 0.682671 0.960275
Si Si4 0.580887 0.100928 0.545249
Si Si5 0.426023 0.984013 0.817827
O O1 0.395205 0.820500 0.454127
O O2 0.671135 0.761557 0.401807
O O3 0.522978 0.877319 0.192823
O O4 0.606416 0.983437 0.445287
O O5 0.199720 0.072561 0.208337
O O6 0.352080 0.057560 0.954074
O O7 0.269877 0.677627 0.955233
O O8 0.049511 0.821429 0.967428
O O9 0.027924 0.619248 0.111795
O O10 0.534760 0.069121 0.720007
#
# Coordination Sequence:
#
# PCOD8157858 Si02
#       5
#     4   4   4   4   4
#     4  11  28  46  76 108 151 194 251 300 379 437
#     4  11  27  48  75 109 149 199 246 310 367 440
#     4  12  27  47  77 104 155 192 251 307 367 444
#     4  11  29  47  74 114 145 201 250 305 376 439
#     4  11  27  48  76 107 150 196 254 304 367 440
#
# _framework density 22.782813000000001
#
# number of rings (size 3 to 8) (size 9 to 14) (size 15 to 20)
#    0.000    0.800    0.000    3.600   28.000    0.000 
#    0.000    0.000    0.000    0.000    0.000    0.000 
#    0.000    0.000    0.000    0.000    0.000    0.000 
#
# Total GULP energy -248169.666881 kJ/mol
# GULP energy per Si atom -12408.483344 kJ/mol
# Density = 2.273096 g / cm^3
# Si number density = 22.782813 Si / 1000 Ang^3
#
#
#
# Elastic Constant Matrix: (Units=GPa)
#
#
# Indices 1 2 3 4 5 6 
#
# 1 100.5284 76.4495 47.6483 0.0000 0.0000 0.0000
# 2 76.4495 129.5511 47.2524 0.0000 0.0000 0.0000
# 3 47.6483 47.2524 125.3734 0.0000 0.0000 0.0000
# 4 0.0000 0.0000 0.0000 34.8048 0.0000 0.0000
# 5 0.0000 0.0000 0.0000 0.0000 41.5741 0.0000
# 6 0.0000 0.0000 0.0000 0.0000 0.0000 45.2897
#
#
#
# Elastic Compliance Matrix: (Units=1/GPa)
#
#
# Indices 1 2 3 4 5 6 
#
# 1 0.019304 -0.010105 -0.003528 0.000000 0.000000 0.000000
# 2 -0.010105 0.014238 -0.001526 0.000000 0.000000 0.000000
# 3 -0.003528 -0.001526 0.009892 0.000000 0.000000 0.000000
# 4 0.000000 0.000000 0.000000 0.028732 0.000000 0.000000
# 5 0.000000 0.000000 0.000000 0.000000 0.024053 0.000000
# 6 0.000000 0.000000 0.000000 0.000000 0.000000 0.022080
#
#
# Mechanical properties :
#
#
# Convention : Reuss Voigt Hill
#
# Bulk Modulus (GPa) = 76.23736 77.57258 76.90497
# Shear Modulus (GPa) = 32.68184 36.60722 34.64453
#
# Velocity S-wave (km/s) = 3.79158 4.01283 3.90377
# Velocity P-wave (km/s) = 7.25971 7.45607 7.35855
#
# Compressibility (1/GPa) = 0.01311693
#
# Stress axis : x y z
#
# Youngs Moduli (GPa) = 51.80249 70.23227 101.08952
#
# Poissons Ratio (x) = 0.70968 0.35666
# Poissons Ratio (y) = 0.52345 0.15427
# Poissons Ratio (z) = 0.18277 0.10718
#
# Static dielectric constant tensor:
#      x y z
#    x 4.099740 0.000000 0.000000 
#    y 0.000000 4.004080 0.000000 
#    z 0.000000 0.000000 4.339440 
# 
# 
# High freq. dielectric constant tensor:
#      x y z
#    x 1.908640 0.000000 0.000000 
#    y 0.000000 1.906990 0.000000 
#    z 0.000000 0.000000 1.916560 
# 
# From -- ./inp_files/2566.got.cif
#   From: 2010.03.12/outbox.cif.g09.slc.cpg/sg19_2_cif.got.tgz:2566.got - 2010.04.10 18:59:41.
