data_PCOD8157806
_publ_section_title
;
Structure prediction by ZEFSAII (Michael W. Deem and Ramdas Pophale) SiO2 
 PCOD8157806
Probable space group: P 21 21 21
;
_chemical_formula_sum "Si O2"
_cell_formula_units_Z 32
_cell_length_a 12.240164
_cell_length_b 5.265649
_cell_length_c 20.436941
_cell_angle_alpha 90.000000
_cell_angle_beta 90.000000
_cell_angle_gamma 90.000000
_cell_volume 1317.210046
_symmetry_space_group_name_H-M "P 21 21 21"
_symmetry_group_IT_number 19
_symmetry_cell_setting 'orthorhombic'
loop_
_space_group_symop_operation_xyz
x,y,z
1/2-x,-y,1/2+z
1/2+x,1/2-y,-z
-x,1/2+y,1/2-z
loop_
_atom_site_type_symbol
_atom_site_label
_atom_site_fract_x
_atom_site_fract_y
_atom_site_fract_z
Si Si1 0.747045 0.018523 0.838023
Si Si2 0.000910 0.365498 0.485129
Si Si3 0.278518 0.032577 0.582929
Si Si4 0.639918 0.891224 0.091105
Si Si5 0.310400 0.290593 0.976431
Si Si6 0.013619 0.510652 0.217248
Si Si7 0.566963 0.023734 0.231811
Si Si8 0.652321 0.410313 0.614801
O O1 0.774322 0.797449 0.891260
O O2 0.624776 0.945122 0.819958
O O3 0.823067 0.004148 0.774514
O O4 0.748736 0.300591 0.867792
O O5 0.906746 0.450670 0.434220
O O6 0.957221 0.251042 0.553241
O O7 0.079796 0.595399 0.508146
O O8 0.082374 0.185258 0.446589
O O9 0.217907 0.966066 0.515616
O O10 0.727448 0.702817 0.123197
O O11 0.700488 0.041571 0.031557
O O12 0.591630 0.044834 0.153575
O O13 0.335281 0.210356 0.900989
O O14 0.987112 0.210809 0.222949
O O15 0.911330 0.638271 0.180747
O O16 0.508597 0.281986 0.253562
#
# Coordination Sequence:
#
# PCOD8157806 Si02
#       8
#     4   4   4   4   4   4   4   4
#     4  12  27  49  77 108 156 197 256 318 374 467
#     4  11  25  47  75 116 151 204 248 329 393 463
#     4  12  25  49  75 115 153 197 252 316 386 463
#     4  11  27  51  76 112 159 200 263 324 386 473
#     4  11  27  44  81 112 155 201 251 321 399 463
#     4  12  27  45  76 109 144 195 244 312 382 450
#     4  12  31  54  78 112 151 214 267 320 388 470
#     4  11  25  45  76 112 151 196 257 312 392 469
#
# _framework density 24.293769000000001
#
# number of rings (size 3 to 8) (size 9 to 14) (size 15 to 20)
#    0.000    0.500    2.500    3.750   12.250    1.000 
#    0.000    0.000    0.000    0.000    0.000    0.000 
#    0.000    0.000    0.000    0.000    0.000    0.000 
#
# Total GULP energy -396502.831741 kJ/mol
# GULP energy per Si atom -12390.713492 kJ/mol
# Density = 2.423848 g / cm^3
# Si number density = 24.293769 Si / 1000 Ang^3
#
#
#
# Elastic Constant Matrix: (Units=GPa)
#
#
# Indices 1 2 3 4 5 6 
#
# 1 56.5993 7.3348 6.1411 0.0000 0.0000 0.0000
# 2 7.3348 80.4691 3.7566 0.0000 0.0000 0.0000
# 3 6.1411 3.7566 78.2891 0.0000 0.0000 0.0000
# 4 0.0000 0.0000 0.0000 42.3077 0.0000 0.0000
# 5 0.0000 0.0000 0.0000 0.0000 41.7996 0.0000
# 6 0.0000 0.0000 0.0000 0.0000 0.0000 23.2782
#
#
#
# Elastic Compliance Matrix: (Units=1/GPa)
#
#
# Indices 1 2 3 4 5 6 
#
# 1 0.018018 -0.001580 -0.001338 0.000000 0.000000 0.000000
# 2 -0.001580 0.012594 -0.000480 0.000000 0.000000 0.000000
# 3 -0.001338 -0.000480 0.012901 0.000000 0.000000 0.000000
# 4 0.000000 0.000000 0.000000 0.023636 0.000000 0.000000
# 5 0.000000 0.000000 0.000000 0.000000 0.023924 0.000000
# 6 0.000000 0.000000 0.000000 0.000000 0.000000 0.042959
#
#
# Mechanical properties :
#
#
# Convention : Reuss Voigt Hill
#
# Bulk Modulus (GPa) = 27.23530 27.75803 27.49667
# Shear Modulus (GPa) = 32.66565 34.68542 33.67554
#
# Velocity S-wave (km/s) = 3.67087 3.78266 3.72718
# Velocity P-wave (km/s) = 5.40391 5.52529 5.46493
#
# Compressibility (1/GPa) = 0.03671706
#
# Stress axis : x y z
#
# Youngs Moduli (GPa) = 55.50030 79.40562 77.51251
#
# Poissons Ratio (x) = 0.12545 0.10368
# Poissons Ratio (y) = 0.08768 0.03723
# Poissons Ratio (z) = 0.07423 0.03814
#
# Static dielectric constant tensor:
#      x y z
#    x 4.613710 0.000000 0.000000 
#    y 0.000000 4.584550 0.000000 
#    z 0.000000 0.000000 4.337600 
# 
# 
# High freq. dielectric constant tensor:
#      x y z
#    x 1.981980 0.000000 0.000000 
#    y 0.000000 1.972760 0.000000 
#    z 0.000000 0.000000 1.964780 
# 
# From -- ./inp_files/7172.got.cif
#   From: 2010.03.12/outbox.cif.g09.slc.cpg/sg19_4_cif.got.tgz:7172.got - 2010.04.10 18:59:41.
