data_PCOD8157358
_publ_section_title
;
Structure prediction by ZEFSAII (Michael W. Deem and Ramdas Pophale) SiO2 
 PCOD8157358
Probable space group: P 21 21 21
;
_chemical_formula_sum "Si O2"
_cell_formula_units_Z 32
_cell_length_a 5.276039
_cell_length_b 31.723419
_cell_length_c 8.472769
_cell_angle_alpha 90.000000
_cell_angle_beta 90.000000
_cell_angle_gamma 90.000000
_cell_volume 1418.121204
_symmetry_space_group_name_H-M "P 21 21 21"
_symmetry_group_IT_number 19
_symmetry_cell_setting 'orthorhombic'
loop_
_space_group_symop_operation_xyz
x,y,z
1/2-x,-y,1/2+z
1/2+x,1/2-y,-z
-x,1/2+y,1/2-z
loop_
_atom_site_type_symbol
_atom_site_label
_atom_site_fract_x
_atom_site_fract_y
_atom_site_fract_z
Si Si1 0.361983 0.554044 0.131478
Si Si2 0.916773 0.362474 0.136614
Si Si3 0.641484 0.062545 0.725313
Si Si4 0.457678 0.929368 0.466437
Si Si5 0.678836 0.703154 0.891016
Si Si6 0.850943 0.516205 0.260653
Si Si7 0.205783 0.369289 0.828602
Si Si8 0.821356 0.199434 0.412528
O O1 0.133139 0.533015 0.224992
O O2 0.428934 0.600624 0.199268
O O3 0.625026 0.528168 0.142832
O O4 0.264244 0.556818 0.952507
O O5 0.709861 0.399147 0.140733
O O6 0.825663 0.320074 0.221865
O O7 0.127738 0.387077 0.240654
O O8 0.007350 0.351841 0.959172
O O9 0.845010 0.045353 0.853921
O O10 0.380162 0.034833 0.743857
O O11 0.293212 0.964061 0.565158
O O12 0.582090 0.897062 0.589693
O O13 0.675587 0.752541 0.853340
O O14 0.434172 0.689847 0.991342
O O15 0.932756 0.689546 0.982002
O O16 0.331547 0.329278 0.742886
#
# Coordination Sequence:
#
# PCOD8157358 Si02
#       8
#     4   4   4   4   4   4   4   4
#     4  11  25  42  65  96 124 176 221 278 325 396
#     4  11  24  42  65  97 135 175 219 278 335 396
#     4  11  26  39  68  92 128 178 226 272 334 395
#     4  10  24  43  61  95 134 177 217 285 326 398
#     4  10  24  44  71 101 137 170 223 271 328 400
#     4  11  25  44  64  91 135 168 228 275 337 384
#     4  10  23  42  65  95 135 175 217 271 333 399
#     4  10  23  46  71 101 132 177 217 274 326 402
#
# _framework density 22.565068
#
# number of rings (size 3 to 8) (size 9 to 14) (size 15 to 20)
#    0.000    1.500    1.250    1.500   12.250    1.000 
#    2.250    0.000    0.000    0.000    0.000    0.000 
#    0.000    0.000    0.000    0.000    0.000    0.000 
#
# Total GULP energy -396687.163788 kJ/mol
# GULP energy per Si atom -12396.473868 kJ/mol
# Density = 2.251371 g / cm^3
# Si number density = 22.565068 Si / 1000 Ang^3
#
#
#
# Elastic Constant Matrix: (Units=GPa)
#
#
# Indices 1 2 3 4 5 6 
#
# 1 103.4732 29.4980 27.3728 0.0000 0.0000 0.0000
# 2 29.4980 108.6210 62.5539 0.0000 0.0000 0.0000
# 3 27.3728 62.5539 127.5015 0.0000 0.0000 0.0000
# 4 0.0000 0.0000 0.0000 37.6414 0.0000 0.0000
# 5 0.0000 0.0000 0.0000 0.0000 20.5178 0.0000
# 6 0.0000 0.0000 0.0000 0.0000 0.0000 18.2812
#
#
#
# Elastic Compliance Matrix: (Units=1/GPa)
#
#
# Indices 1 2 3 4 5 6 
#
# 1 0.010606 -0.002187 -0.001204 0.000000 0.000000 0.000000
# 2 -0.002187 0.013283 -0.006047 0.000000 0.000000 0.000000
# 3 -0.001204 -0.006047 0.011068 0.000000 0.000000 0.000000
# 4 0.000000 0.000000 0.000000 0.026566 0.000000 0.000000
# 5 0.000000 0.000000 0.000000 0.000000 0.048738 0.000000
# 6 0.000000 0.000000 0.000000 0.000000 0.000000 0.054701
#
#
# Mechanical properties :
#
#
# Convention : Reuss Voigt Hill
#
# Bulk Modulus (GPa) = 62.18502 64.27167 63.22835
# Shear Modulus (GPa) = 26.42709 29.96615 28.19662
#
# Velocity S-wave (km/s) = 3.42592 3.64811 3.53876
# Velocity P-wave (km/s) = 6.57778 6.80365 6.69166
#
# Compressibility (1/GPa) = 0.01608104
#
# Stress axis : x y z
#
# Youngs Moduli (GPa) = 94.28345 75.28572 90.34752
#
# Poissons Ratio (x) = 0.16464 0.10879
# Poissons Ratio (y) = 0.20619 0.54635
# Poissons Ratio (z) = 0.11353 0.45527
#
# Static dielectric constant tensor:
#      x y z
#    x 3.983400 0.000000 0.000000 
#    y 0.000000 4.048440 0.000000 
#    z 0.000000 0.000000 4.113630 
# 
# 
# High freq. dielectric constant tensor:
#      x y z
#    x 1.886810 0.000000 0.000000 
#    y 0.000000 1.890650 0.000000 
#    z 0.000000 0.000000 1.892870 
# 
# From -- ./inp_files/2517.got.cif
#   From: 2010.03.12/outbox.cif.g09.slc.cpg/sg19_2_cif.got.tgz:2517.got - 2010.04.10 18:59:41.
