data_PCOD8157451
_publ_section_title
;
Structure prediction by ZEFSAII (Michael W. Deem and Ramdas Pophale) SiO2 
 PCOD8157451
Probable space group: P 21 21 21
;
_chemical_formula_sum "Si O2"
_cell_formula_units_Z 32
_cell_length_a 11.717426
_cell_length_b 9.479164
_cell_length_c 13.452505
_cell_angle_alpha 90.000000
_cell_angle_beta 90.000000
_cell_angle_gamma 90.000000
_cell_volume 1494.188600
_symmetry_space_group_name_H-M "P 21 21 21"
_symmetry_group_IT_number 19
_symmetry_cell_setting 'orthorhombic'
loop_
_space_group_symop_operation_xyz
x,y,z
1/2-x,-y,1/2+z
1/2+x,1/2-y,-z
-x,1/2+y,1/2-z
loop_
_atom_site_type_symbol
_atom_site_label
_atom_site_fract_x
_atom_site_fract_y
_atom_site_fract_z
Si Si1 0.074083 0.827300 0.370224
Si Si2 0.786238 0.494374 0.366245
Si Si3 0.873795 0.920894 0.239644
Si Si4 0.217129 0.817681 0.812295
Si Si5 0.373766 0.908259 0.982352
Si Si6 0.035629 0.328371 0.618171
Si Si7 0.021701 0.548830 0.453347
Si Si8 0.227025 0.707375 0.213972
O O1 0.194867 0.781783 0.319487
O O2 0.973875 0.825008 0.286952
O O3 0.058939 0.712689 0.457914
O O4 0.060858 0.986780 0.408651
O O5 0.759103 0.553170 0.256859
O O6 0.676751 0.515944 0.435787
O O7 0.892056 0.565933 0.418517
O O8 0.809319 0.324507 0.366781
O O9 0.758983 0.828149 0.236741
O O10 0.907579 0.960790 0.127648
O O11 0.844533 0.063418 0.300954
O O12 0.272942 0.831832 0.921107
O O13 0.080858 0.812554 0.820761
O O14 0.455979 0.794389 0.034565
O O15 0.137593 0.321938 0.699280
O O16 0.036709 0.478683 0.561175
#
# Coordination Sequence:
#
# PCOD8157451 Si02
#       8
#     4   4   4   4   4   4   4   4
#     4  11  23  42  69  98 132 175 225 282 327 404
#     4  11  22  42  68  98 134 179 225 270 344 410
#     4  11  23  39  68  98 130 171 228 277 333 396
#     4  12  23  43  69  99 136 180 224 276 345 404
#     4  11  24  42  66 100 132 183 226 272 333 411
#     4  11  26  43  69  97 140 177 223 280 342 414
#     4  11  21  40  64  98 130 170 223 280 327 400
#     4  10  24  41  65  98 134 173 218 277 339 395
#
# _framework density 21.416307
#
# number of rings (size 3 to 8) (size 9 to 14) (size 15 to 20)
#    0.000    1.000    6.250    0.000    3.500    3.000 
#    0.000    3.750    0.000    0.000    0.000    0.000 
#    0.000    0.000    0.000    0.000    0.000    0.000 
#
# Total GULP energy -396573.610984 kJ/mol
# GULP energy per Si atom -12392.925343 kJ/mol
# Density = 2.136756 g / cm^3
# Si number density = 21.416307 Si / 1000 Ang^3
#
#
#
# Elastic Constant Matrix: (Units=GPa)
#
#
# Indices 1 2 3 4 5 6 
#
# 1 87.9071 39.6894 19.4185 0.0000 0.0000 0.0000
# 2 39.6894 108.1435 29.7768 0.0000 0.0000 0.0000
# 3 19.4185 29.7768 55.8366 0.0000 0.0000 0.0000
# 4 0.0000 0.0000 0.0000 31.7543 0.0000 0.0000
# 5 0.0000 0.0000 0.0000 0.0000 34.5908 0.0000
# 6 0.0000 0.0000 0.0000 0.0000 0.0000 27.4593
#
#
#
# Elastic Compliance Matrix: (Units=1/GPa)
#
#
# Indices 1 2 3 4 5 6 
#
# 1 0.013922 -0.004426 -0.002481 0.000000 0.000000 0.000000
# 2 -0.004426 0.012246 -0.004991 0.000000 0.000000 0.000000
# 3 -0.002481 -0.004991 0.021434 0.000000 0.000000 0.000000
# 4 0.000000 0.000000 0.000000 0.031492 0.000000 0.000000
# 5 0.000000 0.000000 0.000000 0.000000 0.028909 0.000000
# 6 0.000000 0.000000 0.000000 0.000000 0.000000 0.036417
#
#
# Mechanical properties :
#
#
# Convention : Reuss Voigt Hill
#
# Bulk Modulus (GPa) = 42.00884 47.73962 44.87423
# Shear Modulus (GPa) = 28.38443 29.62772 29.00608
#
# Velocity S-wave (km/s) = 3.64451 3.72347 3.68420
# Velocity P-wave (km/s) = 6.11292 6.38947 6.25272
#
# Compressibility (1/GPa) = 0.02380452
#
# Stress axis : x y z
#
# Youngs Moduli (GPa) = 71.82766 81.66104 46.65489
#
# Poissons Ratio (x) = 0.36146 0.11576
# Poissons Ratio (y) = 0.31793 0.23286
# Poissons Ratio (z) = 0.17822 0.40758
#
# Static dielectric constant tensor:
#      x y z
#    x 3.754360 0.000000 0.000000 
#    y 0.000000 3.959450 0.000000 
#    z 0.000000 0.000000 3.720890 
# 
# 
# High freq. dielectric constant tensor:
#      x y z
#    x 1.830580 0.000000 0.000000 
#    y 0.000000 1.851820 0.000000 
#    z 0.000000 0.000000 1.821810 
# 
# From -- ./inp_files/3614.got.cif
#   From: 2010.03.12/outbox.cif.g09.slc.cpg/sg19_2_cif.got.tgz:3614.got - 2010.04.10 18:59:41.
