data_PCOD8157257
_publ_section_title
;
Structure prediction by ZEFSAII (Michael W. Deem and Ramdas Pophale) SiO2 
 PCOD8157257
Probable space group: P 21 21 21
;
_chemical_formula_sum "Si O2"
_cell_formula_units_Z 20
_cell_length_a 8.813509
_cell_length_b 9.683424
_cell_length_c 10.441824
_cell_angle_alpha 90.000000
_cell_angle_beta 90.000000
_cell_angle_gamma 90.000000
_cell_volume 891.156891
_symmetry_space_group_name_H-M "P 21 21 21"
_symmetry_group_IT_number 19
_symmetry_cell_setting 'orthorhombic'
loop_
_space_group_symop_operation_xyz
x,y,z
1/2-x,-y,1/2+z
1/2+x,1/2-y,-z
-x,1/2+y,1/2-z
loop_
_atom_site_type_symbol
_atom_site_label
_atom_site_fract_x
_atom_site_fract_y
_atom_site_fract_z
Si Si1 0.633197 0.249996 0.253663
Si Si2 0.095360 0.749997 0.963323
Si Si3 0.348584 0.472776 0.672729
Si Si4 0.192899 0.750006 0.690282
Si Si5 0.151413 0.972767 0.172736
O O1 0.573883 0.250005 0.402068
O O2 0.734363 0.112869 0.234667
O O3 0.488532 0.249996 0.157548
O O4 0.734372 0.387117 0.234659
O O5 0.114599 0.612279 0.045551
O O6 0.114587 0.887710 0.045561
O O7 0.216017 0.750005 0.845166
O O8 0.270960 0.615730 0.629730
O O9 0.500000 0.499997 0.749996
O O10 0.270954 0.884284 0.629731
#
# Coordination Sequence:
#
# PCOD8157257 Si02
#       5
#     4   4   4   4   4
#     4   9  22  43  65  90 136 183 203 267 342 380
#     4   9  24  41  71  89 141 171 212 259 347 375
#     4  11  22  38  69 104 124 171 230 267 319 395
#     4  10  22  42  68  95 133 178 211 268 325 387
#     4  11  22  38  69 104 124 171 230 267 319 395
#
# _framework density 22.442737999999999
#
# number of rings (size 3 to 8) (size 9 to 14) (size 15 to 20)
#    1.200    0.800    0.000    3.600   11.200    0.000 
#    0.000    6.000    0.000    0.000    0.000    0.000 
#    0.000    0.000    0.000    0.000    0.000    0.000 
#
# Total GULP energy -247948.271386 kJ/mol
# GULP energy per Si atom -12397.413569 kJ/mol
# Density = 2.239166 g / cm^3
# Si number density = 22.442738 Si / 1000 Ang^3
#
#
#
# Elastic Constant Matrix: (Units=GPa)
#
#
# Indices 1 2 3 4 5 6 
#
# 1 159.5935 78.3003 16.2530 0.0000 0.0000 0.0000
# 2 78.3003 201.0214 23.2997 0.0000 0.0000 0.0000
# 3 16.2530 23.2997 67.8874 0.0000 0.0000 0.0000
# 4 0.0000 0.0000 0.0000 27.2328 0.0000 0.0000
# 5 0.0000 0.0000 0.0000 0.0000 33.2172 0.0000
# 6 0.0000 0.0000 0.0000 0.0000 0.0000 55.0459
#
#
#
# Elastic Compliance Matrix: (Units=1/GPa)
#
#
# Indices 1 2 3 4 5 6 
#
# 1 0.007794 -0.002936 -0.000858 0.000000 0.000000 0.000000
# 2 -0.002936 0.006287 -0.001455 0.000000 0.000000 0.000000
# 3 -0.000858 -0.001455 0.015435 0.000000 0.000000 0.000000
# 4 0.000000 0.000000 0.000000 0.036720 0.000000 0.000000
# 5 0.000000 0.000000 0.000000 0.000000 0.030105 0.000000
# 6 0.000000 0.000000 0.000000 0.000000 0.000000 0.018167
#
#
# Mechanical properties :
#
#
# Convention : Reuss Voigt Hill
#
# Bulk Modulus (GPa) = 52.58353 73.80091 63.19222
# Shear Modulus (GPa) = 38.06750 43.80914 40.93832
#
# Velocity S-wave (km/s) = 4.12297 4.42298 4.27561
# Velocity P-wave (km/s) = 6.79309 7.68370 7.25208
#
# Compressibility (1/GPa) = 0.01901736
#
# Stress axis : x y z
#
# Youngs Moduli (GPa) = 128.30433 159.05932 64.78771
#
# Poissons Ratio (x) = 0.46706 0.05560
# Poissons Ratio (y) = 0.37675 0.09425
# Poissons Ratio (z) = 0.11011 0.23139
#
# Static dielectric constant tensor:
#      x y z
#    x 4.203040 0.000000 0.000000 
#    y 0.000000 4.125460 0.000000 
#    z 0.000000 0.000000 3.544320 
# 
# 
# High freq. dielectric constant tensor:
#      x y z
#    x 1.903280 0.000000 0.000000 
#    y 0.000000 1.895810 0.000000 
#    z 0.000000 0.000000 1.840150 
# 
# From -- ./inp_files/4537.got.cif
#   From: 2010.03.12/outbox.cif.g09.slc.cpg/sg19_3_cif.got.tgz:4537.got - 2010.04.10 18:59:41.
