data_PCOD8157955
_publ_section_title
;
Structure prediction by ZEFSAII (Michael W. Deem and Ramdas Pophale) SiO2 
 PCOD8157955
Probable space group: C 2 2 21
;
_chemical_formula_sum "Si O2"
_cell_formula_units_Z 60
_cell_length_a 11.736549
_cell_length_b 23.984242
_cell_length_c 13.232589
_cell_angle_alpha 90.000000
_cell_angle_beta 90.000000
_cell_angle_gamma 90.000000
_cell_volume 3724.871006
_symmetry_space_group_name_H-M "C 2 2 21"
_symmetry_group_IT_number 20
_symmetry_cell_setting 'orthorhombic'
loop_
_space_group_symop_operation_xyz
x,y,z
-x,-y,1/2+z
x,-y,-z
-x,y,1/2-z
1/2+x,1/2+y,z
1/2-x,1/2-y,1/2+z
1/2+x,1/2-y,-z
1/2-x,1/2+y,1/2-z
loop_
_atom_site_type_symbol
_atom_site_label
_atom_site_fract_x
_atom_site_fract_y
_atom_site_fract_z
Si Si1 0.439569 0.091275 0.603163
Si Si2 0.601974 0.946395 0.562717
Si Si3 0.000000 0.501641 0.250000
Si Si4 0.724122 0.834127 0.553387
Si Si5 0.278217 0.179673 0.641820
Si Si6 0.894342 0.307933 0.146153
Si Si7 0.064726 0.244675 0.646935
Si Si8 0.072926 0.234602 0.050340
O O1 0.484836 0.075305 0.491127
O O2 0.311657 0.116996 0.606386
O O3 0.525444 0.137489 0.648120
O O4 0.429345 0.036990 0.673117
O O5 0.581003 0.960333 0.680442
O O6 0.700075 0.899831 0.562925
O O7 0.647436 0.000000 0.500000
O O8 0.701545 0.814266 0.438817
O O9 0.640219 0.799910 0.627499
O O10 0.858840 0.822837 0.577670
O O11 0.334852 0.198509 0.747084
O O12 0.143177 0.188841 0.650686
O O13 0.327531 0.219028 0.553732
O O14 0.970203 0.252032 0.125896
O O15 0.000000 0.254824 0.750000
O O16 0.970927 0.233276 0.563073
#
# Coordination Sequence:
#
# PCOD8157955 Si02
#       8
#     8   8   4   8   8   8   8   8
#     4   9  15  28  45  68  91 118 148 188 234 277
#     4   9  19  29  45  69  94 121 154 196 235 271
#     4  10  16  28  46  68  98 114 150 200 234 278
#     4   9  18  30  44  65  99 127 147 186 236 271
#     4  10  17  29  50  66  93 127 151 184 233 272
#     4   9  15  27  48  65  90 123 152 181 223 276
#     4  10  20  30  44  71  99 122 152 187 222 283
#     4   9  17  29  43  65  96 124 152 183 215 283
#
# _framework density 16.107941
#
# number of rings (size 3 to 8) (size 9 to 14) (size 15 to 20)
#    0.000    2.667    1.333    2.800    0.933    0.000 
#    0.000    0.000    0.000    0.000    0.000    2.800 
#    0.000    0.000    0.000    0.000    0.000    0.000 
#
# Total GULP energy -371698.615505 kJ/mol
# GULP energy per Si atom -12389.953850 kJ/mol
# Density = 1.607128 g / cm^3
# Si number density = 16.107941 Si / 1000 Ang^3
#
#
#
# Elastic Constant Matrix: (Units=GPa)
#
#
# Indices 1 2 3 4 5 6 
#
# 1 66.0056 40.6796 38.9481 0.0000 0.0000 0.0000
# 2 40.6796 91.4697 31.2814 0.0000 0.0000 0.0000
# 3 38.9481 31.2814 88.1268 0.0000 0.0000 0.0000
# 4 0.0000 0.0000 0.0000 18.5105 0.0000 0.0000
# 5 0.0000 0.0000 0.0000 0.0000 14.2866 0.0000
# 6 0.0000 0.0000 0.0000 0.0000 0.0000 24.5287
#
#
#
# Elastic Compliance Matrix: (Units=1/GPa)
#
#
# Indices 1 2 3 4 5 6 
#
# 1 0.025114 -0.008392 -0.008120 0.000000 0.000000 0.000000
# 2 -0.008392 0.015247 -0.001703 0.000000 0.000000 0.000000
# 3 -0.008120 -0.001703 0.015541 0.000000 0.000000 0.000000
# 4 0.000000 0.000000 0.000000 0.054023 0.000000 0.000000
# 5 0.000000 0.000000 0.000000 0.000000 0.069996 0.000000
# 6 0.000000 0.000000 0.000000 0.000000 0.000000 0.040769
#
#
# Mechanical properties :
#
#
# Convention : Reuss Voigt Hill
#
# Bulk Modulus (GPa) = 51.35945 51.93559 51.64752
# Shear Modulus (GPa) = 18.96733 20.44468 19.70600
#
# Velocity S-wave (km/s) = 3.43522 3.56649 3.50147
# Velocity P-wave (km/s) = 6.90565 7.01940 6.96276
#
# Compressibility (1/GPa) = 0.01947061
#
# Stress axis : x y z
#
# Youngs Moduli (GPa) = 39.81868 65.58561 64.34696
#
# Poissons Ratio (x) = 0.55039 0.52252
# Poissons Ratio (y) = 0.33415 0.10960
# Poissons Ratio (z) = 0.32334 0.11171
#
# Static dielectric constant tensor:
#      x y z
#    x 2.988370 0.000000 0.000000 
#    y 0.000000 3.118870 0.000000 
#    z 0.000000 0.000000 3.136520 
# 
# 
# High freq. dielectric constant tensor:
#      x y z
#    x 1.588740 0.000000 0.000000 
#    y 0.000000 1.600400 0.000000 
#    z 0.000000 0.000000 1.627710 
# 
# From -- ./inp_files/20358.got.cif
#   From: 2010.03.12/outbox.cif.g09.slc.cpg/sg20_11_cif.got.tgz:20358.got - 2010.04.14 01:38:04.
