data_PCOD8157477
_publ_section_title
;
Structure prediction by ZEFSAII (Michael W. Deem and Ramdas Pophale) SiO2 
 PCOD8157477
Probable space group: P 21 21 21
;
_chemical_formula_sum "Si O2"
_cell_formula_units_Z 32
_cell_length_a 8.734599
_cell_length_b 7.950867
_cell_length_c 18.770406
_cell_angle_alpha 90.000000
_cell_angle_beta 90.000000
_cell_angle_gamma 90.000000
_cell_volume 1303.560304
_symmetry_space_group_name_H-M "P 21 21 21"
_symmetry_group_IT_number 19
_symmetry_cell_setting 'orthorhombic'
loop_
_space_group_symop_operation_xyz
x,y,z
1/2-x,-y,1/2+z
1/2+x,1/2-y,-z
-x,1/2+y,1/2-z
loop_
_atom_site_type_symbol
_atom_site_label
_atom_site_fract_x
_atom_site_fract_y
_atom_site_fract_z
Si Si1 0.461719 0.770290 0.604035
Si Si2 0.870160 0.403354 0.470934
Si Si3 0.461515 0.064551 0.027394
Si Si4 0.622363 0.793841 0.105806
Si Si5 0.456326 0.932105 0.235075
Si Si6 0.124615 0.737546 0.653084
Si Si7 0.535068 0.268378 0.648287
Si Si8 0.385901 0.114414 0.779241
O O1 0.498046 0.612402 0.552807
O O2 0.306807 0.744395 0.649402
O O3 0.589254 0.770465 0.666054
O O4 0.466820 0.938252 0.557456
O O5 0.689326 0.445212 0.466225
O O6 0.913592 0.364204 0.553172
O O7 0.922047 0.244902 0.421063
O O8 0.437653 0.237244 0.072690
O O9 0.603385 0.963225 0.059678
O O10 0.512002 0.797197 0.174940
O O11 0.796196 0.790310 0.129281
O O12 0.569413 0.929307 0.304635
O O13 0.292208 0.887640 0.265622
O O14 0.449886 0.114952 0.201093
O O15 0.471181 0.134415 0.704679
O O16 0.540297 0.453135 0.681664
#
# Coordination Sequence:
#
# PCOD8157477 Si02
#       8
#     4   4   4   4   4   4   4   4
#     4  11  24  45  71 102 138 179 229 282 344 410
#     4  11  24  46  70 100 138 179 229 283 339 414
#     4  10  24  45  68 101 138 175 230 288 337 407
#     4  11  23  44  69  99 135 180 228 280 346 406
#     4  11  24  44  69 100 140 177 228 285 338 408
#     4  10  24  44  67  98 134 178 226 280 342 406
#     4  12  26  44  72 101 136 181 227 280 344 410
#     4  12  25  44  68 101 137 179 229 286 342 405
#
# _framework density 24.548154
#
# number of rings (size 3 to 8) (size 9 to 14) (size 15 to 20)
#    0.000    1.000    0.000    7.500    0.000   11.000 
#    0.000   11.250    0.000    0.000    0.000    0.000 
#    0.000    0.000    0.000    0.000    0.000    0.000 
#
# Total GULP energy -396656.645260 kJ/mol
# GULP energy per Si atom -12395.520164 kJ/mol
# Density = 2.449228 g / cm^3
# Si number density = 24.548154 Si / 1000 Ang^3
#
#
#
# Elastic Constant Matrix: (Units=GPa)
#
#
# Indices 1 2 3 4 5 6 
#
# 1 42.3567 20.4971 13.5387 0.0000 0.0000 0.0000
# 2 20.4971 27.1526 3.6386 0.0000 0.0000 0.0000
# 3 13.5387 3.6386 96.8379 0.0000 0.0000 0.0000
# 4 0.0000 0.0000 0.0000 49.5331 0.0000 0.0000
# 5 0.0000 0.0000 0.0000 0.0000 32.8073 0.0000
# 6 0.0000 0.0000 0.0000 0.0000 0.0000 28.2016
#
#
#
# Elastic Compliance Matrix: (Units=1/GPa)
#
#
# Indices 1 2 3 4 5 6 
#
# 1 0.038948 -0.028817 -0.004363 0.000000 0.000000 0.000000
# 2 -0.028817 0.058336 0.001837 0.000000 0.000000 0.000000
# 3 -0.004363 0.001837 0.010867 0.000000 0.000000 0.000000
# 4 0.000000 0.000000 0.000000 0.020189 0.000000 0.000000
# 5 0.000000 0.000000 0.000000 0.000000 0.030481 0.000000
# 6 0.000000 0.000000 0.000000 0.000000 0.000000 0.035459
#
#
# Mechanical properties :
#
#
# Convention : Reuss Voigt Hill
#
# Bulk Modulus (GPa) = 21.99401 26.85512 24.42457
# Shear Modulus (GPa) = 18.37415 30.68656 24.53036
#
# Velocity S-wave (km/s) = 2.73883 3.53945 3.16456
# Velocity P-wave (km/s) = 4.35667 5.25995 4.82948
#
# Compressibility (1/GPa) = 0.04546692
#
# Stress axis : x y z
#
# Youngs Moduli (GPa) = 25.67503 17.14200 92.01807
#
# Poissons Ratio (x) = 0.49398 0.40143
# Poissons Ratio (y) = 0.73988 -0.16903
# Poissons Ratio (z) = 0.11201 -0.03149
#
# Static dielectric constant tensor:
#      x y z
#    x 4.258940 0.000000 0.000000 
#    y 0.000000 4.334790 0.000000 
#    z 0.000000 0.000000 5.009740 
# 
# 
# High freq. dielectric constant tensor:
#      x y z
#    x 1.967490 0.000000 0.000000 
#    y 0.000000 1.962710 0.000000 
#    z 0.000000 0.000000 2.008990 
# 
# From -- ./inp_files/7029.got.cif
#   From: 2010.03.12/outbox.cif.g09.slc.cpg/sg19_4_cif.got.tgz:7029.got - 2010.04.10 18:59:41.
