data_PCOD8157444
_publ_section_title
;
Structure prediction by ZEFSAII (Michael W. Deem and Ramdas Pophale) SiO2 
 PCOD8157444
Probable space group: P 21 21 21
;
_chemical_formula_sum "Si O2"
_cell_formula_units_Z 32
_cell_length_a 14.274656
_cell_length_b 10.962856
_cell_length_c 8.517871
_cell_angle_alpha 90.000000
_cell_angle_beta 90.000000
_cell_angle_gamma 90.000000
_cell_volume 1332.970135
_symmetry_space_group_name_H-M "P 21 21 21"
_symmetry_group_IT_number 19
_symmetry_cell_setting 'orthorhombic'
loop_
_space_group_symop_operation_xyz
x,y,z
1/2-x,-y,1/2+z
1/2+x,1/2-y,-z
-x,1/2+y,1/2-z
loop_
_atom_site_type_symbol
_atom_site_label
_atom_site_fract_x
_atom_site_fract_y
_atom_site_fract_z
Si Si1 0.917473 0.928952 0.465371
Si Si2 0.727142 0.856263 0.604721
Si Si3 0.690494 0.221920 0.427850
Si Si4 0.875752 0.198325 0.585372
Si Si5 0.619824 0.537194 0.962406
Si Si6 0.923968 0.946332 0.107051
Si Si7 0.401075 0.197922 0.093017
Si Si8 0.706596 0.471997 0.277730
O O1 0.818326 0.864033 0.496132
O O2 0.940880 0.906407 0.284699
O O3 0.996095 0.854080 0.559475
O O4 0.916183 0.072984 0.510591
O O5 0.759786 0.845851 0.783210
O O6 0.655260 0.748725 0.557602
O O7 0.670962 0.980067 0.587818
O O8 0.762484 0.208853 0.573667
O O9 0.591927 0.166314 0.486009
O O10 0.665682 0.359128 0.376871
O O11 0.908019 0.320943 0.493722
O O12 0.906844 0.199868 0.768625
O O13 0.680069 0.465160 0.093944
O O14 0.517012 0.476381 0.942907
O O15 0.680431 0.527002 0.802025
O O16 0.337524 0.092634 0.158846
#
# Coordination Sequence:
#
# PCOD8157444 Si02
#       8
#     4   4   4   4   4   4   4   4
#     4  12  28  48  79 112 157 205 260 328 381 464
#     4  12  26  47  75 114 154 201 260 320 388 460
#     4  11  24  46  80 105 154 205 256 321 395 457
#     4  10  23  49  72 111 149 206 247 321 385 465
#     4  10  25  44  79 109 156 199 261 311 399 459
#     4  12  26  46  75 114 148 212 259 320 380 475
#     4  11  28  45  79 114 153 198 264 317 397 467
#     4  10  24  49  71 111 151 200 241 330 385 463
#
# _framework density 24.006540000000001
#
# number of rings (size 3 to 8) (size 9 to 14) (size 15 to 20)
#    0.000    1.000    2.500    1.500   12.250    2.000 
#    0.000    0.000    0.000    0.000    0.000    0.000 
#    0.000    0.000    0.000    0.000    0.000    0.000 
#
# Total GULP energy -396668.279012 kJ/mol
# GULP energy per Si atom -12395.883719 kJ/mol
# Density = 2.395190 g / cm^3
# Si number density = 24.006540 Si / 1000 Ang^3
#
#
#
# Elastic Constant Matrix: (Units=GPa)
#
#
# Indices 1 2 3 4 5 6 
#
# 1 104.9286 12.0630 50.8554 0.0000 0.0000 0.0000
# 2 12.0630 61.0537 23.1771 0.0000 0.0000 0.0000
# 3 50.8554 23.1771 127.9874 0.0000 0.0000 0.0000
# 4 0.0000 0.0000 0.0000 7.2165 0.0000 0.0000
# 5 0.0000 0.0000 0.0000 0.0000 19.6633 0.0000
# 6 0.0000 0.0000 0.0000 0.0000 0.0000 34.4269
#
#
#
# Elastic Compliance Matrix: (Units=1/GPa)
#
#
# Indices 1 2 3 4 5 6 
#
# 1 0.011823 -0.000593 -0.004591 0.000000 0.000000 0.000000
# 2 -0.000593 0.017618 -0.002955 0.000000 0.000000 0.000000
# 3 -0.004591 -0.002955 0.010172 0.000000 0.000000 0.000000
# 4 0.000000 0.000000 0.000000 0.138571 0.000000 0.000000
# 5 0.000000 0.000000 0.000000 0.000000 0.050856 0.000000
# 6 0.000000 0.000000 0.000000 0.000000 0.000000 0.029047
#
#
# Mechanical properties :
#
#
# Convention : Reuss Voigt Hill
#
# Bulk Modulus (GPa) = 42.85129 51.79564 47.32346
# Shear Modulus (GPa) = 17.72145 26.11962 21.92054
#
# Velocity S-wave (km/s) = 2.71992 3.30209 3.02504
# Velocity P-wave (km/s) = 5.26807 6.01339 5.65303
#
# Compressibility (1/GPa) = 0.02333652
#
# Stress axis : x y z
#
# Youngs Moduli (GPa) = 84.57809 56.76046 98.30572
#
# Poissons Ratio (x) = 0.03368 0.45128
# Poissons Ratio (y) = 0.05019 0.29046
# Poissons Ratio (z) = 0.38826 0.16771
#
# Static dielectric constant tensor:
#      x y z
#    x 4.481420 0.000000 0.000000 
#    y 0.000000 4.394420 0.000000 
#    z 0.000000 0.000000 4.737780 
# 
# 
# High freq. dielectric constant tensor:
#      x y z
#    x 1.963090 0.000000 0.000000 
#    y 0.000000 1.949700 0.000000 
#    z 0.000000 0.000000 1.952190 
# 
# From -- ./inp_files/4003.got.cif
#   From: 2010.03.12/outbox.cif.g09.slc.cpg/sg19_3_cif.got.tgz:4003.got - 2010.04.10 18:59:41.
