data_PCOD8157537
_publ_section_title
;
Structure prediction by ZEFSAII (Michael W. Deem and Ramdas Pophale) SiO2 
 PCOD8157537
Probable space group: P 21 21 21
;
_chemical_formula_sum "Si O2"
_cell_formula_units_Z 28
_cell_length_a 8.537303
_cell_length_b 7.747082
_cell_length_c 18.059775
_cell_angle_alpha 90.000000
_cell_angle_beta 90.000000
_cell_angle_gamma 90.000000
_cell_volume 1194.458825
_symmetry_space_group_name_H-M "P 21 21 21"
_symmetry_group_IT_number 19
_symmetry_cell_setting 'orthorhombic'
loop_
_space_group_symop_operation_xyz
x,y,z
1/2-x,-y,1/2+z
1/2+x,1/2-y,-z
-x,1/2+y,1/2-z
loop_
_atom_site_type_symbol
_atom_site_label
_atom_site_fract_x
_atom_site_fract_y
_atom_site_fract_z
Si Si1 0.711202 0.825426 0.097475
Si Si2 0.631909 0.947505 0.944798
Si Si3 0.232059 0.170853 0.781786
Si Si4 0.728632 0.311140 0.906044
Si Si5 0.943032 0.365431 0.349558
Si Si6 0.006756 0.952592 0.689586
Si Si7 0.780970 0.461673 0.060100
O O1 0.672261 0.628596 0.074747
O O2 0.871658 0.840112 0.144010
O O3 0.567621 0.882466 0.148892
O O4 0.725113 0.938752 0.022513
O O5 0.689504 0.109174 0.895333
O O6 0.654837 0.766867 0.901393
O O7 0.449936 0.968559 0.962963
O O8 0.391402 0.180452 0.734131
O O9 0.132117 0.344696 0.773361
O O10 0.125942 0.011577 0.753523
O O11 0.284978 0.153427 0.866365
O O12 0.602625 0.437347 0.867626
O O13 0.900349 0.339326 0.871438
O O14 0.716384 0.346286 0.993750
#
# Coordination Sequence:
#
# PCOD8157537 Si02
#       7
#     4   4   4   4   4   4   4
#     4  11  23  44  74 101 140 184 240 299 357 429
#     4  11  24  43  71 106 136 186 239 303 358 421
#     4  11  26  46  68 103 145 190 236 299 366 434
#     4  11  24  44  73 102 139 182 246 294 356 432
#     4  10  26  46  69 102 145 187 234 298 364 435
#     4  11  25  46  71 107 140 192 240 299 363 434
#     4  11  24  45  68 105 143 183 241 298 356 429
#
# _framework density 23.441579999999998
#
# number of rings (size 3 to 8) (size 9 to 14) (size 15 to 20)
#    0.000    1.143    2.857    1.714    6.000    2.286 
#    5.143    0.000    0.000    0.000    0.000    0.000 
#    0.000    0.000    0.000    0.000    0.000    0.000 
#
# Total GULP energy -347309.968123 kJ/mol
# GULP energy per Si atom -12403.927433 kJ/mol
# Density = 2.338823 g / cm^3
# Si number density = 23.441580 Si / 1000 Ang^3
#
#
#
# Elastic Constant Matrix: (Units=GPa)
#
#
# Indices 1 2 3 4 5 6 
#
# 1 55.0919 5.4927 6.2699 0.0000 0.0000 0.0000
# 2 5.4927 82.3948 -10.9670 0.0000 0.0000 0.0000
# 3 6.2699 -10.9670 87.9179 0.0000 0.0000 0.0000
# 4 0.0000 0.0000 0.0000 28.8999 0.0000 0.0000
# 5 0.0000 0.0000 0.0000 0.0000 32.3288 0.0000
# 6 0.0000 0.0000 0.0000 0.0000 0.0000 39.2414
#
#
#
# Elastic Compliance Matrix: (Units=1/GPa)
#
#
# Indices 1 2 3 4 5 6 
#
# 1 0.018464 -0.001430 -0.001495 0.000000 0.000000 0.000000
# 2 -0.001430 0.012452 0.001655 0.000000 0.000000 0.000000
# 3 -0.001495 0.001655 0.011687 0.000000 0.000000 0.000000
# 4 0.000000 0.000000 0.000000 0.034602 0.000000 0.000000
# 5 0.000000 0.000000 0.000000 0.000000 0.030932 0.000000
# 6 0.000000 0.000000 0.000000 0.000000 0.000000 0.025483
#
#
# Mechanical properties :
#
#
# Convention : Reuss Voigt Hill
#
# Bulk Modulus (GPa) = 24.95982 25.22177 25.09079
# Shear Modulus (GPa) = 33.44127 35.06795 34.25461
#
# Velocity S-wave (km/s) = 3.78111 3.87198 3.82681
# Velocity P-wave (km/s) = 5.45281 5.54729 5.50025
#
# Compressibility (1/GPa) = 0.04006439
#
# Stress axis : x y z
#
# Youngs Moduli (GPa) = 54.15884 80.30627 85.56253
#
# Poissons Ratio (x) = 0.11483 0.12793
# Poissons Ratio (y) = 0.07744 -0.14163
# Poissons Ratio (z) = 0.08098 -0.13293
#
# Static dielectric constant tensor:
#      x y z
#    x 3.997310 0.000000 0.000000 
#    y 0.000000 4.224570 0.000000 
#    z 0.000000 0.000000 4.221440 
# 
# 
# High freq. dielectric constant tensor:
#      x y z
#    x 1.917710 0.000000 0.000000 
#    y 0.000000 1.933450 0.000000 
#    z 0.000000 0.000000 1.929450 
# 
# From -- ./inp_files/3031.got.cif
#   From: 2010.03.12/outbox.cif.g09.slc.cpg/sg19_2_cif.got.tgz:3031.got - 2010.04.10 18:59:41.
