data_PCOD8157205
_publ_section_title
;
Structure prediction by ZEFSAII (Michael W. Deem and Ramdas Pophale) SiO2 
 PCOD8157205
Probable space group: P 21 21 21
;
_chemical_formula_sum "Si O2"
_cell_formula_units_Z 28
_cell_length_a 15.130967
_cell_length_b 5.185056
_cell_length_c 14.491545
_cell_angle_alpha 90.000000
_cell_angle_beta 90.000000
_cell_angle_gamma 90.000000
_cell_volume 1136.932877
_symmetry_space_group_name_H-M "P 21 21 21"
_symmetry_group_IT_number 19
_symmetry_cell_setting 'orthorhombic'
loop_
_space_group_symop_operation_xyz
x,y,z
1/2-x,-y,1/2+z
1/2+x,1/2-y,-z
-x,1/2+y,1/2-z
loop_
_atom_site_type_symbol
_atom_site_label
_atom_site_fract_x
_atom_site_fract_y
_atom_site_fract_z
Si Si1 0.069381 0.370112 0.884897
Si Si2 0.887481 0.276739 0.230291
Si Si3 0.273459 0.567537 0.519946
Si Si4 0.757259 0.451411 0.370524
Si Si5 0.420889 0.440793 0.035068
Si Si6 0.050108 0.273757 0.360247
Si Si7 0.578645 0.312974 0.311329
O O1 0.088778 0.180736 0.799056
O O2 0.000538 0.263825 0.961550
O O3 0.021722 0.615463 0.838255
O O4 0.162448 0.434486 0.931899
O O5 0.793025 0.355120 0.271565
O O6 0.887198 0.991001 0.187453
O O7 0.953201 0.297426 0.317346
O O8 0.912673 0.485920 0.152380
O O9 0.273916 0.276918 0.556484
O O10 0.173240 0.655193 0.492127
O O11 0.304613 0.785145 0.594378
O O12 0.652500 0.507607 0.354321
O O13 0.402498 0.538066 0.139829
O O14 0.455744 0.673759 0.969451
#
# Coordination Sequence:
#
# PCOD8157205 Si02
#       7
#     4   4   4   4   4   4   4
#     4  12  25  47  76 106 144 200 244 303 376 435
#     4  10  22  41  65 100 132 178 230 280 363 418
#     4  11  27  43  75 106 140 190 241 299 370 430
#     4  11  24  49  69 106 144 186 238 308 359 437
#     4  11  25  47  67 104 144 184 243 302 355 436
#     4  10  23  39  66  98 134 179 225 289 347 429
#     4  11  26  46  72 102 148 189 251 303 362 439
#
# _framework density 24.627662999999998
#
# number of rings (size 3 to 8) (size 9 to 14) (size 15 to 20)
#    0.000    1.143    2.857    1.714    8.000    1.143 
#    2.571    0.000    0.000    0.000    0.000    0.000 
#    0.000    0.000    0.000    0.000    0.000    0.000 
#
# Total GULP energy -347095.309636 kJ/mol
# GULP energy per Si atom -12396.261058 kJ/mol
# Density = 2.457161 g / cm^3
# Si number density = 24.627663 Si / 1000 Ang^3
#
#
#
# Elastic Constant Matrix: (Units=GPa)
#
#
# Indices 1 2 3 4 5 6 
#
# 1 124.9187 19.6522 51.5619 0.0000 0.0000 0.0000
# 2 19.6522 67.8390 2.5548 0.0000 0.0000 0.0000
# 3 51.5619 2.5548 98.5382 0.0000 0.0000 0.0000
# 4 0.0000 0.0000 0.0000 31.7123 0.0000 0.0000
# 5 0.0000 0.0000 0.0000 0.0000 43.3141 0.0000
# 6 0.0000 0.0000 0.0000 0.0000 0.0000 29.2048
#
#
#
# Elastic Compliance Matrix: (Units=1/GPa)
#
#
# Indices 1 2 3 4 5 6 
#
# 1 0.010754 -0.002906 -0.005552 0.000000 0.000000 0.000000
# 2 -0.002906 0.015541 0.001118 0.000000 0.000000 0.000000
# 3 -0.005552 0.001118 0.013024 0.000000 0.000000 0.000000
# 4 0.000000 0.000000 0.000000 0.031534 0.000000 0.000000
# 5 0.000000 0.000000 0.000000 0.000000 0.023087 0.000000
# 6 0.000000 0.000000 0.000000 0.000000 0.000000 0.034241
#
#
# Mechanical properties :
#
#
# Convention : Reuss Voigt Hill
#
# Bulk Modulus (GPa) = 40.58690 48.75931 44.67311
# Shear Modulus (GPa) = 33.09631 35.34803 34.22217
#
# Velocity S-wave (km/s) = 3.66986 3.79264 3.73175
# Velocity P-wave (km/s) = 5.87138 6.24663 6.06191
#
# Compressibility (1/GPa) = 0.02463849
#
# Stress axis : x y z
#
# Youngs Moduli (GPa) = 92.98833 64.34765 76.77839
#
# Poissons Ratio (x) = 0.18701 0.42627
# Poissons Ratio (y) = 0.27025 -0.08582
# Poissons Ratio (z) = 0.51626 -0.07193
#
# Static dielectric constant tensor:
#      x y z
#    x 4.540500 0.000000 0.000000 
#    y 0.000000 4.172880 0.000000 
#    z 0.000000 0.000000 4.395000 
# 
# 
# High freq. dielectric constant tensor:
#      x y z
#    x 1.978980 0.000000 0.000000 
#    y 0.000000 1.972830 0.000000 
#    z 0.000000 0.000000 1.978770 
# 
# From -- ./inp_files/6243.got.cif
#   From: 2010.03.12/outbox.cif.g09.slc.cpg/sg19_4_cif.got.tgz:6243.got - 2010.04.10 18:59:41.
