data_PCOD8157926
_publ_section_title
;
Structure prediction by ZEFSAII (Michael W. Deem and Ramdas Pophale) SiO2 
 PCOD8157926
Probable space group: P 21 21 21
;
_chemical_formula_sum "Si O2"
_cell_formula_units_Z 28
_cell_length_a 16.803561
_cell_length_b 12.887778
_cell_length_c 5.183447
_cell_angle_alpha 90.000000
_cell_angle_beta 90.000000
_cell_angle_gamma 90.000000
_cell_volume 1122.530205
_symmetry_space_group_name_H-M "P 21 21 21"
_symmetry_group_IT_number 19
_symmetry_cell_setting 'orthorhombic'
loop_
_space_group_symop_operation_xyz
x,y,z
1/2-x,-y,1/2+z
1/2+x,1/2-y,-z
-x,1/2+y,1/2-z
loop_
_atom_site_type_symbol
_atom_site_label
_atom_site_fract_x
_atom_site_fract_y
_atom_site_fract_z
Si Si1 0.528012 0.184007 0.689987
Si Si2 0.495618 0.309617 0.194035
Si Si3 0.132435 0.047909 0.758659
Si Si4 0.169888 0.607982 0.832832
Si Si5 0.175869 0.402796 0.082204
Si Si6 0.742681 0.262891 0.294608
Si Si7 0.128507 0.921596 0.244740
O O1 0.524120 0.272223 0.475521
O O2 0.616939 0.134383 0.687003
O O3 0.458914 0.101825 0.628720
O O4 0.511204 0.224624 0.977631
O O5 0.547670 0.410967 0.137021
O O6 0.402035 0.335453 0.190113
O O7 0.187180 0.139070 0.641438
O O8 0.118650 0.973881 0.519348
O O9 0.170295 0.989684 0.012780
O O10 0.234067 0.558880 0.638311
O O11 0.134089 0.509190 0.984362
O O12 0.226485 0.692609 0.971455
O O13 0.187832 0.305472 0.893073
O O14 0.823648 0.315668 0.187942
#
# Coordination Sequence:
#
# PCOD8157926 Si02
#       7
#     4   4   4   4   4   4   4
#     4  12  26  50  79 111 154 201 253 315 383 449
#     4  12  26  50  79 111 154 201 253 315 383 449
#     4  12  27  48  77 111 150 201 251 309 377 447
#     4  12  27  47  77 110 152 201 255 315 384 456
#     4  12  27  47  77 110 152 201 255 315 384 456
#     4  12  26  50  72 108 154 194 252 316 372 458
#     4  12  27  48  77 111 150 201 251 309 377 447
#
# _framework density 24.943650000000002
#
# number of rings (size 3 to 8) (size 9 to 14) (size 15 to 20)
#    0.000    0.000    4.286    5.143    4.000    1.143 
#    0.000    0.000    0.000    0.000    0.000    0.000 
#    0.000    0.000    0.000    0.000    0.000    0.000 
#
# Total GULP energy -347017.728376 kJ/mol
# GULP energy per Si atom -12393.490299 kJ/mol
# Density = 2.488688 g / cm^3
# Si number density = 24.943650 Si / 1000 Ang^3
#
#
#
# Elastic Constant Matrix: (Units=GPa)
#
#
# Indices 1 2 3 4 5 6 
#
# 1 127.1010 22.8272 1.3840 0.0000 0.0000 0.0000
# 2 22.8272 88.5375 24.7868 0.0000 0.0000 0.0000
# 3 1.3840 24.7868 76.6870 0.0000 0.0000 0.0000
# 4 0.0000 0.0000 0.0000 33.7319 0.0000 0.0000
# 5 0.0000 0.0000 0.0000 0.0000 35.8496 0.0000
# 6 0.0000 0.0000 0.0000 0.0000 0.0000 38.8153
#
#
#
# Elastic Compliance Matrix: (Units=1/GPa)
#
#
# Indices 1 2 3 4 5 6 
#
# 1 0.008274 -0.002300 0.000594 0.000000 0.000000 0.000000
# 2 -0.002300 0.013057 -0.004179 0.000000 0.000000 0.000000
# 3 0.000594 -0.004179 0.014380 0.000000 0.000000 0.000000
# 4 0.000000 0.000000 0.000000 0.029645 0.000000 0.000000
# 5 0.000000 0.000000 0.000000 0.000000 0.027894 0.000000
# 6 0.000000 0.000000 0.000000 0.000000 0.000000 0.025763
#
#
# Mechanical properties :
#
#
# Convention : Reuss Voigt Hill
#
# Bulk Modulus (GPa) = 41.76656 43.36905 42.56781
# Shear Modulus (GPa) = 36.03223 37.90121 36.96672
#
# Velocity S-wave (km/s) = 3.80484 3.90227 3.85386
# Velocity P-wave (km/s) = 6.00692 6.14233 6.07500
#
# Compressibility (1/GPa) = 0.02394260
#
# Stress axis : x y z
#
# Youngs Moduli (GPa) = 120.85622 76.58450 69.54096
#
# Poissons Ratio (x) = 0.17611 -0.04130
# Poissons Ratio (y) = 0.27792 0.29061
# Poissons Ratio (z) = -0.07178 0.32004
#
# Static dielectric constant tensor:
#      x y z
#    x 4.852980 0.000000 0.000000 
#    y 0.000000 4.696660 0.000000 
#    z 0.000000 0.000000 4.275000 
# 
# 
# High freq. dielectric constant tensor:
#      x y z
#    x 2.015320 0.000000 0.000000 
#    y 0.000000 2.008790 0.000000 
#    z 0.000000 0.000000 1.979150 
# 
# From -- ./inp_files/1752.got.cif
#   From: 2010.03.12/outbox.cif.g09.slc.cpg/sg19_1_cif.got.tgz:1752.got - 2010.04.10 18:59:41.
