data_PCOD8157076
_publ_section_title
;
Structure prediction by ZEFSAII (Michael W. Deem and Ramdas Pophale) SiO2 
 PCOD8157076
Probable space group: P 21 21 21
;
_chemical_formula_sum "Si O2"
_cell_formula_units_Z 32
_cell_length_a 14.388202
_cell_length_b 8.890235
_cell_length_c 11.249872
_cell_angle_alpha 90.000000
_cell_angle_beta 90.000000
_cell_angle_gamma 90.000000
_cell_volume 1439.021718
_symmetry_space_group_name_H-M "P 21 21 21"
_symmetry_group_IT_number 19
_symmetry_cell_setting 'orthorhombic'
loop_
_space_group_symop_operation_xyz
x,y,z
1/2-x,-y,1/2+z
1/2+x,1/2-y,-z
-x,1/2+y,1/2-z
loop_
_atom_site_type_symbol
_atom_site_label
_atom_site_fract_x
_atom_site_fract_y
_atom_site_fract_z
Si Si1 0.099320 0.460479 0.749811
Si Si2 0.732168 0.832917 0.618534
Si Si3 0.906813 0.314927 0.768624
Si Si4 0.233721 0.122414 0.085145
Si Si5 0.603326 0.622945 0.998928
Si Si6 0.914702 0.149498 0.305053
Si Si7 0.103419 0.432939 0.491386
Si Si8 0.401526 0.695571 0.748022
O O1 0.180799 0.436584 0.844404
O O2 0.085815 0.635512 0.719050
O O3 0.124391 0.374672 0.624936
O O4 0.005622 0.388184 0.801247
O O5 0.768141 0.687623 0.548682
O O6 0.674919 0.787001 0.735274
O O7 0.663855 0.918508 0.528284
O O8 0.837300 0.391426 0.863263
O O9 0.872659 0.356666 0.636507
O O10 0.181123 0.230631 0.176261
O O11 0.184639 0.961597 0.072646
O O12 0.590736 0.787794 0.939267
O O13 0.507070 0.530472 0.982510
O O14 0.005363 0.208132 0.235502
O O15 0.917686 0.969814 0.306217
O O16 0.129392 0.313868 0.387385
#
# Coordination Sequence:
#
# PCOD8157076 Si02
#       8
#     4   4   4   4   4   4   4   4
#     4  11  25  44  69  96 142 179 229 279 350 403
#     4  11  24  37  69  96 130 176 223 274 341 404
#     4  11  26  47  67 101 138 184 228 286 342 413
#     4  12  25  42  68  97 134 180 225 284 338 409
#     4  10  25  44  69  94 138 173 230 286 334 403
#     4  10  22  42  67 100 131 173 222 280 333 405
#     4   9  20  43  63  96 130 170 215 281 328 411
#     4  10  21  41  70  96 135 173 224 278 344 398
#
# _framework density 22.237328999999999
#
# number of rings (size 3 to 8) (size 9 to 14) (size 15 to 20)
#    0.000    1.500    1.250    3.750    7.000    2.000 
#    0.000    2.500    0.000    0.000    0.000    0.000 
#    0.000    0.000    0.000    0.000    0.000    0.000 
#
# Total GULP energy -396797.073700 kJ/mol
# GULP energy per Si atom -12399.908553 kJ/mol
# Density = 2.218672 g / cm^3
# Si number density = 22.237329 Si / 1000 Ang^3
#
#
#
# Elastic Constant Matrix: (Units=GPa)
#
#
# Indices 1 2 3 4 5 6 
#
# 1 110.2222 25.9062 35.4219 0.0000 0.0000 0.0000
# 2 25.9062 64.9942 19.2255 0.0000 0.0000 0.0000
# 3 35.4219 19.2255 74.0246 0.0000 0.0000 0.0000
# 4 0.0000 0.0000 0.0000 28.1787 0.0000 0.0000
# 5 0.0000 0.0000 0.0000 0.0000 34.7004 0.0000
# 6 0.0000 0.0000 0.0000 0.0000 0.0000 30.4931
#
#
#
# Elastic Compliance Matrix: (Units=1/GPa)
#
#
# Indices 1 2 3 4 5 6 
#
# 1 0.011284 -0.003142 -0.004584 0.000000 0.000000 0.000000
# 2 -0.003142 0.017541 -0.003052 0.000000 0.000000 0.000000
# 3 -0.004584 -0.003052 0.016495 0.000000 0.000000 0.000000
# 4 0.000000 0.000000 0.000000 0.035488 0.000000 0.000000
# 5 0.000000 0.000000 0.000000 0.000000 0.028818 0.000000
# 6 0.000000 0.000000 0.000000 0.000000 0.000000 0.032794
#
#
# Mechanical properties :
#
#
# Convention : Reuss Voigt Hill
#
# Bulk Modulus (GPa) = 42.07913 45.59423 43.83668
# Shear Modulus (GPa) = 29.08706 29.92026 29.50366
#
# Velocity S-wave (km/s) = 3.62059 3.67208 3.64643
# Velocity P-wave (km/s) = 6.03673 6.20700 6.12246
#
# Compressibility (1/GPa) = 0.02376475
#
# Stress axis : x y z
#
# Youngs Moduli (GPa) = 88.62065 57.00861 60.62416
#
# Poissons Ratio (x) = 0.17912 0.27788
# Poissons Ratio (y) = 0.27844 0.18504
# Poissons Ratio (z) = 0.40620 0.17401
#
# Static dielectric constant tensor:
#      x y z
#    x 4.104390 0.000000 0.000000 
#    y 0.000000 3.683510 0.000000 
#    z 0.000000 0.000000 4.124730 
# 
# 
# High freq. dielectric constant tensor:
#      x y z
#    x 1.886690 0.000000 0.000000 
#    y 0.000000 1.853120 0.000000 
#    z 0.000000 0.000000 1.884910 
# 
# From -- ./inp_files/5219.got.cif
#   From: 2010.03.12/outbox.cif.g09.slc.cpg/sg19_3_cif.got.tgz:5219.got - 2010.04.10 18:59:41.
