data_PCOD8157728
_publ_section_title
;
Structure prediction by ZEFSAII (Michael W. Deem and Ramdas Pophale) SiO2 
 PCOD8157728
Probable space group: P 21 21 21
;
_chemical_formula_sum "Si O2"
_cell_formula_units_Z 32
_cell_length_a 12.701237
_cell_length_b 14.475866
_cell_length_c 8.075511
_cell_angle_alpha 90.000000
_cell_angle_beta 90.000000
_cell_angle_gamma 90.000000
_cell_volume 1484.774797
_symmetry_space_group_name_H-M "P 21 21 21"
_symmetry_group_IT_number 19
_symmetry_cell_setting 'orthorhombic'
loop_
_space_group_symop_operation_xyz
x,y,z
1/2-x,-y,1/2+z
1/2+x,1/2-y,-z
-x,1/2+y,1/2-z
loop_
_atom_site_type_symbol
_atom_site_label
_atom_site_fract_x
_atom_site_fract_y
_atom_site_fract_z
Si Si1 0.164204 0.319270 0.409975
Si Si2 0.746595 0.345649 0.395983
Si Si3 0.153491 0.706633 0.343150
Si Si4 0.045887 0.883375 0.911053
Si Si5 0.002958 0.763550 0.616118
Si Si6 0.131760 0.581140 0.041622
Si Si7 0.170479 0.371970 0.048812
Si Si8 0.048092 0.074378 0.728706
O O1 0.183018 0.215936 0.472623
O O2 0.260639 0.385095 0.458991
O O3 0.157965 0.310915 0.212599
O O4 0.055681 0.358516 0.481480
O O5 0.770439 0.283042 0.236027
O O6 0.852740 0.388440 0.470587
O O7 0.667098 0.428049 0.344534
O O8 0.067706 0.762982 0.446404
O O9 0.101381 0.644306 0.199179
O O10 0.213939 0.639305 0.470548
O O11 0.067709 0.804129 0.772937
O O12 0.026135 0.982128 0.829363
O O13 0.908746 0.836311 0.592100
O O14 0.960970 0.661262 0.649331
O O15 0.149466 0.476934 0.100493
O O16 0.036234 0.586479 0.915554
#
# Coordination Sequence:
#
# PCOD8157728 Si02
#       8
#     4   4   4   4   4   4   4   4
#     4  11  25  44  77 103 144 184 241 301 369 419
#     4  11  25  49  70  99 149 189 237 293 366 442
#     4  11  24  43  71 103 142 182 238 293 366 429
#     4  12  26  49  73 105 144 197 244 303 365 443
#     4  12  24  45  70 102 141 184 237 301 358 427
#     4  11  25  43  70 107 139 183 238 303 357 429
#     4  12  23  42  68 106 137 177 236 302 358 426
#     4  12  26  47  71 103 148 192 239 294 369 439
#
# _framework density 21.552088999999999
#
# number of rings (size 3 to 8) (size 9 to 14) (size 15 to 20)
#    0.000    0.500    3.750    5.250    7.000    1.000 
#    4.500    0.000    0.000    0.000    0.000    0.000 
#    0.000    0.000    0.000    0.000    0.000    0.000 
#
# Total GULP energy -396974.789405 kJ/mol
# GULP energy per Si atom -12405.462169 kJ/mol
# Density = 2.150304 g / cm^3
# Si number density = 21.552089 Si / 1000 Ang^3
#
#
#
# Elastic Constant Matrix: (Units=GPa)
#
#
# Indices 1 2 3 4 5 6 
#
# 1 114.3683 16.0633 35.6858 0.0000 0.0000 0.0000
# 2 16.0633 72.6326 13.9645 0.0000 0.0000 0.0000
# 3 35.6858 13.9645 106.2384 0.0000 0.0000 0.0000
# 4 0.0000 0.0000 0.0000 30.4319 0.0000 0.0000
# 5 0.0000 0.0000 0.0000 0.0000 39.8948 0.0000
# 6 0.0000 0.0000 0.0000 0.0000 0.0000 24.1945
#
#
#
# Elastic Compliance Matrix: (Units=1/GPa)
#
#
# Indices 1 2 3 4 5 6 
#
# 1 0.009945 -0.001598 -0.003131 0.000000 0.000000 0.000000
# 2 -0.001598 0.014382 -0.001354 0.000000 0.000000 0.000000
# 3 -0.003131 -0.001354 0.010642 0.000000 0.000000 0.000000
# 4 0.000000 0.000000 0.000000 0.032860 0.000000 0.000000
# 5 0.000000 0.000000 0.000000 0.000000 0.025066 0.000000
# 6 0.000000 0.000000 0.000000 0.000000 0.000000 0.041332
#
#
# Mechanical properties :
#
#
# Convention : Reuss Voigt Hill
#
# Bulk Modulus (GPa) = 43.84993 47.18516 45.51755
# Shear Modulus (GPa) = 32.46923 34.07259 33.27091
#
# Velocity S-wave (km/s) = 3.88564 3.98042 3.93331
# Velocity P-wave (km/s) = 6.36562 6.56247 6.46479
#
# Compressibility (1/GPa) = 0.02280505
#
# Stress axis : x y z
#
# Youngs Moduli (GPa) = 100.55445 69.53373 93.96468
#
# Poissons Ratio (x) = 0.11108 0.29416
# Poissons Ratio (y) = 0.16064 0.12721
# Poissons Ratio (z) = 0.31479 0.09413
#
# Static dielectric constant tensor:
#      x y z
#    x 3.978100 0.000000 0.000000 
#    y 0.000000 3.845250 0.000000 
#    z 0.000000 0.000000 3.975400 
# 
# 
# High freq. dielectric constant tensor:
#      x y z
#    x 1.854280 0.000000 0.000000 
#    y 0.000000 1.841110 0.000000 
#    z 0.000000 0.000000 1.857360 
# 
# From -- ./inp_files/3638.got.cif
#   From: 2010.03.12/outbox.cif.g09.slc.cpg/sg19_2_cif.got.tgz:3638.got - 2010.04.10 18:59:41.
