data_PCOD8157012
_publ_section_title
;
Structure prediction by ZEFSAII (Michael W. Deem and Ramdas Pophale) SiO2 
 PCOD8157012
Probable space group: P 21 21 21
;
_chemical_formula_sum "Si O2"
_cell_formula_units_Z 32
_cell_length_a 12.523278
_cell_length_b 8.866003
_cell_length_c 14.025922
_cell_angle_alpha 90.000000
_cell_angle_beta 90.000000
_cell_angle_gamma 90.000000
_cell_volume 1557.318041
_symmetry_space_group_name_H-M "P 21 21 21"
_symmetry_group_IT_number 19
_symmetry_cell_setting 'orthorhombic'
loop_
_space_group_symop_operation_xyz
x,y,z
1/2-x,-y,1/2+z
1/2+x,1/2-y,-z
-x,1/2+y,1/2-z
loop_
_atom_site_type_symbol
_atom_site_label
_atom_site_fract_x
_atom_site_fract_y
_atom_site_fract_z
Si Si1 0.460062 0.422405 0.976018
Si Si2 0.457217 0.427694 0.345666
Si Si3 0.096666 0.424827 0.196060
Si Si4 0.764988 0.073351 0.163106
Si Si5 0.596505 0.423701 0.803357
Si Si6 0.765111 0.427202 0.162670
Si Si7 0.042871 0.927433 0.846209
Si Si8 0.460131 0.077912 0.976503
O O1 0.357652 0.466151 0.912405
O O2 0.570738 0.441138 0.915737
O O3 0.449234 0.250274 0.011166
O O4 0.463574 0.530909 0.067162
O O5 0.341750 0.493330 0.372113
O O6 0.452098 0.250080 0.333101
O O7 0.500019 0.499624 0.249572
O O8 0.536624 0.469998 0.432078
O O9 0.203928 0.509283 0.231397
O O10 0.104760 0.250679 0.225518
O O11 0.000140 0.501150 0.249470
O O12 0.070928 0.441270 0.083602
O O13 0.745206 0.250315 0.172410
O O14 0.703710 0.508233 0.768000
O O15 0.658420 0.507221 0.127298
O O16 0.857788 0.466153 0.087088
#
# Coordination Sequence:
#
# PCOD8157012 Si02
#       8
#     4   4   4   4   4   4   4   4
#     4   9  20  39  62  88 119 155 195 242 293 347
#     4  12  26  42  61  85 118 157 198 245 294 351
#     4   9  17  32  57  88 120 152 190 238 288 341
#     4  10  21  39  63  89 120 156 195 243 297 351
#     4   9  17  32  57  88 120 152 190 238 288 341
#     4  10  21  39  63  89 120 156 195 243 297 351
#     4  12  26  42  61  85 118 157 198 245 294 351
#     4   9  20  39  62  88 119 155 195 242 293 347
#
# _framework density 20.548147
#
# number of rings (size 3 to 8) (size 9 to 14) (size 15 to 20)
#    0.000    2.000    0.000    5.250    0.000    8.000 
#    0.000    2.500    0.000    0.000    0.000    0.000 
#    0.000    0.000    0.000    0.000    0.000    0.000 
#
# Total GULP energy -396733.120729 kJ/mol
# GULP energy per Si atom -12397.910023 kJ/mol
# Density = 2.050138 g / cm^3
# Si number density = 20.548147 Si / 1000 Ang^3
#
#
#
# Elastic Constant Matrix: (Units=GPa)
#
#
# Indices 1 2 3 4 5 6 
#
# 1 87.1539 50.9918 43.6524 0.0000 0.0000 0.0000
# 2 50.9918 160.1927 69.5484 0.0000 0.0000 0.0000
# 3 43.6524 69.5484 114.6197 0.0000 0.0000 0.0000
# 4 0.0000 0.0000 0.0000 38.6162 0.0000 0.0000
# 5 0.0000 0.0000 0.0000 0.0000 25.3825 0.0000
# 6 0.0000 0.0000 0.0000 0.0000 0.0000 37.9763
#
#
#
# Elastic Compliance Matrix: (Units=1/GPa)
#
#
# Indices 1 2 3 4 5 6 
#
# 1 0.015281 -0.003174 -0.003894 0.000000 0.000000 0.000000
# 2 -0.003174 0.009134 -0.004334 0.000000 0.000000 0.000000
# 3 -0.003894 -0.004334 0.012837 0.000000 0.000000 0.000000
# 4 0.000000 0.000000 0.000000 0.025896 0.000000 0.000000
# 5 0.000000 0.000000 0.000000 0.000000 0.039397 0.000000
# 6 0.000000 0.000000 0.000000 0.000000 0.000000 0.026332
#
#
# Mechanical properties :
#
#
# Convention : Reuss Voigt Hill
#
# Bulk Modulus (GPa) = 69.20592 76.70573 72.95582
# Shear Modulus (GPa) = 31.94940 33.57989 32.76465
#
# Velocity S-wave (km/s) = 3.94744 4.04692 3.99749
# Velocity P-wave (km/s) = 7.38440 7.69724 7.54244
#
# Compressibility (1/GPa) = 0.01444963
#
# Stress axis : x y z
#
# Youngs Moduli (GPa) = 65.44003 109.47855 77.89868
#
# Poissons Ratio (x) = 0.34744 0.30335
# Poissons Ratio (y) = 0.20768 0.33759
# Poissons Ratio (z) = 0.25483 0.47445
#
# Static dielectric constant tensor:
#      x y z
#    x 3.822000 0.000000 0.000000 
#    y 0.000000 4.458880 0.000000 
#    z 0.000000 0.000000 3.928010 
# 
# 
# High freq. dielectric constant tensor:
#      x y z
#    x 1.794920 0.000000 0.000000 
#    y 0.000000 1.811290 0.000000 
#    z 0.000000 0.000000 1.799960 
# 
# From -- ./inp_files/6098.got.cif
#   From: 2010.03.12/outbox.cif.g09.slc.cpg/sg19_4_cif.got.tgz:6098.got - 2010.04.10 18:59:41.
