data_PCOD8157616
_publ_section_title
;
Structure prediction by ZEFSAII (Michael W. Deem and Ramdas Pophale) SiO2 
 PCOD8157616
Probable space group: P 21 21 21
;
_chemical_formula_sum "Si O2"
_cell_formula_units_Z 28
_cell_length_a 6.693251
_cell_length_b 12.445078
_cell_length_c 15.920053
_cell_angle_alpha 90.000000
_cell_angle_beta 90.000000
_cell_angle_gamma 90.000000
_cell_volume 1326.109065
_symmetry_space_group_name_H-M "P 21 21 21"
_symmetry_group_IT_number 19
_symmetry_cell_setting 'orthorhombic'
loop_
_space_group_symop_operation_xyz
x,y,z
1/2-x,-y,1/2+z
1/2+x,1/2-y,-z
-x,1/2+y,1/2-z
loop_
_atom_site_type_symbol
_atom_site_label
_atom_site_fract_x
_atom_site_fract_y
_atom_site_fract_z
Si Si1 0.220727 0.600447 0.546496
Si Si2 0.283633 0.089867 0.671596
Si Si3 0.072776 0.735454 0.887145
Si Si4 0.578784 0.113684 0.528720
Si Si5 0.996716 0.810157 0.321790
Si Si6 0.316096 0.143659 0.226949
Si Si7 0.391631 0.736230 0.404528
O O1 0.160052 0.477756 0.533064
O O2 0.346806 0.606477 0.632613
O O3 0.357208 0.639935 0.469613
O O4 0.024531 0.673625 0.551019
O O5 0.394042 0.067210 0.583254
O O6 0.447104 0.142355 0.732138
O O7 0.100483 0.170386 0.659531
O O8 0.200219 0.983258 0.715352
O O9 0.248379 0.652919 0.909012
O O10 0.154710 0.827959 0.824930
O O11 0.993907 0.787121 0.972800
O O12 0.885512 0.696731 0.309011
O O13 0.186829 0.793000 0.380014
O O14 0.508082 0.186508 0.177499
#
# Coordination Sequence:
#
# PCOD8157616 Si02
#       7
#     4   4   4   4   4   4   4
#     4  11  25  41  71 101 138 181 231 288 354 416
#     4  12  26  46  74  99 143 190 233 293 359 422
#     4  12  26  48  70 102 142 184 237 293 346 437
#     4  12  27  47  70 103 141 189 235 287 363 417
#     4  11  24  44  67 102 142 177 235 293 343 421
#     4  11  26  44  71 102 136 185 234 287 354 416
#     4  11  22  44  67 101 140 172 227 293 343 415
#
# _framework density 21.114402999999999
#
# number of rings (size 3 to 8) (size 9 to 14) (size 15 to 20)
#    0.000    0.571    5.714    1.714    4.000    3.429 
#    2.571    0.000    0.000    0.000    0.000    0.000 
#    0.000    0.000    0.000    0.000    0.000    0.000 
#
# Total GULP energy -347416.166760 kJ/mol
# GULP energy per Si atom -12407.720241 kJ/mol
# Density = 2.106635 g / cm^3
# Si number density = 21.114403 Si / 1000 Ang^3
#
#
#
# Elastic Constant Matrix: (Units=GPa)
#
#
# Indices 1 2 3 4 5 6 
#
# 1 100.4260 30.6813 27.8676 0.0000 0.0000 0.0000
# 2 30.6813 98.6067 19.3288 0.0000 0.0000 0.0000
# 3 27.8676 19.3288 76.4430 0.0000 0.0000 0.0000
# 4 0.0000 0.0000 0.0000 34.6285 0.0000 0.0000
# 5 0.0000 0.0000 0.0000 0.0000 43.0438 0.0000
# 6 0.0000 0.0000 0.0000 0.0000 0.0000 24.1462
#
#
#
# Elastic Compliance Matrix: (Units=1/GPa)
#
#
# Indices 1 2 3 4 5 6 
#
# 1 0.011862 -0.002991 -0.003568 0.000000 0.000000 0.000000
# 2 -0.002991 0.011425 -0.001798 0.000000 0.000000 0.000000
# 3 -0.003568 -0.001798 0.014837 0.000000 0.000000 0.000000
# 4 0.000000 0.000000 0.000000 0.028878 0.000000 0.000000
# 5 0.000000 0.000000 0.000000 0.000000 0.023232 0.000000
# 6 0.000000 0.000000 0.000000 0.000000 0.000000 0.041414
#
#
# Mechanical properties :
#
#
# Convention : Reuss Voigt Hill
#
# Bulk Modulus (GPa) = 46.71078 47.91455 47.31267
# Shear Modulus (GPa) = 32.15470 33.53691 32.84581
#
# Velocity S-wave (km/s) = 3.90664 3.98973 3.94840
# Velocity P-wave (km/s) = 6.52073 6.63068 6.57594
#
# Compressibility (1/GPa) = 0.02140834
#
# Stress axis : x y z
#
# Youngs Moduli (GPa) = 84.30631 87.53094 67.39921
#
# Poissons Ratio (x) = 0.26183 0.24047
# Poissons Ratio (y) = 0.25219 0.12120
# Poissons Ratio (z) = 0.30079 0.15740
#
# Static dielectric constant tensor:
#      x y z
#    x 3.936980 0.000000 0.000000 
#    y 0.000000 3.587900 0.000000 
#    z 0.000000 0.000000 3.927000 
# 
# 
# High freq. dielectric constant tensor:
#      x y z
#    x 1.843770 0.000000 0.000000 
#    y 0.000000 1.817550 0.000000 
#    z 0.000000 0.000000 1.841500 
# 
# From -- ./inp_files/6435.got.cif
#   From: 2010.03.12/outbox.cif.g09.slc.cpg/sg19_4_cif.got.tgz:6435.got - 2010.04.10 18:59:41.
