data_PCOD8157973
_publ_section_title
;
Structure prediction by ZEFSAII (Michael W. Deem and Ramdas Pophale) SiO2 
 PCOD8157973
Probable space group: C 2 2 21
;
_chemical_formula_sum "Si O2"
_cell_formula_units_Z 60
_cell_length_a 11.333643
_cell_length_b 13.067907
_cell_length_c 18.328560
_cell_angle_alpha 90.000000
_cell_angle_beta 90.000000
_cell_angle_gamma 90.000000
_cell_volume 2714.587902
_symmetry_space_group_name_H-M "C 2 2 21"
_symmetry_group_IT_number 20
_symmetry_cell_setting 'orthorhombic'
loop_
_space_group_symop_operation_xyz
x,y,z
-x,-y,1/2+z
x,-y,-z
-x,y,1/2-z
1/2+x,1/2+y,z
1/2-x,1/2-y,1/2+z
1/2+x,1/2-y,-z
1/2-x,1/2+y,1/2-z
loop_
_atom_site_type_symbol
_atom_site_label
_atom_site_fract_x
_atom_site_fract_y
_atom_site_fract_z
Si Si1 0.303278 0.752708 0.339819
Si Si2 0.449959 0.913642 0.054930
Si Si3 0.500000 0.651511 0.250000
Si Si4 0.865109 0.675272 0.265693
Si Si5 0.817729 0.523456 0.639727
Si Si6 0.259726 0.297858 0.389381
Si Si7 0.885850 0.901041 0.896165
Si Si8 0.071578 0.208437 0.019241
O O1 0.422006 0.727354 0.297305
O O2 0.197805 0.680110 0.312941
O O3 0.321101 0.732626 0.425450
O O4 0.279307 0.871577 0.322237
O O5 0.338405 0.888851 0.108628
O O6 0.491327 0.810796 0.012479
O O7 0.560256 0.962031 0.097285
O O8 0.403457 0.000000 0.000000
O O9 0.573845 0.587077 0.310287
O O10 0.836261 0.567380 0.302548
O O11 0.815079 0.773983 0.310159
O O12 0.000000 0.690339 0.250000
O O13 0.704514 0.494629 0.588073
O O14 0.191179 0.197798 0.413885
O O15 0.370315 0.321484 0.442541
O O16 0.997390 0.890468 0.950923
#
# Coordination Sequence:
#
# PCOD8157973 Si02
#       8
#     8   8   4   8   8   8   8   8
#     4  10  21  37  60  92 122 165 214 254 312 382
#     4  10  20  36  63  96 120 159 217 265 312 383
#     4  10  16  36  64  86 124 158 208 248 312 380
#     4  11  24  40  57  89 130 171 209 264 316 368
#     4  10  21  37  62  95 122 163 210 269 313 374
#     4  10  20  39  60  87 127 164 211 261 312 372
#     4   9  18  35  60  91 121 163 203 250 320 373
#     4   9  20  36  63  89 122 169 203 255 318 378
#
# _framework density 22.102803000000002
#
# number of rings (size 3 to 8) (size 9 to 14) (size 15 to 20)
#    0.000    2.133    2.667    2.400    0.933    3.200 
#    1.200    1.333    0.000    0.000    0.000    0.000 
#    0.000    0.000    0.000    0.000    0.000    0.000 
#
# Total GULP energy -371694.008050 kJ/mol
# GULP energy per Si atom -12389.800268 kJ/mol
# Density = 2.205250 g / cm^3
# Si number density = 22.102803 Si / 1000 Ang^3
#
#
#
# Elastic Constant Matrix: (Units=GPa)
#
#
# Indices 1 2 3 4 5 6 
#
# 1 117.3334 43.3088 13.4546 0.0000 0.0000 0.0000
# 2 43.3088 74.1747 6.9716 0.0000 0.0000 0.0000
# 3 13.4546 6.9716 28.6476 0.0000 0.0000 0.0000
# 4 0.0000 0.0000 0.0000 12.1047 0.0000 0.0000
# 5 0.0000 0.0000 0.0000 0.0000 44.3317 0.0000
# 6 0.0000 0.0000 0.0000 0.0000 0.0000 37.0950
#
#
#
# Elastic Compliance Matrix: (Units=1/GPa)
#
#
# Indices 1 2 3 4 5 6 
#
# 1 0.011249 -0.006213 -0.003771 0.000000 0.000000 0.000000
# 2 -0.006213 0.017229 -0.001275 0.000000 0.000000 0.000000
# 3 -0.003771 -0.001275 0.036988 0.000000 0.000000 0.000000
# 4 0.000000 0.000000 0.000000 0.082612 0.000000 0.000000
# 5 0.000000 0.000000 0.000000 0.000000 0.022557 0.000000
# 6 0.000000 0.000000 0.000000 0.000000 0.000000 0.026958
#
#
# Mechanical properties :
#
#
# Convention : Reuss Voigt Hill
#
# Bulk Modulus (GPa) = 23.28394 38.62508 30.95451
# Shear Modulus (GPa) = 21.32858 29.13433 25.23145
#
# Velocity S-wave (km/s) = 3.10977 3.63454 3.38235
# Velocity P-wave (km/s) = 4.84267 5.92675 5.41192
#
# Compressibility (1/GPa) = 0.04294805
#
# Stress axis : x y z
#
# Youngs Moduli (GPa) = 88.90058 58.04065 27.03569
#
# Poissons Ratio (x) = 0.36062 0.10195
# Poissons Ratio (y) = 0.55237 0.03446
# Poissons Ratio (z) = 0.33524 0.07399
#
# Static dielectric constant tensor:
#      x y z
#    x 4.403740 0.000000 0.000000 
#    y 0.000000 3.906590 0.000000 
#    z 0.000000 0.000000 4.116560 
# 
# 
# High freq. dielectric constant tensor:
#      x y z
#    x 1.885140 0.000000 0.000000 
#    y 0.000000 1.845880 0.000000 
#    z 0.000000 0.000000 1.851540 
# 
# From -- ./inp_files/27318.got.cif
#   From: 2010.03.12/outbox.cif.g09.slc.cpg/sg20_14_cif.got.tgz:27318.got - 2010.04.14 01:38:04.
