data_PCOD8157660
_publ_section_title
;
Structure prediction by ZEFSAII (Michael W. Deem and Ramdas Pophale) SiO2 
 PCOD8157660
Probable space group: P 21 21 21
;
_chemical_formula_sum "Si O2"
_cell_formula_units_Z 32
_cell_length_a 11.078725
_cell_length_b 21.783890
_cell_length_c 6.471055
_cell_angle_alpha 90.000000
_cell_angle_beta 90.000000
_cell_angle_gamma 90.000000
_cell_volume 1561.709703
_symmetry_space_group_name_H-M "P 21 21 21"
_symmetry_group_IT_number 19
_symmetry_cell_setting 'orthorhombic'
loop_
_space_group_symop_operation_xyz
x,y,z
1/2-x,-y,1/2+z
1/2+x,1/2-y,-z
-x,1/2+y,1/2-z
loop_
_atom_site_type_symbol
_atom_site_label
_atom_site_fract_x
_atom_site_fract_y
_atom_site_fract_z
Si Si1 0.093113 0.984212 0.170969
Si Si2 0.300350 0.829862 0.649401
Si Si3 0.085683 0.782021 0.890366
Si Si4 0.162288 0.069204 0.822184
Si Si5 0.713516 0.836950 0.937470
Si Si6 0.945248 0.862346 0.197301
Si Si7 0.626134 0.208585 0.082447
Si Si8 0.973541 0.598111 0.069296
O O1 0.229579 0.961469 0.196612
O O2 0.997541 0.930052 0.176760
O O3 0.058336 0.030507 0.352891
O O4 0.087513 0.018466 0.950468
O O5 0.177788 0.828873 0.781333
O O6 0.280518 0.879431 0.470563
O O7 0.326761 0.763105 0.560120
O O8 0.409855 0.848483 0.798407
O O9 0.152691 0.719973 0.947589
O O10 0.976112 0.766442 0.736575
O O11 0.037348 0.813673 0.097755
O O12 0.069803 0.102427 0.667377
O O13 0.819375 0.863079 0.078198
O O14 0.761772 0.818003 0.712036
O O15 0.616314 0.891068 0.912885
O O16 0.926867 0.845054 0.436978
#
# Coordination Sequence:
#
# PCOD8157660 Si02
#       8
#     4   4   4   4   4   4   4   4
#     4  11  24  43  70  98 130 178 228 281 335 397
#     4  11  24  38  71 102 130 180 216 278 344 396
#     4  11  24  40  68 100 138 174 221 278 332 405
#     4  11  23  42  70 100 132 170 228 286 337 397
#     4  11  26  44  64 100 141 180 224 271 339 416
#     4  11  25  44  66 100 137 177 227 278 333 405
#     4  11  25  43  68 100 138 180 219 272 342 411
#     4  11  25  44  67  98 138 175 229 280 338 397
#
# _framework density 20.490364
#
# number of rings (size 3 to 8) (size 9 to 14) (size 15 to 20)
#    0.000    1.000    2.500    3.000   10.500    4.000 
#    4.500    0.000    0.000    0.000    0.000    0.000 
#    0.000    0.000    0.000    0.000    0.000    0.000 
#
# Total GULP energy -397054.533531 kJ/mol
# GULP energy per Si atom -12407.954173 kJ/mol
# Density = 2.044373 g / cm^3
# Si number density = 20.490364 Si / 1000 Ang^3
#
#
#
# Elastic Constant Matrix: (Units=GPa)
#
#
# Indices 1 2 3 4 5 6 
#
# 1 123.8971 52.0270 47.6254 0.0000 0.0000 0.0000
# 2 52.0270 86.1374 38.6385 0.0000 0.0000 0.0000
# 3 47.6254 38.6385 121.2878 0.0000 0.0000 0.0000
# 4 0.0000 0.0000 0.0000 23.7415 0.0000 0.0000
# 5 0.0000 0.0000 0.0000 0.0000 30.1201 0.0000
# 6 0.0000 0.0000 0.0000 0.0000 0.0000 40.8664
#
#
#
# Elastic Compliance Matrix: (Units=1/GPa)
#
#
# Indices 1 2 3 4 5 6 
#
# 1 0.011521 -0.005751 -0.002692 0.000000 0.000000 0.000000
# 2 -0.005751 0.016416 -0.002971 0.000000 0.000000 0.000000
# 3 -0.002692 -0.002971 0.010248 0.000000 0.000000 0.000000
# 4 0.000000 0.000000 0.000000 0.042120 0.000000 0.000000
# 5 0.000000 0.000000 0.000000 0.000000 0.033200 0.000000
# 6 0.000000 0.000000 0.000000 0.000000 0.000000 0.024470
#
#
# Mechanical properties :
#
#
# Convention : Reuss Voigt Hill
#
# Bulk Modulus (GPa) = 65.11790 67.54490 66.33140
# Shear Modulus (GPa) = 30.13438 31.81435 30.97436
#
# Velocity S-wave (km/s) = 3.83908 3.94464 3.89222
# Velocity P-wave (km/s) = 7.17636 7.33367 7.25544
#
# Compressibility (1/GPa) = 0.01535676
#
# Stress axis : x y z
#
# Youngs Moduli (GPa) = 86.79826 60.91640 97.57669
#
# Poissons Ratio (x) = 0.35035 0.26265
# Poissons Ratio (y) = 0.49920 0.28993
# Poissons Ratio (z) = 0.23364 0.18100
#
# Static dielectric constant tensor:
#      x y z
#    x 3.813730 0.000000 0.000000 
#    y 0.000000 3.641720 0.000000 
#    z 0.000000 0.000000 3.935700 
# 
# 
# High freq. dielectric constant tensor:
#      x y z
#    x 1.805420 0.000000 0.000000 
#    y 0.000000 1.799010 0.000000 
#    z 0.000000 0.000000 1.816750 
# 
# From -- ./inp_files/1158.got.cif
#   From: 2010.03.12/outbox.cif.g09.slc.cpg/sg19_1_cif.got.tgz:1158.got - 2010.04.10 18:59:41.
