data_PCOD8157291
_publ_section_title
;
Structure prediction by ZEFSAII (Michael W. Deem and Ramdas Pophale) SiO2 
 PCOD8157291
Probable space group: P 21 21 21
;
_chemical_formula_sum "Si O2"
_cell_formula_units_Z 28
_cell_length_a 18.566006
_cell_length_b 11.856624
_cell_length_c 5.172676
_cell_angle_alpha 90.000000
_cell_angle_beta 90.000000
_cell_angle_gamma 90.000000
_cell_volume 1138.661956
_symmetry_space_group_name_H-M "P 21 21 21"
_symmetry_group_IT_number 19
_symmetry_cell_setting 'orthorhombic'
loop_
_space_group_symop_operation_xyz
x,y,z
1/2-x,-y,1/2+z
1/2+x,1/2-y,-z
-x,1/2+y,1/2-z
loop_
_atom_site_type_symbol
_atom_site_label
_atom_site_fract_x
_atom_site_fract_y
_atom_site_fract_z
Si Si1 0.991042 0.632510 0.103011
Si Si2 0.828091 0.420947 0.430623
Si Si3 0.780853 0.863997 0.695964
Si Si4 0.748280 0.650059 0.425515
Si Si5 0.592663 0.142669 0.536366
Si Si6 0.471748 0.001077 0.381644
Si Si7 0.859250 0.046666 0.416336
O O1 0.956725 0.754588 0.124999
O O2 0.986517 0.588660 0.393489
O O3 0.075158 0.630448 0.005615
O O4 0.947823 0.558637 0.887236
O O5 0.808334 0.553416 0.449113
O O6 0.812475 0.371277 0.146671
O O7 0.911277 0.413129 0.510929
O O8 0.784157 0.347967 0.639241
O O9 0.785196 0.772577 0.463836
O O10 0.696632 0.876517 0.758282
O O11 0.812446 0.989956 0.645789
O O12 0.831404 0.814028 0.922487
O O13 0.544754 0.072443 0.326738
O O14 0.606731 0.060664 0.774373
#
# Coordination Sequence:
#
# PCOD8157291 Si02
#       7
#     4   4   4   4   4   4   4
#     4  11  26  45  74 105 141 194 235 296 366 423
#     4  10  22  44  63 108 135 180 236 287 347 430
#     4  12  24  46  72 104 141 196 235 299 363 424
#     4  10  24  39  71  98 142 180 230 290 355 419
#     4  11  26  45  73 102 143 192 237 298 364 427
#     4  11  24  46  69 101 144 181 242 296 347 432
#     4  11  26  47  70 108 144 183 249 298 350 443
#
# _framework density 24.590267999999998
#
# number of rings (size 3 to 8) (size 9 to 14) (size 15 to 20)
#    0.000    1.143    2.857    1.714    8.000    1.143 
#    5.143    0.000    0.000    0.000    0.000    0.000 
#    0.000    0.000    0.000    0.000    0.000    0.000 
#
# Total GULP energy -347129.771867 kJ/mol
# GULP energy per Si atom -12397.491852 kJ/mol
# Density = 2.453430 g / cm^3
# Si number density = 24.590268 Si / 1000 Ang^3
#
#
#
# Elastic Constant Matrix: (Units=GPa)
#
#
# Indices 1 2 3 4 5 6 
#
# 1 110.5293 32.6909 -5.5632 0.0000 0.0000 0.0000
# 2 32.6909 98.0702 -0.0245 0.0000 0.0000 0.0000
# 3 -5.5632 -0.0245 48.9057 0.0000 0.0000 0.0000
# 4 0.0000 0.0000 0.0000 26.6620 0.0000 0.0000
# 5 0.0000 0.0000 0.0000 0.0000 23.9172 0.0000
# 6 0.0000 0.0000 0.0000 0.0000 0.0000 37.6473
#
#
#
# Elastic Compliance Matrix: (Units=1/GPa)
#
#
# Indices 1 2 3 4 5 6 
#
# 1 0.010101 -0.003367 0.001147 0.000000 0.000000 0.000000
# 2 -0.003367 0.011319 -0.000377 0.000000 0.000000 0.000000
# 3 0.001147 -0.000377 0.020578 0.000000 0.000000 0.000000
# 4 0.000000 0.000000 0.000000 0.037507 0.000000 0.000000
# 5 0.000000 0.000000 0.000000 0.000000 0.041811 0.000000
# 6 0.000000 0.000000 0.000000 0.000000 0.000000 0.026562
#
#
# Mechanical properties :
#
#
# Convention : Reuss Voigt Hill
#
# Bulk Modulus (GPa) = 27.17078 34.63460 30.90269
# Shear Modulus (GPa) = 30.24089 33.00544 31.62317
#
# Velocity S-wave (km/s) = 3.51064 3.66760 3.58998
# Velocity P-wave (km/s) = 5.24464 5.66130 5.45695
#
# Compressibility (1/GPa) = 0.03680424
#
# Stress axis : x y z
#
# Youngs Moduli (GPa) = 99.00112 88.34733 48.59593
#
# Poissons Ratio (x) = 0.29744 -0.05576
# Poissons Ratio (y) = 0.33331 0.01834
# Poissons Ratio (z) = -0.11359 0.03333
#
# Static dielectric constant tensor:
#      x y z
#    x 4.794180 0.000000 0.000000 
#    y 0.000000 4.343160 0.000000 
#    z 0.000000 0.000000 4.186230 
# 
# 
# High freq. dielectric constant tensor:
#      x y z
#    x 1.989480 0.000000 0.000000 
#    y 0.000000 1.973520 0.000000 
#    z 0.000000 0.000000 1.969380 
# 
# From -- ./inp_files/1733.got.cif
#   From: 2010.03.12/outbox.cif.g09.slc.cpg/sg19_1_cif.got.tgz:1733.got - 2010.04.10 18:59:41.
