data_PCOD8157655
_publ_section_title
;
Structure prediction by ZEFSAII (Michael W. Deem and Ramdas Pophale) SiO2 
 PCOD8157655
Probable space group: P 21 21 21
;
_chemical_formula_sum "Si O2"
_cell_formula_units_Z 32
_cell_length_a 8.506071
_cell_length_b 12.234740
_cell_length_c 13.806976
_cell_angle_alpha 90.000000
_cell_angle_beta 90.000000
_cell_angle_gamma 90.000000
_cell_volume 1436.886015
_symmetry_space_group_name_H-M "P 21 21 21"
_symmetry_group_IT_number 19
_symmetry_cell_setting 'orthorhombic'
loop_
_space_group_symop_operation_xyz
x,y,z
1/2-x,-y,1/2+z
1/2+x,1/2-y,-z
-x,1/2+y,1/2-z
loop_
_atom_site_type_symbol
_atom_site_label
_atom_site_fract_x
_atom_site_fract_y
_atom_site_fract_z
Si Si1 0.167785 0.059545 0.844132
Si Si2 0.081488 0.157088 0.507592
Si Si3 0.789747 0.869607 0.452441
Si Si4 0.977117 0.000252 0.664122
Si Si5 0.490433 0.468487 0.665064
Si Si6 0.639607 0.989864 0.633434
Si Si7 0.999188 0.766605 0.593141
Si Si8 0.436256 0.121326 0.491265
O O1 0.097016 0.053376 0.737692
O O2 0.353243 0.042145 0.842487
O O3 0.137256 0.181524 0.879748
O O4 0.072391 0.974059 0.911675
O O5 0.015081 0.048408 0.558349
O O6 0.266047 0.159046 0.524184
O O7 0.019287 0.270654 0.552228
O O8 0.026088 0.142704 0.395293
O O9 0.671736 0.786412 0.399394
O O10 0.840351 0.966556 0.379752
O O11 0.949330 0.808100 0.485871
O O12 0.696036 0.907763 0.549266
O O13 0.797314 0.036888 0.684515
O O14 0.998995 0.869316 0.666192
O O15 0.458234 0.436072 0.777333
O O16 0.533515 0.083716 0.585528
#
# Coordination Sequence:
#
# PCOD8157655 Si02
#       8
#     4   4   4   4   4   4   4   4
#     4  11  25  45  69 105 138 179 232 278 347 407
#     4  11  24  46  68  98 142 180 233 280 346 401
#     4  11  23  44  71  98 140 177 228 285 343 404
#     4  11  25  43  70 101 138 180 227 285 342 408
#     4  11  24  47  68 100 138 178 231 284 337 417
#     4  11  23  44  69 101 133 180 227 279 340 406
#     4  11  23  41  72  98 138 182 221 285 341 407
#     4  11  25  44  71  99 139 188 223 288 338 406
#
# _framework density 22.270381
#
# number of rings (size 3 to 8) (size 9 to 14) (size 15 to 20)
#    0.000    1.000    3.750    3.000    3.500    1.000 
#   13.500    0.000    0.000    0.000    0.000    0.000 
#    0.000    0.000    0.000    0.000    0.000    0.000 
#
# Total GULP energy -396700.763129 kJ/mol
# GULP energy per Si atom -12396.898848 kJ/mol
# Density = 2.221969 g / cm^3
# Si number density = 22.270381 Si / 1000 Ang^3
#
#
#
# Elastic Constant Matrix: (Units=GPa)
#
#
# Indices 1 2 3 4 5 6 
#
# 1 111.3742 31.6526 32.1678 0.0000 0.0000 0.0000
# 2 31.6526 109.9986 32.7026 0.0000 0.0000 0.0000
# 3 32.1678 32.7026 93.9723 0.0000 0.0000 0.0000
# 4 0.0000 0.0000 0.0000 19.6557 0.0000 0.0000
# 5 0.0000 0.0000 0.0000 0.0000 38.6723 0.0000
# 6 0.0000 0.0000 0.0000 0.0000 0.0000 27.4216
#
#
#
# Elastic Compliance Matrix: (Units=1/GPa)
#
#
# Indices 1 2 3 4 5 6 
#
# 1 0.010404 -0.002158 -0.002810 0.000000 0.000000 0.000000
# 2 -0.002158 0.010588 -0.002946 0.000000 0.000000 0.000000
# 3 -0.002810 -0.002946 0.012629 0.000000 0.000000 0.000000
# 4 0.000000 0.000000 0.000000 0.050876 0.000000 0.000000
# 5 0.000000 0.000000 0.000000 0.000000 0.025858 0.000000
# 6 0.000000 0.000000 0.000000 0.000000 0.000000 0.036468
#
#
# Mechanical properties :
#
#
# Convention : Reuss Voigt Hill
#
# Bulk Modulus (GPa) = 56.20635 56.48790 56.34713
# Shear Modulus (GPa) = 29.65931 31.73806 30.69868
#
# Velocity S-wave (km/s) = 3.65332 3.77918 3.71678
# Velocity P-wave (km/s) = 6.56419 6.66803 6.61631
#
# Compressibility (1/GPa) = 0.01779158
#
# Stress axis : x y z
#
# Youngs Moduli (GPa) = 96.11877 94.44784 79.18555
#
# Poissons Ratio (x) = 0.20384 0.22253
# Poissons Ratio (y) = 0.20745 0.23327
# Poissons Ratio (z) = 0.27012 0.27822
#
# Static dielectric constant tensor:
#      x y z
#    x 4.255100 0.000000 0.000000 
#    y 0.000000 3.841000 0.000000 
#    z 0.000000 0.000000 3.900930 
# 
# 
# High freq. dielectric constant tensor:
#      x y z
#    x 1.896300 0.000000 0.000000 
#    y 0.000000 1.866260 0.000000 
#    z 0.000000 0.000000 1.867230 
# 
# From -- ./inp_files/5902.got.cif
#   From: 2010.03.12/outbox.cif.g09.slc.cpg/sg19_3_cif.got.tgz:5902.got - 2010.04.10 18:59:41.
