data_PCOD8157659
_publ_section_title
;
Structure prediction by ZEFSAII (Michael W. Deem and Ramdas Pophale) SiO2 
 PCOD8157659
Probable space group: P 21 21 21
;
_chemical_formula_sum "Si O2"
_cell_formula_units_Z 28
_cell_length_a 7.793242
_cell_length_b 6.601845
_cell_length_c 25.464925
_cell_angle_alpha 90.000000
_cell_angle_beta 90.000000
_cell_angle_gamma 90.000000
_cell_volume 1310.164680
_symmetry_space_group_name_H-M "P 21 21 21"
_symmetry_group_IT_number 19
_symmetry_cell_setting 'orthorhombic'
loop_
_space_group_symop_operation_xyz
x,y,z
1/2-x,-y,1/2+z
1/2+x,1/2-y,-z
-x,1/2+y,1/2-z
loop_
_atom_site_type_symbol
_atom_site_label
_atom_site_fract_x
_atom_site_fract_y
_atom_site_fract_z
Si Si1 0.841604 0.941408 0.693550
Si Si2 0.645518 0.234487 0.308880
Si Si3 0.496203 0.076996 0.647079
Si Si4 0.476813 0.354221 0.551937
Si Si5 0.168104 0.246533 0.082016
Si Si6 0.325933 0.018322 0.483669
Si Si7 0.001788 0.123905 0.879152
O O1 0.835559 0.845039 0.750411
O O2 0.858718 0.754862 0.652757
O O3 0.662020 0.061023 0.684553
O O4 0.000725 0.093421 0.687917
O O5 0.831087 0.324058 0.324950
O O6 0.589986 0.045201 0.343963
O O7 0.551653 0.206432 0.596323
O O8 0.451385 0.852139 0.626537
O O9 0.351163 0.511916 0.580088
O O10 0.375551 0.236429 0.506746
O O11 0.623615 0.484266 0.524558
O O12 0.364156 0.212163 0.099590
O O13 0.126932 0.155775 0.024861
O O14 0.414078 0.987346 0.428165
#
# Coordination Sequence:
#
# PCOD8157659 Si02
#       7
#     4   4   4   4   4   4   4
#     4  12  27  47  74 104 138 185 242 294 365 429
#     4  12  26  48  72 102 138 186 238 299 362 425
#     4  11  26  45  71 103 140 183 236 294 359 425
#     4  11  23  43  63 101 142 184 235 288 356 423
#     4  11  23  42  69 101 141 184 233 290 351 432
#     4  11  25  38  67 101 138 189 234 283 356 429
#     4  12  24  45  72  98 147 187 230 304 357 421
#
# _framework density 21.371359000000002
#
# number of rings (size 3 to 8) (size 9 to 14) (size 15 to 20)
#    0.000    0.571    4.286    3.429    2.000    8.000 
#    2.571    0.000    0.000    0.000    0.000    0.000 
#    0.000    0.000    0.000    0.000    0.000    0.000 
#
# Total GULP energy -347234.555161 kJ/mol
# GULP energy per Si atom -12401.234113 kJ/mol
# Density = 2.132272 g / cm^3
# Si number density = 21.371359 Si / 1000 Ang^3
#
#
#
# Elastic Constant Matrix: (Units=GPa)
#
#
# Indices 1 2 3 4 5 6 
#
# 1 127.7734 32.8758 33.5461 0.0000 0.0000 0.0000
# 2 32.8758 86.1603 22.9122 0.0000 0.0000 0.0000
# 3 33.5461 22.9122 87.4173 0.0000 0.0000 0.0000
# 4 0.0000 0.0000 0.0000 20.8234 0.0000 0.0000
# 5 0.0000 0.0000 0.0000 0.0000 31.1444 0.0000
# 6 0.0000 0.0000 0.0000 0.0000 0.0000 37.4002
#
#
#
# Elastic Compliance Matrix: (Units=1/GPa)
#
#
# Indices 1 2 3 4 5 6 
#
# 1 0.009288 -0.002791 -0.002833 0.000000 0.000000 0.000000
# 2 -0.002791 0.013314 -0.002419 0.000000 0.000000 0.000000
# 3 -0.002833 -0.002419 0.013160 0.000000 0.000000 0.000000
# 4 0.000000 0.000000 0.000000 0.048023 0.000000 0.000000
# 5 0.000000 0.000000 0.000000 0.000000 0.032109 0.000000
# 6 0.000000 0.000000 0.000000 0.000000 0.000000 0.026738
#
#
# Mechanical properties :
#
#
# Convention : Reuss Voigt Hill
#
# Bulk Modulus (GPa) = 50.81754 53.33547 52.07651
# Shear Modulus (GPa) = 30.25239 32.00806 31.13023
#
# Velocity S-wave (km/s) = 3.76647 3.87422 3.82073
# Velocity P-wave (km/s) = 6.53797 6.70995 6.62452
#
# Compressibility (1/GPa) = 0.01967824
#
# Stress axis : x y z
#
# Youngs Moduli (GPa) = 107.66417 75.10705 75.98532
#
# Poissons Ratio (x) = 0.20960 0.21525
# Poissons Ratio (y) = 0.30046 0.18379
# Poissons Ratio (z) = 0.30500 0.18167
#
# Static dielectric constant tensor:
#      x y z
#    x 3.888550 0.000000 0.000000 
#    y 0.000000 4.416900 0.000000 
#    z 0.000000 0.000000 4.017500 
# 
# 
# High freq. dielectric constant tensor:
#      x y z
#    x 1.845660 0.000000 0.000000 
#    y 0.000000 1.847700 0.000000 
#    z 0.000000 0.000000 1.849030 
# 
# From -- ./inp_files/556.got.cif
#   From: 2010.03.12/outbox.cif.g09.slc.cpg/sg19_1_cif.got.tgz:556.got - 2010.04.10 18:59:41.
