data_PCOD8157845
_publ_section_title
;
Structure prediction by ZEFSAII (Michael W. Deem and Ramdas Pophale) SiO2 
 PCOD8157845
Probable space group: P 21 21 21
;
_chemical_formula_sum "Si O2"
_cell_formula_units_Z 20
_cell_length_a 11.009228
_cell_length_b 5.096050
_cell_length_c 12.902554
_cell_angle_alpha 90.000000
_cell_angle_beta 90.000000
_cell_angle_gamma 90.000000
_cell_volume 723.879423
_symmetry_space_group_name_H-M "P 21 21 21"
_symmetry_group_IT_number 19
_symmetry_cell_setting 'orthorhombic'
loop_
_space_group_symop_operation_xyz
x,y,z
1/2-x,-y,1/2+z
1/2+x,1/2-y,-z
-x,1/2+y,1/2-z
loop_
_atom_site_type_symbol
_atom_site_label
_atom_site_fract_x
_atom_site_fract_y
_atom_site_fract_z
Si Si1 0.296238 0.670778 0.448547
Si Si2 0.850430 0.185181 0.277266
Si Si3 0.629497 0.947731 0.361157
Si Si4 0.372641 0.149057 0.339147
Si Si5 0.461562 0.813313 0.621635
O O1 0.187972 0.659836 0.532397
O O2 0.308770 0.394510 0.393177
O O3 0.426621 0.741887 0.503954
O O4 0.281558 0.903091 0.361713
O O5 0.910120 0.399202 0.351762
O O6 0.893963 0.205936 0.154320
O O7 0.707463 0.172646 0.301488
O O8 0.894588 0.892933 0.305032
O O9 0.612371 0.699245 0.283824
O O10 0.504058 0.090902 0.387913
#
# Coordination Sequence:
#
# PCOD8157845 Si02
#       5
#     4   4   4   4   4
#     4  11  26  48  77 111 151 201 257 314 377 455
#     4   9  19  37  68  98 139 192 230 300 377 425
#     4  11  27  53  77 109 159 197 252 323 381 460
#     4  12  28  48  78 114 148 205 256 306 390 462
#     4   9  18  38  66 104 139 179 245 299 359 442
#
# _framework density 27.628913000000001
#
# number of rings (size 3 to 8) (size 9 to 14) (size 15 to 20)
#    0.000    1.600    0.000    3.600    0.000   16.000 
#    0.000   20.000    0.000    0.000    0.000    0.000 
#    0.000    0.000    0.000    0.000    0.000    0.000 
#
# Total GULP energy -247877.400137 kJ/mol
# GULP energy per Si atom -12393.870007 kJ/mol
# Density = 2.756603 g / cm^3
# Si number density = 27.628913 Si / 1000 Ang^3
#
#
#
# Elastic Constant Matrix: (Units=GPa)
#
#
# Indices 1 2 3 4 5 6 
#
# 1 115.8570 44.7286 3.4921 0.0000 0.0000 0.0000
# 2 44.7286 153.0870 48.8324 0.0000 0.0000 0.0000
# 3 3.4921 48.8324 144.9552 0.0000 0.0000 0.0000
# 4 0.0000 0.0000 0.0000 36.1724 0.0000 0.0000
# 5 0.0000 0.0000 0.0000 0.0000 29.6076 0.0000
# 6 0.0000 0.0000 0.0000 0.0000 0.0000 38.7808
#
#
#
# Elastic Compliance Matrix: (Units=1/GPa)
#
#
# Indices 1 2 3 4 5 6 
#
# 1 0.009814 -0.003128 0.000817 0.000000 0.000000 0.000000
# 2 -0.003128 0.008316 -0.002726 0.000000 0.000000 0.000000
# 3 0.000817 -0.002726 0.007797 0.000000 0.000000 0.000000
# 4 0.000000 0.000000 0.000000 0.027645 0.000000 0.000000
# 5 0.000000 0.000000 0.000000 0.000000 0.033775 0.000000
# 6 0.000000 0.000000 0.000000 0.000000 0.000000 0.025786
#
#
# Mechanical properties :
#
#
# Convention : Reuss Voigt Hill
#
# Bulk Modulus (GPa) = 63.07673 67.55616 65.31645
# Shear Modulus (GPa) = 38.91277 42.03523 40.47400
#
# Velocity S-wave (km/s) = 3.75695 3.90477 3.83157
# Velocity P-wave (km/s) = 6.45748 6.69582 6.57773
#
# Compressibility (1/GPa) = 0.01585371
#
# Stress axis : x y z
#
# Youngs Moduli (GPa) = 101.89084 120.25270 128.24883
#
# Poissons Ratio (x) = 0.37619 -0.10483
# Poissons Ratio (y) = 0.31874 0.34961
# Poissons Ratio (z) = -0.08329 0.32782
#
# Static dielectric constant tensor:
#      x y z
#    x 5.913060 0.000000 0.000000 
#    y 0.000000 5.077080 0.000000 
#    z 0.000000 0.000000 5.520200 
# 
# 
# High freq. dielectric constant tensor:
#      x y z
#    x 2.138670 0.000000 0.000000 
#    y 0.000000 2.122100 0.000000 
#    z 0.000000 0.000000 2.131140 
# 
# From -- ./inp_files/6032.got.cif
#   From: 2010.03.12/outbox.cif.g09.slc.cpg/sg19_4_cif.got.tgz:6032.got - 2010.04.10 18:59:41.
