data_PCOD8157303
_publ_section_title
;
Structure prediction by ZEFSAII (Michael W. Deem and Ramdas Pophale) SiO2 
 PCOD8157303
Probable space group: P 21 21 21
;
_chemical_formula_sum "Si O2"
_cell_formula_units_Z 28
_cell_length_a 7.755304
_cell_length_b 12.324469
_cell_length_c 13.187698
_cell_angle_alpha 90.000000
_cell_angle_beta 90.000000
_cell_angle_gamma 90.000000
_cell_volume 1260.480224
_symmetry_space_group_name_H-M "P 21 21 21"
_symmetry_group_IT_number 19
_symmetry_cell_setting 'orthorhombic'
loop_
_space_group_symop_operation_xyz
x,y,z
1/2-x,-y,1/2+z
1/2+x,1/2-y,-z
-x,1/2+y,1/2-z
loop_
_atom_site_type_symbol
_atom_site_label
_atom_site_fract_x
_atom_site_fract_y
_atom_site_fract_z
Si Si1 0.710162 0.952887 0.747465
Si Si2 0.573453 0.494214 0.315447
Si Si3 0.649930 0.888023 0.528395
Si Si4 0.132153 0.993689 0.348222
Si Si5 0.540872 0.343860 0.488056
Si Si6 0.170140 0.384803 0.545183
Si Si7 0.034379 0.841976 0.514726
O O1 0.648029 0.883086 0.650624
O O2 0.544342 0.022237 0.783470
O O3 0.778271 0.873727 0.836700
O O4 0.875727 0.027274 0.720071
O O5 0.699652 0.498115 0.220629
O O6 0.632080 0.396432 0.389444
O O7 0.587373 0.609148 0.375822
O O8 0.842561 0.878600 0.486013
O O9 0.540613 0.788212 0.484063
O O10 0.574831 0.001765 0.483980
O O11 0.124874 0.107527 0.409616
O O12 0.153300 0.893082 0.426075
O O13 0.342632 0.379308 0.478674
O O14 0.547820 0.214006 0.486731
#
# Coordination Sequence:
#
# PCOD8157303 Si02
#       7
#     4   4   4   4   4   4   4
#     4  10  22  44  68  94 138 174 222 286 330 396
#     4  10  22  45  68 103 135 177 234 269 342 413
#     4  11  23  46  65  97 139 174 222 284 340 395
#     4  10  22  45  68 103 135 177 234 269 342 413
#     4  10  23  45  65  99 142 171 221 290 329 403
#     4  11  23  46  65  97 139 174 222 284 340 395
#     4  10  23  45  65  99 142 171 221 290 329 403
#
# _framework density 22.213756
#
# number of rings (size 3 to 8) (size 9 to 14) (size 15 to 20)
#    0.000    1.714    5.714    0.000    6.000    2.286 
#    7.714    0.000    0.000    0.000    0.000    0.000 
#    0.000    0.000    0.000    0.000    0.000    0.000 
#
# Total GULP energy -347124.970230 kJ/mol
# GULP energy per Si atom -12397.320365 kJ/mol
# Density = 2.216320 g / cm^3
# Si number density = 22.213756 Si / 1000 Ang^3
#
#
#
# Elastic Constant Matrix: (Units=GPa)
#
#
# Indices 1 2 3 4 5 6 
#
# 1 37.9404 7.0548 -2.3369 0.0000 0.0000 0.0000
# 2 7.0548 167.0228 23.9823 0.0000 0.0000 0.0000
# 3 -2.3369 23.9823 69.6097 0.0000 0.0000 0.0000
# 4 0.0000 0.0000 0.0000 19.6456 0.0000 0.0000
# 5 0.0000 0.0000 0.0000 0.0000 36.6835 0.0000
# 6 0.0000 0.0000 0.0000 0.0000 0.0000 25.6170
#
#
#
# Elastic Compliance Matrix: (Units=1/GPa)
#
#
# Indices 1 2 3 4 5 6 
#
# 1 0.026686 -0.001321 0.001351 0.000000 0.000000 0.000000
# 2 -0.001321 0.006364 -0.002237 0.000000 0.000000 0.000000
# 3 0.001351 -0.002237 0.015182 0.000000 0.000000 0.000000
# 4 0.000000 0.000000 0.000000 0.050902 0.000000 0.000000
# 5 0.000000 0.000000 0.000000 0.000000 0.027260 0.000000
# 6 0.000000 0.000000 0.000000 0.000000 0.000000 0.039037
#
#
# Mechanical properties :
#
#
# Convention : Reuss Voigt Hill
#
# Bulk Modulus (GPa) = 22.82172 36.88592 29.85382
# Shear Modulus (GPa) = 27.10746 32.78073 29.94410
#
# Velocity S-wave (km/s) = 3.49707 3.84565 3.67549
# Velocity P-wave (km/s) = 5.15771 6.02990 5.61078
#
# Compressibility (1/GPa) = 0.04381791
#
# Stress axis : x y z
#
# Youngs Moduli (GPa) = 37.47285 157.12858 65.86802
#
# Poissons Ratio (x) = 0.20759 -0.08899
# Poissons Ratio (y) = 0.04951 0.14735
# Poissons Ratio (z) = -0.05063 0.35150
#
# Static dielectric constant tensor:
#      x y z
#    x 3.822220 0.000000 0.000000 
#    y 0.000000 4.295160 0.000000 
#    z 0.000000 0.000000 4.177820 
# 
# 
# High freq. dielectric constant tensor:
#      x y z
#    x 1.865960 0.000000 0.000000 
#    y 0.000000 1.853010 0.000000 
#    z 0.000000 0.000000 1.886130 
# 
# From -- ./inp_files/4602.got.cif
#   From: 2010.03.12/outbox.cif.g09.slc.cpg/sg19_3_cif.got.tgz:4602.got - 2010.04.10 18:59:41.
