data_PCOD8157339
_publ_section_title
;
Structure prediction by ZEFSAII (Michael W. Deem and Ramdas Pophale) SiO2 
 PCOD8157339
Probable space group: P 21 21 21
;
_chemical_formula_sum "Si O2"
_cell_formula_units_Z 28
_cell_length_a 16.097488
_cell_length_b 12.363609
_cell_length_c 6.879018
_cell_angle_alpha 90.000000
_cell_angle_beta 90.000000
_cell_angle_gamma 90.000000
_cell_volume 1369.083126
_symmetry_space_group_name_H-M "P 21 21 21"
_symmetry_group_IT_number 19
_symmetry_cell_setting 'orthorhombic'
loop_
_space_group_symop_operation_xyz
x,y,z
1/2-x,-y,1/2+z
1/2+x,1/2-y,-z
-x,1/2+y,1/2-z
loop_
_atom_site_type_symbol
_atom_site_label
_atom_site_fract_x
_atom_site_fract_y
_atom_site_fract_z
Si Si1 0.630111 0.506701 0.590281
Si Si2 0.289979 0.115373 0.260937
Si Si3 0.085980 0.408961 0.435360
Si Si4 0.223341 0.340641 0.169290
Si Si5 0.837755 0.977936 0.668985
Si Si6 0.455912 0.420612 0.629403
Si Si7 0.587968 0.677770 0.902194
O O1 0.709712 0.454637 0.689796
O O2 0.650148 0.541974 0.370704
O O3 0.555286 0.419347 0.594775
O O4 0.600740 0.613961 0.702291
O O5 0.262655 0.222456 0.144367
O O6 0.337304 0.149259 0.454835
O O7 0.135905 0.332207 0.284757
O O8 0.138761 0.423941 0.628837
O O9 0.068064 0.524018 0.333497
O O10 0.000079 0.353153 0.497112
O O11 0.280611 0.418122 0.299124
O O12 0.212676 0.388329 0.953334
O O13 0.919165 0.013610 0.552300
O O14 0.414239 0.304062 0.643582
#
# Coordination Sequence:
#
# PCOD8157339 Si02
#       7
#     4   4   4   4   4   4   4
#     4  11  25  44  65  97 135 168 227 274 321 404
#     4  12  24  43  66  98 131 181 214 269 339 386
#     4  10  23  41  61  94 131 165 216 274 322 392
#     4  11  23  37  66  94 133 168 219 270 332 386
#     4  11  21  40  61  97 129 166 216 278 319 390
#     4  10  23  42  66  91 127 174 222 269 326 392
#     4  11  23  43  67  91 130 178 218 272 329 390
#
# _framework density 20.451643000000001
#
# number of rings (size 3 to 8) (size 9 to 14) (size 15 to 20)
#    0.000    1.143    4.286    1.714    2.000    1.143 
#    2.571    0.000    0.000    0.000    0.000    0.000 
#    0.000    0.000    0.000    0.000    0.000    0.000 
#
# Total GULP energy -347329.722116 kJ/mol
# GULP energy per Si atom -12404.632933 kJ/mol
# Density = 2.040509 g / cm^3
# Si number density = 20.451643 Si / 1000 Ang^3
#
#
#
# Elastic Constant Matrix: (Units=GPa)
#
#
# Indices 1 2 3 4 5 6 
#
# 1 94.5931 5.4811 23.5014 0.0000 0.0000 0.0000
# 2 5.4811 55.0846 19.7025 0.0000 0.0000 0.0000
# 3 23.5014 19.7025 89.4805 0.0000 0.0000 0.0000
# 4 0.0000 0.0000 0.0000 19.1261 0.0000 0.0000
# 5 0.0000 0.0000 0.0000 0.0000 39.0667 0.0000
# 6 0.0000 0.0000 0.0000 0.0000 0.0000 29.2788
#
#
#
# Elastic Compliance Matrix: (Units=1/GPa)
#
#
# Indices 1 2 3 4 5 6 
#
# 1 0.011310 -0.000068 -0.002955 0.000000 0.000000 0.000000
# 2 -0.000068 0.019706 -0.004321 0.000000 0.000000 0.000000
# 3 -0.002955 -0.004321 0.012903 0.000000 0.000000 0.000000
# 4 0.000000 0.000000 0.000000 0.052285 0.000000 0.000000
# 5 0.000000 0.000000 0.000000 0.000000 0.025597 0.000000
# 6 0.000000 0.000000 0.000000 0.000000 0.000000 0.034154
#
#
# Mechanical properties :
#
#
# Convention : Reuss Voigt Hill
#
# Bulk Modulus (GPa) = 34.21174 37.39201 35.80187
# Shear Modulus (GPa) = 27.71795 30.19254 28.95525
#
# Velocity S-wave (km/s) = 3.68542 3.84642 3.76678
# Velocity P-wave (km/s) = 5.90544 6.16842 6.03836
#
# Compressibility (1/GPa) = 0.02922973
#
# Stress axis : x y z
#
# Youngs Moduli (GPa) = 88.41878 50.74528 77.49960
#
# Poissons Ratio (x) = 0.00346 0.22904
# Poissons Ratio (y) = 0.00604 0.33489
# Poissons Ratio (z) = 0.26131 0.21928
#
# Static dielectric constant tensor:
#      x y z
#    x 3.958020 0.000000 0.000000 
#    y 0.000000 3.632830 0.000000 
#    z 0.000000 0.000000 3.550290 
# 
# 
# High freq. dielectric constant tensor:
#      x y z
#    x 1.817630 0.000000 0.000000 
#    y 0.000000 1.794080 0.000000 
#    z 0.000000 0.000000 1.797330 
# 
# From -- ./inp_files/1076.got.cif
#   From: 2010.03.12/outbox.cif.g09.slc.cpg/sg19_1_cif.got.tgz:1076.got - 2010.04.10 18:59:41.
