data_PCOD8157668
_publ_section_title
;
Structure prediction by ZEFSAII (Michael W. Deem and Ramdas Pophale) SiO2 
 PCOD8157668
Probable space group: P 21 21 21
;
_chemical_formula_sum "Si O2"
_cell_formula_units_Z 28
_cell_length_a 9.363483
_cell_length_b 5.111282
_cell_length_c 21.901600
_cell_angle_alpha 90.000000
_cell_angle_beta 90.000000
_cell_angle_gamma 90.000000
_cell_volume 1048.197481
_symmetry_space_group_name_H-M "P 21 21 21"
_symmetry_group_IT_number 19
_symmetry_cell_setting 'orthorhombic'
loop_
_space_group_symop_operation_xyz
x,y,z
1/2-x,-y,1/2+z
1/2+x,1/2-y,-z
-x,1/2+y,1/2-z
loop_
_atom_site_type_symbol
_atom_site_label
_atom_site_fract_x
_atom_site_fract_y
_atom_site_fract_z
Si Si1 0.178963 0.837907 0.700780
Si Si2 0.825964 0.851552 0.565263
Si Si3 0.558978 0.006152 0.401755
Si Si4 0.025550 0.979590 0.212637
Si Si5 0.097673 0.607696 0.816052
Si Si6 0.155527 0.683664 0.047510
Si Si7 0.487420 0.311042 0.914169
O O1 0.156778 0.691546 0.637230
O O2 0.309740 0.033872 0.690233
O O3 0.211986 0.663502 0.761871
O O4 0.039524 0.998575 0.719743
O O5 0.859006 0.106230 0.524018
O O6 0.953248 0.643677 0.550250
O O7 0.834186 0.902126 0.637606
O O8 0.663762 0.759203 0.550662
O O9 0.674492 0.192289 0.435612
O O10 0.451646 0.147428 0.355885
O O11 0.012876 0.185379 0.268391
O O12 0.941600 0.087371 0.153483
O O13 0.086218 0.967640 0.054523
O O14 0.072246 0.463623 0.087643
#
# Coordination Sequence:
#
# PCOD8157668 Si02
#       7
#     4   4   4   4   4   4   4
#     4  11  23  43  70 105 144 193 242 307 373 456
#     4  11  29  45  75 109 143 198 257 313 371 445
#     4  11  25  47  75 108 146 199 250 306 381 450
#     4  12  27  44  74 105 150 192 238 301 377 444
#     4  11  24  42  73 106 145 188 250 308 376 447
#     4  12  28  50  77 104 155 199 252 310 379 450
#     4  12  28  51  74 113 149 197 251 311 375 448
#
# _framework density 26.712522
#
# number of rings (size 3 to 8) (size 9 to 14) (size 15 to 20)
#    0.000    0.571    2.857    3.429   12.000    0.000 
#    0.000    0.000    0.000    0.000    0.000    0.000 
#    0.000    0.000    0.000    0.000    0.000    0.000 
#
# Total GULP energy -347111.323298 kJ/mol
# GULP energy per Si atom -12396.832975 kJ/mol
# Density = 2.665172 g / cm^3
# Si number density = 26.712522 Si / 1000 Ang^3
#
#
#
# Elastic Constant Matrix: (Units=GPa)
#
#
# Indices 1 2 3 4 5 6 
#
# 1 148.5070 13.7557 12.2301 0.0000 0.0000 0.0000
# 2 13.7557 59.4356 -6.9621 0.0000 0.0000 0.0000
# 3 12.2301 -6.9621 79.1694 0.0000 0.0000 0.0000
# 4 0.0000 0.0000 0.0000 42.8199 0.0000 0.0000
# 5 0.0000 0.0000 0.0000 0.0000 35.7242 0.0000
# 6 0.0000 0.0000 0.0000 0.0000 0.0000 30.4253
#
#
#
# Elastic Compliance Matrix: (Units=1/GPa)
#
#
# Indices 1 2 3 4 5 6 
#
# 1 0.006999 -0.001765 -0.001236 0.000000 0.000000 0.000000
# 2 -0.001765 0.017445 0.001807 0.000000 0.000000 0.000000
# 3 -0.001236 0.001807 0.012981 0.000000 0.000000 0.000000
# 4 0.000000 0.000000 0.000000 0.023354 0.000000 0.000000
# 5 0.000000 0.000000 0.000000 0.000000 0.027992 0.000000
# 6 0.000000 0.000000 0.000000 0.000000 0.000000 0.032867
#
#
# Mechanical properties :
#
#
# Convention : Reuss Voigt Hill
#
# Bulk Modulus (GPa) = 28.54186 36.12883 32.33535
# Shear Modulus (GPa) = 36.84445 39.66643 38.25544
#
# Velocity S-wave (km/s) = 3.71792 3.85767 3.78844
# Velocity P-wave (km/s) = 5.39801 5.77898 5.59174
#
# Compressibility (1/GPa) = 0.03503625
#
# Stress axis : x y z
#
# Youngs Moduli (GPa) = 142.87826 57.32313 77.03561
#
# Poissons Ratio (x) = 0.10116 0.09525
# Poissons Ratio (y) = 0.25213 -0.13918
# Poissons Ratio (z) = 0.17665 -0.10357
#
# Static dielectric constant tensor:
#      x y z
#    x 4.912130 0.000000 0.000000 
#    y 0.000000 4.496040 0.000000 
#    z 0.000000 0.000000 5.004320 
# 
# 
# High freq. dielectric constant tensor:
#      x y z
#    x 2.087610 0.000000 0.000000 
#    y 0.000000 2.051430 0.000000 
#    z 0.000000 0.000000 2.085080 
# 
# From -- ./inp_files/2426.got.cif
#   From: 2010.03.12/outbox.cif.g09.slc.cpg/sg19_2_cif.got.tgz:2426.got - 2010.04.10 18:59:41.
