data_PCOD8157362
_publ_section_title
;
Structure prediction by ZEFSAII (Michael W. Deem and Ramdas Pophale) SiO2 
 PCOD8157362
Probable space group: P 21 21 21
;
_chemical_formula_sum "Si O2"
_cell_formula_units_Z 28
_cell_length_a 14.218544
_cell_length_b 16.022465
_cell_length_c 5.306184
_cell_angle_alpha 90.000000
_cell_angle_beta 90.000000
_cell_angle_gamma 90.000000
_cell_volume 1208.834270
_symmetry_space_group_name_H-M "P 21 21 21"
_symmetry_group_IT_number 19
_symmetry_cell_setting 'orthorhombic'
loop_
_space_group_symop_operation_xyz
x,y,z
1/2-x,-y,1/2+z
1/2+x,1/2-y,-z
-x,1/2+y,1/2-z
loop_
_atom_site_type_symbol
_atom_site_label
_atom_site_fract_x
_atom_site_fract_y
_atom_site_fract_z
Si Si1 0.973523 0.379831 0.628295
Si Si2 0.044133 0.691828 0.938993
Si Si3 0.133705 0.329451 0.989905
Si Si4 0.213832 0.618479 0.156441
Si Si5 0.864271 0.968264 0.122937
Si Si6 0.809099 0.501756 0.583845
Si Si7 0.437692 0.844345 0.573366
O O1 0.873490 0.423665 0.675189
O O2 0.960955 0.290197 0.494692
O O3 0.034560 0.362819 0.877991
O O4 0.029890 0.445099 0.454366
O O5 0.989707 0.641228 0.159464
O O6 0.154655 0.666166 0.941677
O O7 0.007569 0.669150 0.662654
O O8 0.220295 0.314096 0.795806
O O9 0.121462 0.240225 0.119896
O O10 0.170207 0.401007 0.172762
O O11 0.134693 0.566092 0.310890
O O12 0.286315 0.544103 0.091199
O O13 0.749247 0.474314 0.336454
O O14 0.868931 0.580635 0.492846
#
# Coordination Sequence:
#
# PCOD8157362 Si02
#       7
#     4   4   4   4   4   4   4
#     4  10  25  45  66  96 134 183 221 282 347 403
#     4  11  25  43  73 100 135 183 225 277 346 411
#     4  10  23  42  68  93 140 172 223 283 345 404
#     4  11  24  36  67 106 127 178 221 284 336 410
#     4  11  21  40  64  96 140 167 221 276 349 396
#     4  12  29  46  73 102 136 187 237 287 335 410
#     4  11  25  48  67 101 138 184 228 281 346 402
#
# _framework density 23.162814999999998
#
# number of rings (size 3 to 8) (size 9 to 14) (size 15 to 20)
#    0.000    1.143    2.857    1.714    8.000    1.143 
#    0.000    0.000    0.000    0.000    0.000    0.000 
#    0.000    0.000    0.000    0.000    0.000    0.000 
#
# Total GULP energy -346944.229043 kJ/mol
# GULP energy per Si atom -12390.865323 kJ/mol
# Density = 2.311010 g / cm^3
# Si number density = 23.162815 Si / 1000 Ang^3
#
#
#
# Elastic Constant Matrix: (Units=GPa)
#
#
# Indices 1 2 3 4 5 6 
#
# 1 81.9901 29.7407 -0.4914 0.0000 0.0000 0.0000
# 2 29.7407 67.0609 -4.6831 0.0000 0.0000 0.0000
# 3 -0.4914 -4.6831 63.6152 0.0000 0.0000 0.0000
# 4 0.0000 0.0000 0.0000 30.5782 0.0000 0.0000
# 5 0.0000 0.0000 0.0000 0.0000 22.1818 0.0000
# 6 0.0000 0.0000 0.0000 0.0000 0.0000 31.3425
#
#
#
# Elastic Compliance Matrix: (Units=1/GPa)
#
#
# Indices 1 2 3 4 5 6 
#
# 1 0.014543 -0.006475 -0.000364 0.000000 0.000000 0.000000
# 2 -0.006475 0.017872 0.001266 0.000000 0.000000 0.000000
# 3 -0.000364 0.001266 0.015810 0.000000 0.000000 0.000000
# 4 0.000000 0.000000 0.000000 0.032703 0.000000 0.000000
# 5 0.000000 0.000000 0.000000 0.000000 0.045082 0.000000
# 6 0.000000 0.000000 0.000000 0.000000 0.000000 0.031906
#
#
# Mechanical properties :
#
#
# Convention : Reuss Voigt Hill
#
# Bulk Modulus (GPa) = 26.97077 29.08873 28.02975
# Shear Modulus (GPa) = 27.56000 29.36050 28.46025
#
# Velocity S-wave (km/s) = 3.45315 3.56416 3.50909
# Velocity P-wave (km/s) = 5.25055 5.43353 5.34282
#
# Compressibility (1/GPa) = 0.03707717
#
# Stress axis : x y z
#
# Youngs Moduli (GPa) = 68.76069 55.95387 63.25163
#
# Poissons Ratio (x) = 0.36231 0.02304
# Poissons Ratio (y) = 0.44524 -0.08005
# Poissons Ratio (z) = 0.02505 -0.07082
#
# Static dielectric constant tensor:
#      x y z
#    x 4.200180 0.000000 0.000000 
#    y 0.000000 4.131540 0.000000 
#    z 0.000000 0.000000 4.131240 
# 
# 
# High freq. dielectric constant tensor:
#      x y z
#    x 1.925520 0.000000 0.000000 
#    y 0.000000 1.918550 0.000000 
#    z 0.000000 0.000000 1.906560 
# 
# From -- ./inp_files/1018.got.cif
#   From: 2010.03.12/outbox.cif.g09.slc.cpg/sg19_1_cif.got.tgz:1018.got - 2010.04.10 18:59:41.
