data_PCOD8157409
_publ_section_title
;
Structure prediction by ZEFSAII (Michael W. Deem and Ramdas Pophale) SiO2 
 PCOD8157409
Probable space group: P 21 21 21
;
_chemical_formula_sum "Si O2"
_cell_formula_units_Z 24
_cell_length_a 8.108449
_cell_length_b 7.397621
_cell_length_c 13.445816
_cell_angle_alpha 90.000000
_cell_angle_beta 90.000000
_cell_angle_gamma 90.000000
_cell_volume 806.523509
_symmetry_space_group_name_H-M "P 21 21 21"
_symmetry_group_IT_number 19
_symmetry_cell_setting 'orthorhombic'
loop_
_space_group_symop_operation_xyz
x,y,z
1/2-x,-y,1/2+z
1/2+x,1/2-y,-z
-x,1/2+y,1/2-z
loop_
_atom_site_type_symbol
_atom_site_label
_atom_site_fract_x
_atom_site_fract_y
_atom_site_fract_z
Si Si1 0.516148 0.281754 0.446350
Si Si2 0.836974 0.541271 0.216110
Si Si3 0.176123 0.432056 0.263225
Si Si4 0.710667 0.977622 0.531274
Si Si5 0.515960 0.327836 0.212303
Si Si6 0.805969 0.387655 0.918941
O O1 0.544794 0.078827 0.489314
O O2 0.349965 0.371288 0.488357
O O3 0.527158 0.266903 0.326355
O O4 0.656068 0.431114 0.482284
O O5 0.831549 0.743747 0.172838
O O6 0.680094 0.430066 0.175401
O O7 0.831949 0.569040 0.336307
O O8 0.015351 0.453600 0.192824
O O9 0.186854 0.577670 0.351926
O O10 0.342114 0.442077 0.195814
O O11 0.749162 0.783977 0.482836
O O12 0.481338 0.152369 0.142135
#
# Coordination Sequence:
#
# PCOD8157409 Si02
#       6
#     4   4   4   4   4   4
#     4  10  25  43  66 103 131 180 229 279 350 405
#     4  10  23  44  71 102 134 183 232 280 348 411
#     4  10  24  44  68 106 135 179 233 284 346 411
#     4  11  26  41  68  99 141 176 223 294 345 404
#     4   9  22  46  71  97 135 184 233 275 340 415
#     4  10  24  44  72  95 136 186 228 280 347 410
#
# _framework density 29.757342999999999
#
# number of rings (size 3 to 8) (size 9 to 14) (size 15 to 20)
#    0.000    2.000    0.000    0.000   16.333    8.000 
#    0.000    0.000    0.000    0.000    0.000    0.000 
#    0.000    0.000    0.000    0.000    0.000    0.000 
#
# Total GULP energy -297375.805170 kJ/mol
# GULP energy per Si atom -12390.658549 kJ/mol
# Density = 2.968961 g / cm^3
# Si number density = 29.757343 Si / 1000 Ang^3
#
#
#
# Elastic Constant Matrix: (Units=GPa)
#
#
# Indices 1 2 3 4 5 6 
#
# 1 136.3182 11.8963 -22.2190 0.0000 0.0000 0.0000
# 2 11.8963 103.1866 -3.3742 0.0000 0.0000 0.0000
# 3 -22.2190 -3.3742 10.4079 0.0000 0.0000 0.0000
# 4 0.0000 0.0000 0.0000 31.7253 0.0000 0.0000
# 5 0.0000 0.0000 0.0000 0.0000 15.6746 0.0000
# 6 0.0000 0.0000 0.0000 0.0000 0.0000 49.8054
#
#
#
# Elastic Compliance Matrix: (Units=1/GPa)
#
#
# Indices 1 2 3 4 5 6 
#
# 1 0.011278 -0.000518 0.023908 0.000000 0.000000 0.000000
# 2 -0.000518 0.009819 0.002076 0.000000 0.000000 0.000000
# 3 0.023908 0.002076 0.147793 0.000000 0.000000 0.000000
# 4 0.000000 0.000000 0.000000 0.031521 0.000000 0.000000
# 5 0.000000 0.000000 0.000000 0.000000 0.063797 0.000000
# 6 0.000000 0.000000 0.000000 0.000000 0.000000 0.020078
#
#
# Mechanical properties :
#
#
# Convention : Reuss Voigt Hill
#
# Bulk Modulus (GPa) = 4.54913 24.72432 14.63673
# Shear Modulus (GPa) = 16.30643 37.01504 26.66073
#
# Velocity S-wave (km/s) = 2.34344 3.53072 2.99647
# Velocity P-wave (km/s) = 2.97562 4.99479 4.11110
#
# Compressibility (1/GPa) = 0.21982223
#
# Stress axis : x y z
#
# Youngs Moduli (GPa) = 88.66894 101.84495 6.76622
#
# Poissons Ratio (x) = 0.05280 -0.16177
# Poissons Ratio (y) = 0.04597 -0.01405
# Poissons Ratio (z) = -2.11991 -0.21148
#
# Static dielectric constant tensor:
#      x y z
#    x 5.507590 0.000000 0.000000 
#    y 0.000000 5.650900 0.000000 
#    z 0.000000 0.000000 5.094000 
# 
# 
# High freq. dielectric constant tensor:
#      x y z
#    x 2.214440 0.000000 0.000000 
#    y 0.000000 2.221260 0.000000 
#    z 0.000000 0.000000 2.194560 
# 
# From -- ./inp_files/5825.got.cif
#   From: 2010.03.12/outbox.cif.g09.slc.cpg/sg19_3_cif.got.tgz:5825.got - 2010.04.10 18:59:41.
