data_PCOD8157338
_publ_section_title
;
Structure prediction by ZEFSAII (Michael W. Deem and Ramdas Pophale) SiO2 
 PCOD8157338
Probable space group: P 21 21 21
;
_chemical_formula_sum "Si O2"
_cell_formula_units_Z 20
_cell_length_a 21.120596
_cell_length_b 5.118201
_cell_length_c 8.272960
_cell_angle_alpha 90.000000
_cell_angle_beta 90.000000
_cell_angle_gamma 90.000000
_cell_volume 894.302472
_symmetry_space_group_name_H-M "P 21 21 21"
_symmetry_group_IT_number 19
_symmetry_cell_setting 'orthorhombic'
loop_
_space_group_symop_operation_xyz
x,y,z
1/2-x,-y,1/2+z
1/2+x,1/2-y,-z
-x,1/2+y,1/2-z
loop_
_atom_site_type_symbol
_atom_site_label
_atom_site_fract_x
_atom_site_fract_y
_atom_site_fract_z
Si Si1 0.663952 0.471359 0.608658
Si Si2 0.526141 0.645849 0.669745
Si Si3 0.840562 0.786479 0.789091
Si Si4 0.025288 0.353204 0.828590
Si Si5 0.270348 0.201554 0.178503
O O1 0.602381 0.629057 0.667171
O O2 0.642052 0.244804 0.481232
O O3 0.697591 0.349475 0.767925
O O4 0.715035 0.657272 0.512923
O O5 0.494225 0.365513 0.702810
O O6 0.498984 0.747482 0.500150
O O7 0.814097 0.508944 0.724494
O O8 0.899205 0.874074 0.680376
O O9 0.787019 0.006440 0.768794
O O10 0.003416 0.138763 0.699246
#
# Coordination Sequence:
#
# PCOD8157338 Si02
#       5
#     4   4   4   4   4
#     4  10  25  46  67  99 139 174 234 284 341 421
#     4  12  28  44  69 105 147 180 230 295 351 408
#     4  10  23  40  68  98 130 174 235 273 333 417
#     4  12  22  44  75  99 139 188 231 280 343 418
#     4  10  24  40  73  93 137 174 228 282 348 392
#
# _framework density 22.363800000000001
#
# number of rings (size 3 to 8) (size 9 to 14) (size 15 to 20)
#    1.200    0.000    2.000    3.600    5.600    3.200 
#    0.000    0.000    0.000    0.000    0.000    0.000 
#    0.000    0.000    0.000    0.000    0.000    0.000 
#
# Total GULP energy -247875.558460 kJ/mol
# GULP energy per Si atom -12393.777923 kJ/mol
# Density = 2.231290 g / cm^3
# Si number density = 22.363800 Si / 1000 Ang^3
#
#
#
# Elastic Constant Matrix: (Units=GPa)
#
#
# Indices 1 2 3 4 5 6 
#
# 1 77.9520 1.5489 35.6686 0.0000 0.0000 0.0000
# 2 1.5489 97.6668 3.9084 0.0000 0.0000 0.0000
# 3 35.6686 3.9084 59.6960 0.0000 0.0000 0.0000
# 4 0.0000 0.0000 0.0000 16.2553 0.0000 0.0000
# 5 0.0000 0.0000 0.0000 0.0000 45.7430 0.0000
# 6 0.0000 0.0000 0.0000 0.0000 0.0000 18.7082
#
#
#
# Elastic Compliance Matrix: (Units=1/GPa)
#
#
# Indices 1 2 3 4 5 6 
#
# 1 0.017657 0.000143 -0.010560 0.000000 0.000000 0.000000
# 2 0.000143 0.010267 -0.000757 0.000000 0.000000 0.000000
# 3 -0.010560 -0.000757 0.023111 0.000000 0.000000 0.000000
# 4 0.000000 0.000000 0.000000 0.061518 0.000000 0.000000
# 5 0.000000 0.000000 0.000000 0.000000 0.021861 0.000000
# 6 0.000000 0.000000 0.000000 0.000000 0.000000 0.053452
#
#
# Mechanical properties :
#
#
# Convention : Reuss Voigt Hill
#
# Bulk Modulus (GPa) = 34.86034 35.28517 35.07275
# Shear Modulus (GPa) = 22.75023 29.08724 25.91874
#
# Velocity S-wave (km/s) = 3.19294 3.61035 3.40804
# Velocity P-wave (km/s) = 5.40508 5.76121 5.58598
#
# Compressibility (1/GPa) = 0.02868590
#
# Stress axis : x y z
#
# Youngs Moduli (GPa) = 56.63353 97.40000 43.27024
#
# Poissons Ratio (x) = -0.01388 0.45692
# Poissons Ratio (y) = -0.00807 0.03277
# Poissons Ratio (z) = 0.59803 0.07377
#
# Static dielectric constant tensor:
#      x y z
#    x 3.836600 0.000000 0.000000 
#    y 0.000000 3.815610 0.000000 
#    z 0.000000 0.000000 3.778170 
# 
# 
# High freq. dielectric constant tensor:
#      x y z
#    x 1.877850 0.000000 0.000000 
#    y 0.000000 1.883490 0.000000 
#    z 0.000000 0.000000 1.860180 
# 
# From -- ./inp_files/357.got.cif
#   From: 2010.03.12/outbox.cif.g09.slc.cpg/sg19_1_cif.got.tgz:357.got - 2010.04.10 18:59:41.
