data_PCOD8157025
_publ_section_title
;
Structure prediction by ZEFSAII (Michael W. Deem and Ramdas Pophale) SiO2 
 PCOD8157025
Probable space group: P 21 21 21
;
_chemical_formula_sum "Si O2"
_cell_formula_units_Z 28
_cell_length_a 7.335292
_cell_length_b 18.204141
_cell_length_c 9.927883
_cell_angle_alpha 90.000000
_cell_angle_beta 90.000000
_cell_angle_gamma 90.000000
_cell_volume 1325.696921
_symmetry_space_group_name_H-M "P 21 21 21"
_symmetry_group_IT_number 19
_symmetry_cell_setting 'orthorhombic'
loop_
_space_group_symop_operation_xyz
x,y,z
1/2-x,-y,1/2+z
1/2+x,1/2-y,-z
-x,1/2+y,1/2-z
loop_
_atom_site_type_symbol
_atom_site_label
_atom_site_fract_x
_atom_site_fract_y
_atom_site_fract_z
Si Si1 0.997491 0.884146 0.348315
Si Si2 0.943559 0.809406 0.087179
Si Si3 0.833372 0.073193 0.511411
Si Si4 0.846142 0.665627 0.949510
Si Si5 0.682691 0.847209 0.542747
Si Si6 0.153338 0.196811 0.859797
Si Si7 0.349340 0.479338 0.773232
O O1 0.843553 0.889865 0.462823
O O2 0.944428 0.816807 0.249098
O O3 0.196834 0.864165 0.406660
O O4 0.008625 0.960524 0.260865
O O5 0.130886 0.844491 0.028845
O O6 0.772157 0.850509 0.024998
O O7 0.927610 0.724617 0.052786
O O8 0.763297 0.039932 0.371095
O O9 0.050368 0.090015 0.511992
O O10 0.801258 0.019556 0.636582
O O11 0.894199 0.688942 0.797121
O O12 0.528433 0.817049 0.443970
O O13 0.773278 0.779114 0.619469
O O14 0.590665 0.905013 0.648349
#
# Coordination Sequence:
#
# PCOD8157025 Si02
#       7
#     4   4   4   4   4   4   4
#     4  10  23  46  62  96 139 170 229 281 336 410
#     4  10  21  39  66  96 128 168 219 278 328 398
#     4  11  23  44  66  95 133 176 217 277 336 406
#     4  11  22  39  66  98 131 168 222 278 337 396
#     4  12  23  43  71  99 135 184 223 286 351 396
#     4  11  24  42  69  99 134 178 227 287 337 405
#     4  11  24  45  70  93 140 182 221 277 347 413
#
# _framework density 21.120965999999999
#
# number of rings (size 3 to 8) (size 9 to 14) (size 15 to 20)
#    0.000    1.143    4.286    2.571    2.000    0.000 
#    7.714    1.429    0.000    0.000    0.000    0.000 
#    0.000    0.000    0.000    0.000    0.000    0.000 
#
# Total GULP energy -347077.825916 kJ/mol
# GULP energy per Si atom -12395.636640 kJ/mol
# Density = 2.107289 g / cm^3
# Si number density = 21.120966 Si / 1000 Ang^3
#
#
#
# Elastic Constant Matrix: (Units=GPa)
#
#
# Indices 1 2 3 4 5 6 
#
# 1 69.6444 14.1562 11.5559 0.0000 0.0000 0.0000
# 2 14.1562 88.6951 25.8776 0.0000 0.0000 0.0000
# 3 11.5559 25.8776 95.5702 0.0000 0.0000 0.0000
# 4 0.0000 0.0000 0.0000 41.9673 0.0000 0.0000
# 5 0.0000 0.0000 0.0000 0.0000 25.0758 0.0000
# 6 0.0000 0.0000 0.0000 0.0000 0.0000 27.6667
#
#
#
# Elastic Compliance Matrix: (Units=1/GPa)
#
#
# Indices 1 2 3 4 5 6 
#
# 1 0.014979 -0.002022 -0.001264 0.000000 0.000000 0.000000
# 2 -0.002022 0.012515 -0.003144 0.000000 0.000000 0.000000
# 3 -0.001264 -0.003144 0.011468 0.000000 0.000000 0.000000
# 4 0.000000 0.000000 0.000000 0.023828 0.000000 0.000000
# 5 0.000000 0.000000 0.000000 0.000000 0.039879 0.000000
# 6 0.000000 0.000000 0.000000 0.000000 0.000000 0.036145
#
#
# Mechanical properties :
#
#
# Convention : Reuss Voigt Hill
#
# Bulk Modulus (GPa) = 38.31146 39.67657 38.99402
# Shear Modulus (GPa) = 31.17716 32.42995 31.80356
#
# Velocity S-wave (km/s) = 3.84620 3.92272 3.88465
# Velocity P-wave (km/s) = 6.15653 6.27241 6.21474
#
# Compressibility (1/GPa) = 0.02610185
#
# Stress axis : x y z
#
# Youngs Moduli (GPa) = 66.75854 79.90644 87.20186
#
# Poissons Ratio (x) = 0.16158 0.11020
# Poissons Ratio (y) = 0.13499 0.27417
# Poissons Ratio (z) = 0.08436 0.25123
#
# Static dielectric constant tensor:
#      x y z
#    x 3.746860 0.000000 0.000000 
#    y 0.000000 3.927350 0.000000 
#    z 0.000000 0.000000 3.900440 
# 
# 
# High freq. dielectric constant tensor:
#      x y z
#    x 1.812890 0.000000 0.000000 
#    y 0.000000 1.832950 0.000000 
#    z 0.000000 0.000000 1.832000 
# 
# From -- ./inp_files/2992.got.cif
#   From: 2010.03.12/outbox.cif.g09.slc.cpg/sg19_2_cif.got.tgz:2992.got - 2010.04.10 18:59:41.
