data_PCOD8157302
_publ_section_title
;
Structure prediction by ZEFSAII (Michael W. Deem and Ramdas Pophale) SiO2 
 PCOD8157302
Probable space group: P 21 21 21
;
_chemical_formula_sum "Si O2"
_cell_formula_units_Z 28
_cell_length_a 11.185897
_cell_length_b 10.712071
_cell_length_c 10.640532
_cell_angle_alpha 90.000000
_cell_angle_beta 90.000000
_cell_angle_gamma 90.000000
_cell_volume 1274.992414
_symmetry_space_group_name_H-M "P 21 21 21"
_symmetry_group_IT_number 19
_symmetry_cell_setting 'orthorhombic'
loop_
_space_group_symop_operation_xyz
x,y,z
1/2-x,-y,1/2+z
1/2+x,1/2-y,-z
-x,1/2+y,1/2-z
loop_
_atom_site_type_symbol
_atom_site_label
_atom_site_fract_x
_atom_site_fract_y
_atom_site_fract_z
Si Si1 0.828830 0.162766 0.616389
Si Si2 0.155916 0.250683 0.187977
Si Si3 0.692605 0.119828 0.050320
Si Si4 0.845346 0.440082 0.903608
Si Si5 0.473363 0.694891 0.253442
Si Si6 0.390230 0.221826 0.858174
Si Si7 0.739281 0.288968 0.380784
O O1 0.704453 0.208551 0.676720
O O2 0.939415 0.194756 0.708170
O O3 0.831381 0.232238 0.482022
O O4 0.837565 0.016187 0.599906
O O5 0.221541 0.129133 0.130915
O O6 0.015323 0.228018 0.195233
O O7 0.179297 0.370394 0.098621
O O8 0.599235 0.219120 0.115831
O O9 0.827712 0.154903 0.086128
O O10 0.939361 0.422674 0.786340
O O11 0.824089 0.585293 0.929920
O O12 0.899998 0.383780 0.033270
O O13 0.365599 0.684986 0.149970
O O14 0.314019 0.169657 0.741260
#
# Coordination Sequence:
#
# PCOD8157302 Si02
#       7
#     4   4   4   4   4   4   4
#     4  11  26  43  68 102 136 174 228 277 338 406
#     4  10  23  43  68  96 132 175 224 271 339 396
#     4  10  22  45  67  97 132 177 220 279 336 405
#     4  10  22  45  67  97 132 177 220 279 336 405
#     4  10  22  44  68  94 134 178 216 276 342 394
#     4  10  23  43  68  96 132 175 224 271 339 396
#     4  11  26  43  68 102 136 174 228 277 338 406
#
# _framework density 21.960913999999999
#
# number of rings (size 3 to 8) (size 9 to 14) (size 15 to 20)
#    0.000    1.714    1.429    0.857   10.000    1.143 
#    5.143    0.000    0.000    0.000    0.000    0.000 
#    0.000    0.000    0.000    0.000    0.000    0.000 
#
# Total GULP energy -346901.269043 kJ/mol
# GULP energy per Si atom -12389.331037 kJ/mol
# Density = 2.191093 g / cm^3
# Si number density = 21.960914 Si / 1000 Ang^3
#
#
#
# Elastic Constant Matrix: (Units=GPa)
#
#
# Indices 1 2 3 4 5 6 
#
# 1 126.7529 24.1440 25.2070 0.0000 0.0000 0.0000
# 2 24.1440 77.7533 36.9328 0.0000 0.0000 0.0000
# 3 25.2070 36.9328 95.0590 0.0000 0.0000 0.0000
# 4 0.0000 0.0000 0.0000 20.4643 0.0000 0.0000
# 5 0.0000 0.0000 0.0000 0.0000 26.0547 0.0000
# 6 0.0000 0.0000 0.0000 0.0000 0.0000 22.0308
#
#
#
# Elastic Compliance Matrix: (Units=1/GPa)
#
#
# Indices 1 2 3 4 5 6 
#
# 1 0.008560 -0.001937 -0.001517 0.000000 0.000000 0.000000
# 2 -0.001937 0.016210 -0.005784 0.000000 0.000000 0.000000
# 3 -0.001517 -0.005784 0.013169 0.000000 0.000000 0.000000
# 4 0.000000 0.000000 0.000000 0.048866 0.000000 0.000000
# 5 0.000000 0.000000 0.000000 0.000000 0.038381 0.000000
# 6 0.000000 0.000000 0.000000 0.000000 0.000000 0.045391
#
#
# Mechanical properties :
#
#
# Convention : Reuss Voigt Hill
#
# Bulk Modulus (GPa) = 51.38216 52.45919 51.92067
# Shear Modulus (GPa) = 25.56988 27.92873 26.74931
#
# Velocity S-wave (km/s) = 3.41594 3.57003 3.49383
# Velocity P-wave (km/s) = 6.24548 6.39788 6.32214
#
# Compressibility (1/GPa) = 0.01946201
#
# Stress axis : x y z
#
# Youngs Moduli (GPa) = 116.82073 61.68885 75.93318
#
# Poissons Ratio (x) = 0.11952 0.11520
# Poissons Ratio (y) = 0.22633 0.43923
# Poissons Ratio (z) = 0.17724 0.35683
#
# Static dielectric constant tensor:
#      x y z
#    x 4.205190 0.000000 0.000000 
#    y 0.000000 3.535930 0.000000 
#    z 0.000000 0.000000 4.060530 
# 
# 
# High freq. dielectric constant tensor:
#      x y z
#    x 1.882650 0.000000 0.000000 
#    y 0.000000 1.827160 0.000000 
#    z 0.000000 0.000000 1.865420 
# 
# From -- ./inp_files/3443.got.cif
#   From: 2010.03.12/outbox.cif.g09.slc.cpg/sg19_2_cif.got.tgz:3443.got - 2010.04.10 18:59:41.
