data_PCOD8157413
_publ_section_title
;
Structure prediction by ZEFSAII (Michael W. Deem and Ramdas Pophale) SiO2 
 PCOD8157413
Probable space group: P 21 21 21
;
_chemical_formula_sum "Si O2"
_cell_formula_units_Z 32
_cell_length_a 5.179519
_cell_length_b 11.870810
_cell_length_c 21.988920
_cell_angle_alpha 90.000000
_cell_angle_beta 90.000000
_cell_angle_gamma 90.000000
_cell_volume 1351.990636
_symmetry_space_group_name_H-M "P 21 21 21"
_symmetry_group_IT_number 19
_symmetry_cell_setting 'orthorhombic'
loop_
_space_group_symop_operation_xyz
x,y,z
1/2-x,-y,1/2+z
1/2+x,1/2-y,-z
-x,1/2+y,1/2-z
loop_
_atom_site_type_symbol
_atom_site_label
_atom_site_fract_x
_atom_site_fract_y
_atom_site_fract_z
Si Si1 0.823941 0.394797 0.977207
Si Si2 0.420600 0.794993 0.413813
Si Si3 0.474650 0.385780 0.870363
Si Si4 0.712530 0.802926 0.302242
Si Si5 0.464871 0.486593 0.747686
Si Si6 0.031931 0.859706 0.791691
Si Si7 0.624668 0.897857 0.995881
Si Si8 0.376462 0.176152 0.431012
O O1 0.607551 0.441401 0.930079
O O2 0.873413 0.263890 0.959181
O O3 0.733641 0.388373 0.047838
O O4 0.070505 0.478581 0.975080
O O5 0.272369 0.685835 0.388685
O O6 0.541335 0.861634 0.355882
O O7 0.666329 0.303775 0.835013
O O8 0.411374 0.483125 0.820801
O O9 0.928658 0.886549 0.276339
O O10 0.540292 0.755902 0.247083
O O11 0.753946 0.449588 0.730512
O O12 0.254308 0.408636 0.714566
O O13 0.081354 0.824810 0.860071
O O14 0.905406 0.898321 0.965062
O O15 0.402823 0.874316 0.946208
O O16 0.604068 0.805929 0.048883
#
# Coordination Sequence:
#
# PCOD8157413 Si02
#       8
#     4   4   4   4   4   4   4   4
#     4  11  24  40  68  99 135 187 224 288 354 413
#     4  11  22  42  65  97 139 176 234 283 347 414
#     4  10  23  45  62 101 139 173 240 286 335 430
#     4  10  25  44  68  96 140 181 227 291 345 411
#     4  11  25  44  70 102 136 184 231 282 352 411
#     4  11  24  45  68 101 134 180 231 283 343 420
#     4  10  24  44  69  99 134 179 227 285 343 405
#     4  10  23  46  66  99 137 172 234 286 335 414
#
# _framework density 23.668800999999998
#
# number of rings (size 3 to 8) (size 9 to 14) (size 15 to 20)
#    0.000    1.500    2.500    0.750    5.250    2.000 
#    9.000    0.000    0.000    0.000    0.000    0.000 
#    0.000    0.000    0.000    0.000    0.000    0.000 
#
# Total GULP energy -396784.482138 kJ/mol
# GULP energy per Si atom -12399.515067 kJ/mol
# Density = 2.361493 g / cm^3
# Si number density = 23.668801 Si / 1000 Ang^3
#
#
#
# Elastic Constant Matrix: (Units=GPa)
#
#
# Indices 1 2 3 4 5 6 
#
# 1 54.5019 -6.5497 1.4430 0.0000 0.0000 0.0000
# 2 -6.5497 64.6676 21.4222 0.0000 0.0000 0.0000
# 3 1.4430 21.4222 125.4884 0.0000 0.0000 0.0000
# 4 0.0000 0.0000 0.0000 21.6705 0.0000 0.0000
# 5 0.0000 0.0000 0.0000 0.0000 31.7669 0.0000
# 6 0.0000 0.0000 0.0000 0.0000 0.0000 25.4720
#
#
#
# Elastic Compliance Matrix: (Units=1/GPa)
#
#
# Indices 1 2 3 4 5 6 
#
# 1 0.018612 0.002073 -0.000568 0.000000 0.000000 0.000000
# 2 0.002073 0.016622 -0.002861 0.000000 0.000000 0.000000
# 3 -0.000568 -0.002861 0.008464 0.000000 0.000000 0.000000
# 4 0.000000 0.000000 0.000000 0.046146 0.000000 0.000000
# 5 0.000000 0.000000 0.000000 0.000000 0.031479 0.000000
# 6 0.000000 0.000000 0.000000 0.000000 0.000000 0.039259
#
#
# Mechanical properties :
#
#
# Convention : Reuss Voigt Hill
#
# Bulk Modulus (GPa) = 24.39887 30.80987 27.60437
# Shear Modulus (GPa) = 28.25575 31.00472 29.63024
#
# Velocity S-wave (km/s) = 3.45889 3.62324 3.54201
# Velocity P-wave (km/s) = 5.12666 5.52713 5.33066
#
# Compressibility (1/GPa) = 0.04098551
#
# Stress axis : x y z
#
# Youngs Moduli (GPa) = 53.72832 60.16289 118.14956
#
# Poissons Ratio (x) = -0.12473 0.06710
# Poissons Ratio (y) = -0.11139 0.33806
# Poissons Ratio (z) = 0.03051 0.17214
#
# Static dielectric constant tensor:
#      x y z
#    x 4.359530 0.000000 0.000000 
#    y 0.000000 4.023950 0.000000 
#    z 0.000000 0.000000 4.780160 
# 
# 
# High freq. dielectric constant tensor:
#      x y z
#    x 1.940250 0.000000 0.000000 
#    y 0.000000 1.919180 0.000000 
#    z 0.000000 0.000000 1.953740 
# 
# From -- ./inp_files/1257.got.cif
#   From: 2010.03.12/outbox.cif.g09.slc.cpg/sg19_1_cif.got.tgz:1257.got - 2010.04.10 18:59:41.
