data_PCOD8157489
_publ_section_title
;
Structure prediction by ZEFSAII (Michael W. Deem and Ramdas Pophale) SiO2 
 PCOD8157489
Probable space group: P 21 21 21
;
_chemical_formula_sum "Si O2"
_cell_formula_units_Z 16
_cell_length_a 7.323506
_cell_length_b 12.097525
_cell_length_c 5.929451
_cell_angle_alpha 90.000000
_cell_angle_beta 90.000000
_cell_angle_gamma 90.000000
_cell_volume 525.327401
_symmetry_space_group_name_H-M "P 21 21 21"
_symmetry_group_IT_number 19
_symmetry_cell_setting 'orthorhombic'
loop_
_space_group_symop_operation_xyz
x,y,z
1/2-x,-y,1/2+z
1/2+x,1/2-y,-z
-x,1/2+y,1/2-z
loop_
_atom_site_type_symbol
_atom_site_label
_atom_site_fract_x
_atom_site_fract_y
_atom_site_fract_z
Si Si1 0.504934 0.966725 0.986860
Si Si2 0.601015 0.508168 0.030005
Si Si3 0.794784 0.140832 0.049686
Si Si4 0.512466 0.740183 0.155209
O O1 0.512228 0.832645 0.959837
O O2 0.511345 0.961861 0.261517
O O3 0.672923 0.048177 0.923152
O O4 0.310962 0.027947 0.927924
O O5 0.594209 0.639133 0.008849
O O6 0.479818 0.434472 0.841771
O O7 0.687164 0.201645 0.251462
O O8 0.862125 0.233282 0.874611
#
# Coordination Sequence:
#
# PCOD8157489 Si02
#       4
#     4   4   4   4
#     4  10  24  45  68 104 137 179 239 289 348 428
#     4  10  24  45  68 104 137 179 239 289 348 428
#     4  10  24  46  66 102 138 182 236 284 346 426
#     4  10  24  46  70 100 142 188 228 286 372 402
#
# _framework density 30.457198000000002
#
# number of rings (size 3 to 8) (size 9 to 14) (size 15 to 20)
#    0.000    2.000    0.000    0.000   17.500    6.000 
#    0.000    0.000    0.000    0.000    0.000    0.000 
#    0.000    0.000    0.000    0.000    0.000    0.000 
#
# Total GULP energy -198240.325776 kJ/mol
# GULP energy per Si atom -12390.020361 kJ/mol
# Density = 3.038788 g / cm^3
# Si number density = 30.457198 Si / 1000 Ang^3
#
#
#
# Elastic Constant Matrix: (Units=GPa)
#
#
# Indices 1 2 3 4 5 6 
#
# 1 233.6297 74.8702 51.9267 0.0000 0.0000 0.0000
# 2 74.8702 195.4300 61.8592 0.0000 0.0000 0.0000
# 3 51.9267 61.8592 130.8081 0.0000 0.0000 0.0000
# 4 0.0000 0.0000 0.0000 58.8106 0.0000 0.0000
# 5 0.0000 0.0000 0.0000 0.0000 55.1828 0.0000
# 6 0.0000 0.0000 0.0000 0.0000 0.0000 59.2576
#
#
#
# Elastic Compliance Matrix: (Units=1/GPa)
#
#
# Indices 1 2 3 4 5 6 
#
# 1 0.005056 -0.001531 -0.001283 0.000000 0.000000 0.000000
# 2 -0.001531 0.006481 -0.002457 0.000000 0.000000 0.000000
# 3 -0.001283 -0.002457 0.009316 0.000000 0.000000 0.000000
# 4 0.000000 0.000000 0.000000 0.017004 0.000000 0.000000
# 5 0.000000 0.000000 0.000000 0.000000 0.018122 0.000000
# 6 0.000000 0.000000 0.000000 0.000000 0.000000 0.016875
#
#
# Mechanical properties :
#
#
# Convention : Reuss Voigt Hill
#
# Bulk Modulus (GPa) = 96.98458 104.13114 100.55786
# Shear Modulus (GPa) = 57.58129 59.39763 58.48946
#
# Velocity S-wave (km/s) = 4.35278 4.42090 4.38697
# Velocity P-wave (km/s) = 7.56137 7.76677 7.66476
#
# Compressibility (1/GPa) = 0.01031092
#
# Stress axis : x y z
#
# Youngs Moduli (GPa) = 197.78263 154.29268 107.33990
#
# Poissons Ratio (x) = 0.23620 0.13773
# Poissons Ratio (y) = 0.30277 0.26376
# Poissons Ratio (z) = 0.25379 0.37914
#
# Static dielectric constant tensor:
#      x y z
#    x 5.981610 0.000000 0.000000 
#    y 0.000000 6.140960 0.000000 
#    z 0.000000 0.000000 6.830140 
# 
# 
# High freq. dielectric constant tensor:
#      x y z
#    x 2.264800 0.000000 0.000000 
#    y 0.000000 2.262410 0.000000 
#    z 0.000000 0.000000 2.304400 
# 
# From -- ./inp_files/1367.got.cif
#   From: 2010.03.12/outbox.cif.g09.slc.cpg/sg19_1_cif.got.tgz:1367.got - 2010.04.10 18:59:41.
