data_PCOD8157154
_publ_section_title
;
Structure prediction by ZEFSAII (Michael W. Deem and Ramdas Pophale) SiO2 
 PCOD8157154
Probable space group: P 21 21 21
;
_chemical_formula_sum "Si O2"
_cell_formula_units_Z 28
_cell_length_a 15.899915
_cell_length_b 15.744462
_cell_length_c 5.141824
_cell_angle_alpha 90.000000
_cell_angle_beta 90.000000
_cell_angle_gamma 90.000000
_cell_volume 1287.181635
_symmetry_space_group_name_H-M "P 21 21 21"
_symmetry_group_IT_number 19
_symmetry_cell_setting 'orthorhombic'
loop_
_space_group_symop_operation_xyz
x,y,z
1/2-x,-y,1/2+z
1/2+x,1/2-y,-z
-x,1/2+y,1/2-z
loop_
_atom_site_type_symbol
_atom_site_label
_atom_site_fract_x
_atom_site_fract_y
_atom_site_fract_z
Si Si1 0.481039 0.445298 0.931599
Si Si2 0.597535 0.719810 0.198510
Si Si3 0.204818 0.121113 0.727078
Si Si4 0.030521 0.152889 0.555614
Si Si5 0.289635 0.462630 0.901950
Si Si6 0.193841 0.728516 0.314081
Si Si7 0.131149 0.955188 0.977067
O O1 0.488933 0.371184 0.718551
O O2 0.388256 0.483439 0.921254
O O3 0.499939 0.412369 0.222087
O O4 0.547839 0.520542 0.857059
O O5 0.503738 0.752882 0.126935
O O6 0.620635 0.762543 0.472301
O O7 0.601224 0.616901 0.229856
O O8 0.661702 0.751397 0.975961
O O9 0.230745 0.205264 0.889533
O O10 0.292845 0.086082 0.628480
O O11 0.132414 0.151135 0.523669
O O12 0.163855 0.045576 0.884386
O O13 0.250835 0.522990 0.683369
O O14 0.270369 0.366016 0.820848
#
# Coordination Sequence:
#
# PCOD8157154 Si02
#       7
#     4   4   4   4   4   4   4
#     4  11  23  42  64  92 130 176 220 270 342 389
#     4  11  21  40  66  89 128 177 219 259 334 408
#     4  10  22  39  66 100 136 172 219 280 335 398
#     4  11  21  40  66  89 128 177 219 259 334 408
#     4  12  24  42  68  96 130 176 230 282 330 394
#     4  11  23  42  64  92 130 176 220 270 342 389
#     4  10  22  39  66 100 136 172 219 280 335 398
#
# _framework density 21.752950999999999
#
# number of rings (size 3 to 8) (size 9 to 14) (size 15 to 20)
#    0.000    1.143    2.857    3.429    0.000    8.000 
#    0.000    5.714    0.000    0.000    0.000    0.000 
#    0.000    0.000    0.000    0.000    0.000    0.000 
#
# Total GULP energy -346940.057663 kJ/mol
# GULP energy per Si atom -12390.716345 kJ/mol
# Density = 2.170344 g / cm^3
# Si number density = 21.752951 Si / 1000 Ang^3
#
#
#
# Elastic Constant Matrix: (Units=GPa)
#
#
# Indices 1 2 3 4 5 6 
#
# 1 157.4527 53.8015 21.8372 0.0000 0.0000 0.0000
# 2 53.8015 108.6220 6.4737 0.0000 0.0000 0.0000
# 3 21.8372 6.4737 83.2942 0.0000 0.0000 0.0000
# 4 0.0000 0.0000 0.0000 23.1776 0.0000 0.0000
# 5 0.0000 0.0000 0.0000 0.0000 23.6148 0.0000
# 6 0.0000 0.0000 0.0000 0.0000 0.0000 46.5304
#
#
#
# Elastic Compliance Matrix: (Units=1/GPa)
#
#
# Indices 1 2 3 4 5 6 
#
# 1 0.007898 -0.003806 -0.001775 0.000000 0.000000 0.000000
# 2 -0.003806 0.011083 0.000136 0.000000 0.000000 0.000000
# 3 -0.001775 0.000136 0.012460 0.000000 0.000000 0.000000
# 4 0.000000 0.000000 0.000000 0.043145 0.000000 0.000000
# 5 0.000000 0.000000 0.000000 0.000000 0.042346 0.000000
# 6 0.000000 0.000000 0.000000 0.000000 0.000000 0.021491
#
#
# Mechanical properties :
#
#
# Convention : Reuss Voigt Hill
#
# Bulk Modulus (GPa) = 48.65560 57.06597 52.86078
# Shear Modulus (GPa) = 32.01764 36.48166 34.24965
#
# Velocity S-wave (km/s) = 3.84067 4.09967 3.97228
# Velocity P-wave (km/s) = 6.48718 6.97856 6.73735
#
# Compressibility (1/GPa) = 0.02055262
#
# Stress axis : x y z
#
# Youngs Moduli (GPa) = 126.61769 90.22594 80.25476
#
# Poissons Ratio (x) = 0.34341 0.14243
# Poissons Ratio (y) = 0.48192 -0.01095
# Poissons Ratio (z) = 0.22472 -0.01231
#
# Static dielectric constant tensor:
#      x y z
#    x 4.572520 0.000000 0.000000 
#    y 0.000000 4.548480 0.000000 
#    z 0.000000 0.000000 3.761070 
# 
# 
# High freq. dielectric constant tensor:
#      x y z
#    x 1.865360 0.000000 0.000000 
#    y 0.000000 1.861840 0.000000 
#    z 0.000000 0.000000 1.838270 
# 
# From -- ./inp_files/1506.got.cif
#   From: 2010.03.12/outbox.cif.g09.slc.cpg/sg19_1_cif.got.tgz:1506.got - 2010.04.10 18:59:41.
