data_PCOD8157561
_publ_section_title
;
Structure prediction by ZEFSAII (Michael W. Deem and Ramdas Pophale) SiO2 
 PCOD8157561
Probable space group: P 21 21 21
;
_chemical_formula_sum "Si O2"
_cell_formula_units_Z 32
_cell_length_a 20.762884
_cell_length_b 6.762201
_cell_length_c 10.049208
_cell_angle_alpha 90.000000
_cell_angle_beta 90.000000
_cell_angle_gamma 90.000000
_cell_volume 1410.936890
_symmetry_space_group_name_H-M "P 21 21 21"
_symmetry_group_IT_number 19
_symmetry_cell_setting 'orthorhombic'
loop_
_space_group_symop_operation_xyz
x,y,z
1/2-x,-y,1/2+z
1/2+x,1/2-y,-z
-x,1/2+y,1/2-z
loop_
_atom_site_type_symbol
_atom_site_label
_atom_site_fract_x
_atom_site_fract_y
_atom_site_fract_z
Si Si1 0.465361 0.746062 0.718695
Si Si2 0.319062 0.791248 0.454565
Si Si3 0.004902 0.823784 0.858147
Si Si4 0.097432 0.557356 0.022509
Si Si5 0.893421 0.549856 0.794409
Si Si6 0.129261 0.935885 0.180398
Si Si7 0.560044 0.956559 0.569388
Si Si8 0.169821 0.824701 0.463006
O O1 0.440259 0.588979 0.616263
O O2 0.442676 0.974816 0.697851
O O3 0.540414 0.786852 0.680380
O O4 0.443153 0.676950 0.865235
O O5 0.349216 0.570565 0.444400
O O6 0.335726 0.900733 0.590811
O O7 0.243323 0.761018 0.465837
O O8 0.343959 0.918981 0.328148
O O9 0.932790 0.752370 0.820590
O O10 0.050645 0.889742 0.737352
O O11 0.043914 0.648352 0.927367
O O12 0.991064 0.021333 0.947594
O O13 0.132646 0.725707 0.107822
O O14 0.851960 0.475285 0.920208
O O15 0.163241 0.933303 0.322367
O O16 0.630129 0.882535 0.524081
#
# Coordination Sequence:
#
# PCOD8157561 Si02
#       8
#     4   4   4   4   4   4   4   4
#     4  11  21  38  68 102 138 181 231 294 364 426
#     4  11  26  48  73 102 144 201 245 293 362 447
#     4  12  23  44  70 107 139 184 237 308 371 434
#     4  11  21  45  72 101 137 188 244 298 364 429
#     4  12  25  46  73 106 150 190 241 308 371 437
#     4  11  22  48  71  99 140 191 240 299 360 429
#     4  12  22  39  66 107 144 182 233 300 368 435
#     4  12  26  46  67 110 146 191 243 298 362 441
#
# _framework density 22.679966
#
# number of rings (size 3 to 8) (size 9 to 14) (size 15 to 20)
#    0.000    0.500    3.750    6.000    0.000    0.000 
#    9.000    0.000    0.000    0.000    0.000    0.000 
#    0.000    0.000    0.000    0.000    0.000    0.000 
#
# Total GULP energy -396597.641505 kJ/mol
# GULP energy per Si atom -12393.676297 kJ/mol
# Density = 2.262835 g / cm^3
# Si number density = 22.679966 Si / 1000 Ang^3
#
#
#
# Elastic Constant Matrix: (Units=GPa)
#
#
# Indices 1 2 3 4 5 6 
#
# 1 138.9963 36.3001 39.3336 0.0000 0.0000 0.0000
# 2 36.3001 110.0984 30.4630 0.0000 0.0000 0.0000
# 3 39.3336 30.4630 97.4555 0.0000 0.0000 0.0000
# 4 0.0000 0.0000 0.0000 19.0129 0.0000 0.0000
# 5 0.0000 0.0000 0.0000 0.0000 23.5952 0.0000
# 6 0.0000 0.0000 0.0000 0.0000 0.0000 27.6273
#
#
#
# Elastic Compliance Matrix: (Units=1/GPa)
#
#
# Indices 1 2 3 4 5 6 
#
# 1 0.008518 -0.002033 -0.002803 0.000000 0.000000 0.000000
# 2 -0.002033 0.010428 -0.002439 0.000000 0.000000 0.000000
# 3 -0.002803 -0.002439 0.012155 0.000000 0.000000 0.000000
# 4 0.000000 0.000000 0.000000 0.052596 0.000000 0.000000
# 5 0.000000 0.000000 0.000000 0.000000 0.042382 0.000000
# 6 0.000000 0.000000 0.000000 0.000000 0.000000 0.036196
#
#
# Mechanical properties :
#
#
# Convention : Reuss Voigt Hill
#
# Bulk Modulus (GPa) = 60.41720 62.08263 61.24992
# Shear Modulus (GPa) = 27.42111 30.07731 28.74921
#
# Velocity S-wave (km/s) = 3.48091 3.64560 3.56421
# Velocity P-wave (km/s) = 6.54618 6.71962 6.63347
#
# Compressibility (1/GPa) = 0.01655158
#
# Stress axis : x y z
#
# Youngs Moduli (GPa) = 117.39164 95.89586 82.27318
#
# Poissons Ratio (x) = 0.19497 0.23058
# Poissons Ratio (y) = 0.23868 0.20067
# Poissons Ratio (z) = 0.32900 0.23389
#
# Static dielectric constant tensor:
#      x y z
#    x 4.063250 0.000000 0.000000 
#    y 0.000000 4.429710 0.000000 
#    z 0.000000 0.000000 4.599680 
# 
# 
# High freq. dielectric constant tensor:
#      x y z
#    x 1.881020 0.000000 0.000000 
#    y 0.000000 1.906350 0.000000 
#    z 0.000000 0.000000 1.907520 
# 
# From -- ./inp_files/5528.got.cif
#   From: 2010.03.12/outbox.cif.g09.slc.cpg/sg19_3_cif.got.tgz:5528.got - 2010.04.10 18:59:41.
