data_PCOD8157694
_publ_section_title
;
Structure prediction by ZEFSAII (Michael W. Deem and Ramdas Pophale) SiO2 
 PCOD8157694
Probable space group: P 21 21 21
;
_chemical_formula_sum "Si O2"
_cell_formula_units_Z 24
_cell_length_a 13.706850
_cell_length_b 8.874402
_cell_length_c 8.587153
_cell_angle_alpha 90.000000
_cell_angle_beta 90.000000
_cell_angle_gamma 90.000000
_cell_volume 1044.542124
_symmetry_space_group_name_H-M "P 21 21 21"
_symmetry_group_IT_number 19
_symmetry_cell_setting 'orthorhombic'
loop_
_space_group_symop_operation_xyz
x,y,z
1/2-x,-y,1/2+z
1/2+x,1/2-y,-z
-x,1/2+y,1/2-z
loop_
_atom_site_type_symbol
_atom_site_label
_atom_site_fract_x
_atom_site_fract_y
_atom_site_fract_z
Si Si1 0.190388 0.482228 0.912173
Si Si2 0.682385 0.330092 0.247614
Si Si3 0.869287 0.947421 0.247282
Si Si4 0.840917 0.433766 0.480164
Si Si5 0.986232 0.170890 0.581674
Si Si6 0.041525 0.133651 0.247349
O O1 0.214862 0.317646 0.846380
O O2 0.283683 0.589135 0.874858
O O3 0.090736 0.553049 0.843116
O O4 0.186545 0.488966 0.096318
O O5 0.748525 0.348781 0.402468
O O6 0.569200 0.300304 0.291198
O O7 0.691728 0.474215 0.133433
O O8 0.942778 0.810271 0.277564
O O9 0.934248 0.087264 0.184046
O O10 0.927659 0.320578 0.529069
O O11 0.875579 0.545427 0.344324
O O12 0.039920 0.096152 0.432019
#
# Coordination Sequence:
#
# PCOD8157694 Si02
#       6
#     4   4   4   4   4   4
#     4  11  26  45  70 106 141 193 239 298 368 425
#     4  12  26  47  70 106 147 189 243 305 360 441
#     4  11  25  46  71 104 147 190 245 297 368 433
#     4  12  26  45  74 106 144 195 241 300 370 430
#     4  11  26  45  72 103 143 189 248 302 361 428
#     4  11  23  46  71 103 144 194 240 298 365 435
#
# _framework density 22.976575
#
# number of rings (size 3 to 8) (size 9 to 14) (size 15 to 20)
#    0.000    0.667    3.333    4.000    7.000    1.333 
#    0.000    0.000    0.000    0.000    0.000    0.000 
#    0.000    0.000    0.000    0.000    0.000    0.000 
#
# Total GULP energy -297553.099304 kJ/mol
# GULP energy per Si atom -12398.045804 kJ/mol
# Density = 2.292428 g / cm^3
# Si number density = 22.976575 Si / 1000 Ang^3
#
#
#
# Elastic Constant Matrix: (Units=GPa)
#
#
# Indices 1 2 3 4 5 6 
#
# 1 132.1390 47.4075 50.2732 0.0000 0.0000 0.0000
# 2 47.4075 107.5924 39.8851 0.0000 0.0000 0.0000
# 3 50.2732 39.8851 55.2648 0.0000 0.0000 0.0000
# 4 0.0000 0.0000 0.0000 37.3134 0.0000 0.0000
# 5 0.0000 0.0000 0.0000 0.0000 52.7399 0.0000
# 6 0.0000 0.0000 0.0000 0.0000 0.0000 31.8003
#
#
#
# Elastic Compliance Matrix: (Units=1/GPa)
#
#
# Indices 1 2 3 4 5 6 
#
# 1 0.011787 -0.001664 -0.009522 0.000000 0.000000 0.000000
# 2 -0.001664 0.012924 -0.007814 0.000000 0.000000 0.000000
# 3 -0.009522 -0.007814 0.032396 0.000000 0.000000 0.000000
# 4 0.000000 0.000000 0.000000 0.026800 0.000000 0.000000
# 5 0.000000 0.000000 0.000000 0.000000 0.018961 0.000000
# 6 0.000000 0.000000 0.000000 0.000000 0.000000 0.031446
#
#
# Mechanical properties :
#
#
# Convention : Reuss Voigt Hill
#
# Bulk Modulus (GPa) = 52.33375 63.34753 57.84064
# Shear Modulus (GPa) = 27.98249 34.86608 31.42428
#
# Velocity S-wave (km/s) = 3.49359 3.89969 3.70221
# Velocity P-wave (km/s) = 6.25300 6.92149 6.59572
#
# Compressibility (1/GPa) = 0.01910813
#
# Stress axis : x y z
#
# Youngs Moduli (GPa) = 84.83606 77.37460 30.86821
#
# Poissons Ratio (x) = 0.12875 0.29392
# Poissons Ratio (y) = 0.14117 0.24120
# Poissons Ratio (z) = 0.80780 0.60459
#
# Static dielectric constant tensor:
#      x y z
#    x 4.328700 0.000000 0.000000 
#    y 0.000000 4.130480 0.000000 
#    z 0.000000 0.000000 4.024960 
# 
# 
# High freq. dielectric constant tensor:
#      x y z
#    x 1.921040 0.000000 0.000000 
#    y 0.000000 1.910690 0.000000 
#    z 0.000000 0.000000 1.899870 
# 
# From -- ./inp_files/3842.got.cif
#   From: 2010.03.12/outbox.cif.g09.slc.cpg/sg19_2_cif.got.tgz:3842.got - 2010.04.10 18:59:41.
