data_PCOD8157957
_publ_section_title
;
Structure prediction by ZEFSAII (Michael W. Deem and Ramdas Pophale) SiO2 
 PCOD8157957
Probable space group: C 2 2 21
;
_chemical_formula_sum "Si O2"
_cell_formula_units_Z 52
_cell_length_a 8.302666
_cell_length_b 16.231997
_cell_length_c 20.494291
_cell_angle_alpha 90.000000
_cell_angle_beta 90.000000
_cell_angle_gamma 90.000000
_cell_volume 2761.992022
_symmetry_space_group_name_H-M "C 2 2 21"
_symmetry_group_IT_number 20
_symmetry_cell_setting 'orthorhombic'
loop_
_space_group_symop_operation_xyz
x,y,z
-x,-y,1/2+z
x,-y,-z
-x,y,1/2-z
1/2+x,1/2+y,z
1/2-x,1/2-y,1/2+z
1/2+x,1/2-y,-z
1/2-x,1/2+y,1/2-z
loop_
_atom_site_type_symbol
_atom_site_label
_atom_site_fract_x
_atom_site_fract_y
_atom_site_fract_z
Si Si1 0.488567 0.771948 0.068277
Si Si2 0.840102 0.680185 0.436643
Si Si3 0.636624 0.478587 0.568404
Si Si4 0.430934 0.938482 0.387403
Si Si5 0.153839 0.500000 0.500000
Si Si6 0.161058 0.105975 0.100311
Si Si7 0.969112 0.599631 0.176603
O O1 0.298837 0.749333 0.071838
O O2 0.528226 0.841986 0.123532
O O3 0.603356 0.697533 0.087430
O O4 0.536292 0.797937 0.994497
O O5 0.760479 0.592938 0.451997
O O6 0.940747 0.665564 0.370015
O O7 0.550465 0.500000 0.500000
O O8 0.738884 0.553366 0.599071
O O9 0.496150 0.449966 0.617692
O O10 0.540509 0.955833 0.449288
O O11 0.473598 0.004064 0.330775
O O12 0.256360 0.428915 0.535004
O O13 0.278704 0.103295 0.162183
O O14 0.000000 0.628320 0.250000
#
# Coordination Sequence:
#
# PCOD8157957 Si02
#       7
#     8   8   8   8   4   8   8
#     4  11  19  33  55  95 118 138 183 244 313 341
#     4  10  20  32  57  86 120 151 179 235 297 353
#     4  10  16  31  51  83 114 148 172 219 289 346
#     4  10  18  32  55  76 110 144 180 233 285 331
#     4  10  16  30  48  78 108 148 182 216 272 340
#     4  10  21  31  55  84 113 147 190 234 284 349
#     4  10  22  42  56  71 108 164 208 230 274 347
#
# _framework density 18.826993000000002
#
# number of rings (size 3 to 8) (size 9 to 14) (size 15 to 20)
#    0.000    1.846    3.077    3.692    0.000    0.000 
#    0.000    8.462    0.000    0.000    0.000    0.000 
#    0.000    0.000    0.000    0.000    0.000    0.000 
#
# Total GULP energy -322150.194741 kJ/mol
# GULP energy per Si atom -12390.392105 kJ/mol
# Density = 1.878414 g / cm^3
# Si number density = 18.826993 Si / 1000 Ang^3
#
#
#
# Elastic Constant Matrix: (Units=GPa)
#
#
# Indices 1 2 3 4 5 6 
#
# 1 117.0699 45.0482 31.4327 0.0000 0.0000 0.0000
# 2 45.0482 85.8071 18.3625 0.0000 0.0000 0.0000
# 3 31.4327 18.3625 72.7581 0.0000 0.0000 0.0000
# 4 0.0000 0.0000 0.0000 16.1628 0.0000 0.0000
# 5 0.0000 0.0000 0.0000 0.0000 63.1131 0.0000
# 6 0.0000 0.0000 0.0000 0.0000 0.0000 38.9163
#
#
#
# Elastic Compliance Matrix: (Units=1/GPa)
#
#
# Indices 1 2 3 4 5 6 
#
# 1 0.011558 -0.005285 -0.003660 0.000000 0.000000 0.000000
# 2 -0.005285 0.014736 -0.001436 0.000000 0.000000 0.000000
# 3 -0.003660 -0.001436 0.015688 0.000000 0.000000 0.000000
# 4 0.000000 0.000000 0.000000 0.061870 0.000000 0.000000
# 5 0.000000 0.000000 0.000000 0.000000 0.015845 0.000000
# 6 0.000000 0.000000 0.000000 0.000000 0.000000 0.025696
#
#
# Mechanical properties :
#
#
# Convention : Reuss Voigt Hill
#
# Bulk Modulus (GPa) = 47.12301 51.70241 49.41271
# Shear Modulus (GPa) = 28.86396 35.69122 32.27759
#
# Velocity S-wave (km/s) = 3.91975 4.35874 4.14506
# Velocity P-wave (km/s) = 6.75054 7.27001 7.01508
#
# Compressibility (1/GPa) = 0.02122105
#
# Stress axis : x y z
#
# Youngs Moduli (GPa) = 86.51994 67.86201 63.74498
#
# Poissons Ratio (x) = 0.35863 0.23327
# Poissons Ratio (y) = 0.45724 0.09153
# Poissons Ratio (z) = 0.31662 0.09744
#
# Static dielectric constant tensor:
#      x y z
#    x 3.782280 0.000000 0.000000 
#    y 0.000000 3.711820 0.000000 
#    z 0.000000 0.000000 2.972010 
# 
# 
# High freq. dielectric constant tensor:
#      x y z
#    x 1.752040 0.000000 0.000000 
#    y 0.000000 1.733740 0.000000 
#    z 0.000000 0.000000 1.672990 
# 
# From -- ./inp_files/26633.got.cif
#   From: 2010.03.12/outbox.cif.g09.slc.cpg/sg20_14_cif.got.tgz:26633.got - 2010.04.14 01:38:04.
