data_PCOD8157842
_publ_section_title
;
Structure prediction by ZEFSAII (Michael W. Deem and Ramdas Pophale) SiO2 
 PCOD8157842
Probable space group: P 21 21 21
;
_chemical_formula_sum "Si O2"
_cell_formula_units_Z 24
_cell_length_a 7.308701
_cell_length_b 9.170139
_cell_length_c 14.053433
_cell_angle_alpha 90.000000
_cell_angle_beta 90.000000
_cell_angle_gamma 90.000000
_cell_volume 941.886433
_symmetry_space_group_name_H-M "P 21 21 21"
_symmetry_group_IT_number 19
_symmetry_cell_setting 'orthorhombic'
loop_
_space_group_symop_operation_xyz
x,y,z
1/2-x,-y,1/2+z
1/2+x,1/2-y,-z
-x,1/2+y,1/2-z
loop_
_atom_site_type_symbol
_atom_site_label
_atom_site_fract_x
_atom_site_fract_y
_atom_site_fract_z
Si Si1 0.355924 0.571445 0.077843
Si Si2 0.992777 0.120406 0.543944
Si Si3 0.682875 0.424696 0.991410
Si Si4 0.786785 0.334948 0.190622
Si Si5 0.120732 0.146012 0.219651
Si Si6 0.896140 0.113538 0.741217
O O1 0.483005 0.713201 0.075856
O O2 0.336524 0.508936 0.183970
O O3 0.151372 0.597440 0.040601
O O4 0.470512 0.457819 0.013574
O O5 0.918788 0.035514 0.638012
O O6 0.192568 0.069027 0.512419
O O7 0.689509 0.345506 0.889892
O O8 0.774475 0.329571 0.075644
O O9 0.866359 0.488471 0.231451
O O10 0.587154 0.309446 0.232706
O O11 0.912449 0.202616 0.226716
O O12 0.246764 0.260646 0.274477
#
# Coordination Sequence:
#
# PCOD8157842 Si02
#       6
#     4   4   4   4   4   4
#     4  11  26  47  74 112 148 201 255 318 381 460
#     4  12  24  46  77 106 153 198 255 319 378 459
#     4  11  26  47  72 112 146 205 249 313 387 455
#     4  11  28  50  81 110 156 198 263 312 393 456
#     4  12  28  50  76 115 150 204 256 321 382 464
#     4  11  26  48  74 109 151 200 252 311 387 454
#
# _framework density 25.480777
#
# number of rings (size 3 to 8) (size 9 to 14) (size 15 to 20)
#    0.000    0.667    3.333    3.000    7.000    5.333 
#    0.000    0.000    0.000    0.000    0.000    0.000 
#    0.000    0.000    0.000    0.000    0.000    0.000 
#
# Total GULP energy -297609.975581 kJ/mol
# GULP energy per Si atom -12400.415649 kJ/mol
# Density = 2.542278 g / cm^3
# Si number density = 25.480777 Si / 1000 Ang^3
#
#
#
# Elastic Constant Matrix: (Units=GPa)
#
#
# Indices 1 2 3 4 5 6 
#
# 1 103.7401 18.8825 13.2296 0.0000 0.0000 0.0000
# 2 18.8825 35.8155 -6.7150 0.0000 0.0000 0.0000
# 3 13.2296 -6.7150 104.7956 0.0000 0.0000 0.0000
# 4 0.0000 0.0000 0.0000 25.0986 0.0000 0.0000
# 5 0.0000 0.0000 0.0000 0.0000 31.2034 0.0000
# 6 0.0000 0.0000 0.0000 0.0000 0.0000 33.2225
#
#
#
# Elastic Compliance Matrix: (Units=1/GPa)
#
#
# Indices 1 2 3 4 5 6 
#
# 1 0.010981 -0.006123 -0.001779 0.000000 0.000000 0.000000
# 2 -0.006123 0.031674 0.002803 0.000000 0.000000 0.000000
# 3 -0.001779 0.002803 0.009946 0.000000 0.000000 0.000000
# 4 0.000000 0.000000 0.000000 0.039843 0.000000 0.000000
# 5 0.000000 0.000000 0.000000 0.000000 0.032048 0.000000
# 6 0.000000 0.000000 0.000000 0.000000 0.000000 0.030100
#
#
# Mechanical properties :
#
#
# Convention : Reuss Voigt Hill
#
# Bulk Modulus (GPa) = 23.58260 32.79393 28.18827
# Shear Modulus (GPa) = 27.94478 32.50184 30.22331
#
# Velocity S-wave (km/s) = 3.31524 3.57535 3.44775
# Velocity P-wave (km/s) = 4.89179 5.47194 5.18998
#
# Compressibility (1/GPa) = 0.04240414
#
# Stress axis : x y z
#
# Youngs Moduli (GPa) = 91.06872 31.57133 100.53799
#
# Poissons Ratio (x) = 0.19330 0.17881
# Poissons Ratio (y) = 0.55758 -0.28176
# Poissons Ratio (z) = 0.16197 -0.08848
#
# Static dielectric constant tensor:
#      x y z
#    x 4.593750 0.000000 0.000000 
#    y 0.000000 4.257430 0.000000 
#    z 0.000000 0.000000 4.838110 
# 
# 
# High freq. dielectric constant tensor:
#      x y z
#    x 2.032140 0.000000 0.000000 
#    y 0.000000 1.999610 0.000000 
#    z 0.000000 0.000000 2.032150 
# 
# From -- ./inp_files/5835.got.cif
#   From: 2010.03.12/outbox.cif.g09.slc.cpg/sg19_3_cif.got.tgz:5835.got - 2010.04.10 18:59:41.
