data_PCOD8157698
_publ_section_title
;
Structure prediction by ZEFSAII (Michael W. Deem and Ramdas Pophale) SiO2 
 PCOD8157698
Probable space group: P 21 21 21
;
_chemical_formula_sum "Si O2"
_cell_formula_units_Z 28
_cell_length_a 9.130488
_cell_length_b 9.473771
_cell_length_c 14.435407
_cell_angle_alpha 90.000000
_cell_angle_beta 90.000000
_cell_angle_gamma 90.000000
_cell_volume 1248.664906
_symmetry_space_group_name_H-M "P 21 21 21"
_symmetry_group_IT_number 19
_symmetry_cell_setting 'orthorhombic'
loop_
_space_group_symop_operation_xyz
x,y,z
1/2-x,-y,1/2+z
1/2+x,1/2-y,-z
-x,1/2+y,1/2-z
loop_
_atom_site_type_symbol
_atom_site_label
_atom_site_fract_x
_atom_site_fract_y
_atom_site_fract_z
Si Si1 0.598801 0.727908 0.582456
Si Si2 0.551187 0.038101 0.617739
Si Si3 0.217771 0.105133 0.643030
Si Si4 0.621784 0.384592 0.157540
Si Si5 0.112873 0.811403 0.621588
Si Si6 0.380822 0.590476 0.088784
Si Si7 0.154798 0.387098 0.184454
O O1 0.765210 0.670672 0.580387
O O2 0.566503 0.762263 0.475409
O O3 0.497412 0.607624 0.628276
O O4 0.569369 0.871832 0.638606
O O5 0.383762 0.091415 0.607010
O O6 0.635127 0.074519 0.522233
O O7 0.630108 0.111008 0.705129
O O8 0.221125 0.085340 0.753328
O O9 0.135260 0.244521 0.609511
O O10 0.113406 0.978586 0.606711
O O11 0.513185 0.254951 0.187001
O O12 0.535830 0.525167 0.123965
O O13 0.269598 0.762437 0.660243
O O14 0.251949 0.514974 0.145942
#
# Coordination Sequence:
#
# PCOD8157698 Si02
#       7
#     4   4   4   4   4   4   4
#     4  12  22  47  76 104 141 193 249 297 369 444
#     4  12  25  47  76 107 156 191 251 315 370 446
#     4  12  25  47  71 110 150 190 241 310 377 438
#     4  11  23  46  75 105 143 189 249 305 360 446
#     4  11  24  44  73 103 140 194 243 296 362 451
#     4  11  27  49  72 115 151 189 251 313 374 438
#     4  11  24  46  77 104 141 198 244 300 374 445
#
# _framework density 22.423952
#
# number of rings (size 3 to 8) (size 9 to 14) (size 15 to 20)
#    0.000    0.571    5.714    3.429    0.000    2.286 
#   10.286    0.000    0.000    0.000    0.000    0.000 
#    0.000    0.000    0.000    0.000    0.000    0.000 
#
# Total GULP energy -347177.491447 kJ/mol
# GULP energy per Si atom -12399.196123 kJ/mol
# Density = 2.237291 g / cm^3
# Si number density = 22.423952 Si / 1000 Ang^3
#
#
#
# Elastic Constant Matrix: (Units=GPa)
#
#
# Indices 1 2 3 4 5 6 
#
# 1 108.3298 51.2854 19.1398 0.0000 0.0000 0.0000
# 2 51.2854 151.8886 19.0567 0.0000 0.0000 0.0000
# 3 19.1398 19.0567 113.3962 0.0000 0.0000 0.0000
# 4 0.0000 0.0000 0.0000 29.5414 0.0000 0.0000
# 5 0.0000 0.0000 0.0000 0.0000 33.1105 0.0000
# 6 0.0000 0.0000 0.0000 0.0000 0.0000 29.6598
#
#
#
# Elastic Compliance Matrix: (Units=1/GPa)
#
#
# Indices 1 2 3 4 5 6 
#
# 1 0.011166 -0.003610 -0.001278 0.000000 0.000000 0.000000
# 2 -0.003610 0.007893 -0.000717 0.000000 0.000000 0.000000
# 3 -0.001278 -0.000717 0.009155 0.000000 0.000000 0.000000
# 4 0.000000 0.000000 0.000000 0.033851 0.000000 0.000000
# 5 0.000000 0.000000 0.000000 0.000000 0.030202 0.000000
# 6 0.000000 0.000000 0.000000 0.000000 0.000000 0.033716
#
#
# Mechanical properties :
#
#
# Convention : Reuss Voigt Hill
#
# Bulk Modulus (GPa) = 58.81152 61.39757 60.10454
# Shear Modulus (GPa) = 34.99947 37.40452 36.20199
#
# Velocity S-wave (km/s) = 3.95499 4.08862 4.02236
# Velocity P-wave (km/s) = 6.86586 7.05187 6.95949
#
# Compressibility (1/GPa) = 0.01700347
#
# Stress axis : x y z
#
# Youngs Moduli (GPa) = 89.55903 126.70094 109.23163
#
# Poissons Ratio (x) = 0.45737 0.13960
# Poissons Ratio (y) = 0.32329 0.07833
# Poissons Ratio (z) = 0.11446 0.09086
#
# Static dielectric constant tensor:
#      x y z
#    x 3.974570 0.000000 0.000000 
#    y 0.000000 3.986910 0.000000 
#    z 0.000000 0.000000 3.964330 
# 
# 
# High freq. dielectric constant tensor:
#      x y z
#    x 1.887130 0.000000 0.000000 
#    y 0.000000 1.880110 0.000000 
#    z 0.000000 0.000000 1.889080 
# 
# From -- ./inp_files/5849.got.cif
#   From: 2010.03.12/outbox.cif.g09.slc.cpg/sg19_3_cif.got.tgz:5849.got - 2010.04.10 18:59:41.
