data_PCOD8157470
_publ_section_title
;
Structure prediction by ZEFSAII (Michael W. Deem and Ramdas Pophale) SiO2 
 PCOD8157470
Probable space group: P 21 21 21
;
_chemical_formula_sum "Si O2"
_cell_formula_units_Z 28
_cell_length_a 14.175495
_cell_length_b 13.186027
_cell_length_c 7.351006
_cell_angle_alpha 90.000000
_cell_angle_beta 90.000000
_cell_angle_gamma 90.000000
_cell_volume 1374.038720
_symmetry_space_group_name_H-M "P 21 21 21"
_symmetry_group_IT_number 19
_symmetry_cell_setting 'orthorhombic'
loop_
_space_group_symop_operation_xyz
x,y,z
1/2-x,-y,1/2+z
1/2+x,1/2-y,-z
-x,1/2+y,1/2-z
loop_
_atom_site_type_symbol
_atom_site_label
_atom_site_fract_x
_atom_site_fract_y
_atom_site_fract_z
Si Si1 0.871766 0.281362 0.183655
Si Si2 0.065573 0.247225 0.021031
Si Si3 0.252439 0.862478 0.630960
Si Si4 0.331255 0.067522 0.495206
Si Si5 0.870049 0.958955 0.576049
Si Si6 0.162360 0.554233 0.299808
Si Si7 0.014237 0.547862 0.616268
O O1 0.839867 0.363785 0.327796
O O2 0.838836 0.172028 0.255371
O O3 0.984618 0.284501 0.159053
O O4 0.823045 0.302027 0.989563
O O5 0.148959 0.197487 0.139097
O O6 0.105161 0.340134 0.902314
O O7 0.024270 0.162849 0.883021
O O8 0.216382 0.867047 0.836724
O O9 0.264043 0.974223 0.547229
O O10 0.432752 0.031430 0.428517
O O11 0.767214 0.982524 0.654532
O O12 0.877371 0.988239 0.365528
O O13 0.946454 0.025556 0.683641
O O14 0.096968 0.532525 0.471687
#
# Coordination Sequence:
#
# PCOD8157470 Si02
#       7
#     4   4   4   4   4   4   4
#     4  11  23  44  63  99 135 167 227 271 334 398
#     4  10  24  43  67  96 136 172 217 283 326 394
#     4  11  22  43  69  97 131 174 221 275 338 394
#     4  11  23  42  70  97 129 174 221 280 329 394
#     4  12  22  43  67  92 132 175 215 268 334 386
#     4  11  24  39  66  94 129 174 216 269 325 403
#     4  10  24  44  64  97 130 168 229 268 332 395
#
# _framework density 20.377883000000001
#
# number of rings (size 3 to 8) (size 9 to 14) (size 15 to 20)
#    0.000    1.143    4.286    1.714    0.000    4.571 
#    5.143    0.000    0.000    0.000    0.000    0.000 
#    0.000    0.000    0.000    0.000    0.000    0.000 
#
# Total GULP energy -347386.233602 kJ/mol
# GULP energy per Si atom -12406.651200 kJ/mol
# Density = 2.033150 g / cm^3
# Si number density = 20.377883 Si / 1000 Ang^3
#
#
#
# Elastic Constant Matrix: (Units=GPa)
#
#
# Indices 1 2 3 4 5 6 
#
# 1 96.4862 33.7856 29.7406 0.0000 0.0000 0.0000
# 2 33.7856 87.4440 31.2553 0.0000 0.0000 0.0000
# 3 29.7406 31.2553 93.5047 0.0000 0.0000 0.0000
# 4 0.0000 0.0000 0.0000 28.4089 0.0000 0.0000
# 5 0.0000 0.0000 0.0000 0.0000 32.9283 0.0000
# 6 0.0000 0.0000 0.0000 0.0000 0.0000 31.6769
#
#
#
# Elastic Compliance Matrix: (Units=1/GPa)
#
#
# Indices 1 2 3 4 5 6 
#
# 1 0.012556 -0.003888 -0.002694 0.000000 0.000000 0.000000
# 2 -0.003888 0.014192 -0.003507 0.000000 0.000000 0.000000
# 3 -0.002694 -0.003507 0.012724 0.000000 0.000000 0.000000
# 4 0.000000 0.000000 0.000000 0.035200 0.000000 0.000000
# 5 0.000000 0.000000 0.000000 0.000000 0.030369 0.000000
# 6 0.000000 0.000000 0.000000 0.000000 0.000000 0.031569
#
#
# Mechanical properties :
#
#
# Convention : Reuss Voigt Hill
#
# Bulk Modulus (GPa) = 51.83241 51.88867 51.86054
# Shear Modulus (GPa) = 30.63362 30.77970 30.70666
#
# Velocity S-wave (km/s) = 3.88142 3.89066 3.88604
# Velocity P-wave (km/s) = 6.75115 6.76029 6.75572
#
# Compressibility (1/GPa) = 0.01929295
#
# Stress axis : x y z
#
# Youngs Moduli (GPa) = 79.64263 70.46339 78.59301
#
# Poissons Ratio (x) = 0.27399 0.21172
# Poissons Ratio (y) = 0.30968 0.27563
# Poissons Ratio (z) = 0.21455 0.24712
#
# Static dielectric constant tensor:
#      x y z
#    x 3.921180 0.000000 0.000000 
#    y 0.000000 3.788730 0.000000 
#    z 0.000000 0.000000 3.464070 
# 
# 
# High freq. dielectric constant tensor:
#      x y z
#    x 1.814830 0.000000 0.000000 
#    y 0.000000 1.805070 0.000000 
#    z 0.000000 0.000000 1.783360 
# 
# From -- ./inp_files/1501.got.cif
#   From: 2010.03.12/outbox.cif.g09.slc.cpg/sg19_1_cif.got.tgz:1501.got - 2010.04.10 18:59:41.
