data_PCOD8157654
_publ_section_title
;
Structure prediction by ZEFSAII (Michael W. Deem and Ramdas Pophale) SiO2 
 PCOD8157654
Probable space group: P 21 21 21
;
_chemical_formula_sum "Si O2"
_cell_formula_units_Z 32
_cell_length_a 19.136020
_cell_length_b 6.771878
_cell_length_c 10.385041
_cell_angle_alpha 90.000000
_cell_angle_beta 90.000000
_cell_angle_gamma 90.000000
_cell_volume 1345.764157
_symmetry_space_group_name_H-M "P 21 21 21"
_symmetry_group_IT_number 19
_symmetry_cell_setting 'orthorhombic'
loop_
_space_group_symop_operation_xyz
x,y,z
1/2-x,-y,1/2+z
1/2+x,1/2-y,-z
-x,1/2+y,1/2-z
loop_
_atom_site_type_symbol
_atom_site_label
_atom_site_fract_x
_atom_site_fract_y
_atom_site_fract_z
Si Si1 0.742164 0.662116 0.437805
Si Si2 0.463436 0.123595 0.170860
Si Si3 0.771480 0.665637 0.149548
Si Si4 0.385008 0.428970 0.033102
Si Si5 0.925396 0.818100 0.183305
Si Si6 0.103800 0.263434 0.722158
Si Si7 0.675654 0.011123 0.054255
Si Si8 0.960259 0.042006 0.428664
O O1 0.742216 0.589373 0.288725
O O2 0.753391 0.482088 0.536747
O O3 0.671951 0.762633 0.488797
O O4 0.797614 0.841483 0.443316
O O5 0.433930 0.341937 0.145983
O O6 0.523718 0.156623 0.275187
O O7 0.401569 0.975215 0.218070
O O8 0.489754 0.050151 0.033764
O O9 0.855499 0.687315 0.160998
O O10 0.736437 0.876670 0.115137
O O11 0.361086 0.643241 0.092553
O O12 0.420345 0.476154 0.896324
O O13 0.996931 0.713630 0.139951
O O14 0.936180 0.870710 0.331513
O O15 0.149096 0.332235 0.841045
O O16 0.611434 0.879842 0.997710
#
# Coordination Sequence:
#
# PCOD8157654 Si02
#       8
#     4   4   4   4   4   4   4   4
#     4  12  28  48  78 109 149 208 254 320 393 465
#     4  11  23  43  67 106 143 191 246 311 375 454
#     4  12  28  50  78 115 156 206 267 322 396 470
#     4  12  24  42  73 103 143 192 251 311 385 453
#     4  12  25  47  73 107 155 201 255 319 386 472
#     4  11  23  41  72 104 144 185 250 314 380 446
#     4  11  26  50  75 108 152 195 257 325 385 460
#     4  11  25  45  72 106 148 202 248 314 386 456
#
# _framework density 23.778312
#
# number of rings (size 3 to 8) (size 9 to 14) (size 15 to 20)
#    0.000    0.500    6.250    1.500    1.750    3.000 
#    4.500    0.000    0.000    0.000    0.000    0.000 
#    0.000    0.000    0.000    0.000    0.000    0.000 
#
# Total GULP energy -396604.923201 kJ/mol
# GULP energy per Si atom -12393.903850 kJ/mol
# Density = 2.372419 g / cm^3
# Si number density = 23.778312 Si / 1000 Ang^3
#
#
#
# Elastic Constant Matrix: (Units=GPa)
#
#
# Indices 1 2 3 4 5 6 
#
# 1 92.5875 21.8834 18.5550 0.0000 0.0000 0.0000
# 2 21.8834 80.9928 31.6861 0.0000 0.0000 0.0000
# 3 18.5550 31.6861 112.7185 0.0000 0.0000 0.0000
# 4 0.0000 0.0000 0.0000 43.5869 0.0000 0.0000
# 5 0.0000 0.0000 0.0000 0.0000 30.1971 0.0000
# 6 0.0000 0.0000 0.0000 0.0000 0.0000 43.0078
#
#
#
# Elastic Compliance Matrix: (Units=1/GPa)
#
#
# Indices 1 2 3 4 5 6 
#
# 1 0.011671 -0.002699 -0.001163 0.000000 0.000000 0.000000
# 2 -0.002699 0.014496 -0.003631 0.000000 0.000000 0.000000
# 3 -0.001163 -0.003631 0.010084 0.000000 0.000000 0.000000
# 4 0.000000 0.000000 0.000000 0.022943 0.000000 0.000000
# 5 0.000000 0.000000 0.000000 0.000000 0.033116 0.000000
# 6 0.000000 0.000000 0.000000 0.000000 0.000000 0.023252
#
#
# Mechanical properties :
#
#
# Convention : Reuss Voigt Hill
#
# Bulk Modulus (GPa) = 47.02064 47.83865 47.42964
# Shear Modulus (GPa) = 36.32801 37.63665 36.98233
#
# Velocity S-wave (km/s) = 3.91292 3.98278 3.94800
# Velocity P-wave (km/s) = 6.34288 6.42746 6.38531
#
# Compressibility (1/GPa) = 0.02126726
#
# Stress axis : x y z
#
# Youngs Moduli (GPa) = 85.67929 68.98278 99.16988
#
# Poissons Ratio (x) = 0.18616 0.11530
# Poissons Ratio (y) = 0.23122 0.36007
# Poissons Ratio (z) = 0.09962 0.25046
#
# Static dielectric constant tensor:
#      x y z
#    x 4.445350 0.000000 0.000000 
#    y 0.000000 4.325480 0.000000 
#    z 0.000000 0.000000 4.377810 
# 
# 
# High freq. dielectric constant tensor:
#      x y z
#    x 1.947150 0.000000 0.000000 
#    y 0.000000 1.935620 0.000000 
#    z 0.000000 0.000000 1.953140 
# 
# From -- ./inp_files/5489.got.cif
#   From: 2010.03.12/outbox.cif.g09.slc.cpg/sg19_3_cif.got.tgz:5489.got - 2010.04.10 18:59:41.
