data_PCOD8157378
_publ_section_title
;
Structure prediction by ZEFSAII (Michael W. Deem and Ramdas Pophale) SiO2 
 PCOD8157378
Probable space group: P 21 21 21
;
_chemical_formula_sum "Si O2"
_cell_formula_units_Z 32
_cell_length_a 5.416740
_cell_length_b 11.237980
_cell_length_c 20.584918
_cell_angle_alpha 90.000000
_cell_angle_beta 90.000000
_cell_angle_gamma 90.000000
_cell_volume 1253.070155
_symmetry_space_group_name_H-M "P 21 21 21"
_symmetry_group_IT_number 19
_symmetry_cell_setting 'orthorhombic'
loop_
_space_group_symop_operation_xyz
x,y,z
1/2-x,-y,1/2+z
1/2+x,1/2-y,-z
-x,1/2+y,1/2-z
loop_
_atom_site_type_symbol
_atom_site_label
_atom_site_fract_x
_atom_site_fract_y
_atom_site_fract_z
Si Si1 0.162518 0.585147 0.869965
Si Si2 0.559966 0.172448 0.148353
Si Si3 0.476296 0.801559 0.896740
Si Si4 0.624277 0.677022 0.565112
Si Si5 0.568754 0.372337 0.240047
Si Si6 0.217726 0.137371 0.527935
Si Si7 0.345001 0.903649 0.559100
Si Si8 0.430813 0.534569 0.677422
O O1 0.246276 0.444051 0.857762
O O2 0.041452 0.594253 0.941334
O O3 0.373631 0.684329 0.859984
O O4 0.947882 0.617237 0.817608
O O5 0.629061 0.289198 0.105236
O O6 0.556393 0.231011 0.220285
O O7 0.290659 0.125972 0.127080
O O8 0.708747 0.764874 0.942238
O O9 0.552126 0.895806 0.842169
O O10 0.282413 0.856376 0.949334
O O11 0.547050 0.808157 0.541209
O O12 0.651554 0.597139 0.501723
O O13 0.427405 0.613916 0.612009
O O14 0.827354 0.433076 0.219771
O O15 0.326469 0.443060 0.213681
O O16 0.430768 0.041800 0.553772
#
# Coordination Sequence:
#
# PCOD8157378 Si02
#       8
#     4   4   4   4   4   4   4   4
#     4  11  27  47  72 105 142 202 241 318 376 451
#     4  10  23  43  67  97 140 178 248 295 366 437
#     4  12  25  46  72 105 154 199 251 312 386 462
#     4  11  20  38  66 100 132 185 229 303 366 427
#     4  11  27  51  74 109 142 199 252 309 371 448
#     4  11  25  43  67 106 144 191 249 306 384 458
#     4  11  20  37  64  97 137 180 236 306 363 441
#     4  11  27  47  76 105 147 192 250 305 368 448
#
# _framework density 25.537274
#
# number of rings (size 3 to 8) (size 9 to 14) (size 15 to 20)
#    0.000    1.000    5.000    0.750    5.250    0.000 
#    4.500    0.000    0.000    0.000    0.000    0.000 
#    0.000    0.000    0.000    0.000    0.000    0.000 
#
# Total GULP energy -396489.689836 kJ/mol
# GULP energy per Si atom -12390.302807 kJ/mol
# Density = 2.547915 g / cm^3
# Si number density = 25.537274 Si / 1000 Ang^3
#
#
#
# Elastic Constant Matrix: (Units=GPa)
#
#
# Indices 1 2 3 4 5 6 
#
# 1 58.6864 10.0563 -8.0701 0.0000 0.0000 0.0000
# 2 10.0563 145.1246 11.6267 0.0000 0.0000 0.0000
# 3 -8.0701 11.6267 65.8650 0.0000 0.0000 0.0000
# 4 0.0000 0.0000 0.0000 32.4251 0.0000 0.0000
# 5 0.0000 0.0000 0.0000 0.0000 24.4942 0.0000
# 6 0.0000 0.0000 0.0000 0.0000 0.0000 42.1903
#
#
#
# Elastic Compliance Matrix: (Units=1/GPa)
#
#
# Indices 1 2 3 4 5 6 
#
# 1 0.017613 -0.001413 0.002408 0.000000 0.000000 0.000000
# 2 -0.001413 0.007103 -0.001427 0.000000 0.000000 0.000000
# 3 0.002408 -0.001427 0.015729 0.000000 0.000000 0.000000
# 4 0.000000 0.000000 0.000000 0.030840 0.000000 0.000000
# 5 0.000000 0.000000 0.000000 0.000000 0.040826 0.000000
# 6 0.000000 0.000000 0.000000 0.000000 0.000000 0.023702
#
#
# Mechanical properties :
#
#
# Convention : Reuss Voigt Hill
#
# Bulk Modulus (GPa) = 25.26550 32.98907 29.12729
# Shear Modulus (GPa) = 33.36166 36.89279 35.12723
#
# Velocity S-wave (km/s) = 3.61832 3.80500 3.71283
# Velocity P-wave (km/s) = 5.23177 5.67891 5.45992
#
# Compressibility (1/GPa) = 0.03957966
#
# Stress axis : x y z
#
# Youngs Moduli (GPa) = 56.77630 140.78771 63.57505
#
# Poissons Ratio (x) = 0.19898 -0.15306
# Poissons Ratio (y) = 0.08025 0.09072
# Poissons Ratio (z) = -0.13669 0.20090
#
# Static dielectric constant tensor:
#      x y z
#    x 4.195740 0.000000 0.000000 
#    y 0.000000 5.067440 0.000000 
#    z 0.000000 0.000000 4.743270 
# 
# 
# High freq. dielectric constant tensor:
#      x y z
#    x 1.994620 0.000000 0.000000 
#    y 0.000000 2.040950 0.000000 
#    z 0.000000 0.000000 2.016760 
# 
# From -- ./inp_files/2048.got.cif
#   From: 2010.03.12/outbox.cif.g09.slc.cpg/sg19_2_cif.got.tgz:2048.got - 2010.04.10 18:59:41.
