data_PCOD8157651
_publ_section_title
;
Structure prediction by ZEFSAII (Michael W. Deem and Ramdas Pophale) SiO2 
 PCOD8157651
Probable space group: P 21 21 21
;
_chemical_formula_sum "Si O2"
_cell_formula_units_Z 32
_cell_length_a 8.739375
_cell_length_b 9.581377
_cell_length_c 18.378281
_cell_angle_alpha 90.000000
_cell_angle_beta 90.000000
_cell_angle_gamma 90.000000
_cell_volume 1538.909892
_symmetry_space_group_name_H-M "P 21 21 21"
_symmetry_group_IT_number 19
_symmetry_cell_setting 'orthorhombic'
loop_
_space_group_symop_operation_xyz
x,y,z
1/2-x,-y,1/2+z
1/2+x,1/2-y,-z
-x,1/2+y,1/2-z
loop_
_atom_site_type_symbol
_atom_site_label
_atom_site_fract_x
_atom_site_fract_y
_atom_site_fract_z
Si Si1 0.950930 0.068320 0.174290
Si Si2 0.577254 0.320299 0.559619
Si Si3 0.076449 0.867557 0.939917
Si Si4 0.943831 0.771482 0.794934
Si Si5 0.908595 0.282210 0.298275
Si Si6 0.400253 0.505806 0.323493
Si Si7 0.041113 0.912804 0.528839
Si Si8 0.113973 0.142084 0.025808
O O1 0.960313 0.203536 0.225298
O O2 0.010578 0.111464 0.095526
O O3 0.780840 0.009296 0.166610
O O4 0.051551 0.945054 0.209083
O O5 0.522391 0.215215 0.498187
O O6 0.758034 0.295991 0.568290
O O7 0.492075 0.289558 0.634287
O O8 0.544531 0.480157 0.538308
O O9 0.994673 0.866613 0.862334
O O10 0.086837 0.027294 0.964073
O O11 0.771658 0.724036 0.810291
O O12 0.052476 0.637602 0.783893
O O13 0.958572 0.862043 0.722168
O O14 0.480452 0.504476 0.401488
O O15 0.208456 0.853489 0.547701
O O16 0.926228 0.789802 0.508939
#
# Coordination Sequence:
#
# PCOD8157651 Si02
#       8
#     4   4   4   4   4   4   4   4
#     4  11  25  44  66  95 129 169 214 263 319 381
#     4  11  23  41  67  95 125 167 213 261 316 376
#     4  11  23  41  67  95 125 167 213 261 316 376
#     4  11  25  43  65  95 129 168 214 263 320 383
#     4  11  25  43  65  95 129 168 214 263 320 383
#     4  11  25  44  66  95 129 169 214 263 319 381
#     4  11  25  43  66  96 130 169 214 266 320 378
#     4  11  25  43  66  96 130 169 214 266 320 378
#
# _framework density 20.793939000000002
#
# number of rings (size 3 to 8) (size 9 to 14) (size 15 to 20)
#    0.000    1.000    2.500    3.000    3.500    7.000 
#    0.000    0.000    0.000    0.000    0.000    0.000 
#    0.000    0.000    0.000    0.000    0.000    0.000 
#
# Total GULP energy -397038.858702 kJ/mol
# GULP energy per Si atom -12407.464334 kJ/mol
# Density = 2.074661 g / cm^3
# Si number density = 20.793939 Si / 1000 Ang^3
#
#
#
# Elastic Constant Matrix: (Units=GPa)
#
#
# Indices 1 2 3 4 5 6 
#
# 1 54.3697 -9.9836 15.4608 0.0000 0.0000 0.0000
# 2 -9.9836 58.6334 -0.6734 0.0000 0.0000 0.0000
# 3 15.4608 -0.6734 57.2941 0.0000 0.0000 0.0000
# 4 0.0000 0.0000 0.0000 21.2425 0.0000 0.0000
# 5 0.0000 0.0000 0.0000 0.0000 44.3712 0.0000
# 6 0.0000 0.0000 0.0000 0.0000 0.0000 41.4405
#
#
#
# Elastic Compliance Matrix: (Units=1/GPa)
#
#
# Indices 1 2 3 4 5 6 
#
# 1 0.020594 0.003443 -0.005517 0.000000 0.000000 0.000000
# 2 0.003443 0.017633 -0.000722 0.000000 0.000000 0.000000
# 3 -0.005517 -0.000722 0.018934 0.000000 0.000000 0.000000
# 4 0.000000 0.000000 0.000000 0.047075 0.000000 0.000000
# 5 0.000000 0.000000 0.000000 0.000000 0.022537 0.000000
# 6 0.000000 0.000000 0.000000 0.000000 0.000000 0.024131
#
#
# Mechanical properties :
#
#
# Convention : Reuss Voigt Hill
#
# Bulk Modulus (GPa) = 19.39118 19.98941 19.69030
# Shear Modulus (GPa) = 28.78775 32.44375 30.61575
#
# Velocity S-wave (km/s) = 3.72483 3.95429 3.84127
# Velocity P-wave (km/s) = 5.27682 5.52109 5.40034
#
# Compressibility (1/GPa) = 0.05156983
#
# Stress axis : x y z
#
# Youngs Moduli (GPa) = 48.55881 56.71155 52.81501
#
# Poissons Ratio (x) = -0.19527 0.29136
# Poissons Ratio (y) = -0.16719 0.03813
# Poissons Ratio (z) = 0.26788 0.04094
#
# Static dielectric constant tensor:
#      x y z
#    x 3.968180 0.000000 0.000000 
#    y 0.000000 3.685970 0.000000 
#    z 0.000000 0.000000 3.416130 
# 
# 
# High freq. dielectric constant tensor:
#      x y z
#    x 1.831140 0.000000 0.000000 
#    y 0.000000 1.825380 0.000000 
#    z 0.000000 0.000000 1.816340 
# 
# From -- ./inp_files/6622.got.cif
#   From: 2010.03.12/outbox.cif.g09.slc.cpg/sg19_4_cif.got.tgz:6622.got - 2010.04.10 18:59:41.
