data_PCOD8157936
_publ_section_title
;
Structure prediction by ZEFSAII (Michael W. Deem and Ramdas Pophale) SiO2 
 PCOD8157936
Probable space group: P 21 21 21
;
_chemical_formula_sum "Si O2"
_cell_formula_units_Z 24
_cell_length_a 7.772671
_cell_length_b 13.755091
_cell_length_c 9.101615
_cell_angle_alpha 90.000000
_cell_angle_beta 90.000000
_cell_angle_gamma 90.000000
_cell_volume 973.088218
_symmetry_space_group_name_H-M "P 21 21 21"
_symmetry_group_IT_number 19
_symmetry_cell_setting 'orthorhombic'
loop_
_space_group_symop_operation_xyz
x,y,z
1/2-x,-y,1/2+z
1/2+x,1/2-y,-z
-x,1/2+y,1/2-z
loop_
_atom_site_type_symbol
_atom_site_label
_atom_site_fract_x
_atom_site_fract_y
_atom_site_fract_z
Si Si1 0.221496 0.550607 0.964024
Si Si2 0.934420 0.367762 0.585422
Si Si3 0.594489 0.466367 0.673764
Si Si4 0.822367 0.330194 0.277775
Si Si5 0.054675 0.680232 0.740831
Si Si6 0.393346 0.359724 0.903868
O O1 0.207620 0.621126 0.821782
O O2 0.243092 0.440986 0.904181
O O3 0.384326 0.577025 0.067186
O O4 0.049582 0.563130 0.057309
O O5 0.784625 0.446681 0.611119
O O6 0.897540 0.305201 0.438184
O O7 0.936144 0.294326 0.721187
O O8 0.571925 0.580200 0.709463
O O9 0.561765 0.404069 0.822753
O O10 0.625449 0.363575 0.296610
O O11 0.827870 0.235264 0.178555
O O12 0.061925 0.671539 0.567173
#
# Coordination Sequence:
#
# PCOD8157936 Si02
#       6
#     4   4   4   4   4   4
#     4  12  27  55  79 117 160 215 261 337 405 479
#     4  12  27  53  81 115 162 212 266 328 407 483
#     4  12  28  53  81 111 165 210 272 330 405 491
#     4  12  29  50  77 117 156 215 272 327 405 485
#     4  12  28  47  84 116 160 208 262 336 406 478
#     4  12  29  48  78 122 159 210 271 334 402 474
#
# _framework density 24.663744999999999
#
# number of rings (size 3 to 8) (size 9 to 14) (size 15 to 20)
#    0.000    0.000    3.333    5.000    7.000    1.333 
#    0.000    0.000    0.000    0.000    0.000    0.000 
#    0.000    0.000    0.000    0.000    0.000    0.000 
#
# Total GULP energy -297759.629126 kJ/mol
# GULP energy per Si atom -12406.651214 kJ/mol
# Density = 2.460761 g / cm^3
# Si number density = 24.663745 Si / 1000 Ang^3
#
#
#
# Elastic Constant Matrix: (Units=GPa)
#
#
# Indices 1 2 3 4 5 6 
#
# 1 127.1730 43.8063 33.9687 0.0000 0.0000 0.0000
# 2 43.8063 156.8066 74.1011 0.0000 0.0000 0.0000
# 3 33.9687 74.1011 122.3113 0.0000 0.0000 0.0000
# 4 0.0000 0.0000 0.0000 45.5319 0.0000 0.0000
# 5 0.0000 0.0000 0.0000 0.0000 29.7539 0.0000
# 6 0.0000 0.0000 0.0000 0.0000 0.0000 36.2192
#
#
#
# Elastic Compliance Matrix: (Units=1/GPa)
#
#
# Indices 1 2 3 4 5 6 
#
# 1 0.008856 -0.001838 -0.001346 0.000000 0.000000 0.000000
# 2 -0.001838 0.009317 -0.005134 0.000000 0.000000 0.000000
# 3 -0.001346 -0.005134 0.011660 0.000000 0.000000 0.000000
# 4 0.000000 0.000000 0.000000 0.021963 0.000000 0.000000
# 5 0.000000 0.000000 0.000000 0.000000 0.033609 0.000000
# 6 0.000000 0.000000 0.000000 0.000000 0.000000 0.027610
#
#
# Mechanical properties :
#
#
# Convention : Reuss Voigt Hill
#
# Bulk Modulus (GPa) = 75.77571 78.89368 77.33470
# Shear Modulus (GPa) = 37.29965 39.26198 38.28081
#
# Velocity S-wave (km/s) = 3.89308 3.99418 3.94396
# Velocity P-wave (km/s) = 7.14131 7.30263 7.22242
#
# Compressibility (1/GPa) = 0.01319684
#
# Stress axis : x y z
#
# Youngs Moduli (GPa) = 112.91863 107.33114 85.76224
#
# Poissons Ratio (x) = 0.19727 0.11543
# Poissons Ratio (y) = 0.20754 0.44032
# Poissons Ratio (z) = 0.15199 0.55105
#
# Static dielectric constant tensor:
#      x y z
#    x 4.585560 0.000000 0.000000 
#    y 0.000000 4.387160 0.000000 
#    z 0.000000 0.000000 4.611680 
# 
# 
# High freq. dielectric constant tensor:
#      x y z
#    x 1.983930 0.000000 0.000000 
#    y 0.000000 1.987790 0.000000 
#    z 0.000000 0.000000 1.993730 
# 
# From -- ./inp_files/2841.got.cif
#   From: 2010.03.12/outbox.cif.g09.slc.cpg/sg19_2_cif.got.tgz:2841.got - 2010.04.10 18:59:41.
