data_PCOD8157169
_publ_section_title
;
Structure prediction by ZEFSAII (Michael W. Deem and Ramdas Pophale) SiO2 
 PCOD8157169
Probable space group: P 21 21 21
;
_chemical_formula_sum "Si O2"
_cell_formula_units_Z 32
_cell_length_a 9.212734
_cell_length_b 14.593583
_cell_length_c 11.514537
_cell_angle_alpha 90.000000
_cell_angle_beta 90.000000
_cell_angle_gamma 90.000000
_cell_volume 1548.092633
_symmetry_space_group_name_H-M "P 21 21 21"
_symmetry_group_IT_number 19
_symmetry_cell_setting 'orthorhombic'
loop_
_space_group_symop_operation_xyz
x,y,z
1/2-x,-y,1/2+z
1/2+x,1/2-y,-z
-x,1/2+y,1/2-z
loop_
_atom_site_type_symbol
_atom_site_label
_atom_site_fract_x
_atom_site_fract_y
_atom_site_fract_z
Si Si1 0.857487 0.850815 0.125041
Si Si2 0.592612 0.950864 0.624847
Si Si3 0.962784 0.140127 0.684680
Si Si4 0.071389 0.434583 0.861096
Si Si5 0.874344 0.815647 0.862268
Si Si6 0.553262 0.355189 0.061579
Si Si7 0.929444 0.226393 0.257469
Si Si8 0.618040 0.689080 0.521349
O O1 0.707272 0.836720 0.193061
O O2 0.954178 0.762097 0.150030
O O3 0.925045 0.946363 0.173713
O O4 0.843935 0.864530 0.985470
O O5 0.761151 0.925831 0.600969
O O6 0.498971 0.945928 0.506202
O O7 0.527064 0.875808 0.714395
O O8 0.027345 0.225888 0.613701
O O9 0.054171 0.129687 0.802337
O O10 0.979343 0.039772 0.629755
O O11 0.055366 0.386009 0.733242
O O12 0.968308 0.391165 0.957788
O O13 0.724947 0.775862 0.816673
O O14 0.708824 0.323398 0.013148
O O15 0.425482 0.282237 0.041480
O O16 0.929047 0.301834 0.155159
#
# Coordination Sequence:
#
# PCOD8157169 Si02
#       8
#     4   4   4   4   4   4   4   4
#     4  11  24  40  65  93 128 180 213 262 330 394
#     4   9  22  40  63  95 124 162 225 263 319 390
#     4  11  23  40  64  96 128 172 216 258 332 391
#     4  10  22  41  66  94 126 168 211 273 321 388
#     4  11  21  44  61  92 133 166 213 270 325 388
#     4  11  21  38  66  92 123 167 208 277 315 384
#     4  10  22  40  63  92 130 164 215 272 320 385
#     4  11  21  39  64  92 126 161 217 269 328 372
#
# _framework density 20.670597999999998
#
# number of rings (size 3 to 8) (size 9 to 14) (size 15 to 20)
#    0.000    1.500    2.500    3.000    5.250    1.000 
#    6.750    1.250    0.000    0.000    0.000    0.000 
#    0.000    0.000    0.000    0.000    0.000    0.000 
#
# Total GULP energy -396568.568481 kJ/mol
# GULP energy per Si atom -12392.767765 kJ/mol
# Density = 2.062355 g / cm^3
# Si number density = 20.670598 Si / 1000 Ang^3
#
#
#
# Elastic Constant Matrix: (Units=GPa)
#
#
# Indices 1 2 3 4 5 6 
#
# 1 60.2996 41.8647 21.1099 0.0000 0.0000 0.0000
# 2 41.8647 107.7804 21.3471 0.0000 0.0000 0.0000
# 3 21.1099 21.3471 70.0056 0.0000 0.0000 0.0000
# 4 0.0000 0.0000 0.0000 21.2332 0.0000 0.0000
# 5 0.0000 0.0000 0.0000 0.0000 33.8721 0.0000
# 6 0.0000 0.0000 0.0000 0.0000 0.0000 27.0352
#
#
#
# Elastic Compliance Matrix: (Units=1/GPa)
#
#
# Indices 1 2 3 4 5 6 
#
# 1 0.024073 -0.008421 -0.004691 0.000000 0.000000 0.000000
# 2 -0.008421 0.012821 -0.001370 0.000000 0.000000 0.000000
# 3 -0.004691 -0.001370 0.016117 0.000000 0.000000 0.000000
# 4 0.000000 0.000000 0.000000 0.047096 0.000000 0.000000
# 5 0.000000 0.000000 0.000000 0.000000 0.029523 0.000000
# 6 0.000000 0.000000 0.000000 0.000000 0.000000 0.036989
#
#
# Mechanical properties :
#
#
# Convention : Reuss Voigt Hill
#
# Bulk Modulus (GPa) = 41.58803 45.19210 43.39007
# Shear Modulus (GPa) = 24.55815 26.67903 25.61859
#
# Velocity S-wave (km/s) = 3.45058 3.59649 3.52429
# Velocity P-wave (km/s) = 6.00320 6.25754 6.13169
#
# Compressibility (1/GPa) = 0.02404538
#
# Stress axis : x y z
#
# Youngs Moduli (GPa) = 41.54035 77.99963 62.04669
#
# Poissons Ratio (x) = 0.65687 0.29107
# Poissons Ratio (y) = 0.34983 0.08500
# Poissons Ratio (z) = 0.19487 0.10686
#
# Static dielectric constant tensor:
#      x y z
#    x 3.673520 0.000000 0.000000 
#    y 0.000000 3.842320 0.000000 
#    z 0.000000 0.000000 3.899590 
# 
# 
# High freq. dielectric constant tensor:
#      x y z
#    x 1.801950 0.000000 0.000000 
#    y 0.000000 1.813750 0.000000 
#    z 0.000000 0.000000 1.801700 
# 
# From -- ./inp_files/3654.got.cif
#   From: 2010.03.12/outbox.cif.g09.slc.cpg/sg19_2_cif.got.tgz:3654.got - 2010.04.10 18:59:41.
