data_PCOD8157740
_publ_section_title
;
Structure prediction by ZEFSAII (Michael W. Deem and Ramdas Pophale) SiO2 
 PCOD8157740
Probable space group: P 21 21 21
;
_chemical_formula_sum "Si O2"
_cell_formula_units_Z 24
_cell_length_a 17.633873
_cell_length_b 10.740708
_cell_length_c 5.150283
_cell_angle_alpha 90.000000
_cell_angle_beta 90.000000
_cell_angle_gamma 90.000000
_cell_volume 975.465046
_symmetry_space_group_name_H-M "P 21 21 21"
_symmetry_group_IT_number 19
_symmetry_cell_setting 'orthorhombic'
loop_
_space_group_symop_operation_xyz
x,y,z
1/2-x,-y,1/2+z
1/2+x,1/2-y,-z
-x,1/2+y,1/2-z
loop_
_atom_site_type_symbol
_atom_site_label
_atom_site_fract_x
_atom_site_fract_y
_atom_site_fract_z
Si Si1 0.349678 0.560372 0.769856
Si Si2 0.944671 0.464490 0.778163
Si Si3 0.212621 0.953467 0.485255
Si Si4 0.299312 0.320578 0.091577
Si Si5 0.572170 0.876964 0.071403
Si Si6 0.506890 0.667313 0.787783
O O1 0.279861 0.653888 0.735703
O O2 0.378748 0.498963 0.503016
O O3 0.419824 0.642228 0.880275
O O4 0.323710 0.445039 0.944986
O O5 0.863421 0.508235 0.883540
O O6 0.939320 0.406146 0.491739
O O7 0.001266 0.582347 0.750484
O O8 0.979786 0.369361 0.991198
O O9 0.209621 0.804683 0.421539
O O10 0.224670 0.021291 0.209676
O O11 0.368588 0.285526 0.284885
O O12 0.533863 0.810623 0.819942
#
# Coordination Sequence:
#
# PCOD8157740 Si02
#       6
#     4   4   4   4   4   4
#     4  11  25  44  72 112 141 192 246 298 380 427
#     4  11  24  46  69  99 136 183 245 278 359 425
#     4  12  29  49  70 106 148 197 242 298 369 438
#     4  12  24  45  74 105 150 191 241 313 361 443
#     4  11  24  44  72 100 147 186 234 306 358 439
#     4  11  24  44  71 104 138 187 234 293 357 430
#
# _framework density 24.603652
#
# number of rings (size 3 to 8) (size 9 to 14) (size 15 to 20)
#    0.000    0.667    5.000    2.000    4.667    0.000 
#    6.000    0.000    0.000    0.000    0.000    0.000 
#    0.000    0.000    0.000    0.000    0.000    0.000 
#
# Total GULP energy -297451.105318 kJ/mol
# GULP energy per Si atom -12393.796055 kJ/mol
# Density = 2.454765 g / cm^3
# Si number density = 24.603652 Si / 1000 Ang^3
#
#
#
# Elastic Constant Matrix: (Units=GPa)
#
#
# Indices 1 2 3 4 5 6 
#
# 1 116.2049 21.4807 -14.3085 0.0000 0.0000 0.0000
# 2 21.4807 73.2257 1.0665 0.0000 0.0000 0.0000
# 3 -14.3085 1.0665 46.7147 0.0000 0.0000 0.0000
# 4 0.0000 0.0000 0.0000 35.1539 0.0000 0.0000
# 5 0.0000 0.0000 0.0000 0.0000 35.6300 0.0000
# 6 0.0000 0.0000 0.0000 0.0000 0.0000 35.9737
#
#
#
# Elastic Compliance Matrix: (Units=1/GPa)
#
#
# Indices 1 2 3 4 5 6 
#
# 1 0.009494 -0.002828 0.002973 0.000000 0.000000 0.000000
# 2 -0.002828 0.014504 -0.001197 0.000000 0.000000 0.000000
# 3 0.002973 -0.001197 0.022344 0.000000 0.000000 0.000000
# 4 0.000000 0.000000 0.000000 0.028446 0.000000 0.000000
# 5 0.000000 0.000000 0.000000 0.000000 0.028066 0.000000
# 6 0.000000 0.000000 0.000000 0.000000 0.000000 0.027798
#
#
# Mechanical properties :
#
#
# Convention : Reuss Voigt Hill
#
# Bulk Modulus (GPa) = 22.60614 28.06920 25.33767
# Shear Modulus (GPa) = 33.89720 36.54530 35.22125
#
# Velocity S-wave (km/s) = 3.71581 3.85822 3.78768
# Velocity P-wave (km/s) = 5.25525 5.59295 5.42673
#
# Compressibility (1/GPa) = 0.04423577
#
# Stress axis : x y z
#
# Youngs Moduli (GPa) = 105.32560 68.94849 44.75397
#
# Poissons Ratio (x) = 0.19502 -0.13304
# Poissons Ratio (y) = 0.29791 0.05359
# Poissons Ratio (z) = -0.31310 0.08256
#
# Static dielectric constant tensor:
#      x y z
#    x 4.978950 0.000000 0.000000 
#    y 0.000000 4.384290 0.000000 
#    z 0.000000 0.000000 4.143610 
# 
# 
# High freq. dielectric constant tensor:
#      x y z
#    x 2.000160 0.000000 0.000000 
#    y 0.000000 1.968810 0.000000 
#    z 0.000000 0.000000 1.962570 
# 
# From -- ./inp_files/948.got.cif
#   From: 2010.03.12/outbox.cif.g09.slc.cpg/sg19_1_cif.got.tgz:948.got - 2010.04.10 18:59:41.
