data_PCOD8157950
_publ_section_title
;
Structure prediction by ZEFSAII (Michael W. Deem and Ramdas Pophale) SiO2 
 PCOD8157950
Probable space group: C 2 2 21
;
_chemical_formula_sum "Si O2"
_cell_formula_units_Z 36
_cell_length_a 13.430367
_cell_length_b 11.668038
_cell_length_c 13.344328
_cell_angle_alpha 90.000000
_cell_angle_beta 90.000000
_cell_angle_gamma 90.000000
_cell_volume 2091.136697
_symmetry_space_group_name_H-M "C 2 2 21"
_symmetry_group_IT_number 20
_symmetry_cell_setting 'orthorhombic'
loop_
_space_group_symop_operation_xyz
x,y,z
-x,-y,1/2+z
x,-y,-z
-x,y,1/2-z
1/2+x,1/2+y,z
1/2-x,1/2-y,1/2+z
1/2+x,1/2-y,-z
1/2-x,1/2+y,1/2-z
loop_
_atom_site_type_symbol
_atom_site_label
_atom_site_fract_x
_atom_site_fract_y
_atom_site_fract_z
Si Si1 0.589468 0.000000 0.000000
Si Si2 0.614025 0.210435 0.878538
Si Si3 0.555255 0.087563 0.345805
Si Si4 0.767378 0.632809 0.025612
Si Si5 0.391716 0.827292 0.158358
O O1 0.649221 0.086122 0.925756
O O2 0.520558 0.912043 0.938419
O O3 0.663374 0.311322 0.943227
O O4 0.649309 0.223002 0.763067
O O5 0.494963 0.228747 0.879679
O O6 0.500000 0.145831 0.250000
O O7 0.654167 0.153316 0.383209
O O8 0.586010 0.959311 0.317362
O O9 0.751377 0.500000 0.000000
O O10 0.808292 0.694235 0.925476
#
# Coordination Sequence:
#
# PCOD8157950 Si02
#       5
#     4   8   8   8   8
#     4  10  16  30  54  76  98 136 170 224 248 292
#     4  10  18  32  56  77 103 138 175 211 262 310
#     4  10  15  29  53  75 102 129 175 214 257 293
#     4  10  20  33  52  80 106 137 173 213 260 315
#     4   9  17  34  52  76 104 137 173 216 265 301
#
# _framework density 17.215516000000001
#
# number of rings (size 3 to 8) (size 9 to 14) (size 15 to 20)
#    0.000    2.222   10.000    0.000    0.000    1.778 
#    0.000    0.000    2.444    0.000    0.000    0.000 
#    0.000    0.000    0.000    0.000    0.000    0.000 
#
# Total GULP energy -223012.758573 kJ/mol
# GULP energy per Si atom -12389.597698 kJ/mol
# Density = 1.717633 g / cm^3
# Si number density = 17.215516 Si / 1000 Ang^3
#
#
#
# Elastic Constant Matrix: (Units=GPa)
#
#
# Indices 1 2 3 4 5 6 
#
# 1 66.7199 36.3567 54.6309 0.0000 0.0000 0.0000
# 2 36.3567 42.3298 34.3842 0.0000 0.0000 0.0000
# 3 54.6309 34.3842 130.4866 0.0000 0.0000 0.0000
# 4 0.0000 0.0000 0.0000 20.3547 0.0000 0.0000
# 5 0.0000 0.0000 0.0000 0.0000 34.0057 0.0000
# 6 0.0000 0.0000 0.0000 0.0000 0.0000 27.3895
#
#
#
# Elastic Compliance Matrix: (Units=1/GPa)
#
#
# Indices 1 2 3 4 5 6 
#
# 1 0.034070 -0.022490 -0.008338 0.000000 0.000000 0.000000
# 2 -0.022490 0.044903 -0.002417 0.000000 0.000000 0.000000
# 3 -0.008338 -0.002417 0.011791 0.000000 0.000000 0.000000
# 4 0.000000 0.000000 0.000000 0.049129 0.000000 0.000000
# 5 0.000000 0.000000 0.000000 0.000000 0.029407 0.000000
# 6 0.000000 0.000000 0.000000 0.000000 0.000000 0.036510
#
#
# Mechanical properties :
#
#
# Convention : Reuss Voigt Hill
#
# Bulk Modulus (GPa) = 41.19263 54.47554 47.83408
# Shear Modulus (GPa) = 17.83223 23.96096 20.89659
#
# Velocity S-wave (km/s) = 3.22191 3.73476 3.48778
# Velocity P-wave (km/s) = 6.14984 7.09295 6.63816
#
# Compressibility (1/GPa) = 0.02427619
#
# Stress axis : x y z
#
# Youngs Moduli (GPa) = 29.35113 22.27011 84.80848
#
# Poissons Ratio (x) = 0.50085 0.70713
# Poissons Ratio (y) = 0.66010 0.20494
# Poissons Ratio (z) = 0.24473 0.05382
#
# Static dielectric constant tensor:
#      x y z
#    x 2.970450 0.000000 0.000000 
#    y 0.000000 2.692570 0.000000 
#    z 0.000000 0.000000 3.135510 
# 
# 
# High freq. dielectric constant tensor:
#      x y z
#    x 1.635860 0.000000 0.000000 
#    y 0.000000 1.607140 0.000000 
#    z 0.000000 0.000000 1.692540 
# 
# From -- ./inp_files/13798.got.cif
#   From: 2010.03.12/outbox.cif.g09.slc.cpg/sg20_7_cif.got.tgz:13798.got - 2010.04.14 01:38:04.
