data_PCOD8157514
_publ_section_title
;
Structure prediction by ZEFSAII (Michael W. Deem and Ramdas Pophale) SiO2 
 PCOD8157514
Probable space group: P 21 21 21
;
_chemical_formula_sum "Si O2"
_cell_formula_units_Z 28
_cell_length_a 8.795215
_cell_length_b 8.375106
_cell_length_c 17.122817
_cell_angle_alpha 90.000000
_cell_angle_beta 90.000000
_cell_angle_gamma 90.000000
_cell_volume 1261.281390
_symmetry_space_group_name_H-M "P 21 21 21"
_symmetry_group_IT_number 19
_symmetry_cell_setting 'orthorhombic'
loop_
_space_group_symop_operation_xyz
x,y,z
1/2-x,-y,1/2+z
1/2+x,1/2-y,-z
-x,1/2+y,1/2-z
loop_
_atom_site_type_symbol
_atom_site_label
_atom_site_fract_x
_atom_site_fract_y
_atom_site_fract_z
Si Si1 0.707302 0.466173 0.120449
Si Si2 0.385927 0.243564 0.668282
Si Si3 0.544968 0.369637 0.516798
Si Si4 0.053423 0.316189 0.960996
Si Si5 0.110814 0.374780 0.611678
Si Si6 0.382950 0.921037 0.730805
Si Si7 0.742941 0.207534 0.897042
O O1 0.806381 0.538775 0.050093
O O2 0.661499 0.280957 0.100271
O O3 0.556593 0.571725 0.135949
O O4 0.798011 0.480444 0.200943
O O5 0.439044 0.309604 0.585588
O O6 0.200215 0.259389 0.673217
O O7 0.466247 0.335475 0.739081
O O8 0.431521 0.057291 0.669840
O O9 0.445201 0.488650 0.459796
O O10 0.602503 0.215175 0.470794
O O11 0.880986 0.274109 0.946485
O O12 0.092838 0.264353 0.050086
O O13 0.229236 0.520960 0.612101
O O14 0.276775 0.791415 0.687165
#
# Coordination Sequence:
#
# PCOD8157514 Si02
#       7
#     4   4   4   4   4   4   4
#     4  10  25  43  65  98 139 179 231 293 356 418
#     4  11  24  42  69  91 137 183 228 283 353 427
#     4  11  22  42  67 102 135 175 237 300 345 415
#     4  11  22  42  72  98 133 177 236 289 351 403
#     4  11  23  41  68 102 128 178 229 288 349 405
#     4  11  26  47  65 101 143 188 232 285 357 429
#     4  11  24  41  72  98 139 178 235 290 343 417
#
# _framework density 22.199645
#
# number of rings (size 3 to 8) (size 9 to 14) (size 15 to 20)
#    0.000    1.143    2.857    2.571    6.000    2.286 
#    0.000    1.429    0.000    0.000    0.000    0.000 
#    0.000    0.000    0.000    0.000    0.000    0.000 
#
# Total GULP energy -346924.486418 kJ/mol
# GULP energy per Si atom -12390.160229 kJ/mol
# Density = 2.214912 g / cm^3
# Si number density = 22.199645 Si / 1000 Ang^3
#
#
#
# Elastic Constant Matrix: (Units=GPa)
#
#
# Indices 1 2 3 4 5 6 
#
# 1 81.9904 21.0954 23.6364 0.0000 0.0000 0.0000
# 2 21.0954 131.0634 33.8167 0.0000 0.0000 0.0000
# 3 23.6364 33.8167 53.7952 0.0000 0.0000 0.0000
# 4 0.0000 0.0000 0.0000 39.9185 0.0000 0.0000
# 5 0.0000 0.0000 0.0000 0.0000 13.2066 0.0000
# 6 0.0000 0.0000 0.0000 0.0000 0.0000 36.4204
#
#
#
# Elastic Compliance Matrix: (Units=1/GPa)
#
#
# Indices 1 2 3 4 5 6 
#
# 1 0.014035 -0.000797 -0.005666 0.000000 0.000000 0.000000
# 2 -0.000797 0.009152 -0.005403 0.000000 0.000000 0.000000
# 3 -0.005666 -0.005403 0.024475 0.000000 0.000000 0.000000
# 4 0.000000 0.000000 0.000000 0.025051 0.000000 0.000000
# 5 0.000000 0.000000 0.000000 0.000000 0.075720 0.000000
# 6 0.000000 0.000000 0.000000 0.000000 0.000000 0.027457
#
#
# Mechanical properties :
#
#
# Convention : Reuss Voigt Hill
#
# Bulk Modulus (GPa) = 41.78766 47.10511 44.44638
# Shear Modulus (GPa) = 24.08500 30.46248 27.27374
#
# Velocity S-wave (km/s) = 3.29740 3.70835 3.50889
# Velocity P-wave (km/s) = 5.77594 6.29291 6.03996
#
# Compressibility (1/GPa) = 0.02393051
#
# Stress axis : x y z
#
# Youngs Moduli (GPa) = 71.25078 109.26229 40.85841
#
# Poissons Ratio (x) = 0.08710 0.23148
# Poissons Ratio (y) = 0.05680 0.22076
# Poissons Ratio (z) = 0.40367 0.59035
#
# Static dielectric constant tensor:
#      x y z
#    x 4.113710 0.000000 0.000000 
#    y 0.000000 4.487370 0.000000 
#    z 0.000000 0.000000 3.815570 
# 
# 
# High freq. dielectric constant tensor:
#      x y z
#    x 1.881380 0.000000 0.000000 
#    y 0.000000 1.889060 0.000000 
#    z 0.000000 0.000000 1.852770 
# 
# From -- ./inp_files/6594.got.cif
#   From: 2010.03.12/outbox.cif.g09.slc.cpg/sg19_4_cif.got.tgz:6594.got - 2010.04.10 18:59:41.
