data_PCOD8157684
_publ_section_title
;
Structure prediction by ZEFSAII (Michael W. Deem and Ramdas Pophale) SiO2 
 PCOD8157684
Probable space group: P 21 21 21
;
_chemical_formula_sum "Si O2"
_cell_formula_units_Z 28
_cell_length_a 15.548055
_cell_length_b 14.149347
_cell_length_c 5.199567
_cell_angle_alpha 90.000000
_cell_angle_beta 90.000000
_cell_angle_gamma 90.000000
_cell_volume 1143.877834
_symmetry_space_group_name_H-M "P 21 21 21"
_symmetry_group_IT_number 19
_symmetry_cell_setting 'orthorhombic'
loop_
_space_group_symop_operation_xyz
x,y,z
1/2-x,-y,1/2+z
1/2+x,1/2-y,-z
-x,1/2+y,1/2-z
loop_
_atom_site_type_symbol
_atom_site_label
_atom_site_fract_x
_atom_site_fract_y
_atom_site_fract_z
Si Si1 0.346125 0.158103 0.650077
Si Si2 0.225116 0.596178 0.507652
Si Si3 0.389061 0.256343 0.172211
Si Si4 0.382801 0.558325 0.802782
Si Si5 0.689449 0.220926 0.383660
Si Si6 0.067807 0.019227 0.315435
Si Si7 0.938972 0.640204 0.679582
O O1 0.399927 0.174671 0.386273
O O2 0.249663 0.187045 0.558344
O O3 0.352672 0.049941 0.742874
O O4 0.387556 0.218421 0.881893
O O5 0.198587 0.680180 0.709758
O O6 0.312477 0.541951 0.578915
O O7 0.143993 0.523978 0.503302
O O8 0.245517 0.644615 0.235807
O O9 0.463832 0.330305 0.215491
O O10 0.479518 0.542580 0.702978
O O11 0.367399 0.666361 0.900198
O O12 0.619297 0.265763 0.190881
O O13 0.081459 0.062545 0.598452
O O14 0.072412 0.101244 0.106655
#
# Coordination Sequence:
#
# PCOD8157684 Si02
#       7
#     4   4   4   4   4   4   4
#     4  11  25  47  71 102 137 190 232 290 349 415
#     4  11  24  40  73 103 144 174 231 295 359 413
#     4  11  23  45  69 100 144 175 229 290 352 413
#     4  12  24  43  71 107 138 183 231 296 357 414
#     4  11  27  44  72 103 139 190 235 291 352 420
#     4  12  29  45  73 101 145 189 233 289 349 428
#     4  12  28  46  69 104 143 189 233 287 348 427
#
# _framework density 24.47814
#
# number of rings (size 3 to 8) (size 9 to 14) (size 15 to 20)
#    0.000    0.571    4.286    2.571   10.000    1.143 
#    0.000    0.000    0.000    0.000    0.000    0.000 
#    0.000    0.000    0.000    0.000    0.000    0.000 
#
# Total GULP energy -346896.517640 kJ/mol
# GULP energy per Si atom -12389.161344 kJ/mol
# Density = 2.442243 g / cm^3
# Si number density = 24.478140 Si / 1000 Ang^3
#
#
#
# Elastic Constant Matrix: (Units=GPa)
#
#
# Indices 1 2 3 4 5 6 
#
# 1 59.9590 18.8533 -7.6543 0.0000 0.0000 0.0000
# 2 18.8533 55.0874 -14.3557 0.0000 0.0000 0.0000
# 3 -7.6543 -14.3557 66.0254 0.0000 0.0000 0.0000
# 4 0.0000 0.0000 0.0000 41.9249 0.0000 0.0000
# 5 0.0000 0.0000 0.0000 0.0000 27.1746 0.0000
# 6 0.0000 0.0000 0.0000 0.0000 0.0000 48.1555
#
#
#
# Elastic Compliance Matrix: (Units=1/GPa)
#
#
# Indices 1 2 3 4 5 6 
#
# 1 0.018732 -0.006196 0.000824 0.000000 0.000000 0.000000
# 2 -0.006196 0.021293 0.003911 0.000000 0.000000 0.000000
# 3 0.000824 0.003911 0.016092 0.000000 0.000000 0.000000
# 4 0.000000 0.000000 0.000000 0.023852 0.000000 0.000000
# 5 0.000000 0.000000 0.000000 0.000000 0.036799 0.000000
# 6 0.000000 0.000000 0.000000 0.000000 0.000000 0.020766
#
#
# Mechanical properties :
#
#
# Convention : Reuss Voigt Hill
#
# Bulk Modulus (GPa) = 18.79856 19.41761 19.10808
# Shear Modulus (GPa) = 31.60844 35.73289 33.67067
#
# Velocity S-wave (km/s) = 3.59735 3.82486 3.71285
# Velocity P-wave (km/s) = 4.99510 5.23984 5.11893
#
# Compressibility (1/GPa) = 0.05319558
#
# Stress axis : x y z
#
# Youngs Moduli (GPa) = 53.38590 46.96425 62.14387
#
# Poissons Ratio (x) = 0.29099 -0.05123
# Poissons Ratio (y) = 0.33078 -0.24307
# Poissons Ratio (z) = -0.04401 -0.18369
#
# Static dielectric constant tensor:
#      x y z
#    x 4.410490 0.000000 0.000000 
#    y 0.000000 4.688150 0.000000 
#    z 0.000000 0.000000 4.239040 
# 
# 
# High freq. dielectric constant tensor:
#      x y z
#    x 1.968320 0.000000 0.000000 
#    y 0.000000 1.979530 0.000000 
#    z 0.000000 0.000000 1.966670 
# 
# From -- ./inp_files/1495.got.cif
#   From: 2010.03.12/outbox.cif.g09.slc.cpg/sg19_1_cif.got.tgz:1495.got - 2010.04.10 18:59:41.
