data_PCOD8157426
_publ_section_title
;
Structure prediction by ZEFSAII (Michael W. Deem and Ramdas Pophale) SiO2 
 PCOD8157426
Probable space group: P 21 21 21
;
_chemical_formula_sum "Si O2"
_cell_formula_units_Z 32
_cell_length_a 14.123072
_cell_length_b 5.110017
_cell_length_c 17.105857
_cell_angle_alpha 90.000000
_cell_angle_beta 90.000000
_cell_angle_gamma 90.000000
_cell_volume 1234.514955
_symmetry_space_group_name_H-M "P 21 21 21"
_symmetry_group_IT_number 19
_symmetry_cell_setting 'orthorhombic'
loop_
_space_group_symop_operation_xyz
x,y,z
1/2-x,-y,1/2+z
1/2+x,1/2-y,-z
-x,1/2+y,1/2-z
loop_
_atom_site_type_symbol
_atom_site_label
_atom_site_fract_x
_atom_site_fract_y
_atom_site_fract_z
Si Si1 0.051287 0.892585 0.282923
Si Si2 0.045773 0.116432 0.776489
Si Si3 0.719709 0.726589 0.109044
Si Si4 0.405620 0.923258 0.953183
Si Si5 0.861407 0.798853 0.532916
Si Si6 0.476211 0.513906 0.062237
Si Si7 0.205587 0.740313 0.577138
Si Si8 0.242399 0.023083 0.735701
O O1 0.048582 0.944126 0.376128
O O2 0.158166 0.832000 0.251983
O O3 0.011971 0.140717 0.235236
O O4 0.151688 0.208916 0.753143
O O5 0.014865 0.883424 0.717000
O O6 0.042906 0.964429 0.860338
O O7 0.825075 0.786347 0.074832
O O8 0.688170 0.456426 0.068990
O O9 0.730702 0.714665 0.202822
O O10 0.646598 0.959464 0.091931
O O11 0.483496 0.760256 0.003743
O O12 0.355280 0.131837 0.008115
O O13 0.805179 0.875522 0.453723
O O14 0.973374 0.734947 0.516508
O O15 0.369660 0.488242 0.098387
O O16 0.234322 0.926075 0.647488
#
# Coordination Sequence:
#
# PCOD8157426 Si02
#       8
#     4   4   4   4   4   4   4   4
#     4  11  29  54  81 112 148 206 266 317 378 451
#     4  12  27  45  71 112 151 194 246 301 384 457
#     4  10  23  46  66  99 142 192 236 292 371 437
#     4  10  25  47  74 102 154 190 247 313 375 437
#     4  11  25  42  69 100 141 190 242 294 369 437
#     4  12  25  42  75 103 150 195 243 308 372 458
#     4  11  25  47  71 110 148 192 252 308 380 449
#     4  11  25  47  77 110 154 197 252 321 381 462
#
# _framework density 25.921112000000001
#
# number of rings (size 3 to 8) (size 9 to 14) (size 15 to 20)
#    0.000    1.000    3.750    0.750    7.000    4.000 
#    4.500    0.000    0.000    0.000    0.000    0.000 
#    0.000    0.000    0.000    0.000    0.000    0.000 
#
# Total GULP energy -396513.539027 kJ/mol
# GULP energy per Si atom -12391.048095 kJ/mol
# Density = 2.586211 g / cm^3
# Si number density = 25.921112 Si / 1000 Ang^3
#
#
#
# Elastic Constant Matrix: (Units=GPa)
#
#
# Indices 1 2 3 4 5 6 
#
# 1 124.3160 4.6918 19.0678 0.0000 0.0000 0.0000
# 2 4.6918 80.8676 -22.7713 0.0000 0.0000 0.0000
# 3 19.0678 -22.7713 72.9255 0.0000 0.0000 0.0000
# 4 0.0000 0.0000 0.0000 25.9961 0.0000 0.0000
# 5 0.0000 0.0000 0.0000 0.0000 43.6320 0.0000
# 6 0.0000 0.0000 0.0000 0.0000 0.0000 15.7024
#
#
#
# Elastic Compliance Matrix: (Units=1/GPa)
#
#
# Indices 1 2 3 4 5 6 
#
# 1 0.008489 -0.001225 -0.002602 0.000000 0.000000 0.000000
# 2 -0.001225 0.013735 0.004609 0.000000 0.000000 0.000000
# 3 -0.002602 0.004609 0.015832 0.000000 0.000000 0.000000
# 4 0.000000 0.000000 0.000000 0.038467 0.000000 0.000000
# 5 0.000000 0.000000 0.000000 0.000000 0.022919 0.000000
# 6 0.000000 0.000000 0.000000 0.000000 0.000000 0.063685
#
#
# Mechanical properties :
#
#
# Convention : Reuss Voigt Hill
#
# Bulk Modulus (GPa) = 25.24008 31.12065 28.18037
# Shear Modulus (GPa) = 28.60886 35.54081 32.07484
#
# Velocity S-wave (km/s) = 3.32579 3.70687 3.52149
# Velocity P-wave (km/s) = 4.95038 5.50937 5.23734
#
# Compressibility (1/GPa) = 0.03961953
#
# Stress axis : x y z
#
# Youngs Moduli (GPa) = 117.79381 72.80740 63.16207
#
# Poissons Ratio (x) = 0.08921 0.16437
# Poissons Ratio (y) = 0.14434 -0.29112
# Poissons Ratio (z) = 0.30654 -0.33558
#
# Static dielectric constant tensor:
#      x y z
#    x 6.503850 0.000000 0.000000 
#    y 0.000000 4.254730 0.000000 
#    z 0.000000 0.000000 5.030320 
# 
# 
# High freq. dielectric constant tensor:
#      x y z
#    x 2.064670 0.000000 0.000000 
#    y 0.000000 2.012170 0.000000 
#    z 0.000000 0.000000 2.043600 
# 
# From -- ./inp_files/6786.got.cif
#   From: 2010.03.12/outbox.cif.g09.slc.cpg/sg19_4_cif.got.tgz:6786.got - 2010.04.10 18:59:41.
