data_PCOD8157487
_publ_section_title
;
Structure prediction by ZEFSAII (Michael W. Deem and Ramdas Pophale) SiO2 
 PCOD8157487
Probable space group: P 21 21 21
;
_chemical_formula_sum "Si O2"
_cell_formula_units_Z 28
_cell_length_a 12.637327
_cell_length_b 6.808939
_cell_length_c 15.675110
_cell_angle_alpha 90.000000
_cell_angle_beta 90.000000
_cell_angle_gamma 90.000000
_cell_volume 1348.792877
_symmetry_space_group_name_H-M "P 21 21 21"
_symmetry_group_IT_number 19
_symmetry_cell_setting 'orthorhombic'
loop_
_space_group_symop_operation_xyz
x,y,z
1/2-x,-y,1/2+z
1/2+x,1/2-y,-z
-x,1/2+y,1/2-z
loop_
_atom_site_type_symbol
_atom_site_label
_atom_site_fract_x
_atom_site_fract_y
_atom_site_fract_z
Si Si1 0.558562 0.049073 0.075373
Si Si2 0.810953 0.077202 0.726724
Si Si3 0.945066 0.238532 0.426982
Si Si4 0.669954 0.380034 0.637135
Si Si5 0.203959 0.816867 0.226027
Si Si6 0.831694 0.579210 0.513631
Si Si7 0.328189 0.139531 0.126404
O O1 0.615255 0.260227 0.074218
O O2 0.433084 0.076606 0.076501
O O3 0.593388 0.926455 0.158761
O O4 0.593074 0.932345 0.990627
O O5 0.712952 0.205652 0.695309
O O6 0.852864 0.169788 0.815395
O O7 0.771702 0.857459 0.735800
O O8 0.880999 0.226300 0.338884
O O9 0.924644 0.451014 0.469677
O O10 0.068135 0.206938 0.409340
O O11 0.643518 0.567565 0.697526
O O12 0.757190 0.435264 0.567279
O O13 0.289568 0.957487 0.182622
O O14 0.762104 0.690893 0.442290
#
# Coordination Sequence:
#
# PCOD8157487 Si02
#       7
#     4   4   4   4   4   4   4
#     4  12  24  40  71  97 130 178 219 265 339 389
#     4  11  24  41  67  95 132 174 214 270 339 388
#     4  11  25  43  68  96 132 177 224 270 332 389
#     4  11  23  43  66  98 133 170 222 275 327 395
#     4  10  24  45  66  93 136 168 221 277 320 398
#     4  11  23  45  63  97 136 168 221 278 319 398
#     4  10  25  43  63  98 133 169 219 273 322 399
#
# _framework density 20.759302999999999
#
# number of rings (size 3 to 8) (size 9 to 14) (size 15 to 20)
#    0.000    1.143    4.286    0.857    4.000    3.429 
#    0.000    0.000    0.000    0.000    0.000    0.000 
#    0.000    0.000    0.000    0.000    0.000    0.000 
#
# Total GULP energy -347318.635577 kJ/mol
# GULP energy per Si atom -12404.236985 kJ/mol
# Density = 2.071205 g / cm^3
# Si number density = 20.759303 Si / 1000 Ang^3
#
#
#
# Elastic Constant Matrix: (Units=GPa)
#
#
# Indices 1 2 3 4 5 6 
#
# 1 101.3598 43.5265 36.0773 0.0000 0.0000 0.0000
# 2 43.5265 82.9844 33.8053 0.0000 0.0000 0.0000
# 3 36.0773 33.8053 100.5684 0.0000 0.0000 0.0000
# 4 0.0000 0.0000 0.0000 46.4180 0.0000 0.0000
# 5 0.0000 0.0000 0.0000 0.0000 36.8604 0.0000
# 6 0.0000 0.0000 0.0000 0.0000 0.0000 26.6336
#
#
#
# Elastic Compliance Matrix: (Units=1/GPa)
#
#
# Indices 1 2 3 4 5 6 
#
# 1 0.013396 -0.005873 -0.002831 0.000000 0.000000 0.000000
# 2 -0.005873 0.016537 -0.003452 0.000000 0.000000 0.000000
# 3 -0.002831 -0.003452 0.012120 0.000000 0.000000 0.000000
# 4 0.000000 0.000000 0.000000 0.021543 0.000000 0.000000
# 5 0.000000 0.000000 0.000000 0.000000 0.027129 0.000000
# 6 0.000000 0.000000 0.000000 0.000000 0.000000 0.037547
#
#
# Mechanical properties :
#
#
# Convention : Reuss Voigt Hill
#
# Bulk Modulus (GPa) = 56.37028 56.85900 56.61464
# Shear Modulus (GPa) = 31.54633 33.41596 32.48114
#
# Velocity S-wave (km/s) = 3.90246 4.01644 3.95986
# Velocity P-wave (km/s) = 6.89339 6.99701 6.94539
#
# Compressibility (1/GPa) = 0.01773984
#
# Stress axis : x y z
#
# Youngs Moduli (GPa) = 74.65179 60.47027 82.51116
#
# Poissons Ratio (x) = 0.35513 0.23362
# Poissons Ratio (y) = 0.43841 0.28483
# Poissons Ratio (z) = 0.21137 0.20875
#
# Static dielectric constant tensor:
#      x y z
#    x 3.545690 0.000000 0.000000 
#    y 0.000000 3.731680 0.000000 
#    z 0.000000 0.000000 3.987980 
# 
# 
# High freq. dielectric constant tensor:
#      x y z
#    x 1.803150 0.000000 0.000000 
#    y 0.000000 1.815610 0.000000 
#    z 0.000000 0.000000 1.828910 
# 
# From -- ./inp_files/1743.got.cif
#   From: 2010.03.12/outbox.cif.g09.slc.cpg/sg19_1_cif.got.tgz:1743.got - 2010.04.10 18:59:41.
