data_PCOD8157886
_publ_section_title
;
Structure prediction by ZEFSAII (Michael W. Deem and Ramdas Pophale) SiO2 
 PCOD8157886
Probable space group: P 21 21 21
;
_chemical_formula_sum "Si O2"
_cell_formula_units_Z 28
_cell_length_a 7.746960
_cell_length_b 4.710992
_cell_length_c 24.949378
_cell_angle_alpha 90.000000
_cell_angle_beta 90.000000
_cell_angle_gamma 90.000000
_cell_volume 910.549171
_symmetry_space_group_name_H-M "P 21 21 21"
_symmetry_group_IT_number 19
_symmetry_cell_setting 'orthorhombic'
loop_
_space_group_symop_operation_xyz
x,y,z
1/2-x,-y,1/2+z
1/2+x,1/2-y,-z
-x,1/2+y,1/2-z
loop_
_atom_site_type_symbol
_atom_site_label
_atom_site_fract_x
_atom_site_fract_y
_atom_site_fract_z
Si Si1 0.497582 0.388930 0.284089
Si Si2 0.995437 0.357251 0.441500
Si Si3 0.529056 0.509210 0.714751
Si Si4 0.366612 0.847425 0.094965
Si Si5 0.157502 0.964074 0.954407
Si Si6 0.261407 0.347609 0.861383
Si Si7 0.199501 0.645611 0.661997
O O1 0.574557 0.067976 0.269418
O O2 0.362826 0.415732 0.334488
O O3 0.651642 0.626367 0.290863
O O4 0.143718 0.138922 0.461856
O O5 0.068478 0.512780 0.388004
O O6 0.811748 0.205414 0.427744
O O7 0.933148 0.570953 0.489954
O O8 0.534093 0.179969 0.731696
O O9 0.704662 0.620189 0.687045
O O10 0.396933 0.558160 0.666877
O O11 0.538386 0.809420 0.059727
O O12 0.400472 0.660384 0.150431
O O13 0.332158 0.178338 0.106715
O O14 0.151142 0.202446 0.908736
#
# Coordination Sequence:
#
# PCOD8157886 Si02
#       7
#     4   4   4   4   4   4   4
#     4  12  26  46  76 118 158 213 278 345 426 511
#     4  12  28  51  83 121 168 228 286 350 433 514
#     4  12  26  46  76 118 158 213 278 345 426 511
#     4  12  26  51  78 115 164 213 279 346 422 498
#     4  12  28  51  83 121 168 228 286 350 433 514
#     4  12  28  50  82 114 174 222 282 364 426 510
#     4  12  24  47  74 107 154 211 263 342 420 494
#
# _framework density 30.750672000000002
#
# number of rings (size 3 to 8) (size 9 to 14) (size 15 to 20)
#    0.000    0.000    4.286    5.143    4.000    2.286 
#    0.000    0.000    0.000    0.000    0.000    0.000 
#    0.000    0.000    0.000    0.000    0.000    0.000 
#
# Total GULP energy -346883.280776 kJ/mol
# GULP energy per Si atom -12388.688599 kJ/mol
# Density = 3.068068 g / cm^3
# Si number density = 30.750672 Si / 1000 Ang^3
#
#
#
# Elastic Constant Matrix: (Units=GPa)
#
#
# Indices 1 2 3 4 5 6 
#
# 1 144.9834 25.2529 18.6420 0.0000 0.0000 0.0000
# 2 25.2529 150.3775 18.1250 0.0000 0.0000 0.0000
# 3 18.6420 18.1250 126.3408 0.0000 0.0000 0.0000
# 4 0.0000 0.0000 0.0000 28.3402 0.0000 0.0000
# 5 0.0000 0.0000 0.0000 0.0000 67.5042 0.0000
# 6 0.0000 0.0000 0.0000 0.0000 0.0000 41.6315
#
#
#
# Elastic Compliance Matrix: (Units=1/GPa)
#
#
# Indices 1 2 3 4 5 6 
#
# 1 0.007205 -0.001101 -0.000905 0.000000 0.000000 0.000000
# 2 -0.001101 0.006935 -0.000832 0.000000 0.000000 0.000000
# 3 -0.000905 -0.000832 0.008168 0.000000 0.000000 0.000000
# 4 0.000000 0.000000 0.000000 0.035286 0.000000 0.000000
# 5 0.000000 0.000000 0.000000 0.000000 0.014814 0.000000
# 6 0.000000 0.000000 0.000000 0.000000 0.000000 0.024020
#
#
# Mechanical properties :
#
#
# Convention : Reuss Voigt Hill
#
# Bulk Modulus (GPa) = 60.12707 60.63795 60.38251
# Shear Modulus (GPa) = 46.44696 51.47394 48.96045
#
# Velocity S-wave (km/s) = 3.89065 4.09579 3.99454
# Velocity P-wave (km/s) = 6.30701 6.49071 6.39952
#
# Compressibility (1/GPa) = 0.01663145
#
# Stress axis : x y z
#
# Youngs Moduli (GPa) = 138.78299 144.19308 122.42747
#
# Poissons Ratio (x) = 0.15874 0.11083
# Poissons Ratio (y) = 0.15279 0.10192
# Poissons Ratio (z) = 0.12563 0.12004
#
# Static dielectric constant tensor:
#      x y z
#    x 5.962690 0.000000 0.000000 
#    y 0.000000 5.417770 0.000000 
#    z 0.000000 0.000000 6.467620 
# 
# 
# High freq. dielectric constant tensor:
#      x y z
#    x 2.275590 0.000000 0.000000 
#    y 0.000000 2.256360 0.000000 
#    z 0.000000 0.000000 2.301060 
# 
# From -- ./inp_files/7328.got.cif
#   From: 2010.03.12/outbox.cif.g09.slc.cpg/sg19_4_cif.got.tgz:7328.got - 2010.04.10 18:59:41.
