data_PCOD8157453
_publ_section_title
;
Structure prediction by ZEFSAII (Michael W. Deem and Ramdas Pophale) SiO2 
 PCOD8157453
Probable space group: P 21 21 21
;
_chemical_formula_sum "Si O2"
_cell_formula_units_Z 20
_cell_length_a 21.942840
_cell_length_b 7.876643
_cell_length_c 5.108137
_cell_angle_alpha 90.000000
_cell_angle_beta 90.000000
_cell_angle_gamma 90.000000
_cell_volume 882.869543
_symmetry_space_group_name_H-M "P 21 21 21"
_symmetry_group_IT_number 19
_symmetry_cell_setting 'orthorhombic'
loop_
_space_group_symop_operation_xyz
x,y,z
1/2-x,-y,1/2+z
1/2+x,1/2-y,-z
-x,1/2+y,1/2-z
loop_
_atom_site_type_symbol
_atom_site_label
_atom_site_fract_x
_atom_site_fract_y
_atom_site_fract_z
Si Si1 0.914844 0.429585 0.690718
Si Si2 0.405330 0.408640 0.556111
Si Si3 0.783221 0.556967 0.741581
Si Si4 0.279979 0.562748 0.449149
Si Si5 0.527742 0.875394 0.434990
O O1 0.898453 0.297349 0.457317
O O2 0.851954 0.499481 0.808818
O O3 0.954683 0.324564 0.907835
O O4 0.955258 0.587623 0.584872
O O5 0.340620 0.496661 0.590354
O O6 0.438010 0.479205 0.295632
O O7 0.447941 0.456415 0.798553
O O8 0.747108 0.561071 0.016913
O O9 0.783410 0.741691 0.617974
O O10 0.229670 0.540736 0.678456
#
# Coordination Sequence:
#
# PCOD8157453 Si02
#       5
#     4   4   4   4   4
#     4  10  26  43  72  97 147 176 241 283 352 418
#     4  10  24  41  67  97 136 177 234 283 342 418
#     4  12  28  46  73 105 141 187 236 295 355 419
#     4  12  25  45  70 101 141 189 237 289 354 421
#     4  10  25  41  68  98 137 179 230 286 349 402
#
# _framework density 22.653402
#
# number of rings (size 3 to 8) (size 9 to 14) (size 15 to 20)
#    1.200    0.000    0.000    4.800   11.200    0.000 
#    0.000    0.000    0.000    0.000    0.000    0.000 
#    0.000    0.000    0.000    0.000    0.000    0.000 
#
# Total GULP energy -247875.883951 kJ/mol
# GULP energy per Si atom -12393.794198 kJ/mol
# Density = 2.260184 g / cm^3
# Si number density = 22.653402 Si / 1000 Ang^3
#
#
#
# Elastic Constant Matrix: (Units=GPa)
#
#
# Indices 1 2 3 4 5 6 
#
# 1 103.9645 30.0419 -0.4650 0.0000 0.0000 0.0000
# 2 30.0419 78.2013 -0.7693 0.0000 0.0000 0.0000
# 3 -0.4650 -0.7693 101.2293 0.0000 0.0000 0.0000
# 4 0.0000 0.0000 0.0000 19.7774 0.0000 0.0000
# 5 0.0000 0.0000 0.0000 0.0000 31.7449 0.0000
# 6 0.0000 0.0000 0.0000 0.0000 0.0000 46.3918
#
#
#
# Elastic Compliance Matrix: (Units=1/GPa)
#
#
# Indices 1 2 3 4 5 6 
#
# 1 0.010820 -0.004156 0.000018 0.000000 0.000000 0.000000
# 2 -0.004156 0.014385 0.000090 0.000000 0.000000 0.000000
# 3 0.000018 0.000090 0.009879 0.000000 0.000000 0.000000
# 4 0.000000 0.000000 0.000000 0.050563 0.000000 0.000000
# 5 0.000000 0.000000 0.000000 0.000000 0.031501 0.000000
# 6 0.000000 0.000000 0.000000 0.000000 0.000000 0.021556
#
#
# Mechanical properties :
#
#
# Convention : Reuss Voigt Hill
#
# Bulk Modulus (GPa) = 37.05323 37.89001 37.47162
# Shear Modulus (GPa) = 32.09330 36.55532 34.32431
#
# Velocity S-wave (km/s) = 3.76800 4.02142 3.89677
# Velocity P-wave (km/s) = 5.94328 6.19070 6.06825
#
# Compressibility (1/GPa) = 0.02698820
#
# Stress axis : x y z
#
# Youngs Moduli (GPa) = 92.42327 69.51628 101.22137
#
# Poissons Ratio (x) = 0.28893 -0.00183
# Poissons Ratio (y) = 0.38414 -0.00913
# Poissons Ratio (z) = -0.00167 -0.00627
#
# Static dielectric constant tensor:
#      x y z
#    x 3.967900 0.000000 0.000000 
#    y 0.000000 3.841590 0.000000 
#    z 0.000000 0.000000 3.984870 
# 
# 
# High freq. dielectric constant tensor:
#      x y z
#    x 1.896900 0.000000 0.000000 
#    y 0.000000 1.879830 0.000000 
#    z 0.000000 0.000000 1.890770 
# 
# From -- ./inp_files/447.got.cif
#   From: 2010.03.12/outbox.cif.g09.slc.cpg/sg19_1_cif.got.tgz:447.got - 2010.04.10 18:59:41.
