data_PCOD8157492
_publ_section_title
;
Structure prediction by ZEFSAII (Michael W. Deem and Ramdas Pophale) SiO2 
 PCOD8157492
Probable space group: P 21 21 21
;
_chemical_formula_sum "Si O2"
_cell_formula_units_Z 28
_cell_length_a 8.419211
_cell_length_b 16.053659
_cell_length_c 9.268317
_cell_angle_alpha 90.000000
_cell_angle_beta 90.000000
_cell_angle_gamma 90.000000
_cell_volume 1252.697778
_symmetry_space_group_name_H-M "P 21 21 21"
_symmetry_group_IT_number 19
_symmetry_cell_setting 'orthorhombic'
loop_
_space_group_symop_operation_xyz
x,y,z
1/2-x,-y,1/2+z
1/2+x,1/2-y,-z
-x,1/2+y,1/2-z
loop_
_atom_site_type_symbol
_atom_site_label
_atom_site_fract_x
_atom_site_fract_y
_atom_site_fract_z
Si Si1 0.631492 0.329708 0.665895
Si Si2 0.727831 0.816395 0.737362
Si Si3 0.234392 0.145382 0.645325
Si Si4 0.649237 0.049624 0.444946
Si Si5 0.372883 0.030577 0.240942
Si Si6 0.580634 0.150503 0.694607
Si Si7 0.610180 0.087610 0.996628
O O1 0.459664 0.329785 0.741013
O O2 0.623727 0.352736 0.496543
O O3 0.746521 0.394548 0.746099
O O4 0.690630 0.233442 0.681051
O O5 0.798382 0.722615 0.746551
O O6 0.818870 0.865992 0.860117
O O7 0.772835 0.850199 0.580093
O O8 0.418339 0.160465 0.601405
O O9 0.216167 0.057087 0.724415
O O10 0.478079 0.018876 0.385764
O O11 0.661007 0.070982 0.616303
O O12 0.783609 0.981830 0.417666
O O13 0.477042 0.048576 0.098858
O O14 0.532885 0.135395 0.861275
#
# Coordination Sequence:
#
# PCOD8157492 Si02
#       7
#     4   4   4   4   4   4   4
#     4  11  24  44  72 100 135 191 232 289 349 424
#     4  10  24  45  70  99 142 178 236 287 356 419
#     4  11  24  44  71 106 133 186 236 298 347 422
#     4  11  22  46  70 100 132 190 230 280 355 423
#     4  11  26  44  74 102 139 184 244 295 348 434
#     4  11  24  44  71  99 143 180 232 290 349 426
#     4  11  26  45  66 108 142 183 230 297 358 416
#
# _framework density 22.351759000000001
#
# number of rings (size 3 to 8) (size 9 to 14) (size 15 to 20)
#    0.000    1.143    2.857    2.571    6.000    2.286 
#   15.429    0.000    0.000    0.000    0.000    0.000 
#    0.000    0.000    0.000    0.000    0.000    0.000 
#
# Total GULP energy -347077.610396 kJ/mol
# GULP energy per Si atom -12395.628943 kJ/mol
# Density = 2.230088 g / cm^3
# Si number density = 22.351759 Si / 1000 Ang^3
#
#
#
# Elastic Constant Matrix: (Units=GPa)
#
#
# Indices 1 2 3 4 5 6 
#
# 1 84.9152 43.4349 25.8111 0.0000 0.0000 0.0000
# 2 43.4349 155.4560 46.2537 0.0000 0.0000 0.0000
# 3 25.8111 46.2537 117.3199 0.0000 0.0000 0.0000
# 4 0.0000 0.0000 0.0000 31.5224 0.0000 0.0000
# 5 0.0000 0.0000 0.0000 0.0000 27.1229 0.0000
# 6 0.0000 0.0000 0.0000 0.0000 0.0000 35.3889
#
#
#
# Elastic Compliance Matrix: (Units=1/GPa)
#
#
# Indices 1 2 3 4 5 6 
#
# 1 0.014050 -0.003405 -0.001748 0.000000 0.000000 0.000000
# 2 -0.003405 0.008113 -0.002449 0.000000 0.000000 0.000000
# 3 -0.001748 -0.002449 0.009874 0.000000 0.000000 0.000000
# 4 0.000000 0.000000 0.000000 0.031723 0.000000 0.000000
# 5 0.000000 0.000000 0.000000 0.000000 0.036869 0.000000
# 6 0.000000 0.000000 0.000000 0.000000 0.000000 0.028257
#
#
# Mechanical properties :
#
#
# Convention : Reuss Voigt Hill
#
# Bulk Modulus (GPa) = 59.41613 65.41004 62.41308
# Shear Modulus (GPa) = 33.39941 34.95295 34.17618
#
# Velocity S-wave (km/s) = 3.86976 3.95874 3.91450
# Velocity P-wave (km/s) = 6.82692 7.08682 6.95808
#
# Compressibility (1/GPa) = 0.01683045
#
# Stress axis : x y z
#
# Youngs Moduli (GPa) = 71.17549 123.26033 101.27572
#
# Poissons Ratio (x) = 0.41974 0.17708
# Poissons Ratio (y) = 0.24238 0.24806
# Poissons Ratio (z) = 0.12445 0.30191
#
# Static dielectric constant tensor:
#      x y z
#    x 3.885100 0.000000 0.000000 
#    y 0.000000 4.328830 0.000000 
#    z 0.000000 0.000000 3.910660 
# 
# 
# High freq. dielectric constant tensor:
#      x y z
#    x 1.871490 0.000000 0.000000 
#    y 0.000000 1.896900 0.000000 
#    z 0.000000 0.000000 1.877460 
# 
# From -- ./inp_files/3026.got.cif
#   From: 2010.03.12/outbox.cif.g09.slc.cpg/sg19_2_cif.got.tgz:3026.got - 2010.04.10 18:59:41.
