data_PCOD8157705
_publ_section_title
;
Structure prediction by ZEFSAII (Michael W. Deem and Ramdas Pophale) SiO2 
 PCOD8157705
Probable space group: P 21 21 21
;
_chemical_formula_sum "Si O2"
_cell_formula_units_Z 24
_cell_length_a 18.665835
_cell_length_b 11.047035
_cell_length_c 5.121559
_cell_angle_alpha 90.000000
_cell_angle_beta 90.000000
_cell_angle_gamma 90.000000
_cell_volume 1056.076388
_symmetry_space_group_name_H-M "P 21 21 21"
_symmetry_group_IT_number 19
_symmetry_cell_setting 'orthorhombic'
loop_
_space_group_symop_operation_xyz
x,y,z
1/2-x,-y,1/2+z
1/2+x,1/2-y,-z
-x,1/2+y,1/2-z
loop_
_atom_site_type_symbol
_atom_site_label
_atom_site_fract_x
_atom_site_fract_y
_atom_site_fract_z
Si Si1 0.980248 0.975106 0.264264
Si Si2 0.150102 0.499790 0.545614
Si Si3 0.104704 0.306030 0.940515
Si Si4 0.745402 0.182362 0.739277
Si Si5 0.433548 0.956595 0.263886
Si Si6 0.717929 0.553857 0.170810
O O1 0.017131 0.039160 0.509131
O O2 0.955832 0.836837 0.338977
O O3 0.032407 0.979989 0.017012
O O4 0.903666 0.037525 0.189338
O O5 0.103366 0.424754 0.755254
O O6 0.215945 0.412488 0.470559
O O7 0.182940 0.625771 0.638902
O O8 0.081262 0.185343 0.796027
O O9 0.184341 0.287717 0.050108
O O10 0.769632 0.305767 0.601046
O O11 0.360411 0.028586 0.211180
O O12 0.773231 0.517393 0.399499
#
# Coordination Sequence:
#
# PCOD8157705 Si02
#       6
#     4   4   4   4   4   4
#     4  11  27  47  70 108 140 197 241 288 365 440
#     4  11  23  47  73 112 142 193 246 303 365 421
#     4  11  24  49  75 103 152 189 242 308 363 432
#     4  11  24  43  78 108 148 185 248 308 357 432
#     4  12  26  48  75 105 149 191 242 297 375 436
#     4  12  26  48  75 112 141 193 241 298 369 433
#
# _framework density 22.725625999999998
#
# number of rings (size 3 to 8) (size 9 to 14) (size 15 to 20)
#    0.000    0.667    5.000    2.000    4.667    1.333 
#    3.000    0.000    0.000    0.000    0.000    0.000 
#    0.000    0.000    0.000    0.000    0.000    0.000 
#
# Total GULP energy -297557.436167 kJ/mol
# GULP energy per Si atom -12398.226507 kJ/mol
# Density = 2.267390 g / cm^3
# Si number density = 22.725626 Si / 1000 Ang^3
#
#
#
# Elastic Constant Matrix: (Units=GPa)
#
#
# Indices 1 2 3 4 5 6 
#
# 1 109.1049 47.2939 29.7000 0.0000 0.0000 0.0000
# 2 47.2939 97.3693 23.8178 0.0000 0.0000 0.0000
# 3 29.7000 23.8178 101.1685 0.0000 0.0000 0.0000
# 4 0.0000 0.0000 0.0000 28.5708 0.0000 0.0000
# 5 0.0000 0.0000 0.0000 0.0000 43.4022 0.0000
# 6 0.0000 0.0000 0.0000 0.0000 0.0000 28.2540
#
#
#
# Elastic Compliance Matrix: (Units=1/GPa)
#
#
# Indices 1 2 3 4 5 6 
#
# 1 0.012094 -0.005312 -0.002300 0.000000 0.000000 0.000000
# 2 -0.005312 0.013231 -0.001556 0.000000 0.000000 0.000000
# 3 -0.002300 -0.001556 0.010926 0.000000 0.000000 0.000000
# 4 0.000000 0.000000 0.000000 0.035001 0.000000 0.000000
# 5 0.000000 0.000000 0.000000 0.000000 0.023040 0.000000
# 6 0.000000 0.000000 0.000000 0.000000 0.000000 0.035393
#
#
# Mechanical properties :
#
#
# Convention : Reuss Voigt Hill
#
# Bulk Modulus (GPa) = 55.81495 56.58513 56.20004
# Shear Modulus (GPa) = 32.46939 33.83413 33.15176
#
# Velocity S-wave (km/s) = 3.78399 3.86270 3.82355
# Velocity P-wave (km/s) = 6.61098 6.69681 6.65403
#
# Compressibility (1/GPa) = 0.01791635
#
# Stress axis : x y z
#
# Youngs Moduli (GPa) = 82.68539 75.58208 91.52563
#
# Poissons Ratio (x) = 0.40147 0.21050
# Poissons Ratio (y) = 0.43920 0.14237
# Poissons Ratio (z) = 0.19017 0.11757
#
# Static dielectric constant tensor:
#      x y z
#    x 4.268290 0.000000 0.000000 
#    y 0.000000 3.888320 0.000000 
#    z 0.000000 0.000000 4.198970 
# 
# 
# High freq. dielectric constant tensor:
#      x y z
#    x 1.909200 0.000000 0.000000 
#    y 0.000000 1.882890 0.000000 
#    z 0.000000 0.000000 1.903660 
# 
# From -- ./inp_files/1723.got.cif
#   From: 2010.03.12/outbox.cif.g09.slc.cpg/sg19_1_cif.got.tgz:1723.got - 2010.04.10 18:59:41.
