data_PCOD8157979
_publ_section_title
;
Structure prediction by ZEFSAII (Michael W. Deem and Ramdas Pophale) SiO2 
 PCOD8157979
Probable space group: C 2 2 21
;
_chemical_formula_sum "Si O2"
_cell_formula_units_Z 48
_cell_length_a 25.753335
_cell_length_b 14.400869
_cell_length_c 5.371393
_cell_angle_alpha 90.000000
_cell_angle_beta 90.000000
_cell_angle_gamma 90.000000
_cell_volume 1992.090690
_symmetry_space_group_name_H-M "C 2 2 21"
_symmetry_group_IT_number 20
_symmetry_cell_setting 'orthorhombic'
loop_
_space_group_symop_operation_xyz
x,y,z
-x,-y,1/2+z
x,-y,-z
-x,y,1/2-z
1/2+x,1/2+y,z
1/2-x,1/2-y,1/2+z
1/2+x,1/2-y,-z
1/2-x,1/2+y,1/2-z
loop_
_atom_site_type_symbol
_atom_site_label
_atom_site_fract_x
_atom_site_fract_y
_atom_site_fract_z
Si Si1 0.198510 0.658439 0.925875
Si Si2 0.443306 0.081896 0.334333
Si Si3 0.820698 0.146926 0.931357
Si Si4 0.357246 0.356524 0.565933
Si Si5 0.348882 0.143004 0.074244
Si Si6 0.467306 0.719992 0.497785
O O1 0.259991 0.667204 0.934364
O O2 0.173838 0.759867 0.917747
O O3 0.179114 0.604883 0.675624
O O4 0.180677 0.606063 0.177023
O O5 0.500000 0.049995 0.250000
O O6 0.407443 0.102340 0.091701
O O7 0.445703 0.175188 0.499272
O O8 0.418796 0.000000 0.500000
O O9 0.835833 0.090223 0.680055
O O10 0.851692 0.245027 0.922502
O O11 0.841232 0.091449 0.176019
O O12 0.418848 0.349016 0.530633
O O13 0.500000 0.704460 0.250000
O O14 0.500000 0.698614 0.750000
#
# Coordination Sequence:
#
# PCOD8157979 Si02
#       6
#     8   8   8   8   8   8
#     4  10  18  29  48  69  88 103 131 173 252 322
#     4  11  24  37  50  64  86 125 176 221 255 286
#     4  10  17  29  47  70  87 106 127 174 247 325
#     4  10  17  28  44  63  87 107 135 173 231 292
#     4  10  19  32  47  65  86 110 140 194 246 299
#     4  11  22  33  47  61  83 116 158 202 242 279
#
# _framework density 24.095288
#
# number of rings (size 3 to 8) (size 9 to 14) (size 15 to 20)
#    0.000    1.667    3.333    6.500    7.000    1.333 
#    0.000    0.000    0.000    0.000    0.000    0.000 
#    0.000    0.000    0.000    0.000    0.000    0.000 
#
# Total GULP energy -297428.119782 kJ/mol
# GULP energy per Si atom -12392.838324 kJ/mol
# Density = 2.404045 g / cm^3
# Si number density = 24.095288 Si / 1000 Ang^3
#
#
#
# Elastic Constant Matrix: (Units=GPa)
#
#
# Indices 1 2 3 4 5 6 
#
# 1 124.0184 18.9307 59.0660 0.0000 0.0000 0.0000
# 2 18.9307 8.6387 16.7674 0.0000 0.0000 0.0000
# 3 59.0660 16.7674 255.0320 0.0000 0.0000 0.0000
# 4 0.0000 0.0000 0.0000 1.8145 0.0000 0.0000
# 5 0.0000 0.0000 0.0000 0.0000 45.3314 0.0000
# 6 0.0000 0.0000 0.0000 0.0000 0.0000 -8.5091
#
#
#
# Elastic Compliance Matrix: (Units=1/GPa)
#
#
# Indices 1 2 3 4 5 6 
#
# 1 0.012454 -0.024867 -0.001250 0.000000 0.000000 0.000000
# 2 -0.024867 0.182341 -0.006229 0.000000 0.000000 0.000000
# 3 -0.001250 -0.006229 0.004620 0.000000 0.000000 0.000000
# 4 0.000000 0.000000 0.000000 0.551119 0.000000 0.000000
# 5 0.000000 0.000000 0.000000 0.000000 0.022060 0.000000
# 6 0.000000 0.000000 0.000000 0.000000 0.000000 -0.117521
#
#
# Mechanical properties :
#
#
# Convention : Reuss Voigt Hill
#
# Bulk Modulus (GPa) = 7.42253 64.13524 35.77888
# Shear Modulus (GPa) = 6.53874 27.25568 16.89721
#
# Velocity S-wave (km/s) = 1.64912 3.36692 2.65102
# Velocity P-wave (km/s) = 2.59100 6.46452 4.92460
#
# Compressibility (1/GPa) = 0.13472500
#
# Stress axis : x y z
#
# Youngs Moduli (GPa) = 80.29427 5.48422 216.44992
#
# Poissons Ratio (x) = 0.13637 0.27046
# Poissons Ratio (y) = 1.99665 1.34828
# Poissons Ratio (z) = 0.10033 0.03416
#
# Static dielectric constant tensor:
#      x y z
#    x 4.380190 0.000000 0.000000 
#    y 0.000000 3.442250 0.000000 
#    z 0.000000 0.000000 6.413420 
# 
# 
# High freq. dielectric constant tensor:
#      x y z
#    x 1.963210 0.000000 0.000000 
#    y 0.000000 1.880800 0.000000 
#    z 0.000000 0.000000 1.994000 
# 
# From -- ./inp_files/3749.got.cif
#   From: 2010.03.12/outbox.cif.g09.slc.cpg/sg20_2_cif.got.tgz:3749.got - 2010.04.14 01:38:04.
