data_PCOD8157452
_publ_section_title
;
Structure prediction by ZEFSAII (Michael W. Deem and Ramdas Pophale) SiO2 
 PCOD8157452
Probable space group: P 21 21 21
;
_chemical_formula_sum "Si O2"
_cell_formula_units_Z 20
_cell_length_a 5.261382
_cell_length_b 10.344991
_cell_length_c 15.005285
_cell_angle_alpha 90.000000
_cell_angle_beta 90.000000
_cell_angle_gamma 90.000000
_cell_volume 816.721899
_symmetry_space_group_name_H-M "P 21 21 21"
_symmetry_group_IT_number 19
_symmetry_cell_setting 'orthorhombic'
loop_
_space_group_symop_operation_xyz
x,y,z
1/2-x,-y,1/2+z
1/2+x,1/2-y,-z
-x,1/2+y,1/2-z
loop_
_atom_site_type_symbol
_atom_site_label
_atom_site_fract_x
_atom_site_fract_y
_atom_site_fract_z
Si Si1 0.946298 0.631619 0.242418
Si Si2 0.170023 0.004946 0.899906
Si Si3 0.682100 0.515561 0.397165
Si Si4 0.093519 0.257804 0.557778
Si Si5 0.952982 0.763233 0.698668
O O1 0.920028 0.543214 0.153969
O O2 0.922535 0.543509 0.331947
O O3 0.709145 0.733715 0.241818
O O4 0.205736 0.713033 0.239286
O O5 0.955155 0.893120 0.892138
O O6 0.053903 0.129120 0.852864
O O7 0.241736 0.036685 0.000595
O O8 0.582531 0.369507 0.378686
O O9 0.461184 0.618680 0.373259
O O10 0.874982 0.239773 0.483563
#
# Coordination Sequence:
#
# PCOD8157452 Si02
#       5
#     4   4   4   4   4
#     4  10  26  44  68 105 138 180 236 293 343 421
#     4  11  25  46  76 101 142 197 226 299 361 413
#     4   9  25  44  71 100 143 178 234 290 345 427
#     4  10  24  41  67 103 137 180 234 280 353 418
#     4  10  26  45  70 101 142 179 246 286 344 425
#
# _framework density 24.488142
#
# number of rings (size 3 to 8) (size 9 to 14) (size 15 to 20)
#    1.200    0.800    0.000    0.000   11.200    9.600 
#    3.600    0.000    0.000    0.000    0.000    0.000 
#    0.000    0.000    0.000    0.000    0.000    0.000 
#
# Total GULP energy -247828.425435 kJ/mol
# GULP energy per Si atom -12391.421272 kJ/mol
# Density = 2.443241 g / cm^3
# Si number density = 24.488142 Si / 1000 Ang^3
#
#
#
# Elastic Constant Matrix: (Units=GPa)
#
#
# Indices 1 2 3 4 5 6 
#
# 1 114.2296 30.4576 8.3530 0.0000 0.0000 0.0000
# 2 30.4576 158.5136 -3.1538 0.0000 0.0000 0.0000
# 3 8.3530 -3.1538 80.9177 0.0000 0.0000 0.0000
# 4 0.0000 0.0000 0.0000 44.4916 0.0000 0.0000
# 5 0.0000 0.0000 0.0000 0.0000 35.5468 0.0000
# 6 0.0000 0.0000 0.0000 0.0000 0.0000 28.0542
#
#
#
# Elastic Compliance Matrix: (Units=1/GPa)
#
#
# Indices 1 2 3 4 5 6 
#
# 1 0.009312 -0.001810 -0.001032 0.000000 0.000000 0.000000
# 2 -0.001810 0.006665 0.000447 0.000000 0.000000 0.000000
# 3 -0.001032 0.000447 0.012482 0.000000 0.000000 0.000000
# 4 0.000000 0.000000 0.000000 0.022476 0.000000 0.000000
# 5 0.000000 0.000000 0.000000 0.000000 0.028132 0.000000
# 6 0.000000 0.000000 0.000000 0.000000 0.000000 0.035645
#
#
# Mechanical properties :
#
#
# Convention : Reuss Voigt Hill
#
# Bulk Modulus (GPa) = 42.24834 47.21940 44.73387
# Shear Modulus (GPa) = 39.24861 42.81880 41.03371
#
# Velocity S-wave (km/s) = 4.00779 4.18611 4.09792
# Velocity P-wave (km/s) = 6.22146 6.53369 6.37948
#
# Compressibility (1/GPa) = 0.02366957
#
# Stress axis : x y z
#
# Youngs Moduli (GPa) = 107.38466 150.03202 80.11438
#
# Poissons Ratio (x) = 0.27153 0.08266
# Poissons Ratio (y) = 0.19435 -0.03578
# Poissons Ratio (z) = 0.11080 -0.06701
#
# Static dielectric constant tensor:
#      x y z
#    x 4.088260 0.000000 0.000000 
#    y 0.000000 4.574000 0.000000 
#    z 0.000000 0.000000 4.330100 
# 
# 
# High freq. dielectric constant tensor:
#      x y z
#    x 1.959830 0.000000 0.000000 
#    y 0.000000 1.980610 0.000000 
#    z 0.000000 0.000000 1.985520 
# 
# From -- ./inp_files/5623.got.cif
#   From: 2010.03.12/outbox.cif.g09.slc.cpg/sg19_3_cif.got.tgz:5623.got - 2010.04.10 18:59:41.
