data_PCOD8157965
_publ_section_title
;
Structure prediction by ZEFSAII (Michael W. Deem and Ramdas Pophale) SiO2 
 PCOD8157965
Probable space group: C 2 2 21
;
_chemical_formula_sum "Si O2"
_cell_formula_units_Z 48
_cell_length_a 13.128483
_cell_length_b 12.182290
_cell_length_c 16.535818
_cell_angle_alpha 90.000000
_cell_angle_beta 90.000000
_cell_angle_gamma 90.000000
_cell_volume 2644.655840
_symmetry_space_group_name_H-M "C 2 2 21"
_symmetry_group_IT_number 20
_symmetry_cell_setting 'orthorhombic'
loop_
_space_group_symop_operation_xyz
x,y,z
-x,-y,1/2+z
x,-y,-z
-x,y,1/2-z
1/2+x,1/2+y,z
1/2-x,1/2-y,1/2+z
1/2+x,1/2-y,-z
1/2-x,1/2+y,1/2-z
loop_
_atom_site_type_symbol
_atom_site_label
_atom_site_fract_x
_atom_site_fract_y
_atom_site_fract_z
Si Si1 0.656667 0.469601 0.847688
Si Si2 0.211292 0.757974 0.925350
Si Si3 0.017869 0.626598 0.980265
Si Si4 0.566989 0.693747 0.589693
Si Si5 0.696613 0.100335 0.559963
Si Si6 0.485386 0.500000 0.500000
Si Si7 0.000000 0.080255 0.750000
O O1 0.694597 0.344355 0.851452
O O2 0.748369 0.558181 0.858569
O O3 0.582886 0.476216 0.923669
O O4 0.597204 0.500232 0.765459
O O5 0.115418 0.677249 0.934878
O O6 0.312336 0.696472 0.896313
O O7 0.232234 0.811482 0.013795
O O8 0.918534 0.641498 0.921269
O O9 0.043654 0.500000 0.000000
O O10 0.986079 0.691644 0.062760
O O11 0.553216 0.606444 0.517373
O O12 0.514883 0.657209 0.672871
O O13 0.679839 0.000000 0.500000
#
# Coordination Sequence:
#
# PCOD8157965 Si02
#       7
#     8   8   8   8   8   4   4
#     4  10  16  34  57  78 103 145 188 230 268 333
#     4  10  17  31  53  79 110 135 177 234 276 323
#     4  10  19  32  54  88 110 140 179 233 284 338
#     4  10  21  35  56  84 112 147 187 241 280 333
#     4   8  15  29  53  77 102 140 179 219 272 324
#     4  10  16  32  58  80 100 132 194 242 262 300
#     4  10  22  36  56  78 110 150 194 230 286 328
#
# _framework density 18.149808
#
# number of rings (size 3 to 8) (size 9 to 14) (size 15 to 20)
#    0.000    2.333    4.167    2.000    1.167    0.000 
#    0.000    3.333    0.000    1.000    0.000    0.000 
#    0.000    0.000    0.000    0.000    0.000    0.000 
#
# Total GULP energy -297381.538374 kJ/mol
# GULP energy per Si atom -12390.897432 kJ/mol
# Density = 1.810850 g / cm^3
# Si number density = 18.149808 Si / 1000 Ang^3
#
#
#
# Elastic Constant Matrix: (Units=GPa)
#
#
# Indices 1 2 3 4 5 6 
#
# 1 115.7862 47.3708 17.1180 0.0000 0.0000 0.0000
# 2 47.3708 106.0493 25.9774 0.0000 0.0000 0.0000
# 3 17.1180 25.9774 43.6669 0.0000 0.0000 0.0000
# 4 0.0000 0.0000 0.0000 18.0174 0.0000 0.0000
# 5 0.0000 0.0000 0.0000 0.0000 27.9543 0.0000
# 6 0.0000 0.0000 0.0000 0.0000 0.0000 41.6465
#
#
#
# Elastic Compliance Matrix: (Units=1/GPa)
#
#
# Indices 1 2 3 4 5 6 
#
# 1 0.010660 -0.004376 -0.001576 0.000000 0.000000 0.000000
# 2 -0.004376 0.012834 -0.005920 0.000000 0.000000 0.000000
# 3 -0.001576 -0.005920 0.027040 0.000000 0.000000 0.000000
# 4 0.000000 0.000000 0.000000 0.055502 0.000000 0.000000
# 5 0.000000 0.000000 0.000000 0.000000 0.035773 0.000000
# 6 0.000000 0.000000 0.000000 0.000000 0.000000 0.024012
#
#
# Mechanical properties :
#
#
# Convention : Reuss Voigt Hill
#
# Bulk Modulus (GPa) = 37.32490 49.60387 43.46438
# Shear Modulus (GPa) = 25.18984 29.19273 27.19129
#
# Velocity S-wave (km/s) = 3.72947 4.01488 3.87480
# Velocity P-wave (km/s) = 6.25738 6.99156 6.63463
#
# Compressibility (1/GPa) = 0.02679177
#
# Stress axis : x y z
#
# Youngs Moduli (GPa) = 93.81119 77.91710 36.98225
#
# Poissons Ratio (x) = 0.34093 0.05827
# Poissons Ratio (y) = 0.41048 0.21893
# Poissons Ratio (z) = 0.14782 0.46125
#
# Static dielectric constant tensor:
#      x y z
#    x 3.755640 0.000000 0.000000 
#    y 0.000000 3.816900 0.000000 
#    z 0.000000 0.000000 2.466300 
# 
# 
# High freq. dielectric constant tensor:
#      x y z
#    x 1.721740 0.000000 0.000000 
#    y 0.000000 1.706880 0.000000 
#    z 0.000000 0.000000 1.644280 
# 
# From -- ./inp_files/20681.got.cif
#   From: 2010.03.12/outbox.cif.g09.slc.cpg/sg20_11_cif.got.tgz:20681.got - 2010.04.14 01:38:04.
