data_PCOD8157976
_publ_section_title
;
Structure prediction by ZEFSAII (Michael W. Deem and Ramdas Pophale) SiO2 
 PCOD8157976
Probable space group: C 2 2 21
;
_chemical_formula_sum "Si O2"
_cell_formula_units_Z 48
_cell_length_a 15.823130
_cell_length_b 8.265178
_cell_length_c 16.981456
_cell_angle_alpha 90.000000
_cell_angle_beta 90.000000
_cell_angle_gamma 90.000000
_cell_volume 2220.851559
_symmetry_space_group_name_H-M "C 2 2 21"
_symmetry_group_IT_number 20
_symmetry_cell_setting 'orthorhombic'
loop_
_space_group_symop_operation_xyz
x,y,z
-x,-y,1/2+z
x,-y,-z
-x,y,1/2-z
1/2+x,1/2+y,z
1/2-x,1/2-y,1/2+z
1/2+x,1/2-y,-z
1/2-x,1/2+y,1/2-z
loop_
_atom_site_type_symbol
_atom_site_label
_atom_site_fract_x
_atom_site_fract_y
_atom_site_fract_z
Si Si1 0.351604 0.832657 0.293415
Si Si2 0.500000 0.069576 0.250000
Si Si3 0.297528 0.067563 0.416118
Si Si4 0.426716 0.000000 0.000000
Si Si5 0.145227 0.727377 0.622163
Si Si6 0.980168 0.922796 0.662327
Si Si7 0.030100 0.736947 0.099870
O O1 0.309656 0.798570 0.207851
O O2 0.390913 0.673545 0.335194
O O3 0.424888 0.956594 0.275013
O O4 0.287131 0.919514 0.353522
O O5 0.476395 0.179872 0.175645
O O6 0.207784 0.155659 0.425047
O O7 0.371590 0.190357 0.391334
O O8 0.324070 0.000000 0.500000
O O9 0.367877 0.937441 0.071905
O O10 0.485588 0.152812 0.024807
O O11 0.053267 0.803015 0.634252
O O12 0.000000 0.988944 0.750000
O O13 0.973877 0.067947 0.598870
#
# Coordination Sequence:
#
# PCOD8157976 Si02
#       7
#     8   4   8   4   8   8   8
#     4  10  20  45  70  90 136 173 221 269 332 399
#     4  10  16  38  70  92 122 166 220 262 314 398
#     4  11  26  45  61  95 139 176 214 274 343 394
#     4  12  24  44  66  94 136 176 228 274 338 392
#     4  11  24  44  65 101 132 174 220 284 333 395
#     4  10  21  40  72 101 122 165 238 277 317 403
#     4  11  22  40  69  95 127 177 220 269 335 403
#
# _framework density 21.613330999999999
#
# number of rings (size 3 to 8) (size 9 to 14) (size 15 to 20)
#    0.000    1.333    5.833    1.000    2.333    2.667 
#    6.000    0.000    0.000    0.000    0.000    0.000 
#    0.000    0.000    0.000    0.000    0.000    0.000 
#
# Total GULP energy -297517.816228 kJ/mol
# GULP energy per Si atom -12396.575676 kJ/mol
# Density = 2.156414 g / cm^3
# Si number density = 21.613331 Si / 1000 Ang^3
#
#
#
# Elastic Constant Matrix: (Units=GPa)
#
#
# Indices 1 2 3 4 5 6 
#
# 1 50.0006 27.1869 20.0216 0.0000 0.0000 0.0000
# 2 27.1869 109.0588 45.5572 0.0000 0.0000 0.0000
# 3 20.0216 45.5572 103.4170 0.0000 0.0000 0.0000
# 4 0.0000 0.0000 0.0000 41.8816 0.0000 0.0000
# 5 0.0000 0.0000 0.0000 0.0000 17.4254 0.0000
# 6 0.0000 0.0000 0.0000 0.0000 0.0000 22.3039
#
#
#
# Elastic Compliance Matrix: (Units=1/GPa)
#
#
# Indices 1 2 3 4 5 6 
#
# 1 0.023622 -0.004875 -0.002425 0.000000 0.000000 0.000000
# 2 -0.004875 0.012243 -0.004450 0.000000 0.000000 0.000000
# 3 -0.002425 -0.004450 0.012099 0.000000 0.000000 0.000000
# 4 0.000000 0.000000 0.000000 0.023877 0.000000 0.000000
# 5 0.000000 0.000000 0.000000 0.000000 0.057388 0.000000
# 6 0.000000 0.000000 0.000000 0.000000 0.000000 0.044835
#
#
# Mechanical properties :
#
#
# Convention : Reuss Voigt Hill
#
# Bulk Modulus (GPa) = 40.87698 49.77865 45.32782
# Shear Modulus (GPa) = 24.30490 27.63624 25.97057
#
# Velocity S-wave (km/s) = 3.35704 3.57972 3.47017
# Velocity P-wave (km/s) = 5.82926 6.33777 6.08883
#
# Compressibility (1/GPa) = 0.02446365
#
# Stress axis : x y z
#
# Youngs Moduli (GPa) = 42.33357 81.67612 82.64938
#
# Poissons Ratio (x) = 0.39821 0.20047
# Poissons Ratio (y) = 0.20639 0.36776
# Poissons Ratio (z) = 0.10268 0.36343
#
# Static dielectric constant tensor:
#      x y z
#    x 3.661020 0.000000 0.000000 
#    y 0.000000 4.068900 0.000000 
#    z 0.000000 0.000000 4.976340 
# 
# 
# High freq. dielectric constant tensor:
#      x y z
#    x 1.813960 0.000000 0.000000 
#    y 0.000000 1.848810 0.000000 
#    z 0.000000 0.000000 1.860050 
# 
# From -- ./inp_files/24831.got.cif
#   From: 2010.03.12/outbox.cif.g09.slc.cpg/sg20_13_cif.got.tgz:24831.got - 2010.04.14 01:38:04.
