data_PCOD8157324
_publ_section_title
;
Structure prediction by ZEFSAII (Michael W. Deem and Ramdas Pophale) SiO2 
 PCOD8157324
Probable space group: P 21 21 21
;
_chemical_formula_sum "Si O2"
_cell_formula_units_Z 28
_cell_length_a 6.430259
_cell_length_b 14.254297
_cell_length_c 13.747772
_cell_angle_alpha 90.000000
_cell_angle_beta 90.000000
_cell_angle_gamma 90.000000
_cell_volume 1260.104581
_symmetry_space_group_name_H-M "P 21 21 21"
_symmetry_group_IT_number 19
_symmetry_cell_setting 'orthorhombic'
loop_
_space_group_symop_operation_xyz
x,y,z
1/2-x,-y,1/2+z
1/2+x,1/2-y,-z
-x,1/2+y,1/2-z
loop_
_atom_site_type_symbol
_atom_site_label
_atom_site_fract_x
_atom_site_fract_y
_atom_site_fract_z
Si Si1 0.591878 0.821866 0.386953
Si Si2 0.092472 0.050875 0.548791
Si Si3 0.237844 0.512972 0.111788
Si Si4 0.011242 0.655484 0.238546
Si Si5 0.371449 0.789293 0.188244
Si Si6 0.821066 0.640727 0.438917
Si Si7 0.374633 0.133578 0.390979
O O1 0.769781 0.900997 0.368525
O O2 0.488721 0.782499 0.290073
O O3 0.685790 0.734184 0.443284
O O4 0.426655 0.871929 0.456919
O O5 0.093666 0.104328 0.652157
O O6 0.243025 0.118943 0.487611
O O7 0.174568 0.948688 0.574982
O O8 0.872701 0.040673 0.491287
O O9 0.478969 0.542678 0.117838
O O10 0.122124 0.561602 0.201466
O O11 0.996524 0.649075 0.355078
O O12 0.775560 0.653125 0.200303
O O13 0.135635 0.750027 0.205022
O O14 0.476316 0.724170 0.104991
#
# Coordination Sequence:
#
# PCOD8157324 Si02
#       7
#     4   4   4   4   4   4   4
#     4  12  25  45  69  99 140 187 236 284 344 424
#     4  11  26  42  73 104 139 184 231 290 357 417
#     4  10  24  45  70 104 141 179 229 294 348 418
#     4  10  24  45  70 104 141 179 229 294 348 418
#     4  11  26  42  73 104 139 184 231 290 357 417
#     4  12  25  45  69  99 140 187 236 284 344 424
#     4  10  22  48  66 104 138 174 230 288 346 416
#
# _framework density 22.220379999999999
#
# number of rings (size 3 to 8) (size 9 to 14) (size 15 to 20)
#    0.000    1.143    2.857    1.714    8.000    2.286 
#    0.000    0.000    0.000    0.000    0.000    0.000 
#    0.000    0.000    0.000    0.000    0.000    0.000 
#
# Total GULP energy -347113.512899 kJ/mol
# GULP energy per Si atom -12396.911175 kJ/mol
# Density = 2.216981 g / cm^3
# Si number density = 22.220380 Si / 1000 Ang^3
#
#
#
# Elastic Constant Matrix: (Units=GPa)
#
#
# Indices 1 2 3 4 5 6 
#
# 1 108.3040 42.4489 28.5875 0.0000 0.0000 0.0000
# 2 42.4489 147.9103 26.2131 0.0000 0.0000 0.0000
# 3 28.5875 26.2131 70.1493 0.0000 0.0000 0.0000
# 4 0.0000 0.0000 0.0000 32.8405 0.0000 0.0000
# 5 0.0000 0.0000 0.0000 0.0000 33.2696 0.0000
# 6 0.0000 0.0000 0.0000 0.0000 0.0000 37.6260
#
#
#
# Elastic Compliance Matrix: (Units=1/GPa)
#
#
# Indices 1 2 3 4 5 6 
#
# 1 0.011192 -0.002574 -0.003599 0.000000 0.000000 0.000000
# 2 -0.002574 0.007832 -0.001878 0.000000 0.000000 0.000000
# 3 -0.003599 -0.001878 0.016424 0.000000 0.000000 0.000000
# 4 0.000000 0.000000 0.000000 0.030450 0.000000 0.000000
# 5 0.000000 0.000000 0.000000 0.000000 0.030057 0.000000
# 6 0.000000 0.000000 0.000000 0.000000 0.000000 0.026577
#
#
# Mechanical properties :
#
#
# Convention : Reuss Voigt Hill
#
# Bulk Modulus (GPa) = 51.68997 57.87365 54.78181
# Shear Modulus (GPa) = 34.46271 36.02149 35.24210
#
# Velocity S-wave (km/s) = 3.94248 4.03066 3.98681
# Velocity P-wave (km/s) = 6.63605 6.91111 6.77498
#
# Compressibility (1/GPa) = 0.01934611
#
# Stress axis : x y z
#
# Youngs Moduli (GPa) = 89.34762 127.67470 60.88753
#
# Poissons Ratio (x) = 0.32866 0.21915
# Poissons Ratio (y) = 0.23000 0.11433
# Poissons Ratio (z) = 0.32158 0.23974
#
# Static dielectric constant tensor:
#      x y z
#    x 4.208740 0.000000 0.000000 
#    y 0.000000 3.983500 0.000000 
#    z 0.000000 0.000000 3.887560 
# 
# 
# High freq. dielectric constant tensor:
#      x y z
#    x 1.873830 0.000000 0.000000 
#    y 0.000000 1.887320 0.000000 
#    z 0.000000 0.000000 1.870590 
# 
# From -- ./inp_files/5711.got.cif
#   From: 2010.03.12/outbox.cif.g09.slc.cpg/sg19_3_cif.got.tgz:5711.got - 2010.04.10 18:59:41.
