data_PCOD8157607
_publ_section_title
;
Structure prediction by ZEFSAII (Michael W. Deem and Ramdas Pophale) SiO2 
 PCOD8157607
Probable space group: P 21 21 21
;
_chemical_formula_sum "Si O2"
_cell_formula_units_Z 32
_cell_length_a 17.518454
_cell_length_b 13.129999
_cell_length_c 6.604221
_cell_angle_alpha 90.000000
_cell_angle_beta 90.000000
_cell_angle_gamma 90.000000
_cell_volume 1519.084974
_symmetry_space_group_name_H-M "P 21 21 21"
_symmetry_group_IT_number 19
_symmetry_cell_setting 'orthorhombic'
loop_
_space_group_symop_operation_xyz
x,y,z
1/2-x,-y,1/2+z
1/2+x,1/2-y,-z
-x,1/2+y,1/2-z
loop_
_atom_site_type_symbol
_atom_site_label
_atom_site_fract_x
_atom_site_fract_y
_atom_site_fract_z
Si Si1 0.488607 0.719641 0.312043
Si Si2 0.346500 0.976892 0.783063
Si Si3 0.007175 0.463355 0.082833
Si Si4 0.256252 0.676059 0.823554
Si Si5 0.747589 0.360299 0.401403
Si Si6 0.163013 0.206375 0.986458
Si Si7 0.090668 0.405552 0.478039
Si Si8 0.905671 0.091265 0.732093
O O1 0.523615 0.620750 0.423695
O O2 0.425314 0.765873 0.461441
O O3 0.555531 0.800479 0.277348
O O4 0.450680 0.685229 0.100465
O O5 0.329604 0.898532 0.605051
O O6 0.435762 0.976676 0.827576
O O7 0.320461 0.087757 0.704639
O O8 0.302658 0.946898 0.988343
O O9 0.054053 0.408107 0.257720
O O10 0.061604 0.545395 0.975176
O O11 0.292790 0.704966 0.606996
O O12 0.319638 0.619811 0.959978
O O13 0.185050 0.602205 0.790766
O O14 0.224934 0.776745 0.937331
O O15 0.697752 0.303576 0.234815
O O16 0.078741 0.514169 0.584443
#
# Coordination Sequence:
#
# PCOD8157607 Si02
#       8
#     4   4   4   4   4   4   4   4
#     4  11  24  46  67  97 135 170 225 275 331 395
#     4  11  24  41  67  99 135 172 226 268 340 397
#     4  11  26  44  68  97 132 182 216 274 337 396
#     4  11  26  43  69  98 133 179 223 271 338 391
#     4  11  23  41  66 100 132 173 218 279 327 392
#     4  11  22  43  68  92 136 177 211 276 337 387
#     4  11  25  46  68  98 132 179 218 276 334 392
#     4  11  28  44  69 101 133 174 227 277 322 402
#
# _framework density 21.065311999999999
#
# number of rings (size 3 to 8) (size 9 to 14) (size 15 to 20)
#    0.000    1.000    3.750    1.500    7.000    3.000 
#    0.000    0.000    0.000    0.000    0.000    0.000 
#    0.000    0.000    0.000    0.000    0.000    0.000 
#
# Total GULP energy -396977.786702 kJ/mol
# GULP energy per Si atom -12405.555834 kJ/mol
# Density = 2.101737 g / cm^3
# Si number density = 21.065312 Si / 1000 Ang^3
#
#
#
# Elastic Constant Matrix: (Units=GPa)
#
#
# Indices 1 2 3 4 5 6 
#
# 1 98.2717 31.3682 30.1461 0.0000 0.0000 0.0000
# 2 31.3682 84.0959 26.8556 0.0000 0.0000 0.0000
# 3 30.1461 26.8556 99.7742 0.0000 0.0000 0.0000
# 4 0.0000 0.0000 0.0000 25.9488 0.0000 0.0000
# 5 0.0000 0.0000 0.0000 0.0000 35.5070 0.0000
# 6 0.0000 0.0000 0.0000 0.0000 0.0000 39.5327
#
#
#
# Elastic Compliance Matrix: (Units=1/GPa)
#
#
# Indices 1 2 3 4 5 6 
#
# 1 0.012176 -0.003684 -0.002687 0.000000 0.000000 0.000000
# 2 -0.003684 0.014124 -0.002689 0.000000 0.000000 0.000000
# 3 -0.002687 -0.002689 0.011558 0.000000 0.000000 0.000000
# 4 0.000000 0.000000 0.000000 0.038537 0.000000 0.000000
# 5 0.000000 0.000000 0.000000 0.000000 0.028163 0.000000
# 6 0.000000 0.000000 0.000000 0.000000 0.000000 0.025296
#
#
# Mechanical properties :
#
#
# Convention : Reuss Voigt Hill
#
# Bulk Modulus (GPa) = 50.66138 50.98686 50.82412
# Shear Modulus (GPa) = 32.35128 33.11582 32.73355
#
# Velocity S-wave (km/s) = 3.92313 3.96922 3.94624
# Velocity P-wave (km/s) = 6.68006 6.72777 6.70396
#
# Compressibility (1/GPa) = 0.01973890
#
# Stress axis : x y z
#
# Youngs Moduli (GPa) = 82.12845 70.80269 86.51779
#
# Poissons Ratio (x) = 0.26080 0.23251
# Poissons Ratio (y) = 0.30252 0.23262
# Poissons Ratio (z) = 0.22072 0.19036
#
# Static dielectric constant tensor:
#      x y z
#    x 3.633790 0.000000 0.000000 
#    y 0.000000 3.750040 0.000000 
#    z 0.000000 0.000000 3.890770 
# 
# 
# High freq. dielectric constant tensor:
#      x y z
#    x 1.820740 0.000000 0.000000 
#    y 0.000000 1.829580 0.000000 
#    z 0.000000 0.000000 1.838500 
# 
# From -- ./inp_files/1837.got.cif
#   From: 2010.03.12/outbox.cif.g09.slc.cpg/sg19_1_cif.got.tgz:1837.got - 2010.04.10 18:59:41.
