data_PCOD8157590
_publ_section_title
;
Structure prediction by ZEFSAII (Michael W. Deem and Ramdas Pophale) SiO2 
 PCOD8157590
Probable space group: P 21 21 21
;
_chemical_formula_sum "Si O2"
_cell_formula_units_Z 28
_cell_length_a 7.860194
_cell_length_b 17.212329
_cell_length_c 9.431357
_cell_angle_alpha 90.000000
_cell_angle_beta 90.000000
_cell_angle_gamma 90.000000
_cell_volume 1275.989463
_symmetry_space_group_name_H-M "P 21 21 21"
_symmetry_group_IT_number 19
_symmetry_cell_setting 'orthorhombic'
loop_
_space_group_symop_operation_xyz
x,y,z
1/2-x,-y,1/2+z
1/2+x,1/2-y,-z
-x,1/2+y,1/2-z
loop_
_atom_site_type_symbol
_atom_site_label
_atom_site_fract_x
_atom_site_fract_y
_atom_site_fract_z
Si Si1 0.148274 0.364945 0.118763
Si Si2 0.648757 0.642187 0.408659
Si Si3 0.750647 0.744673 0.164657
Si Si4 0.351744 0.469450 0.744631
Si Si5 0.030494 0.646022 0.018255
Si Si6 0.989018 0.593674 0.514091
Si Si7 0.979992 0.512341 0.801019
O O1 0.139048 0.311246 0.257842
O O2 0.099289 0.452116 0.162807
O O3 0.339028 0.359158 0.053409
O O4 0.007399 0.335572 0.009609
O O5 0.631431 0.701150 0.278176
O O6 0.831179 0.652806 0.488391
O O7 0.648826 0.552631 0.356529
O O8 0.867490 0.679405 0.096397
O O9 0.637084 0.782606 0.043070
O O10 0.354084 0.399884 0.631159
O O11 0.166707 0.474731 0.814941
O O12 0.484075 0.455510 0.870867
O O13 0.966892 0.590312 0.892801
O O14 0.939404 0.533883 0.638738
#
# Coordination Sequence:
#
# PCOD8157590 Si02
#       7
#     4   4   4   4   4   4   4
#     4  11  26  49  72 108 148 201 243 309 385 451
#     4  12  27  45  75 110 145 197 246 316 374 446
#     4  12  30  46  72 114 157 191 248 322 397 441
#     4  11  21  48  77 101 143 199 252 301 366 461
#     4  12  26  50  71 113 149 196 253 310 386 460
#     4  11  24  43  74 107 142 184 257 304 360 449
#     4  11  24  45  75 105 142 198 251 304 366 460
#
# _framework density 21.943754999999999
#
# number of rings (size 3 to 8) (size 9 to 14) (size 15 to 20)
#    0.000    0.571    7.143    0.857    8.000    1.143 
#    0.000    0.000    0.000    0.000    0.000    0.000 
#    0.000    0.000    0.000    0.000    0.000    0.000 
#
# Total GULP energy -347364.466134 kJ/mol
# GULP energy per Si atom -12405.873790 kJ/mol
# Density = 2.189381 g / cm^3
# Si number density = 21.943755 Si / 1000 Ang^3
#
#
#
# Elastic Constant Matrix: (Units=GPa)
#
#
# Indices 1 2 3 4 5 6 
#
# 1 89.3578 28.3771 42.7648 0.0000 0.0000 0.0000
# 2 28.3771 76.1569 22.8031 0.0000 0.0000 0.0000
# 3 42.7648 22.8031 111.0183 0.0000 0.0000 0.0000
# 4 0.0000 0.0000 0.0000 54.1551 0.0000 0.0000
# 5 0.0000 0.0000 0.0000 0.0000 34.6418 0.0000
# 6 0.0000 0.0000 0.0000 0.0000 0.0000 30.7216
#
#
#
# Elastic Compliance Matrix: (Units=1/GPa)
#
#
# Indices 1 2 3 4 5 6 
#
# 1 0.014812 -0.004060 -0.004872 0.000000 0.000000 0.000000
# 2 -0.004060 0.015104 -0.001538 0.000000 0.000000 0.000000
# 3 -0.004872 -0.001538 0.011200 0.000000 0.000000 0.000000
# 4 0.000000 0.000000 0.000000 0.018465 0.000000 0.000000
# 5 0.000000 0.000000 0.000000 0.000000 0.028867 0.000000
# 6 0.000000 0.000000 0.000000 0.000000 0.000000 0.032550
#
#
# Mechanical properties :
#
#
# Convention : Reuss Voigt Hill
#
# Bulk Modulus (GPa) = 49.56487 51.60255 50.58371
# Shear Modulus (GPa) = 33.63268 36.07623 34.85446
#
# Velocity S-wave (km/s) = 3.91919 4.05907 3.98974
# Velocity P-wave (km/s) = 6.56630 6.74795 6.65775
#
# Compressibility (1/GPa) = 0.02017558
#
# Stress axis : x y z
#
# Youngs Moduli (GPa) = 67.51342 66.20597 89.28530
#
# Poissons Ratio (x) = 0.26883 0.43496
# Poissons Ratio (y) = 0.27413 0.13735
# Poissons Ratio (z) = 0.32890 0.10185
#
# Static dielectric constant tensor:
#      x y z
#    x 3.824670 0.000000 0.000000 
#    y 0.000000 3.919960 0.000000 
#    z 0.000000 0.000000 4.216420 
# 
# 
# High freq. dielectric constant tensor:
#      x y z
#    x 1.853640 0.000000 0.000000 
#    y 0.000000 1.863260 0.000000 
#    z 0.000000 0.000000 1.881510 
# 
# From -- ./inp_files/3016.got.cif
#   From: 2010.03.12/outbox.cif.g09.slc.cpg/sg19_2_cif.got.tgz:3016.got - 2010.04.10 18:59:41.
