data_PCOD8157862
_publ_section_title
;
Structure prediction by ZEFSAII (Michael W. Deem and Ramdas Pophale) SiO2 
 PCOD8157862
Probable space group: P 21 21 21
;
_chemical_formula_sum "Si O2"
_cell_formula_units_Z 28
_cell_length_a 5.078063
_cell_length_b 18.375851
_cell_length_c 14.018717
_cell_angle_alpha 90.000000
_cell_angle_beta 90.000000
_cell_angle_gamma 90.000000
_cell_volume 1308.138760
_symmetry_space_group_name_H-M "P 21 21 21"
_symmetry_group_IT_number 19
_symmetry_cell_setting 'orthorhombic'
loop_
_space_group_symop_operation_xyz
x,y,z
1/2-x,-y,1/2+z
1/2+x,1/2-y,-z
-x,1/2+y,1/2-z
loop_
_atom_site_type_symbol
_atom_site_label
_atom_site_fract_x
_atom_site_fract_y
_atom_site_fract_z
Si Si1 0.017927 0.079521 0.721084
Si Si2 0.516392 0.006406 0.818375
Si Si3 0.501928 0.838464 0.761118
Si Si4 0.500222 0.249081 0.263771
Si Si5 0.564222 0.273637 0.048836
Si Si6 0.954559 0.600052 0.434504
Si Si7 0.455451 0.512504 0.455699
O O1 0.000702 0.166268 0.710476
O O2 0.017431 0.057233 0.609556
O O3 0.281524 0.054730 0.775413
O O4 0.782112 0.043445 0.780922
O O5 0.493187 0.923089 0.787350
O O6 0.504535 0.000749 0.932543
O O7 0.254579 0.793508 0.802419
O O8 0.510860 0.838775 0.646003
O O9 0.750651 0.795358 0.804851
O O10 0.502523 0.243042 0.150894
O O11 0.871861 0.269443 0.022496
O O12 0.499019 0.359974 0.036720
O O13 0.156579 0.533438 0.429688
O O14 0.655795 0.574430 0.420429
#
# Coordination Sequence:
#
# PCOD8157862 Si02
#       7
#     4   4   4   4   4   4   4
#     4  12  25  45  67  97 134 172 215 277 327 379
#     4  12  25  44  70  96 129 176 224 265 323 387
#     4  12  23  42  64  93 129 172 212 261 323 388
#     4  12  24  40  60  94 134 167 210 270 327 383
#     4  12  21  32  54  86 121 156 195 247 322 387
#     4  12  22  40  64  91 131 166 208 273 322 385
#     4  12  24  43  67  95 124 169 228 267 314 383
#
# _framework density 21.404458999999999
#
# number of rings (size 3 to 8) (size 9 to 14) (size 15 to 20)
#    0.000    0.000    5.714    6.000    0.000    0.000 
#    0.000    1.429    0.000    0.000    0.000    0.000 
#    0.000    0.000    0.000    0.000    0.000    0.000 
#
# Total GULP energy -347061.724005 kJ/mol
# GULP energy per Si atom -12395.061572 kJ/mol
# Density = 2.135574 g / cm^3
# Si number density = 21.404459 Si / 1000 Ang^3
#
#
#
# Elastic Constant Matrix: (Units=GPa)
#
#
# Indices 1 2 3 4 5 6 
#
# 1 131.4290 42.0375 13.7591 0.0000 0.0000 0.0000
# 2 42.0375 132.7448 2.1613 0.0000 0.0000 0.0000
# 3 13.7591 2.1613 54.1956 0.0000 0.0000 0.0000
# 4 0.0000 0.0000 0.0000 32.4265 0.0000 0.0000
# 5 0.0000 0.0000 0.0000 0.0000 17.1270 0.0000
# 6 0.0000 0.0000 0.0000 0.0000 0.0000 40.4265
#
#
#
# Elastic Compliance Matrix: (Units=1/GPa)
#
#
# Indices 1 2 3 4 5 6 
#
# 1 0.008699 -0.002720 -0.002100 0.000000 0.000000 0.000000
# 2 -0.002720 0.008389 0.000356 0.000000 0.000000 0.000000
# 3 -0.002100 0.000356 0.018971 0.000000 0.000000 0.000000
# 4 0.000000 0.000000 0.000000 0.030839 0.000000 0.000000
# 5 0.000000 0.000000 0.000000 0.000000 0.058387 0.000000
# 6 0.000000 0.000000 0.000000 0.000000 0.000000 0.024736
#
#
# Mechanical properties :
#
#
# Convention : Reuss Voigt Hill
#
# Bulk Modulus (GPa) = 36.86000 48.25391 42.55696
# Shear Modulus (GPa) = 29.76320 35.35675 32.55998
#
# Velocity S-wave (km/s) = 3.73301 4.06869 3.90446
# Velocity P-wave (km/s) = 5.98653 6.68320 6.34443
#
# Compressibility (1/GPa) = 0.02712968
#
# Stress axis : x y z
#
# Youngs Moduli (GPa) = 114.96027 119.20405 52.71312
#
# Poissons Ratio (x) = 0.32429 0.11069
# Poissons Ratio (y) = 0.31275 -0.01877
# Poissons Ratio (z) = 0.24141 -0.04245
#
# Static dielectric constant tensor:
#      x y z
#    x 4.138670 0.000000 0.000000 
#    y 0.000000 3.886610 0.000000 
#    z 0.000000 0.000000 3.884180 
# 
# 
# High freq. dielectric constant tensor:
#      x y z
#    x 1.862000 0.000000 0.000000 
#    y 0.000000 1.847020 0.000000 
#    z 0.000000 0.000000 1.814620 
# 
# From -- ./inp_files/1516.got.cif
#   From: 2010.03.12/outbox.cif.g09.slc.cpg/sg19_1_cif.got.tgz:1516.got - 2010.04.10 18:59:41.
