data_PCOD8157198
_publ_section_title
;
Structure prediction by ZEFSAII (Michael W. Deem and Ramdas Pophale) SiO2 
 PCOD8157198
Probable space group: P 21 21 21
;
_chemical_formula_sum "Si O2"
_cell_formula_units_Z 28
_cell_length_a 5.030653
_cell_length_b 30.005945
_cell_length_c 7.595570
_cell_angle_alpha 90.000000
_cell_angle_beta 90.000000
_cell_angle_gamma 90.000000
_cell_volume 1146.547473
_symmetry_space_group_name_H-M "P 21 21 21"
_symmetry_group_IT_number 19
_symmetry_cell_setting 'orthorhombic'
loop_
_space_group_symop_operation_xyz
x,y,z
1/2-x,-y,1/2+z
1/2+x,1/2-y,-z
-x,1/2+y,1/2-z
loop_
_atom_site_type_symbol
_atom_site_label
_atom_site_fract_x
_atom_site_fract_y
_atom_site_fract_z
Si Si1 0.508667 0.305457 0.951335
Si Si2 0.968534 0.871792 0.169552
Si Si3 0.351740 0.448051 0.189139
Si Si4 0.990303 0.785664 0.329949
Si Si5 0.505340 0.480359 0.549827
Si Si6 0.771870 0.603668 0.483994
Si Si7 0.001026 0.428406 0.655566
O O1 0.706180 0.292187 0.109754
O O2 0.568285 0.355838 0.887234
O O3 0.204765 0.303470 0.015640
O O4 0.553045 0.267572 0.797267
O O5 0.925152 0.817834 0.161706
O O6 0.176184 0.879942 0.326382
O O7 0.706600 0.899928 0.222322
O O8 0.071165 0.888563 0.980665
O O9 0.485136 0.479785 0.337165
O O10 0.077455 0.470608 0.120131
O O11 0.542222 0.439599 0.021002
O O12 0.804241 0.469560 0.609612
O O13 0.302620 0.444302 0.633676
O O14 0.537077 0.588771 0.353762
#
# Coordination Sequence:
#
# PCOD8157198 Si02
#       7
#     4   4   4   4   4   4   4
#     4   9  18  32  58  95 114 159 203 248 301 371
#     4  10  22  41  62  90 124 164 207 252 315 371
#     4  11  23  40  65  86 125 162 212 256 317 370
#     4   9  17  33  60  87 125 152 203 252 301 365
#     4  11  26  42  60  92 122 162 209 264 309 369
#     4  11  22  39  66  88 126 163 209 252 314 373
#     4  11  26  41  61  92 126 158 211 256 309 371
#
# _framework density 24.421143000000001
#
# number of rings (size 3 to 8) (size 9 to 14) (size 15 to 20)
#    0.000    1.714    2.857    0.857    6.000    0.000 
#    0.000    0.000    0.000   17.143    0.000    0.000 
#    0.000    0.000    0.000    0.000    0.000    0.000 
#
# Total GULP energy -347001.742983 kJ/mol
# GULP energy per Si atom -12392.919392 kJ/mol
# Density = 2.436556 g / cm^3
# Si number density = 24.421143 Si / 1000 Ang^3
#
#
#
# Elastic Constant Matrix: (Units=GPa)
#
#
# Indices 1 2 3 4 5 6 
#
# 1 46.2710 -15.8596 0.9275 0.0000 0.0000 0.0000
# 2 -15.8596 69.2731 14.7833 0.0000 0.0000 0.0000
# 3 0.9275 14.7833 64.0119 0.0000 0.0000 0.0000
# 4 0.0000 0.0000 0.0000 22.9884 0.0000 0.0000
# 5 0.0000 0.0000 0.0000 0.0000 29.5041 0.0000
# 6 0.0000 0.0000 0.0000 0.0000 0.0000 28.5851
#
#
#
# Elastic Compliance Matrix: (Units=1/GPa)
#
#
# Indices 1 2 3 4 5 6 
#
# 1 0.023621 0.005765 -0.001674 0.000000 0.000000 0.000000
# 2 0.005765 0.016591 -0.003915 0.000000 0.000000 0.000000
# 3 -0.001674 -0.003915 0.016551 0.000000 0.000000 0.000000
# 4 0.000000 0.000000 0.000000 0.043500 0.000000 0.000000
# 5 0.000000 0.000000 0.000000 0.000000 0.033894 0.000000
# 6 0.000000 0.000000 0.000000 0.000000 0.000000 0.034983
#
#
# Mechanical properties :
#
#
# Convention : Reuss Voigt Hill
#
# Bulk Modulus (GPa) = 17.50840 19.91761 18.71301
# Shear Modulus (GPa) = 26.62041 28.19585 27.40813
#
# Velocity S-wave (km/s) = 3.30518 3.40158 3.35373
# Velocity P-wave (km/s) = 4.66375 4.85811 4.76192
#
# Compressibility (1/GPa) = 0.05711543
#
# Stress axis : x y z
#
# Youngs Moduli (GPa) = 42.33455 60.27359 60.42105
#
# Poissons Ratio (x) = -0.34748 0.10113
# Poissons Ratio (y) = -0.24406 0.23656
# Poissons Ratio (z) = 0.07086 0.23598
#
# Static dielectric constant tensor:
#      x y z
#    x 4.192530 0.000000 0.000000 
#    y 0.000000 5.095050 0.000000 
#    z 0.000000 0.000000 3.971390 
# 
# 
# High freq. dielectric constant tensor:
#      x y z
#    x 1.972510 0.000000 0.000000 
#    y 0.000000 1.985230 0.000000 
#    z 0.000000 0.000000 1.922060 
# 
# From -- ./inp_files/2462.got.cif
#   From: 2010.03.12/outbox.cif.g09.slc.cpg/sg19_2_cif.got.tgz:2462.got - 2010.04.10 18:59:41.
