data_PCOD8157380
_publ_section_title
;
Structure prediction by ZEFSAII (Michael W. Deem and Ramdas Pophale) SiO2 
 PCOD8157380
Probable space group: P 21 21 21
;
_chemical_formula_sum "Si O2"
_cell_formula_units_Z 32
_cell_length_a 9.039017
_cell_length_b 18.969326
_cell_length_c 8.871365
_cell_angle_alpha 90.000000
_cell_angle_beta 90.000000
_cell_angle_gamma 90.000000
_cell_volume 1521.120262
_symmetry_space_group_name_H-M "P 21 21 21"
_symmetry_group_IT_number 19
_symmetry_cell_setting 'orthorhombic'
loop_
_space_group_symop_operation_xyz
x,y,z
1/2-x,-y,1/2+z
1/2+x,1/2-y,-z
-x,1/2+y,1/2-z
loop_
_atom_site_type_symbol
_atom_site_label
_atom_site_fract_x
_atom_site_fract_y
_atom_site_fract_z
Si Si1 0.062380 0.250795 0.644132
Si Si2 0.799792 0.612911 0.207188
Si Si3 0.027684 0.384722 0.828583
Si Si4 0.062365 0.514633 0.663727
Si Si5 0.833597 0.598561 0.856741
Si Si6 0.780856 0.770198 0.155875
Si Si7 0.154183 0.402931 0.147590
Si Si8 0.445849 0.012460 0.652158
O O1 0.156844 0.181371 0.686471
O O2 0.126331 0.287607 0.494225
O O3 0.077472 0.306544 0.779732
O O4 0.892164 0.230994 0.613551
O O5 0.638865 0.597014 0.276655
O O6 0.833874 0.695624 0.224031
O O7 0.918721 0.568330 0.300457
O O8 0.822065 0.589299 0.035478
O O9 0.126477 0.444732 0.746659
O O10 0.044254 0.391647 0.007749
O O11 0.191982 0.562562 0.594096
O O12 0.975103 0.559236 0.789706
O O13 0.958938 0.488346 0.527816
O O14 0.685588 0.563810 0.789926
O O15 0.815379 0.827277 0.281169
O O16 0.091695 0.456762 0.271052
#
# Coordination Sequence:
#
# PCOD8157380 Si02
#       8
#     4   4   4   4   4   4   4   4
#     4  10  23  44  70  95 135 175 229 283 345 418
#     4  10  23  43  68  98 125 176 226 278 337 411
#     4  11  23  44  65  95 139 175 224 282 341 413
#     4  12  24  44  68  99 141 174 229 286 346 408
#     4  11  21  43  71  97 130 175 230 286 337 414
#     4  10  23  46  66  99 131 175 229 278 353 412
#     4  12  27  44  64 103 142 181 222 290 349 417
#     4  12  24  42  70 102 133 183 237 273 356 409
#
# _framework density 21.037127999999999
#
# number of rings (size 3 to 8) (size 9 to 14) (size 15 to 20)
#    0.000    1.000    3.750    2.250    5.250    1.000 
#   11.250    0.000    0.000    0.000    0.000    0.000 
#    0.000    0.000    0.000    0.000    0.000    0.000 
#
# Total GULP energy -396863.416500 kJ/mol
# GULP energy per Si atom -12401.981766 kJ/mol
# Density = 2.098925 g / cm^3
# Si number density = 21.037128 Si / 1000 Ang^3
#
#
#
# Elastic Constant Matrix: (Units=GPa)
#
#
# Indices 1 2 3 4 5 6 
#
# 1 80.3373 39.6695 43.7180 0.0000 0.0000 0.0000
# 2 39.6695 119.8996 50.4532 0.0000 0.0000 0.0000
# 3 43.7180 50.4532 111.9682 0.0000 0.0000 0.0000
# 4 0.0000 0.0000 0.0000 35.8026 0.0000 0.0000
# 5 0.0000 0.0000 0.0000 0.0000 30.9202 0.0000
# 6 0.0000 0.0000 0.0000 0.0000 0.0000 33.9756
#
#
#
# Elastic Compliance Matrix: (Units=1/GPa)
#
#
# Indices 1 2 3 4 5 6 
#
# 1 0.016902 -0.003474 -0.005034 0.000000 0.000000 0.000000
# 2 -0.003474 0.011006 -0.003603 0.000000 0.000000 0.000000
# 3 -0.005034 -0.003603 0.012520 0.000000 0.000000 0.000000
# 4 0.000000 0.000000 0.000000 0.027931 0.000000 0.000000
# 5 0.000000 0.000000 0.000000 0.000000 0.032341 0.000000
# 6 0.000000 0.000000 0.000000 0.000000 0.000000 0.029433
#
#
# Mechanical properties :
#
#
# Convention : Reuss Voigt Hill
#
# Bulk Modulus (GPa) = 61.70385 64.43180 63.06783
# Shear Modulus (GPa) = 31.29746 32.03064 31.66405
#
# Velocity S-wave (km/s) = 3.86129 3.90625 3.88384
# Velocity P-wave (km/s) = 7.01954 7.14418 7.08213
#
# Compressibility (1/GPa) = 0.01620644
#
# Stress axis : x y z
#
# Youngs Moduli (GPa) = 59.16317 90.86179 79.87120
#
# Poissons Ratio (x) = 0.31564 0.40209
# Poissons Ratio (y) = 0.20553 0.28776
# Poissons Ratio (z) = 0.29784 0.32736
#
# Static dielectric constant tensor:
#      x y z
#    x 3.695690 0.000000 0.000000 
#    y 0.000000 4.013880 0.000000 
#    z 0.000000 0.000000 3.600150 
# 
# 
# High freq. dielectric constant tensor:
#      x y z
#    x 1.816360 0.000000 0.000000 
#    y 0.000000 1.844050 0.000000 
#    z 0.000000 0.000000 1.818600 
# 
# From -- ./inp_files/3102.got.cif
#   From: 2010.03.12/outbox.cif.g09.slc.cpg/sg19_2_cif.got.tgz:3102.got - 2010.04.10 18:59:41.
