data_PCOD8157527
_publ_section_title
;
Structure prediction by ZEFSAII (Michael W. Deem and Ramdas Pophale) SiO2 
 PCOD8157527
Probable space group: P 21 21 21
;
_chemical_formula_sum "Si O2"
_cell_formula_units_Z 20
_cell_length_a 11.261003
_cell_length_b 14.838880
_cell_length_c 5.064941
_cell_angle_alpha 90.000000
_cell_angle_beta 90.000000
_cell_angle_gamma 90.000000
_cell_volume 846.355046
_symmetry_space_group_name_H-M "P 21 21 21"
_symmetry_group_IT_number 19
_symmetry_cell_setting 'orthorhombic'
loop_
_space_group_symop_operation_xyz
x,y,z
1/2-x,-y,1/2+z
1/2+x,1/2-y,-z
-x,1/2+y,1/2-z
loop_
_atom_site_type_symbol
_atom_site_label
_atom_site_fract_x
_atom_site_fract_y
_atom_site_fract_z
Si Si1 0.500207 0.641274 0.764114
Si Si2 0.428396 0.814500 0.009657
Si Si3 0.779009 0.444625 0.506044
Si Si4 0.778769 0.944297 0.480372
Si Si5 0.928347 0.185588 0.025634
O O1 0.585875 0.576974 0.930725
O O2 0.413093 0.578401 0.596896
O O3 0.577122 0.705519 0.565911
O O4 0.424571 0.705899 0.963144
O O5 0.295171 0.851769 0.995779
O O6 0.487508 0.840135 0.284301
O O7 0.509982 0.860354 0.781806
O O8 0.779164 0.486259 0.798194
O O9 0.703855 0.851604 0.488295
O O10 0.780882 0.988971 0.768461
#
# Coordination Sequence:
#
# PCOD8157527 Si02
#       5
#     4   4   4   4   4
#     4  10  30  46  80 102 148 202 242 294 368 440
#     4  10  25  46  76 100 147 192 251 285 362 438
#     4  12  29  46  75 111 152 186 246 307 370 422
#     4  12  29  46  75 111 152 186 246 307 370 422
#     4  10  25  46  76 100 147 192 251 285 362 438
#
# _framework density 23.630745000000001
#
# number of rings (size 3 to 8) (size 9 to 14) (size 15 to 20)
#    1.200    0.000    0.000    2.400   19.600    0.000 
#    0.000    0.000    0.000    0.000    0.000    0.000 
#    0.000    0.000    0.000    0.000    0.000    0.000 
#
# Total GULP energy -248041.545563 kJ/mol
# GULP energy per Si atom -12402.077278 kJ/mol
# Density = 2.357696 g / cm^3
# Si number density = 23.630745 Si / 1000 Ang^3
#
#
#
# Elastic Constant Matrix: (Units=GPa)
#
#
# Indices 1 2 3 4 5 6 
#
# 1 83.9103 25.2870 -15.4518 0.0000 0.0000 0.0000
# 2 25.2870 81.2787 0.1492 0.0000 0.0000 0.0000
# 3 -15.4518 0.1492 83.1598 0.0000 0.0000 0.0000
# 4 0.0000 0.0000 0.0000 22.2288 0.0000 0.0000
# 5 0.0000 0.0000 0.0000 0.0000 36.9292 0.0000
# 6 0.0000 0.0000 0.0000 0.0000 0.0000 47.7563
#
#
#
# Elastic Compliance Matrix: (Units=1/GPa)
#
#
# Indices 1 2 3 4 5 6 
#
# 1 0.013670 -0.004258 0.002548 0.000000 0.000000 0.000000
# 2 -0.004258 0.013629 -0.000816 0.000000 0.000000 0.000000
# 3 0.002548 -0.000816 0.012500 0.000000 0.000000 0.000000
# 4 0.000000 0.000000 0.000000 0.044987 0.000000 0.000000
# 5 0.000000 0.000000 0.000000 0.000000 0.027079 0.000000
# 6 0.000000 0.000000 0.000000 0.000000 0.000000 0.020940
#
#
# Mechanical properties :
#
#
# Convention : Reuss Voigt Hill
#
# Bulk Modulus (GPa) = 28.77864 29.81308 29.29586
# Shear Modulus (GPa) = 33.45877 37.27382 35.36630
#
# Velocity S-wave (km/s) = 3.76693 3.97589 3.87282
# Velocity P-wave (km/s) = 5.57894 5.80694 5.69408
#
# Compressibility (1/GPa) = 0.03474799
#
# Stress axis : x y z
#
# Youngs Moduli (GPa) = 73.15471 73.37073 80.00089
#
# Poissons Ratio (x) = 0.31238 -0.20381
# Poissons Ratio (y) = 0.31146 0.06524
# Poissons Ratio (z) = -0.18637 0.05984
#
# Static dielectric constant tensor:
#      x y z
#    x 3.888730 0.000000 0.000000 
#    y 0.000000 4.085820 0.000000 
#    z 0.000000 0.000000 4.317830 
# 
# 
# High freq. dielectric constant tensor:
#      x y z
#    x 1.927420 0.000000 0.000000 
#    y 0.000000 1.929230 0.000000 
#    z 0.000000 0.000000 1.946230 
# 
# From -- ./inp_files/861.got.cif
#   From: 2010.03.12/outbox.cif.g09.slc.cpg/sg19_1_cif.got.tgz:861.got - 2010.04.10 18:59:41.
