data_PCOD8157812
_publ_section_title
;
Structure prediction by ZEFSAII (Michael W. Deem and Ramdas Pophale) SiO2 
 PCOD8157812
Probable space group: P 21 21 21
;
_chemical_formula_sum "Si O2"
_cell_formula_units_Z 20
_cell_length_a 8.174589
_cell_length_b 10.485284
_cell_length_c 9.511957
_cell_angle_alpha 90.000000
_cell_angle_beta 90.000000
_cell_angle_gamma 90.000000
_cell_volume 815.297298
_symmetry_space_group_name_H-M "P 21 21 21"
_symmetry_group_IT_number 19
_symmetry_cell_setting 'orthorhombic'
loop_
_space_group_symop_operation_xyz
x,y,z
1/2-x,-y,1/2+z
1/2+x,1/2-y,-z
-x,1/2+y,1/2-z
loop_
_atom_site_type_symbol
_atom_site_label
_atom_site_fract_x
_atom_site_fract_y
_atom_site_fract_z
Si Si1 0.472978 0.047042 0.084995
Si Si2 0.441947 0.667877 0.696468
Si Si3 0.320147 0.317859 0.419811
Si Si4 0.541338 0.092854 0.393898
Si Si5 0.591676 0.447301 0.869186
O O1 0.566785 0.075219 0.229690
O O2 0.281438 0.073909 0.094292
O O3 0.515412 0.899970 0.053828
O O4 0.561710 0.134148 0.968017
O O5 0.267854 0.643130 0.772485
O O6 0.573796 0.574415 0.772086
O O7 0.479433 0.820343 0.708403
O O8 0.374491 0.172060 0.418720
O O9 0.200339 0.334851 0.551037
O O10 0.509256 0.964280 0.484781
#
# Coordination Sequence:
#
# PCOD8157812 Si02
#       5
#     4   4   4   4   4
#     4  12  25  46  78 109 151 199 257 311 387 446
#     4  11  27  49  75 115 156 198 265 311 382 457
#     4  11  25  48  71 111 147 206 248 322 372 464
#     4  11  25  46  75 103 154 197 254 305 391 443
#     4  11  26  49  77 112 156 204 248 323 376 462
#
# _framework density 24.530930000000001
#
# number of rings (size 3 to 8) (size 9 to 14) (size 15 to 20)
#    0.000    0.800    2.000    3.600    8.400    3.200 
#   14.400    0.000    0.000    0.000    0.000    0.000 
#    0.000    0.000    0.000    0.000    0.000    0.000 
#
# Total GULP energy -247943.948653 kJ/mol
# GULP energy per Si atom -12397.197433 kJ/mol
# Density = 2.447510 g / cm^3
# Si number density = 24.530930 Si / 1000 Ang^3
#
#
#
# Elastic Constant Matrix: (Units=GPa)
#
#
# Indices 1 2 3 4 5 6 
#
# 1 66.9414 30.3885 21.5015 0.0000 0.0000 0.0000
# 2 30.3885 118.6905 34.6129 0.0000 0.0000 0.0000
# 3 21.5015 34.6129 161.8314 0.0000 0.0000 0.0000
# 4 0.0000 0.0000 0.0000 34.8806 0.0000 0.0000
# 5 0.0000 0.0000 0.0000 0.0000 28.1499 0.0000
# 6 0.0000 0.0000 0.0000 0.0000 0.0000 43.2779
#
#
#
# Elastic Compliance Matrix: (Units=1/GPa)
#
#
# Indices 1 2 3 4 5 6 
#
# 1 0.017209 -0.003988 -0.001434 0.000000 0.000000 0.000000
# 2 -0.003988 0.009910 -0.001590 0.000000 0.000000 0.000000
# 3 -0.001434 -0.001590 0.006710 0.000000 0.000000 0.000000
# 4 0.000000 0.000000 0.000000 0.028669 0.000000 0.000000
# 5 0.000000 0.000000 0.000000 0.000000 0.035524 0.000000
# 6 0.000000 0.000000 0.000000 0.000000 0.000000 0.023106
#
#
# Mechanical properties :
#
#
# Convention : Reuss Voigt Hill
#
# Bulk Modulus (GPa) = 50.48871 57.82991 54.15931
# Shear Modulus (GPa) = 35.27250 38.65903 36.96576
#
# Velocity S-wave (km/s) = 3.79605 3.97411 3.88610
# Velocity P-wave (km/s) = 6.31187 6.68457 6.50089
#
# Compressibility (1/GPa) = 0.01980641
#
# Stress axis : x y z
#
# Youngs Moduli (GPa) = 58.10813 100.90881 149.03706
#
# Poissons Ratio (x) = 0.40243 0.21365
# Poissons Ratio (y) = 0.23174 0.23692
# Poissons Ratio (z) = 0.08330 0.16041
#
# Static dielectric constant tensor:
#      x y z
#    x 4.100480 0.000000 0.000000 
#    y 0.000000 4.662710 0.000000 
#    z 0.000000 0.000000 4.589920 
# 
# 
# High freq. dielectric constant tensor:
#      x y z
#    x 1.965500 0.000000 0.000000 
#    y 0.000000 1.975840 0.000000 
#    z 0.000000 0.000000 1.986290 
# 
# From -- ./inp_files/2599.got.cif
#   From: 2010.03.12/outbox.cif.g09.slc.cpg/sg19_2_cif.got.tgz:2599.got - 2010.04.10 18:59:41.
