data_PCOD8157725
_publ_section_title
;
Structure prediction by ZEFSAII (Michael W. Deem and Ramdas Pophale) SiO2 
 PCOD8157725
Probable space group: P 21 21 21
;
_chemical_formula_sum "Si O2"
_cell_formula_units_Z 32
_cell_length_a 11.450871
_cell_length_b 15.588057
_cell_length_c 8.970124
_cell_angle_alpha 90.000000
_cell_angle_beta 90.000000
_cell_angle_gamma 90.000000
_cell_volume 1601.138697
_symmetry_space_group_name_H-M "P 21 21 21"
_symmetry_group_IT_number 19
_symmetry_cell_setting 'orthorhombic'
loop_
_space_group_symop_operation_xyz
x,y,z
1/2-x,-y,1/2+z
1/2+x,1/2-y,-z
-x,1/2+y,1/2-z
loop_
_atom_site_type_symbol
_atom_site_label
_atom_site_fract_x
_atom_site_fract_y
_atom_site_fract_z
Si Si1 0.739622 0.607050 0.900748
Si Si2 0.497488 0.862770 0.078141
Si Si3 0.279633 0.063695 0.265963
Si Si4 0.102532 0.182649 0.099715
Si Si5 0.596480 0.762945 0.802430
Si Si6 0.925936 0.099748 0.883406
Si Si7 0.275123 0.669996 0.427417
Si Si8 0.026432 0.456722 0.827577
O O1 0.860074 0.661045 0.917281
O O2 0.751899 0.534235 0.775866
O O3 0.635179 0.667969 0.847029
O O4 0.707575 0.564162 0.056915
O O5 0.553724 0.838514 0.239108
O O6 0.510000 0.966106 0.051677
O O7 0.566982 0.813755 0.951969
O O8 0.180176 0.128611 0.213793
O O9 0.403133 0.091538 0.194070
O O10 0.016277 0.243486 0.195388
O O11 0.183581 0.239845 0.994502
O O12 0.027953 0.115951 0.002572
O O13 0.700312 0.812962 0.720004
O O14 0.932240 0.000297 0.829556
O O15 0.799323 0.118537 0.950321
O O16 0.384769 0.612998 0.385374
#
# Coordination Sequence:
#
# PCOD8157725 Si02
#       8
#     4   4   4   4   4   4   4   4
#     4  11  24  42  68  99 132 174 221 272 336 390
#     4   9  21  42  64  97 135 168 220 270 327 389
#     4  11  24  42  70  96 133 177 221 281 324 401
#     4  11  24  44  64 103 132 173 225 274 337 391
#     4  11  25  42  68 100 134 174 221 282 329 399
#     4   9  22  43  65  92 135 171 220 278 319 400
#     4  11  25  40  70  95 135 179 218 275 333 403
#     4   9  23  41  67  94 128 178 220 262 335 387
#
# _framework density 19.985776000000001
#
# number of rings (size 3 to 8) (size 9 to 14) (size 15 to 20)
#    0.750    1.000    1.250    1.500    8.750    2.000 
#    0.000    1.250    0.000    0.000    0.000    0.000 
#    0.000    0.000    0.000    0.000    0.000    0.000 
#
# Total GULP energy -396783.620362 kJ/mol
# GULP energy per Si atom -12399.488136 kJ/mol
# Density = 1.994029 g / cm^3
# Si number density = 19.985776 Si / 1000 Ang^3
#
#
#
# Elastic Constant Matrix: (Units=GPa)
#
#
# Indices 1 2 3 4 5 6 
#
# 1 109.3036 33.9788 39.3329 0.0000 0.0000 0.0000
# 2 33.9788 62.9808 29.2173 0.0000 0.0000 0.0000
# 3 39.3329 29.2173 106.7738 0.0000 0.0000 0.0000
# 4 0.0000 0.0000 0.0000 26.1441 0.0000 0.0000
# 5 0.0000 0.0000 0.0000 0.0000 33.7448 0.0000
# 6 0.0000 0.0000 0.0000 0.0000 0.0000 34.5705
#
#
#
# Elastic Compliance Matrix: (Units=1/GPa)
#
#
# Indices 1 2 3 4 5 6 
#
# 1 0.011763 -0.004967 -0.002974 0.000000 0.000000 0.000000
# 2 -0.004967 0.020283 -0.003721 0.000000 0.000000 0.000000
# 3 -0.002974 -0.003721 0.011479 0.000000 0.000000 0.000000
# 4 0.000000 0.000000 0.000000 0.038250 0.000000 0.000000
# 5 0.000000 0.000000 0.000000 0.000000 0.029634 0.000000
# 6 0.000000 0.000000 0.000000 0.000000 0.000000 0.028926
#
#
# Mechanical properties :
#
#
# Convention : Reuss Voigt Hill
#
# Bulk Modulus (GPa) = 49.49794 53.79070 51.64432
# Shear Modulus (GPa) = 29.34390 30.66050 30.00220
#
# Velocity S-wave (km/s) = 3.83592 3.92103 3.87871
# Velocity P-wave (km/s) = 6.66629 6.89001 6.77907
#
# Compressibility (1/GPa) = 0.02020286
#
# Stress axis : x y z
#
# Youngs Moduli (GPa) = 85.01225 49.30131 87.11296
#
# Poissons Ratio (x) = 0.24486 0.25909
# Poissons Ratio (y) = 0.42222 0.32413
# Poissons Ratio (z) = 0.25284 0.18344
#
# Static dielectric constant tensor:
#      x y z
#    x 3.740170 0.000000 0.000000 
#    y 0.000000 3.333850 0.000000 
#    z 0.000000 0.000000 3.682340 
# 
# 
# High freq. dielectric constant tensor:
#      x y z
#    x 1.790620 0.000000 0.000000 
#    y 0.000000 1.760180 0.000000 
#    z 0.000000 0.000000 1.786900 
# 
# From -- ./inp_files/3651.got.cif
#   From: 2010.03.12/outbox.cif.g09.slc.cpg/sg19_2_cif.got.tgz:3651.got - 2010.04.10 18:59:41.
