data_PCOD8157596
_publ_section_title
;
Structure prediction by ZEFSAII (Michael W. Deem and Ramdas Pophale) SiO2 
 PCOD8157596
Probable space group: P 21 21 21
;
_chemical_formula_sum "Si O2"
_cell_formula_units_Z 32
_cell_length_a 6.656477
_cell_length_b 10.907923
_cell_length_c 21.668408
_cell_angle_alpha 90.000000
_cell_angle_beta 90.000000
_cell_angle_gamma 90.000000
_cell_volume 1573.307104
_symmetry_space_group_name_H-M "P 21 21 21"
_symmetry_group_IT_number 19
_symmetry_cell_setting 'orthorhombic'
loop_
_space_group_symop_operation_xyz
x,y,z
1/2-x,-y,1/2+z
1/2+x,1/2-y,-z
-x,1/2+y,1/2-z
loop_
_atom_site_type_symbol
_atom_site_label
_atom_site_fract_x
_atom_site_fract_y
_atom_site_fract_z
Si Si1 0.750154 0.481161 0.769321
Si Si2 0.482902 0.457916 0.157476
Si Si3 0.155566 0.604070 0.222789
Si Si4 0.071619 0.321776 0.829920
Si Si5 0.401325 0.172904 0.647006
Si Si6 0.726083 0.016034 0.585269
Si Si7 0.106980 0.160682 0.536362
Si Si8 0.964390 0.429051 0.523777
O O1 0.518797 0.445260 0.765744
O O2 0.747997 0.611336 0.803248
O O3 0.843305 0.489241 0.701333
O O4 0.862733 0.389245 0.815573
O O5 0.270248 0.490330 0.189747
O O6 0.513373 0.313636 0.147373
O O7 0.490477 0.524900 0.092018
O O8 0.304664 0.681153 0.266428
O O9 0.052507 0.691531 0.172006
O O10 0.198542 0.389878 0.883587
O O11 0.608197 0.098466 0.635801
O O12 0.279247 0.187459 0.585185
O O13 0.579336 0.985815 0.527003
O O14 0.918525 0.090112 0.562928
O O15 0.043551 0.291772 0.510114
O O16 0.221288 0.075579 0.485231
#
# Coordination Sequence:
#
# PCOD8157596 Si02
#       8
#     4   4   4   4   4   4   4   4
#     4  11  24  39  67  97 127 173 209 266 333 388
#     4  11  26  43  63  99 136 172 216 268 331 399
#     4  11  24  40  66 100 131 167 216 269 326 394
#     4  11  24  43  63  93 140 172 213 268 326 406
#     4  11  22  40  68  94 124 168 217 265 329 385
#     4  11  24  42  66  91 128 171 218 273 326 384
#     4  11  22  41  68  93 124 162 220 277 319 376
#     4  11  24  42  65  95 126 169 221 270 326 382
#
# _framework density 20.339321000000002
#
# number of rings (size 3 to 8) (size 9 to 14) (size 15 to 20)
#    0.000    1.000    6.250    0.000    3.500    1.000 
#    2.250    0.000    0.000    0.000    0.000    0.000 
#    0.000    0.000    0.000    0.000    0.000    0.000 
#
# Total GULP energy -396718.045957 kJ/mol
# GULP energy per Si atom -12397.438936 kJ/mol
# Density = 2.029303 g / cm^3
# Si number density = 20.339321 Si / 1000 Ang^3
#
#
#
# Elastic Constant Matrix: (Units=GPa)
#
#
# Indices 1 2 3 4 5 6 
#
# 1 110.8656 35.2850 38.9117 0.0000 0.0000 0.0000
# 2 35.2850 89.2860 29.2544 0.0000 0.0000 0.0000
# 3 38.9117 29.2544 93.5498 0.0000 0.0000 0.0000
# 4 0.0000 0.0000 0.0000 33.3832 0.0000 0.0000
# 5 0.0000 0.0000 0.0000 0.0000 32.8259 0.0000
# 6 0.0000 0.0000 0.0000 0.0000 0.0000 22.2567
#
#
#
# Elastic Compliance Matrix: (Units=1/GPa)
#
#
# Indices 1 2 3 4 5 6 
#
# 1 0.011362 -0.003278 -0.003701 0.000000 0.000000 0.000000
# 2 -0.003278 0.013424 -0.002835 0.000000 0.000000 0.000000
# 3 -0.003701 -0.002835 0.013115 0.000000 0.000000 0.000000
# 4 0.000000 0.000000 0.000000 0.029955 0.000000 0.000000
# 5 0.000000 0.000000 0.000000 0.000000 0.030464 0.000000
# 6 0.000000 0.000000 0.000000 0.000000 0.000000 0.044930
#
#
# Mechanical properties :
#
#
# Convention : Reuss Voigt Hill
#
# Bulk Modulus (GPa) = 54.71960 55.62263 55.17111
# Shear Modulus (GPa) = 29.59125 30.37649 29.98387
#
# Velocity S-wave (km/s) = 3.81843 3.86876 3.84367
# Velocity P-wave (km/s) = 6.81192 6.88208 6.84709
#
# Compressibility (1/GPa) = 0.01827499
#
# Stress axis : x y z
#
# Youngs Moduli (GPa) = 88.01207 74.49360 76.24644
#
# Poissons Ratio (x) = 0.24416 0.28219
# Poissons Ratio (y) = 0.28846 0.21613
# Poissons Ratio (z) = 0.32574 0.21116
#
# Static dielectric constant tensor:
#      x y z
#    x 4.064980 0.000000 0.000000 
#    y 0.000000 3.562650 0.000000 
#    z 0.000000 0.000000 3.827860 
# 
# 
# High freq. dielectric constant tensor:
#      x y z
#    x 1.806550 0.000000 0.000000 
#    y 0.000000 1.775160 0.000000 
#    z 0.000000 0.000000 1.803120 
# 
# From -- ./inp_files/1983.got.cif
#   From: 2010.03.12/outbox.cif.g09.slc.cpg/sg19_1_cif.got.tgz:1983.got - 2010.04.10 18:59:41.
