data_PCOD8157472
_publ_section_title
;
Structure prediction by ZEFSAII (Michael W. Deem and Ramdas Pophale) SiO2 
 PCOD8157472
Probable space group: P 21 21 21
;
_chemical_formula_sum "Si O2"
_cell_formula_units_Z 24
_cell_length_a 8.553728
_cell_length_b 8.151743
_cell_length_c 14.952184
_cell_angle_alpha 90.000000
_cell_angle_beta 90.000000
_cell_angle_gamma 90.000000
_cell_volume 1042.582781
_symmetry_space_group_name_H-M "P 21 21 21"
_symmetry_group_IT_number 19
_symmetry_cell_setting 'orthorhombic'
loop_
_space_group_symop_operation_xyz
x,y,z
1/2-x,-y,1/2+z
1/2+x,1/2-y,-z
-x,1/2+y,1/2-z
loop_
_atom_site_type_symbol
_atom_site_label
_atom_site_fract_x
_atom_site_fract_y
_atom_site_fract_z
Si Si1 0.357445 0.810413 0.996461
Si Si2 0.545051 0.511170 0.019616
Si Si3 0.659531 0.203562 0.692469
Si Si4 0.523552 0.855528 0.657016
Si Si5 0.650974 0.300948 0.183601
Si Si6 0.986256 0.052421 0.658913
O O1 0.397028 0.818567 0.890306
O O2 0.178780 0.862054 0.013178
O O3 0.386228 0.620330 0.027849
O O4 0.468893 0.929952 0.054366
O O5 0.583818 0.430409 0.113346
O O6 0.525039 0.366334 0.946887
O O7 0.624017 0.293682 0.785585
O O8 0.843388 0.172656 0.682679
O O9 0.568799 0.033059 0.692771
O O10 0.666693 0.728933 0.666454
O O11 0.630841 0.385041 0.280528
O O12 0.552881 0.134722 0.177786
#
# Coordination Sequence:
#
# PCOD8157472 Si02
#       6
#     4   4   4   4   4   4
#     4  11  24  44  70 101 139 186 230 286 349 409
#     4  11  26  46  71 103 140 186 231 288 348 416
#     4  10  24  44  65 103 135 181 231 286 346 415
#     4  10  26  44  70 102 140 179 233 286 351 411
#     4  11  27  46  69 105 139 183 235 287 347 417
#     4  11  25  44  69 100 139 181 232 287 349 414
#
# _framework density 23.019752
#
# number of rings (size 3 to 8) (size 9 to 14) (size 15 to 20)
#    0.000    1.333    1.667    1.000   11.667    0.000 
#    0.000    3.333    0.000    0.000    0.000    0.000 
#    0.000    0.000    0.000    0.000    0.000    0.000 
#
# Total GULP energy -297635.028377 kJ/mol
# GULP energy per Si atom -12401.459516 kJ/mol
# Density = 2.296736 g / cm^3
# Si number density = 23.019752 Si / 1000 Ang^3
#
#
#
# Elastic Constant Matrix: (Units=GPa)
#
#
# Indices 1 2 3 4 5 6 
#
# 1 92.1263 40.7490 30.5099 0.0000 0.0000 0.0000
# 2 40.7490 82.1434 41.1875 0.0000 0.0000 0.0000
# 3 30.5099 41.1875 97.8944 0.0000 0.0000 0.0000
# 4 0.0000 0.0000 0.0000 43.2746 0.0000 0.0000
# 5 0.0000 0.0000 0.0000 0.0000 37.2711 0.0000
# 6 0.0000 0.0000 0.0000 0.0000 0.0000 44.7158
#
#
#
# Elastic Compliance Matrix: (Units=1/GPa)
#
#
# Indices 1 2 3 4 5 6 
#
# 1 0.014165 -0.006100 -0.001848 0.000000 0.000000 0.000000
# 2 -0.006100 0.018056 -0.005695 0.000000 0.000000 0.000000
# 3 -0.001848 -0.005695 0.013187 0.000000 0.000000 0.000000
# 4 0.000000 0.000000 0.000000 0.023108 0.000000 0.000000
# 5 0.000000 0.000000 0.000000 0.000000 0.026830 0.000000
# 6 0.000000 0.000000 0.000000 0.000000 0.000000 0.022363
#
#
# Mechanical properties :
#
#
# Convention : Reuss Voigt Hill
#
# Bulk Modulus (GPa) = 55.18610 55.22855 55.20732
# Shear Modulus (GPa) = 33.10430 35.70014 34.40222
#
# Velocity S-wave (km/s) = 3.79632 3.94235 3.87003
# Velocity P-wave (km/s) = 6.57582 6.69080 6.63356
#
# Compressibility (1/GPa) = 0.01812051
#
# Stress axis : x y z
#
# Youngs Moduli (GPa) = 70.59700 55.38413 75.83023
#
# Poissons Ratio (x) = 0.33785 0.14014
# Poissons Ratio (y) = 0.43065 0.43189
# Poissons Ratio (z) = 0.13047 0.31544
#
# Static dielectric constant tensor:
#      x y z
#    x 4.150640 0.000000 0.000000 
#    y 0.000000 4.117890 0.000000 
#    z 0.000000 0.000000 4.154240 
# 
# 
# High freq. dielectric constant tensor:
#      x y z
#    x 1.903870 0.000000 0.000000 
#    y 0.000000 1.911120 0.000000 
#    z 0.000000 0.000000 1.912630 
# 
# From -- ./inp_files/2784.got.cif
#   From: 2010.03.12/outbox.cif.g09.slc.cpg/sg19_2_cif.got.tgz:2784.got - 2010.04.10 18:59:41.
