data_PCOD8157331
_publ_section_title
;
Structure prediction by ZEFSAII (Michael W. Deem and Ramdas Pophale) SiO2 
 PCOD8157331
Probable space group: P 21 21 21
;
_chemical_formula_sum "Si O2"
_cell_formula_units_Z 32
_cell_length_a 30.718341
_cell_length_b 8.792947
_cell_length_c 5.373587
_cell_angle_alpha 90.000000
_cell_angle_beta 90.000000
_cell_angle_gamma 90.000000
_cell_volume 1451.431343
_symmetry_space_group_name_H-M "P 21 21 21"
_symmetry_group_IT_number 19
_symmetry_cell_setting 'orthorhombic'
loop_
_space_group_symop_operation_xyz
x,y,z
1/2-x,-y,1/2+z
1/2+x,1/2-y,-z
-x,1/2+y,1/2-z
loop_
_atom_site_type_symbol
_atom_site_label
_atom_site_fract_x
_atom_site_fract_y
_atom_site_fract_z
Si Si1 0.460358 0.125123 0.633054
Si Si2 0.232621 0.187318 0.314114
Si Si3 0.927249 0.168103 0.748679
Si Si4 0.010543 0.189514 0.007180
Si Si5 0.133589 0.217832 0.368622
Si Si6 0.591142 0.160720 0.141090
Si Si7 0.625773 0.637965 0.590756
Si Si8 0.777026 0.328637 0.187398
O O1 0.461694 0.213082 0.374076
O O2 0.412667 0.179999 0.722664
O O3 0.460635 0.944455 0.624578
O O4 0.501004 0.177097 0.797419
O O5 0.184099 0.252803 0.319455
O O6 0.257486 0.246780 0.562062
O O7 0.233520 0.006029 0.313772
O O8 0.256281 0.246293 0.061929
O O9 0.963917 0.110592 0.944317
O O10 0.910738 0.021852 0.596620
O O11 0.885993 0.267238 0.841265
O O12 0.043067 0.268518 0.806959
O O13 0.119047 0.314415 0.608725
O O14 0.127093 0.042876 0.452030
O O15 0.109823 0.263774 0.111945
O O16 0.671316 0.700073 0.693383
#
# Coordination Sequence:
#
# PCOD8157331 Si02
#       8
#     4   4   4   4   4   4   4   4
#     4  11  23  41  63  92 130 171 228 275 334 395
#     4   9  18  35  60  95 129 160 204 270 331 396
#     4  11  26  40  63  92 133 179 227 277 333 399
#     4  11  24  40  65  91 132 177 229 276 339 393
#     4  11  24  42  67  99 132 169 222 275 338 397
#     4  12  26  42  67  94 134 178 223 276 331 400
#     4  10  23  39  65  99 127 172 219 282 329 402
#     4   9  18  33  62  94 129 160 206 267 335 386
#
# _framework density 22.047198999999999
#
# number of rings (size 3 to 8) (size 9 to 14) (size 15 to 20)
#    0.000    1.500    1.250    3.000    8.750    4.000 
#    0.000    0.000    0.000    3.000    0.000    0.000 
#    0.000    0.000    0.000    0.000    0.000    0.000 
#
# Total GULP energy -396479.611363 kJ/mol
# GULP energy per Si atom -12389.987855 kJ/mol
# Density = 2.199702 g / cm^3
# Si number density = 22.047199 Si / 1000 Ang^3
#
#
#
# Elastic Constant Matrix: (Units=GPa)
#
#
# Indices 1 2 3 4 5 6 
#
# 1 130.0444 37.7782 43.7940 0.0000 0.0000 0.0000
# 2 37.7782 87.1004 18.3009 0.0000 0.0000 0.0000
# 3 43.7940 18.3009 112.6648 0.0000 0.0000 0.0000
# 4 0.0000 0.0000 0.0000 25.6360 0.0000 0.0000
# 5 0.0000 0.0000 0.0000 0.0000 29.7382 0.0000
# 6 0.0000 0.0000 0.0000 0.0000 0.0000 23.2578
#
#
#
# Elastic Compliance Matrix: (Units=1/GPa)
#
#
# Indices 1 2 3 4 5 6 
#
# 1 0.009819 -0.003579 -0.003235 0.000000 0.000000 0.000000
# 2 -0.003579 0.013191 -0.000752 0.000000 0.000000 0.000000
# 3 -0.003235 -0.000752 0.010256 0.000000 0.000000 0.000000
# 4 0.000000 0.000000 0.000000 0.039008 0.000000 0.000000
# 5 0.000000 0.000000 0.000000 0.000000 0.033627 0.000000
# 6 0.000000 0.000000 0.000000 0.000000 0.000000 0.042996
#
#
# Mechanical properties :
#
#
# Convention : Reuss Voigt Hill
#
# Bulk Modulus (GPa) = 55.14518 58.83952 56.99235
# Shear Modulus (GPa) = 29.39914 31.05550 30.22732
#
# Velocity S-wave (km/s) = 3.65562 3.75719 3.70676
# Velocity P-wave (km/s) = 6.54864 6.75040 6.65029
#
# Compressibility (1/GPa) = 0.01813395
#
# Stress axis : x y z
#
# Youngs Moduli (GPa) = 101.84410 75.80788 97.50788
#
# Poissons Ratio (x) = 0.27132 0.31547
# Poissons Ratio (y) = 0.36450 0.07328
# Poissons Ratio (z) = 0.32950 0.05697
#
# Static dielectric constant tensor:
#      x y z
#    x 4.035310 0.000000 0.000000 
#    y 0.000000 3.606160 0.000000 
#    z 0.000000 0.000000 4.004410 
# 
# 
# High freq. dielectric constant tensor:
#      x y z
#    x 1.881350 0.000000 0.000000 
#    y 0.000000 1.841390 0.000000 
#    z 0.000000 0.000000 1.864980 
# 
# From -- ./inp_files/2329.got.cif
#   From: 2010.03.12/outbox.cif.g09.slc.cpg/sg19_2_cif.got.tgz:2329.got - 2010.04.10 18:59:41.
