data_PCOD8157581
_publ_section_title
;
Structure prediction by ZEFSAII (Michael W. Deem and Ramdas Pophale) SiO2 
 PCOD8157581
Probable space group: P 21 21 21
;
_chemical_formula_sum "Si O2"
_cell_formula_units_Z 24
_cell_length_a 10.986400
_cell_length_b 16.730828
_cell_length_c 5.304778
_cell_angle_alpha 90.000000
_cell_angle_beta 90.000000
_cell_angle_gamma 90.000000
_cell_volume 975.079566
_symmetry_space_group_name_H-M "P 21 21 21"
_symmetry_group_IT_number 19
_symmetry_cell_setting 'orthorhombic'
loop_
_space_group_symop_operation_xyz
x,y,z
1/2-x,-y,1/2+z
1/2+x,1/2-y,-z
-x,1/2+y,1/2-z
loop_
_atom_site_type_symbol
_atom_site_label
_atom_site_fract_x
_atom_site_fract_y
_atom_site_fract_z
Si Si1 0.353099 0.181936 0.964464
Si Si2 0.934309 0.906515 0.252346
Si Si3 0.660850 0.858832 0.352698
Si Si4 0.906899 0.453976 0.655293
Si Si5 0.466710 0.416512 0.641459
Si Si6 0.810572 0.601830 0.885743
O O1 0.481799 0.170048 0.820663
O O2 0.235448 0.178323 0.775041
O O3 0.348599 0.264500 0.109235
O O4 0.345567 0.109440 0.159495
O O5 0.798637 0.887472 0.329915
O O6 0.972779 0.986781 0.408635
O O7 0.960385 0.926892 0.954798
O O8 0.594992 0.902329 0.587008
O O9 0.608323 0.874438 0.077888
O O10 0.909738 0.546484 0.736269
O O11 0.809987 0.451732 0.423651
O O12 0.604623 0.377472 0.630467
#
# Coordination Sequence:
#
# PCOD8157581 Si02
#       6
#     4   4   4   4   4   4
#     4  11  27  46  74 116 155 203 248 341 393 446
#     4  11  26  49  76 106 157 202 266 314 377 472
#     4  12  31  49  74 114 157 206 257 316 400 464
#     4  11  21  43  77 113 148 205 248 330 384 451
#     4  12  27  49  78 109 149 212 258 311 382 469
#     4  11  22  42  77 114 150 190 269 314 388 460
#
# _framework density 24.613375999999999
#
# number of rings (size 3 to 8) (size 9 to 14) (size 15 to 20)
#    0.000    0.667    3.333    3.000   11.667    0.000 
#    0.000    0.000    0.000    0.000    0.000    0.000 
#    0.000    0.000    0.000    0.000    0.000    0.000 
#
# Total GULP energy -297339.510021 kJ/mol
# GULP energy per Si atom -12389.146251 kJ/mol
# Density = 2.455735 g / cm^3
# Si number density = 24.613376 Si / 1000 Ang^3
#
#
#
# Elastic Constant Matrix: (Units=GPa)
#
#
# Indices 1 2 3 4 5 6 
#
# 1 128.2350 14.7539 31.9267 0.0000 0.0000 0.0000
# 2 14.7539 72.7101 -3.3116 0.0000 0.0000 0.0000
# 3 31.9267 -3.3116 70.1237 0.0000 0.0000 0.0000
# 4 0.0000 0.0000 0.0000 26.8401 0.0000 0.0000
# 5 0.0000 0.0000 0.0000 0.0000 51.6694 0.0000
# 6 0.0000 0.0000 0.0000 0.0000 0.0000 43.2417
#
#
#
# Elastic Compliance Matrix: (Units=1/GPa)
#
#
# Indices 1 2 3 4 5 6 
#
# 1 0.009086 -0.002037 -0.004233 0.000000 0.000000 0.000000
# 2 -0.002037 0.014239 0.001600 0.000000 0.000000 0.000000
# 3 -0.004233 0.001600 0.016263 0.000000 0.000000 0.000000
# 4 0.000000 0.000000 0.000000 0.037258 0.000000 0.000000
# 5 0.000000 0.000000 0.000000 0.000000 0.019354 0.000000
# 6 0.000000 0.000000 0.000000 0.000000 0.000000 0.023126
#
#
# Mechanical properties :
#
#
# Convention : Reuss Voigt Hill
#
# Bulk Modulus (GPa) = 33.05882 39.75629 36.40756
# Shear Modulus (GPa) = 36.03616 39.53024 37.78320
#
# Velocity S-wave (km/s) = 3.83049 4.01190 3.92224
# Velocity P-wave (km/s) = 5.74665 6.13578 5.94440
#
# Compressibility (1/GPa) = 0.03024911
#
# Stress axis : x y z
#
# Youngs Moduli (GPa) = 110.05428 70.22794 61.48783
#
# Poissons Ratio (x) = 0.14302 0.26029
# Poissons Ratio (y) = 0.22413 -0.09836
# Poissons Ratio (z) = 0.46588 -0.11234
#
# Static dielectric constant tensor:
#      x y z
#    x 4.688300 0.000000 0.000000 
#    y 0.000000 4.204310 0.000000 
#    z 0.000000 0.000000 4.706440 
# 
# 
# High freq. dielectric constant tensor:
#      x y z
#    x 1.992250 0.000000 0.000000 
#    y 0.000000 1.955130 0.000000 
#    z 0.000000 0.000000 1.994830 
# 
# From -- ./inp_files/990.got.cif
#   From: 2010.03.12/outbox.cif.g09.slc.cpg/sg19_1_cif.got.tgz:990.got - 2010.04.10 18:59:41.
