data_PCOD8157560
_publ_section_title
;
Structure prediction by ZEFSAII (Michael W. Deem and Ramdas Pophale) SiO2 
 PCOD8157560
Probable space group: P 21 21 21
;
_chemical_formula_sum "Si O2"
_cell_formula_units_Z 24
_cell_length_a 7.170321
_cell_length_b 19.136672
_cell_length_c 8.277737
_cell_angle_alpha 90.000000
_cell_angle_beta 90.000000
_cell_angle_gamma 90.000000
_cell_volume 1135.838632
_symmetry_space_group_name_H-M "P 21 21 21"
_symmetry_group_IT_number 19
_symmetry_cell_setting 'orthorhombic'
loop_
_space_group_symop_operation_xyz
x,y,z
1/2-x,-y,1/2+z
1/2+x,1/2-y,-z
-x,1/2+y,1/2-z
loop_
_atom_site_type_symbol
_atom_site_label
_atom_site_fract_x
_atom_site_fract_y
_atom_site_fract_z
Si Si1 0.342263 0.171169 0.416263
Si Si2 0.521851 0.307111 0.348064
Si Si3 0.194765 0.038752 0.231081
Si Si4 0.801103 0.995182 0.270526
Si Si5 0.788943 0.896620 0.988182
Si Si6 0.047513 0.070293 0.876208
O O1 0.429026 0.232410 0.302084
O O2 0.236949 0.112661 0.314115
O O3 0.511774 0.138217 0.518506
O O4 0.206772 0.206423 0.547160
O O5 0.378930 0.347502 0.463086
O O6 0.577052 0.350377 0.187238
O O7 0.021183 0.998522 0.316554
O O8 0.368035 0.985322 0.245553
O O9 0.145642 0.056900 0.046325
O O10 0.729188 0.075461 0.302445
O O11 0.780061 0.969636 0.087366
O O12 0.676525 0.941844 0.379852
#
# Coordination Sequence:
#
# PCOD8157560 Si02
#       6
#     4   4   4   4   4   4
#     4  12  23  43  66  92 128 178 218 260 324 385
#     4  11  24  42  65  90 132 173 218 259 321 395
#     4  12  23  40  69  98 128 164 214 275 322 378
#     4  11  21  37  62  96 124 158 204 263 324 372
#     4  11  22  39  63  95 125 165 210 263 321 383
#     4  11  25  41  65  99 131 166 214 270 328 379
#
# _framework density 21.129761999999999
#
# number of rings (size 3 to 8) (size 9 to 14) (size 15 to 20)
#    0.000    0.667    6.667    2.000    2.333    0.000 
#    0.000    3.333    0.000    0.000    0.000    0.000 
#    0.000    0.000    0.000    0.000    0.000    0.000 
#
# Total GULP energy -297323.946344 kJ/mol
# GULP energy per Si atom -12388.497764 kJ/mol
# Density = 2.108167 g / cm^3
# Si number density = 21.129762 Si / 1000 Ang^3
#
#
#
# Elastic Constant Matrix: (Units=GPa)
#
#
# Indices 1 2 3 4 5 6 
#
# 1 108.1569 37.5525 28.5806 0.0000 0.0000 0.0000
# 2 37.5525 100.0951 25.3331 0.0000 0.0000 0.0000
# 3 28.5806 25.3331 59.6877 0.0000 0.0000 0.0000
# 4 0.0000 0.0000 0.0000 30.8562 0.0000 0.0000
# 5 0.0000 0.0000 0.0000 0.0000 24.3603 0.0000
# 6 0.0000 0.0000 0.0000 0.0000 0.0000 41.7443
#
#
#
# Elastic Compliance Matrix: (Units=1/GPa)
#
#
# Indices 1 2 3 4 5 6 
#
# 1 0.011463 -0.003262 -0.004104 0.000000 0.000000 0.000000
# 2 -0.003262 0.012121 -0.003583 0.000000 0.000000 0.000000
# 3 -0.004104 -0.003583 0.020240 0.000000 0.000000 0.000000
# 4 0.000000 0.000000 0.000000 0.032408 0.000000 0.000000
# 5 0.000000 0.000000 0.000000 0.000000 0.041050 0.000000
# 6 0.000000 0.000000 0.000000 0.000000 0.000000 0.023955
#
#
# Mechanical properties :
#
#
# Convention : Reuss Voigt Hill
#
# Bulk Modulus (GPa) = 45.60799 50.09690 47.85244
# Shear Modulus (GPa) = 29.33512 31.15706 30.24609
#
# Velocity S-wave (km/s) = 3.73007 3.84416 3.78755
# Velocity P-wave (km/s) = 6.33899 6.59273 6.46711
#
# Compressibility (1/GPa) = 0.02192598
#
# Stress axis : x y z
#
# Youngs Moduli (GPa) = 87.23779 82.50200 49.40754
#
# Poissons Ratio (x) = 0.26910 0.20279
# Poissons Ratio (y) = 0.28454 0.17701
# Poissons Ratio (z) = 0.35807 0.29557
#
# Static dielectric constant tensor:
#      x y z
#    x 4.177250 0.000000 0.000000 
#    y 0.000000 3.947760 0.000000 
#    z 0.000000 0.000000 3.592620 
# 
# 
# High freq. dielectric constant tensor:
#      x y z
#    x 1.854200 0.000000 0.000000 
#    y 0.000000 1.823590 0.000000 
#    z 0.000000 0.000000 1.794810 
# 
# From -- ./inp_files/2905.got.cif
#   From: 2010.03.12/outbox.cif.g09.slc.cpg/sg19_2_cif.got.tgz:2905.got - 2010.04.10 18:59:41.
