data_PCOD8157969
_publ_section_title
;
Structure prediction by ZEFSAII (Michael W. Deem and Ramdas Pophale) SiO2 
 PCOD8157969
Probable space group: C 2 2 21
;
_chemical_formula_sum "Si O2"
_cell_formula_units_Z 48
_cell_length_a 15.678902
_cell_length_b 10.117068
_cell_length_c 16.801905
_cell_angle_alpha 90.000000
_cell_angle_beta 90.000000
_cell_angle_gamma 90.000000
_cell_volume 2665.194077
_symmetry_space_group_name_H-M "C 2 2 21"
_symmetry_group_IT_number 20
_symmetry_cell_setting 'orthorhombic'
loop_
_space_group_symop_operation_xyz
x,y,z
-x,-y,1/2+z
x,-y,-z
-x,y,1/2-z
1/2+x,1/2+y,z
1/2-x,1/2-y,1/2+z
1/2+x,1/2-y,-z
1/2-x,1/2+y,1/2-z
loop_
_atom_site_type_symbol
_atom_site_label
_atom_site_fract_x
_atom_site_fract_y
_atom_site_fract_z
Si Si1 0.338139 0.877001 0.443136
Si Si2 0.838137 0.623002 0.943138
Si Si3 0.150146 0.130946 0.948381
Si Si4 0.999999 0.790270 0.156752
Si Si5 0.650149 0.369056 0.448379
Si Si6 0.500002 0.993791 0.403697
O O1 0.369227 0.751047 0.492276
O O2 0.243788 0.852738 0.406655
O O3 0.413054 0.914068 0.379246
O O4 0.323888 0.000000 0.500000
O O5 0.743786 0.647266 0.906657
O O6 0.913052 0.585938 0.879248
O O7 0.823890 0.500000 0.000000
O O8 0.869225 0.748953 0.992281
O O9 0.082824 0.135999 0.877311
O O10 0.138487 0.000000 0.000000
O O11 0.999996 0.635069 0.137265
O O12 0.000000 0.811180 0.250000
O O13 0.917175 0.864007 0.122691
O O14 0.638489 0.500000 0.500000
O O15 0.499998 0.000000 0.500000
#
# Coordination Sequence:
#
# PCOD8157969 Si02
#       6
#     8   8   8   8   8   8
#     4   9  16  31  60  86 109 131 200 233 260 314
#     4   9  16  31  60  86 109 131 200 233 260 314
#     4  10  19  32  57  89 107 149 187 232 272 324
#     4  12  23  36  54  86 121 148 177 230 298 336
#     4  10  19  32  57  89 107 149 187 232 272 324
#     4  10  16  34  59  82 106 146 190 231 255 334
#
# _framework density 18.009944999999998
#
# number of rings (size 3 to 8) (size 9 to 14) (size 15 to 20)
#    0.000    2.000    6.667    0.500    0.000    0.000 
#    0.000    1.667    0.000    4.000    0.000    0.000 
#    0.000    0.000    0.000    0.000    0.000    0.000 
#
# Total GULP energy -297328.453303 kJ/mol
# GULP energy per Si atom -12388.685554 kJ/mol
# Density = 1.796895 g / cm^3
# Si number density = 18.009945 Si / 1000 Ang^3
#
#
#
# Elastic Constant Matrix: (Units=GPa)
#
#
# Indices 1 2 3 4 5 6 
#
# 1 180.2938 26.1022 53.6523 0.0000 0.0000 0.0000
# 2 26.1022 102.7030 32.2057 0.0000 0.0000 0.0000
# 3 53.6523 32.2057 76.6108 0.0000 0.0000 0.0000
# 4 0.0000 0.0000 0.0000 15.6414 0.0000 0.0000
# 5 0.0000 0.0000 0.0000 0.0000 2.0445 0.0000
# 6 0.0000 0.0000 0.0000 0.0000 0.0000 19.8925
#
#
#
# Elastic Compliance Matrix: (Units=1/GPa)
#
#
# Indices 1 2 3 4 5 6 
#
# 1 0.007014 -0.000279 -0.004795 0.000000 0.000000 0.000000
# 2 -0.000279 0.011226 -0.004524 0.000000 0.000000 0.000000
# 3 -0.004795 -0.004524 0.018312 0.000000 0.000000 0.000000
# 4 0.000000 0.000000 0.000000 0.063933 0.000000 0.000000
# 5 0.000000 0.000000 0.000000 0.000000 0.489125 0.000000
# 6 0.000000 0.000000 0.000000 0.000000 0.000000 0.050270
#
#
# Mechanical properties :
#
#
# Convention : Reuss Voigt Hill
#
# Bulk Modulus (GPa) = 57.61196 64.83643 61.22420
# Shear Modulus (GPa) = 7.52037 24.02551 15.77294
#
# Velocity S-wave (km/s) = 2.04566 3.65638 2.96259
# Velocity P-wave (km/s) = 6.13499 7.34193 6.76543
#
# Compressibility (1/GPa) = 0.01735751
#
# Stress axis : x y z
#
# Youngs Moduli (GPa) = 142.57876 89.07612 54.60765
#
# Poissons Ratio (x) = 0.02486 0.26182
# Poissons Ratio (y) = 0.03979 0.24704
# Poissons Ratio (z) = 0.68360 0.40297
#
# Static dielectric constant tensor:
#      x y z
#    x 4.762610 0.000000 0.000000 
#    y 0.000000 3.279480 0.000000 
#    z 0.000000 0.000000 2.655960 
# 
# 
# High freq. dielectric constant tensor:
#      x y z
#    x 1.737520 0.000000 0.000000 
#    y 0.000000 1.711380 0.000000 
#    z 0.000000 0.000000 1.610770 
# 
# From -- ./inp_files/21275.got.cif
#   From: 2010.03.12/outbox.cif.g09.slc.cpg/sg20_11_cif.got.tgz:21275.got - 2010.04.14 01:38:04.
