data_PCOD8157901
_publ_section_title
;
Structure prediction by ZEFSAII (Michael W. Deem and Ramdas Pophale) SiO2 
 PCOD8157901
Probable space group: P 21 21 21
;
_chemical_formula_sum "Si O2"
_cell_formula_units_Z 24
_cell_length_a 8.356411
_cell_length_b 13.723595
_cell_length_c 9.407747
_cell_angle_alpha 90.000000
_cell_angle_beta 90.000000
_cell_angle_gamma 90.000000
_cell_volume 1078.880428
_symmetry_space_group_name_H-M "P 21 21 21"
_symmetry_group_IT_number 19
_symmetry_cell_setting 'orthorhombic'
loop_
_space_group_symop_operation_xyz
x,y,z
1/2-x,-y,1/2+z
1/2+x,1/2-y,-z
-x,1/2+y,1/2-z
loop_
_atom_site_type_symbol
_atom_site_label
_atom_site_fract_x
_atom_site_fract_y
_atom_site_fract_z
Si Si1 0.063264 0.307727 0.381011
Si Si2 0.066924 0.690450 0.351461
Si Si3 0.931779 0.215910 0.640267
Si Si4 0.935243 0.815059 0.593851
Si Si5 0.412099 0.981470 0.051772
Si Si6 0.591241 0.505023 0.784984
O O1 0.242175 0.269731 0.357130
O O2 0.939211 0.231799 0.308196
O O3 0.014556 0.300884 0.546110
O O4 0.045427 0.415203 0.315882
O O5 0.246166 0.671437 0.399588
O O6 0.979427 0.774519 0.440232
O O7 0.965955 0.592176 0.362968
O O8 0.999840 0.234272 0.797001
O O9 0.969844 0.108050 0.582861
O O10 0.013924 0.920337 0.617092
O O11 0.250648 0.958587 0.137057
O O12 0.381395 0.991291 0.883203
#
# Coordination Sequence:
#
# PCOD8157901 Si02
#       6
#     4   4   4   4   4   4
#     4  12  25  48  71 105 140 186 236 294 352 422
#     4  12  25  48  71 105 140 186 236 294 352 422
#     4  12  27  46  76 103 143 186 238 292 357 421
#     4  12  27  46  76 103 143 186 238 292 357 421
#     4  12  27  48  72 108 142 189 236 296 356 419
#     4  12  27  46  74 104 148 183 242 294 354 423
#
# _framework density 22.245283000000001
#
# number of rings (size 3 to 8) (size 9 to 14) (size 15 to 20)
#    0.000    0.000    3.333    7.000    4.667    0.000 
#    0.000    0.000    0.000    0.000    0.000    0.000 
#    0.000    0.000    0.000    0.000    0.000    0.000 
#
# Total GULP energy -297769.249613 kJ/mol
# GULP energy per Si atom -12407.052067 kJ/mol
# Density = 2.219465 g / cm^3
# Si number density = 22.245283 Si / 1000 Ang^3
#
#
#
# Elastic Constant Matrix: (Units=GPa)
#
#
# Indices 1 2 3 4 5 6 
#
# 1 106.0850 9.4839 35.0986 0.0000 0.0000 0.0000
# 2 9.4839 113.6801 29.4246 0.0000 0.0000 0.0000
# 3 35.0986 29.4246 89.6607 0.0000 0.0000 0.0000
# 4 0.0000 0.0000 0.0000 39.2076 0.0000 0.0000
# 5 0.0000 0.0000 0.0000 0.0000 33.2788 0.0000
# 6 0.0000 0.0000 0.0000 0.0000 0.0000 31.1336
#
#
#
# Elastic Compliance Matrix: (Units=1/GPa)
#
#
# Indices 1 2 3 4 5 6 
#
# 1 0.010834 0.000212 -0.004310 0.000000 0.000000 0.000000
# 2 0.000212 0.009617 -0.003239 0.000000 0.000000 0.000000
# 3 -0.004310 -0.003239 0.013904 0.000000 0.000000 0.000000
# 4 0.000000 0.000000 0.000000 0.025505 0.000000 0.000000
# 5 0.000000 0.000000 0.000000 0.000000 0.030049 0.000000
# 6 0.000000 0.000000 0.000000 0.000000 0.000000 0.032120
#
#
# Mechanical properties :
#
#
# Convention : Reuss Voigt Hill
#
# Bulk Modulus (GPa) = 50.81540 50.82667 50.82104
# Shear Modulus (GPa) = 34.90071 36.41860 35.65965
#
# Velocity S-wave (km/s) = 3.96524 4.05055 4.00812
# Velocity P-wave (km/s) = 6.62246 6.69132 6.65698
#
# Compressibility (1/GPa) = 0.01967907
#
# Stress axis : x y z
#
# Youngs Moduli (GPa) = 92.30552 103.97880 71.92408
#
# Poissons Ratio (x) = -0.02203 0.31003
# Poissons Ratio (y) = -0.01956 0.23297
# Poissons Ratio (z) = 0.39788 0.33680
#
# Static dielectric constant tensor:
#      x y z
#    x 3.912080 0.000000 0.000000 
#    y 0.000000 4.031080 0.000000 
#    z 0.000000 0.000000 4.149260 
# 
# 
# High freq. dielectric constant tensor:
#      x y z
#    x 1.881780 0.000000 0.000000 
#    y 0.000000 1.887230 0.000000 
#    z 0.000000 0.000000 1.889780 
# 
# From -- ./inp_files/2690.got.cif
#   From: 2010.03.12/outbox.cif.g09.slc.cpg/sg19_2_cif.got.tgz:2690.got - 2010.04.10 18:59:41.
