data_PCOD8157337
_publ_section_title
;
Structure prediction by ZEFSAII (Michael W. Deem and Ramdas Pophale) SiO2 
 PCOD8157337
Probable space group: P 21 21 21
;
_chemical_formula_sum "Si O2"
_cell_formula_units_Z 20
_cell_length_a 8.504565
_cell_length_b 21.199986
_cell_length_c 5.121833
_cell_angle_alpha 90.000000
_cell_angle_beta 90.000000
_cell_angle_gamma 90.000000
_cell_volume 923.449378
_symmetry_space_group_name_H-M "P 21 21 21"
_symmetry_group_IT_number 19
_symmetry_cell_setting 'orthorhombic'
loop_
_space_group_symop_operation_xyz
x,y,z
1/2-x,-y,1/2+z
1/2+x,1/2-y,-z
-x,1/2+y,1/2-z
loop_
_atom_site_type_symbol
_atom_site_label
_atom_site_fract_x
_atom_site_fract_y
_atom_site_fract_z
Si Si1 0.677254 0.030384 0.853409
Si Si2 0.033773 0.227057 0.815994
Si Si3 0.050586 0.155930 0.305387
Si Si4 0.746891 0.166752 0.032340
Si Si5 0.159446 0.018094 0.365994
O O1 0.700895 0.105536 0.866181
O O2 0.710327 0.997244 0.130345
O O3 0.497621 0.017562 0.775861
O O4 0.085416 0.207310 0.527766
O O5 0.089446 0.299263 0.860146
O O6 0.845544 0.217358 0.854886
O O7 0.119700 0.182094 0.031283
O O8 0.861238 0.145016 0.271549
O O9 0.134866 0.092413 0.386625
O O10 0.207931 0.995039 0.651995
#
# Coordination Sequence:
#
# PCOD8157337 Si02
#       5
#     4   4   4   4   4
#     4  12  24  45  73 100 138 186 225 280 349 411
#     4  10  23  40  67  95 127 177 221 271 341 385
#     4  10  23  43  63  91 141 167 218 280 331 403
#     4  10  25  42  71  94 136 174 228 276 336 411
#     4  12  25  44  68 106 136 180 226 287 339 404
#
# _framework density 21.657927999999998
#
# number of rings (size 3 to 8) (size 9 to 14) (size 15 to 20)
#    1.200    0.000    2.000    3.600    2.800    3.200 
#    0.000    0.000    0.000    0.000    0.000    0.000 
#    0.000    0.000    0.000    0.000    0.000    0.000 
#
# Total GULP energy -247919.182840 kJ/mol
# GULP energy per Si atom -12395.959142 kJ/mol
# Density = 2.160863 g / cm^3
# Si number density = 21.657928 Si / 1000 Ang^3
#
#
#
# Elastic Constant Matrix: (Units=GPa)
#
#
# Indices 1 2 3 4 5 6 
#
# 1 56.5554 22.9799 -1.3846 0.0000 0.0000 0.0000
# 2 22.9799 67.4739 -8.0254 0.0000 0.0000 0.0000
# 3 -1.3846 -8.0254 91.7812 0.0000 0.0000 0.0000
# 4 0.0000 0.0000 0.0000 26.1218 0.0000 0.0000
# 5 0.0000 0.0000 0.0000 0.0000 21.6477 0.0000
# 6 0.0000 0.0000 0.0000 0.0000 0.0000 42.6492
#
#
#
# Elastic Compliance Matrix: (Units=1/GPa)
#
#
# Indices 1 2 3 4 5 6 
#
# 1 0.020530 -0.007028 -0.000305 0.000000 0.000000 0.000000
# 2 -0.007028 0.017382 0.001414 0.000000 0.000000 0.000000
# 3 -0.000305 0.001414 0.011015 0.000000 0.000000 0.000000
# 4 0.000000 0.000000 0.000000 0.038282 0.000000 0.000000
# 5 0.000000 0.000000 0.000000 0.000000 0.046194 0.000000
# 6 0.000000 0.000000 0.000000 0.000000 0.000000 0.023447
#
#
# Mechanical properties :
#
#
# Convention : Reuss Voigt Hill
#
# Bulk Modulus (GPa) = 26.96252 26.99447 26.97849
# Shear Modulus (GPa) = 27.61642 31.56645 29.59144
#
# Velocity S-wave (km/s) = 3.57475 3.82187 3.70037
# Velocity P-wave (km/s) = 5.43275 5.65390 5.54443
#
# Compressibility (1/GPa) = 0.03708852
#
# Stress axis : x y z
#
# Youngs Moduli (GPa) = 48.70902 57.52960 90.78930
#
# Poissons Ratio (x) = 0.40433 0.02768
# Poissons Ratio (y) = 0.34234 -0.12837
# Poissons Ratio (z) = 0.01485 -0.08134
#
# Static dielectric constant tensor:
#      x y z
#    x 3.726510 0.000000 0.000000 
#    y 0.000000 3.701890 0.000000 
#    z 0.000000 0.000000 3.754270 
# 
# 
# High freq. dielectric constant tensor:
#      x y z
#    x 1.833620 0.000000 0.000000 
#    y 0.000000 1.849880 0.000000 
#    z 0.000000 0.000000 1.854280 
# 
# From -- ./inp_files/395.got.cif
#   From: 2010.03.12/outbox.cif.g09.slc.cpg/sg19_1_cif.got.tgz:395.got - 2010.04.10 18:59:41.
