data_PCOD8157945
_publ_section_title
;
Structure prediction by ZEFSAII (Michael W. Deem and Ramdas Pophale) SiO2 
 PCOD8157945
Probable space group: P 21 21 21
;
_chemical_formula_sum "Si O2"
_cell_formula_units_Z 12
_cell_length_a 17.307255
_cell_length_b 5.009694
_cell_length_c 5.061523
_cell_angle_alpha 90.000000
_cell_angle_beta 90.000000
_cell_angle_gamma 90.000000
_cell_volume 438.854551
_symmetry_space_group_name_H-M "P 21 21 21"
_symmetry_group_IT_number 19
_symmetry_cell_setting 'orthorhombic'
loop_
_space_group_symop_operation_xyz
x,y,z
1/2-x,-y,1/2+z
1/2+x,1/2-y,-z
-x,1/2+y,1/2-z
loop_
_atom_site_type_symbol
_atom_site_label
_atom_site_fract_x
_atom_site_fract_y
_atom_site_fract_z
Si Si1 0.624495 0.498504 0.795859
Si Si2 0.506297 0.842249 0.076830
Si Si3 0.742959 0.172460 0.094806
O O1 0.560997 0.325448 0.641227
O O2 0.688974 0.607065 0.593067
O O3 0.586548 0.751191 0.945198
O O4 0.662697 0.308330 0.014381
O O5 0.484557 0.642442 0.315859
O O6 0.732356 0.055280 0.387785
#
# Coordination Sequence:
#
# PCOD8157945 Si02
#       3
#     4   4   4
#     4  12  32  56  84 136 176 234 308 368 452 536
#     4  12  32  54  92 130 180 236 298 372 450 534
#     4  12  32  54  92 130 180 236 298 372 450 534
#
# _framework density 27.343912
#
# number of rings (size 3 to 8) (size 9 to 14) (size 15 to 20)
#    0.000    0.000    0.000    4.000   28.000    0.000 
#    0.000    0.000    0.000    0.000    0.000    0.000 
#    0.000    0.000    0.000    0.000    0.000    0.000 
#
# Total GULP energy -148967.939709 kJ/mol
# GULP energy per Si atom -12413.994976 kJ/mol
# Density = 2.728168 g / cm^3
# Si number density = 27.343912 Si / 1000 Ang^3
#
#
#
# Elastic Constant Matrix: (Units=GPa)
#
#
# Indices 1 2 3 4 5 6 
#
# 1 106.6770 2.3127 20.1061 0.0000 0.0000 0.0000
# 2 2.3127 61.8645 -6.5966 0.0000 0.0000 0.0000
# 3 20.1061 -6.5966 79.6220 0.0000 0.0000 0.0000
# 4 0.0000 0.0000 0.0000 67.8886 0.0000 0.0000
# 5 0.0000 0.0000 0.0000 0.0000 52.1154 0.0000
# 6 0.0000 0.0000 0.0000 0.0000 0.0000 58.3995
#
#
#
# Elastic Compliance Matrix: (Units=1/GPa)
#
#
# Indices 1 2 3 4 5 6 
#
# 1 0.009868 -0.000640 -0.002545 0.000000 0.000000 0.000000
# 2 -0.000640 0.016350 0.001516 0.000000 0.000000 0.000000
# 3 -0.002545 0.001516 0.013328 0.000000 0.000000 0.000000
# 4 0.000000 0.000000 0.000000 0.014730 0.000000 0.000000
# 5 0.000000 0.000000 0.000000 0.000000 0.019188 0.000000
# 6 0.000000 0.000000 0.000000 0.000000 0.000000 0.017123
#
#
# Mechanical properties :
#
#
# Convention : Reuss Voigt Hill
#
# Bulk Modulus (GPa) = 27.61852 31.08974 29.35413
# Shear Modulus (GPa) = 47.17270 51.17013 49.17142
#
# Velocity S-wave (km/s) = 4.15801 4.33061 4.24519
# Velocity P-wave (km/s) = 5.75973 6.03325 5.89808
#
# Compressibility (1/GPa) = 0.03620759
#
# Stress axis : x y z
#
# Youngs Moduli (GPa) = 101.34168 61.16223 75.03242
#
# Poissons Ratio (x) = 0.03916 0.19094
# Poissons Ratio (y) = 0.06488 -0.11377
# Poissons Ratio (z) = 0.25789 -0.09274
#
# Static dielectric constant tensor:
#      x y z
#    x 4.986040 0.000000 0.000000 
#    y 0.000000 4.936670 0.000000 
#    z 0.000000 0.000000 4.994890 
# 
# 
# High freq. dielectric constant tensor:
#      x y z
#    x 2.116390 0.000000 0.000000 
#    y 0.000000 2.111680 0.000000 
#    z 0.000000 0.000000 2.111210 
# 
# From -- ./inp_files/93.got.cif
#   From: 2010.03.12/outbox.cif.g09.slc.cpg/sg19_1_cif.got.tgz:93.got - 2010.04.10 18:59:41.
