data_PCOD8157320
_publ_section_title
;
Structure prediction by ZEFSAII (Michael W. Deem and Ramdas Pophale) SiO2 
 PCOD8157320
Probable space group: P 21 21 21
;
_chemical_formula_sum "Si O2"
_cell_formula_units_Z 28
_cell_length_a 11.136992
_cell_length_b 5.165350
_cell_length_c 19.354258
_cell_angle_alpha 90.000000
_cell_angle_beta 90.000000
_cell_angle_gamma 90.000000
_cell_volume 1113.381980
_symmetry_space_group_name_H-M "P 21 21 21"
_symmetry_group_IT_number 19
_symmetry_cell_setting 'orthorhombic'
loop_
_space_group_symop_operation_xyz
x,y,z
1/2-x,-y,1/2+z
1/2+x,1/2-y,-z
-x,1/2+y,1/2-z
loop_
_atom_site_type_symbol
_atom_site_label
_atom_site_fract_x
_atom_site_fract_y
_atom_site_fract_z
Si Si1 0.080023 0.180773 0.346032
Si Si2 0.858851 0.813651 0.793187
Si Si3 0.525133 0.838675 0.479992
Si Si4 0.493519 0.188915 0.164344
Si Si5 0.632842 0.494805 0.909294
Si Si6 0.332308 0.849358 0.993983
Si Si7 0.363098 0.607763 0.701037
O O1 0.975315 0.356810 0.374387
O O2 0.176588 0.147348 0.409222
O O3 0.149914 0.299323 0.280498
O O4 0.004553 0.927674 0.319101
O O5 0.925063 0.589494 0.836411
O O6 0.889613 0.788488 0.712482
O O7 0.897767 0.099561 0.813719
O O8 0.713738 0.834177 0.805677
O O9 0.455505 0.766214 0.409905
O O10 0.428014 0.786788 0.539006
O O11 0.634067 0.641398 0.486683
O O12 0.573991 0.133246 0.480353
O O13 0.697388 0.323945 0.849601
O O14 0.712933 0.685684 0.958565
#
# Coordination Sequence:
#
# PCOD8157320 Si02
#       7
#     4   4   4   4   4   4   4
#     4  11  26  48  72 110 149 192 258 313 363 462
#     4  10  24  42  73 101 146 187 242 303 374 432
#     4  11  24  45  71 104 145 186 247 305 358 446
#     4  10  22  46  66 109 141 188 245 301 362 452
#     4  11  26  47  73 106 150 197 246 305 381 444
#     4  11  26  47  74 108 147 197 242 303 381 442
#     4  12  24  47  75 108 146 203 248 312 381 436
#
# _framework density 25.148602
#
# number of rings (size 3 to 8) (size 9 to 14) (size 15 to 20)
#    0.000    1.143    2.857    1.714    8.000    0.000 
#   20.571    0.000    0.000    0.000    0.000    0.000 
#    0.000    0.000    0.000    0.000    0.000    0.000 
#
# Total GULP energy -346874.630420 kJ/mol
# GULP energy per Si atom -12388.379658 kJ/mol
# Density = 2.509136 g / cm^3
# Si number density = 25.148602 Si / 1000 Ang^3
#
#
#
# Elastic Constant Matrix: (Units=GPa)
#
#
# Indices 1 2 3 4 5 6 
#
# 1 64.1122 14.5621 43.8640 0.0000 0.0000 0.0000
# 2 14.5621 93.2625 35.1349 0.0000 0.0000 0.0000
# 3 43.8640 35.1349 203.2336 0.0000 0.0000 0.0000
# 4 0.0000 0.0000 0.0000 34.4829 0.0000 0.0000
# 5 0.0000 0.0000 0.0000 0.0000 37.1010 0.0000
# 6 0.0000 0.0000 0.0000 0.0000 0.0000 30.5796
#
#
#
# Elastic Compliance Matrix: (Units=1/GPa)
#
#
# Indices 1 2 3 4 5 6 
#
# 1 0.018489 -0.001480 -0.003735 0.000000 0.000000 0.000000
# 2 -0.001480 0.011588 -0.001684 0.000000 0.000000 0.000000
# 3 -0.003735 -0.001684 0.006018 0.000000 0.000000 0.000000
# 4 0.000000 0.000000 0.000000 0.029000 0.000000 0.000000
# 5 0.000000 0.000000 0.000000 0.000000 0.026953 0.000000
# 6 0.000000 0.000000 0.000000 0.000000 0.000000 0.032702
#
#
# Mechanical properties :
#
#
# Convention : Reuss Voigt Hill
#
# Bulk Modulus (GPa) = 44.84804 60.85891 52.85347
# Shear Modulus (GPa) = 34.25157 38.23585 36.24371
#
# Velocity S-wave (km/s) = 3.69449 3.90346 3.80041
# Velocity P-wave (km/s) = 6.00591 6.67594 6.34977
#
# Compressibility (1/GPa) = 0.02229752
#
# Stress axis : x y z
#
# Youngs Moduli (GPa) = 54.08643 86.29709 166.17915
#
# Poissons Ratio (x) = 0.12771 0.62062
# Poissons Ratio (y) = 0.08004 0.27983
# Poissons Ratio (z) = 0.20199 0.14531
#
# Static dielectric constant tensor:
#      x y z
#    x 4.395550 0.000000 0.000000 
#    y 0.000000 4.514800 0.000000 
#    z 0.000000 0.000000 6.033380 
# 
# 
# High freq. dielectric constant tensor:
#      x y z
#    x 1.972400 0.000000 0.000000 
#    y 0.000000 2.005470 0.000000 
#    z 0.000000 0.000000 2.030880 
# 
# From -- ./inp_files/6709.got.cif
#   From: 2010.03.12/outbox.cif.g09.slc.cpg/sg19_4_cif.got.tgz:6709.got - 2010.04.10 18:59:41.
