data_PCOD8157491
_publ_section_title
;
Structure prediction by ZEFSAII (Michael W. Deem and Ramdas Pophale) SiO2 
 PCOD8157491
Probable space group: P 21 21 21
;
_chemical_formula_sum "Si O2"
_cell_formula_units_Z 20
_cell_length_a 11.691489
_cell_length_b 7.507591
_cell_length_c 10.224444
_cell_angle_alpha 90.000000
_cell_angle_beta 90.000000
_cell_angle_gamma 90.000000
_cell_volume 897.449730
_symmetry_space_group_name_H-M "P 21 21 21"
_symmetry_group_IT_number 19
_symmetry_cell_setting 'orthorhombic'
loop_
_space_group_symop_operation_xyz
x,y,z
1/2-x,-y,1/2+z
1/2+x,1/2-y,-z
-x,1/2+y,1/2-z
loop_
_atom_site_type_symbol
_atom_site_label
_atom_site_fract_x
_atom_site_fract_y
_atom_site_fract_z
Si Si1 0.788756 0.200283 0.636613
Si Si2 0.058966 0.727631 0.633411
Si Si3 0.655630 0.444958 0.246156
Si Si4 0.370709 0.232877 0.633367
Si Si5 0.568450 0.967405 0.630125
O O1 0.861252 0.123854 0.759790
O O2 0.779207 0.416553 0.649539
O O3 0.855850 0.158805 0.501867
O O4 0.663429 0.119548 0.635762
O O5 0.094195 0.666465 0.488930
O O6 0.926904 0.683103 0.662658
O O7 0.081858 0.939943 0.647737
O O8 0.744851 0.319001 0.318167
O O9 0.434644 0.358505 0.735916
O O10 0.445716 0.056920 0.608953
#
# Coordination Sequence:
#
# PCOD8157491 Si02
#       5
#     4   4   4   4   4
#     4  10  25  44  70 102 136 182 230 275 352 409
#     4  10  24  45  69  98 138 183 233 271 356 408
#     4  10  25  44  70  99 134 186 227 281 337 423
#     4  12  27  45  73 103 144 174 236 290 346 404
#     4  12  25  46  70 104 140 181 226 295 339 416
#
# _framework density 22.285371999999999
#
# number of rings (size 3 to 8) (size 9 to 14) (size 15 to 20)
#    1.200    0.000    2.000    2.400   11.200    1.600 
#    0.000    0.000    0.000    0.000    0.000    0.000 
#    0.000    0.000    0.000    0.000    0.000    0.000 
#
# Total GULP energy -247986.153240 kJ/mol
# GULP energy per Si atom -12399.307662 kJ/mol
# Density = 2.223465 g / cm^3
# Si number density = 22.285372 Si / 1000 Ang^3
#
#
#
# Elastic Constant Matrix: (Units=GPa)
#
#
# Indices 1 2 3 4 5 6 
#
# 1 67.6124 6.3525 2.0806 0.0000 0.0000 0.0000
# 2 6.3525 37.9152 -0.6369 0.0000 0.0000 0.0000
# 3 2.0806 -0.6369 125.4346 0.0000 0.0000 0.0000
# 4 0.0000 0.0000 0.0000 32.2056 0.0000 0.0000
# 5 0.0000 0.0000 0.0000 0.0000 34.4595 0.0000
# 6 0.0000 0.0000 0.0000 0.0000 0.0000 45.3104
#
#
#
# Elastic Compliance Matrix: (Units=1/GPa)
#
#
# Indices 1 2 3 4 5 6 
#
# 1 0.015035 -0.002523 -0.000262 0.000000 0.000000 0.000000
# 2 -0.002523 0.026800 0.000178 0.000000 0.000000 0.000000
# 3 -0.000262 0.000178 0.007978 0.000000 0.000000 0.000000
# 4 0.000000 0.000000 0.000000 0.031050 0.000000 0.000000
# 5 0.000000 0.000000 0.000000 0.000000 0.029020 0.000000
# 6 0.000000 0.000000 0.000000 0.000000 0.000000 0.022070
#
#
# Mechanical properties :
#
#
# Convention : Reuss Voigt Hill
#
# Bulk Modulus (GPa) = 22.42263 27.39495 24.90879
# Shear Modulus (GPa) = 32.88721 37.27283 35.08002
#
# Velocity S-wave (km/s) = 3.84569 4.09409 3.97183
# Velocity P-wave (km/s) = 5.45917 5.88797 5.67762
#
# Compressibility (1/GPa) = 0.04459780
#
# Stress axis : x y z
#
# Youngs Moduli (GPa) = 66.50993 37.31284 125.35195
#
# Poissons Ratio (x) = 0.09416 0.03287
# Poissons Ratio (y) = 0.16784 -0.02231
# Poissons Ratio (z) = 0.01744 -0.00664
#
# Static dielectric constant tensor:
#      x y z
#    x 3.766400 0.000000 0.000000 
#    y 0.000000 3.732600 0.000000 
#    z 0.000000 0.000000 4.085060 
# 
# 
# High freq. dielectric constant tensor:
#      x y z
#    x 1.877900 0.000000 0.000000 
#    y 0.000000 1.862090 0.000000 
#    z 0.000000 0.000000 1.882190 
# 
# From -- ./inp_files/3281.got.cif
#   From: 2010.03.12/outbox.cif.g09.slc.cpg/sg19_2_cif.got.tgz:3281.got - 2010.04.10 18:59:41.
