data_PCOD8157650
_publ_section_title
;
Structure prediction by ZEFSAII (Michael W. Deem and Ramdas Pophale) SiO2 
 PCOD8157650
Probable space group: P 21 21 21
;
_chemical_formula_sum "Si O2"
_cell_formula_units_Z 20
_cell_length_a 18.297381
_cell_length_b 9.220859
_cell_length_c 4.984523
_cell_angle_alpha 90.000000
_cell_angle_beta 90.000000
_cell_angle_gamma 90.000000
_cell_volume 840.976610
_symmetry_space_group_name_H-M "P 21 21 21"
_symmetry_group_IT_number 19
_symmetry_cell_setting 'orthorhombic'
loop_
_space_group_symop_operation_xyz
x,y,z
1/2-x,-y,1/2+z
1/2+x,1/2-y,-z
-x,1/2+y,1/2-z
loop_
_atom_site_type_symbol
_atom_site_label
_atom_site_fract_x
_atom_site_fract_y
_atom_site_fract_z
Si Si1 0.858116 0.602579 0.603644
Si Si2 0.302087 0.142103 0.078789
Si Si3 0.359585 0.298678 0.558338
Si Si4 0.421879 0.589044 0.405382
Si Si5 0.980673 0.413312 0.412252
O O1 0.853289 0.500889 0.871325
O O2 0.780165 0.588526 0.459761
O O3 0.876220 0.767859 0.669711
O O4 0.918998 0.538838 0.400667
O O5 0.301167 0.238169 0.348042
O O6 0.333719 0.245997 0.849228
O O7 0.364848 0.471713 0.524002
O O8 0.441322 0.236835 0.500413
O O9 0.484964 0.614240 0.622348
O O10 0.458298 0.538335 0.127288
#
# Coordination Sequence:
#
# PCOD8157650 Si02
#       5
#     4   4   4   4   4
#     4  11  25  45  72  99 134 182 231 274 336 412
#     4  11  25  44  68  96 134 181 227 278 335 406
#     4  11  24  43  65  98 138 175 226 288 341 396
#     4  12  25  41  68 100 136 178 224 283 342 402
#     4  11  23  41  65  97 136 178 224 277 342 410
#
# _framework density 23.781874999999999
#
# number of rings (size 3 to 8) (size 9 to 14) (size 15 to 20)
#    0.000    0.800    0.000    8.400    0.000    9.600 
#    0.000    0.000    0.000    0.000    0.000    0.000 
#    0.000    0.000    0.000    0.000    0.000    0.000 
#
# Total GULP energy -248017.410203 kJ/mol
# GULP energy per Si atom -12400.870510 kJ/mol
# Density = 2.372775 g / cm^3
# Si number density = 23.781875 Si / 1000 Ang^3
#
#
#
# Elastic Constant Matrix: (Units=GPa)
#
#
# Indices 1 2 3 4 5 6 
#
# 1 91.8871 50.2533 32.8781 0.0000 0.0000 0.0000
# 2 50.2533 151.3925 17.5100 0.0000 0.0000 0.0000
# 3 32.8781 17.5100 102.2592 0.0000 0.0000 0.0000
# 4 0.0000 0.0000 0.0000 30.3803 0.0000 0.0000
# 5 0.0000 0.0000 0.0000 0.0000 39.0146 0.0000
# 6 0.0000 0.0000 0.0000 0.0000 0.0000 26.7499
#
#
#
# Elastic Compliance Matrix: (Units=1/GPa)
#
#
# Indices 1 2 3 4 5 6 
#
# 1 0.014728 -0.004429 -0.003977 0.000000 0.000000 0.000000
# 2 -0.004429 0.008071 0.000042 0.000000 0.000000 0.000000
# 3 -0.003977 0.000042 0.011051 0.000000 0.000000 0.000000
# 4 0.000000 0.000000 0.000000 0.032916 0.000000 0.000000
# 5 0.000000 0.000000 0.000000 0.000000 0.025631 0.000000
# 6 0.000000 0.000000 0.000000 0.000000 0.000000 0.037383
#
#
# Mechanical properties :
#
#
# Convention : Reuss Voigt Hill
#
# Bulk Modulus (GPa) = 58.40584 60.75798 59.58191
# Shear Modulus (GPa) = 32.84828 35.55544 34.20186
#
# Velocity S-wave (km/s) = 3.72052 3.87080 3.79641
# Velocity P-wave (km/s) = 6.56267 6.75137 6.65769
#
# Compressibility (1/GPa) = 0.01712157
#
# Stress axis : x y z
#
# Youngs Moduli (GPa) = 67.89755 123.90642 90.49333
#
# Poissons Ratio (x) = 0.54877 0.35989
# Poissons Ratio (y) = 0.30071 -0.00380
# Poissons Ratio (z) = 0.27003 -0.00521
#
# Static dielectric constant tensor:
#      x y z
#    x 4.238050 0.000000 0.000000 
#    y 0.000000 4.322580 0.000000 
#    z 0.000000 0.000000 4.234370 
# 
# 
# High freq. dielectric constant tensor:
#      x y z
#    x 1.937030 0.000000 0.000000 
#    y 0.000000 1.942550 0.000000 
#    z 0.000000 0.000000 1.946940 
# 
# From -- ./inp_files/1667.got.cif
#   From: 2010.03.12/outbox.cif.g09.slc.cpg/sg19_1_cif.got.tgz:1667.got - 2010.04.10 18:59:41.
