data_PCOD8157272
_publ_section_title
;
Structure prediction by ZEFSAII (Michael W. Deem and Ramdas Pophale) SiO2 
 PCOD8157272
Probable space group: P 21 21 21
;
_chemical_formula_sum "Si O2"
_cell_formula_units_Z 32
_cell_length_a 10.489775
_cell_length_b 9.631985
_cell_length_c 14.602166
_cell_angle_alpha 90.000000
_cell_angle_beta 90.000000
_cell_angle_gamma 90.000000
_cell_volume 1475.364237
_symmetry_space_group_name_H-M "P 21 21 21"
_symmetry_group_IT_number 19
_symmetry_cell_setting 'orthorhombic'
loop_
_space_group_symop_operation_xyz
x,y,z
1/2-x,-y,1/2+z
1/2+x,1/2-y,-z
-x,1/2+y,1/2-z
loop_
_atom_site_type_symbol
_atom_site_label
_atom_site_fract_x
_atom_site_fract_y
_atom_site_fract_z
Si Si1 0.351813 0.319208 0.014157
Si Si2 0.027744 0.727269 0.326065
Si Si3 0.660554 0.125535 0.537798
Si Si4 0.597068 0.610718 0.222658
Si Si5 0.376631 0.545845 0.758869
Si Si6 0.604232 0.896049 0.297455
Si Si7 0.128533 0.852949 0.979615
Si Si8 0.214334 0.087437 0.115648
O O1 0.296559 0.470103 0.989255
O O2 0.444086 0.345134 0.102167
O O3 0.245967 0.208230 0.043014
O O4 0.427655 0.252367 0.930128
O O5 0.003776 0.880581 0.284036
O O6 0.900826 0.636850 0.322387
O O7 0.118721 0.622711 0.267859
O O8 0.643624 0.126787 0.646389
O O9 0.524752 0.174311 0.492119
O O10 0.781004 0.218780 0.508181
O O11 0.572266 0.775254 0.225485
O O12 0.462036 0.535657 0.234819
O O13 0.653891 0.580394 0.121295
O O14 0.678601 0.554802 0.308430
O O15 0.256036 0.578791 0.694443
O O16 0.175376 0.953271 0.059433
#
# Coordination Sequence:
#
# PCOD8157272 Si02
#       8
#     4   4   4   4   4   4   4   4
#     4  10  22  43  66  93 133 179 220 279 334 403
#     4  11  22  45  66  98 132 173 225 282 337 398
#     4  11  24  45  68 102 140 180 224 286 346 407
#     4  11  24  43  71  97 138 180 225 278 346 406
#     4  11  23  44  68  94 138 173 222 288 334 405
#     4  11  22  46  65  97 136 177 221 280 337 412
#     4  12  24  46  71 101 145 178 229 290 341 414
#     4  11  23  44  69  98 136 174 230 279 337 409
#
# _framework density 21.689561000000001
#
# number of rings (size 3 to 8) (size 9 to 14) (size 15 to 20)
#    0.000    1.000    7.500    0.000    1.750    3.000 
#   18.000    0.000    0.000    0.000    0.000    0.000 
#    0.000    0.000    0.000    0.000    0.000    0.000 
#
# Total GULP energy -396495.708115 kJ/mol
# GULP energy per Si atom -12390.490879 kJ/mol
# Density = 2.164019 g / cm^3
# Si number density = 21.689561 Si / 1000 Ang^3
#
#
#
# Elastic Constant Matrix: (Units=GPa)
#
#
# Indices 1 2 3 4 5 6 
#
# 1 61.3619 36.7948 23.3420 0.0000 0.0000 0.0000
# 2 36.7948 29.4122 3.3335 0.0000 0.0000 0.0000
# 3 23.3420 3.3335 94.7084 0.0000 0.0000 0.0000
# 4 0.0000 0.0000 0.0000 30.7583 0.0000 0.0000
# 5 0.0000 0.0000 0.0000 0.0000 28.2287 0.0000
# 6 0.0000 0.0000 0.0000 0.0000 0.0000 35.4834
#
#
#
# Elastic Compliance Matrix: (Units=1/GPa)
#
#
# Indices 1 2 3 4 5 6 
#
# 1 0.087451 -0.107388 -0.017774 0.000000 0.000000 0.000000
# 2 -0.107388 0.166005 0.020624 0.000000 0.000000 0.000000
# 3 -0.017774 0.020624 0.014213 0.000000 0.000000 0.000000
# 4 0.000000 0.000000 0.000000 0.032512 0.000000 0.000000
# 5 0.000000 0.000000 0.000000 0.000000 0.035425 0.000000
# 6 0.000000 0.000000 0.000000 0.000000 0.000000 0.028182
#
#
# Mechanical properties :
#
#
# Convention : Reuss Voigt Hill
#
# Bulk Modulus (GPa) = 17.06639 34.71366 25.89002
# Shear Modulus (GPa) = 8.44032 27.02822 17.73427
#
# Velocity S-wave (km/s) = 1.97481 3.53390 2.86254
# Velocity P-wave (km/s) = 3.61737 5.71759 4.78415
#
# Compressibility (1/GPa) = 0.05859471
#
# Stress axis : x y z
#
# Youngs Moduli (GPa) = 11.43492 6.02393 70.35628
#
# Poissons Ratio (x) = 0.64690 1.25049
# Poissons Ratio (y) = 1.22797 -1.45104
# Poissons Ratio (z) = 0.20324 -0.12424
#
# Static dielectric constant tensor:
#      x y z
#    x 4.117470 0.000000 0.000000 
#    y 0.000000 4.017160 0.000000 
#    z 0.000000 0.000000 4.169580 
# 
# 
# High freq. dielectric constant tensor:
#      x y z
#    x 1.834820 0.000000 0.000000 
#    y 0.000000 1.849550 0.000000 
#    z 0.000000 0.000000 1.869100 
# 
# From -- ./inp_files/6135.got.cif
#   From: 2010.03.12/outbox.cif.g09.slc.cpg/sg19_4_cif.got.tgz:6135.got - 2010.04.10 18:59:41.
