data_PCOD8157547
_publ_section_title
;
Structure prediction by ZEFSAII (Michael W. Deem and Ramdas Pophale) SiO2 
 PCOD8157547
Probable space group: P 21 21 21
;
_chemical_formula_sum "Si O2"
_cell_formula_units_Z 32
_cell_length_a 8.596820
_cell_length_b 11.624692
_cell_length_c 13.899902
_cell_angle_alpha 90.000000
_cell_angle_beta 90.000000
_cell_angle_gamma 90.000000
_cell_volume 1389.092053
_symmetry_space_group_name_H-M "P 21 21 21"
_symmetry_group_IT_number 19
_symmetry_cell_setting 'orthorhombic'
loop_
_space_group_symop_operation_xyz
x,y,z
1/2-x,-y,1/2+z
1/2+x,1/2-y,-z
-x,1/2+y,1/2-z
loop_
_atom_site_type_symbol
_atom_site_label
_atom_site_fract_x
_atom_site_fract_y
_atom_site_fract_z
Si Si1 0.111350 0.682302 0.964813
Si Si2 0.662670 0.976140 0.530449
Si Si3 0.816496 0.057091 0.806342
Si Si4 0.895486 0.640494 0.794695
Si Si5 0.348281 0.795393 0.719653
Si Si6 0.688837 0.486532 0.923067
Si Si7 0.329742 0.879618 0.923843
Si Si8 0.700060 0.832843 0.705478
O O1 0.222951 0.577388 0.938157
O O2 0.215784 0.793822 0.983155
O O3 0.993201 0.704210 0.877542
O O4 0.010376 0.654142 0.060035
O O5 0.679233 0.942533 0.420571
O O6 0.712199 0.865852 0.593201
O O7 0.489607 0.018086 0.556414
O O8 0.731072 0.172139 0.769918
O O9 0.992671 0.056055 0.766394
O O10 0.722249 0.946388 0.770701
O O11 0.754564 0.570031 0.840658
O O12 0.831894 0.739325 0.725000
O O13 0.294981 0.875567 0.810459
O O14 0.532511 0.777906 0.725780
O O15 0.297691 0.857508 0.620195
O O16 0.789697 0.498324 0.022912
#
# Coordination Sequence:
#
# PCOD8157547 Si02
#       8
#     4   4   4   4   4   4   4   4
#     4  11  23  42  70 106 140 186 249 308 359 437
#     4  11  25  48  71 105 153 193 250 306 375 447
#     4  12  27  47  79 110 151 199 247 313 379 446
#     4  11  26  44  75 105 148 194 249 309 371 447
#     4  11  26  48  72 105 151 197 242 315 371 450
#     4  10  27  44  71 108 143 195 244 306 369 445
#     4  11  23  40  70 104 137 188 244 304 363 435
#     4  11  27  47  72 107 147 200 251 303 379 441
#
# _framework density 23.036631
#
# number of rings (size 3 to 8) (size 9 to 14) (size 15 to 20)
#    0.000    1.000    2.500    1.500   17.500    2.000 
#    0.000    0.000    0.000    0.000    0.000    0.000 
#    0.000    0.000    0.000    0.000    0.000    0.000 
#
# Total GULP energy -396854.864863 kJ/mol
# GULP energy per Si atom -12401.714527 kJ/mol
# Density = 2.298420 g / cm^3
# Si number density = 23.036631 Si / 1000 Ang^3
#
#
#
# Elastic Constant Matrix: (Units=GPa)
#
#
# Indices 1 2 3 4 5 6 
#
# 1 102.7448 23.7637 25.1575 0.0000 0.0000 0.0000
# 2 23.7637 41.4468 0.2372 0.0000 0.0000 0.0000
# 3 25.1575 0.2372 109.3190 0.0000 0.0000 0.0000
# 4 0.0000 0.0000 0.0000 28.2055 0.0000 0.0000
# 5 0.0000 0.0000 0.0000 0.0000 35.5977 0.0000
# 6 0.0000 0.0000 0.0000 0.0000 0.0000 32.3745
#
#
#
# Elastic Compliance Matrix: (Units=1/GPa)
#
#
# Indices 1 2 3 4 5 6 
#
# 1 0.011991 -0.006860 -0.002745 0.000000 0.000000 0.000000
# 2 -0.006860 0.028052 0.001518 0.000000 0.000000 0.000000
# 3 -0.002745 0.001518 0.009776 0.000000 0.000000 0.000000
# 4 0.000000 0.000000 0.000000 0.035454 0.000000 0.000000
# 5 0.000000 0.000000 0.000000 0.000000 0.028092 0.000000
# 6 0.000000 0.000000 0.000000 0.000000 0.000000 0.030889
#
#
# Mechanical properties :
#
#
# Convention : Reuss Voigt Hill
#
# Bulk Modulus (GPa) = 29.72145 39.09196 34.40670
# Shear Modulus (GPa) = 29.13043 32.85899 30.99471
#
# Velocity S-wave (km/s) = 3.55988 3.78084 3.67202
# Velocity P-wave (km/s) = 5.46139 6.00550 5.73990
#
# Compressibility (1/GPa) = 0.03364573
#
# Stress axis : x y z
#
# Youngs Moduli (GPa) = 83.39266 35.64858 102.29248
#
# Poissons Ratio (x) = 0.24454 0.28076
# Poissons Ratio (y) = 0.57204 -0.15525
# Poissons Ratio (z) = 0.22889 -0.05411
#
# Static dielectric constant tensor:
#      x y z
#    x 4.348840 0.000000 0.000000 
#    y 0.000000 3.865800 0.000000 
#    z 0.000000 0.000000 4.261850 
# 
# 
# High freq. dielectric constant tensor:
#      x y z
#    x 1.924680 0.000000 0.000000 
#    y 0.000000 1.887440 0.000000 
#    z 0.000000 0.000000 1.921370 
# 
# From -- ./inp_files/5892.got.cif
#   From: 2010.03.12/outbox.cif.g09.slc.cpg/sg19_3_cif.got.tgz:5892.got - 2010.04.10 18:59:41.
