data_PCOD8157077
_publ_section_title
;
Structure prediction by ZEFSAII (Michael W. Deem and Ramdas Pophale) SiO2 
 PCOD8157077
Probable space group: P 21 21 21
;
_chemical_formula_sum "Si O2"
_cell_formula_units_Z 28
_cell_length_a 11.033229
_cell_length_b 12.701754
_cell_length_c 9.144300
_cell_angle_alpha 90.000000
_cell_angle_beta 90.000000
_cell_angle_gamma 90.000000
_cell_volume 1281.494644
_symmetry_space_group_name_H-M "P 21 21 21"
_symmetry_group_IT_number 19
_symmetry_cell_setting 'orthorhombic'
loop_
_space_group_symop_operation_xyz
x,y,z
1/2-x,-y,1/2+z
1/2+x,1/2-y,-z
-x,1/2+y,1/2-z
loop_
_atom_site_type_symbol
_atom_site_label
_atom_site_fract_x
_atom_site_fract_y
_atom_site_fract_z
Si Si1 0.558201 0.221031 0.297109
Si Si2 0.619650 0.919944 0.616098
Si Si3 0.675417 0.615706 0.320241
Si Si4 0.828208 0.996616 0.805513
Si Si5 0.714782 0.696298 0.636042
Si Si6 0.600281 0.488034 0.725117
Si Si7 0.020596 0.067365 0.581048
O O1 0.423496 0.199492 0.234875
O O2 0.647744 0.270076 0.175242
O O3 0.548660 0.307958 0.424310
O O4 0.613663 0.113712 0.358112
O O5 0.671072 0.933051 0.451297
O O6 0.625255 0.795786 0.649323
O O7 0.482416 0.963499 0.632222
O O8 0.695031 0.981371 0.740702
O O9 0.726492 0.653667 0.473599
O O10 0.790965 0.598611 0.213918
O O11 0.622264 0.498158 0.333316
O O12 0.897088 0.049762 0.669469
O O13 0.655157 0.605744 0.738091
O O14 0.513522 0.475118 0.583961
#
# Coordination Sequence:
#
# PCOD8157077 Si02
#       7
#     4   4   4   4   4   4   4
#     4  10  21  42  64  92 134 174 222 279 338 396
#     4  11  24  45  67  99 138 177 226 283 341 410
#     4  10  22  38  68  97 127 179 227 273 339 406
#     4  10  23  42  68  95 133 186 221 279 337 404
#     4  10  23  43  67  96 135 178 222 278 349 408
#     4  11  24  42  67 102 134 172 235 286 331 410
#     4  10  21  42  63  93 135 172 221 280 331 402
#
# _framework density 21.849487
#
# number of rings (size 3 to 8) (size 9 to 14) (size 15 to 20)
#    0.000    1.714    1.429    1.714    4.000    3.429 
#   12.857    0.000    0.000    0.000    0.000    0.000 
#    0.000    0.000    0.000    0.000    0.000    0.000 
#
# Total GULP energy -347072.281494 kJ/mol
# GULP energy per Si atom -12395.438625 kJ/mol
# Density = 2.179976 g / cm^3
# Si number density = 21.849487 Si / 1000 Ang^3
#
#
#
# Elastic Constant Matrix: (Units=GPa)
#
#
# Indices 1 2 3 4 5 6 
#
# 1 118.0822 49.8240 38.3596 0.0000 0.0000 0.0000
# 2 49.8240 107.7914 17.4908 0.0000 0.0000 0.0000
# 3 38.3596 17.4908 48.8803 0.0000 0.0000 0.0000
# 4 0.0000 0.0000 0.0000 27.6985 0.0000 0.0000
# 5 0.0000 0.0000 0.0000 0.0000 35.4534 0.0000
# 6 0.0000 0.0000 0.0000 0.0000 0.0000 26.8721
#
#
#
# Elastic Compliance Matrix: (Units=1/GPa)
#
#
# Indices 1 2 3 4 5 6 
#
# 1 0.013308 -0.004731 -0.008750 0.000000 0.000000 0.000000
# 2 -0.004731 0.011531 -0.000413 0.000000 0.000000 0.000000
# 3 -0.008750 -0.000413 0.027473 0.000000 0.000000 0.000000
# 4 0.000000 0.000000 0.000000 0.036103 0.000000 0.000000
# 5 0.000000 0.000000 0.000000 0.000000 0.028206 0.000000
# 6 0.000000 0.000000 0.000000 0.000000 0.000000 0.037213
#
#
# Mechanical properties :
#
#
# Convention : Reuss Voigt Hill
#
# Bulk Modulus (GPa) = 40.77971 54.01142 47.39556
# Shear Modulus (GPa) = 26.34379 29.27675 27.81027
#
# Velocity S-wave (km/s) = 3.47608 3.66447 3.57152
# Velocity P-wave (km/s) = 5.90045 6.53283 6.22468
#
# Compressibility (1/GPa) = 0.02452200
#
# Stress axis : x y z
#
# Youngs Moduli (GPa) = 75.14494 86.72168 36.39930
#
# Poissons Ratio (x) = 0.41030 0.31851
# Poissons Ratio (y) = 0.35553 0.01504
# Poissons Ratio (z) = 0.65755 0.03584
#
# Static dielectric constant tensor:
#      x y z
#    x 3.953300 0.000000 0.000000 
#    y 0.000000 4.097250 0.000000 
#    z 0.000000 0.000000 3.577270 
# 
# 
# High freq. dielectric constant tensor:
#      x y z
#    x 1.862930 0.000000 0.000000 
#    y 0.000000 1.866580 0.000000 
#    z 0.000000 0.000000 1.837410 
# 
# From -- ./inp_files/3466.got.cif
#   From: 2010.03.12/outbox.cif.g09.slc.cpg/sg19_2_cif.got.tgz:3466.got - 2010.04.10 18:59:41.
