data_PCOD8157088
_publ_section_title
;
Structure prediction by ZEFSAII (Michael W. Deem and Ramdas Pophale) SiO2 
 PCOD8157088
Probable space group: P 21 21 21
;
_chemical_formula_sum "Si O2"
_cell_formula_units_Z 28
_cell_length_a 9.293548
_cell_length_b 11.375337
_cell_length_c 13.412006
_cell_angle_alpha 90.000000
_cell_angle_beta 90.000000
_cell_angle_gamma 90.000000
_cell_volume 1417.880263
_symmetry_space_group_name_H-M "P 21 21 21"
_symmetry_group_IT_number 19
_symmetry_cell_setting 'orthorhombic'
loop_
_space_group_symop_operation_xyz
x,y,z
1/2-x,-y,1/2+z
1/2+x,1/2-y,-z
-x,1/2+y,1/2-z
loop_
_atom_site_type_symbol
_atom_site_label
_atom_site_fract_x
_atom_site_fract_y
_atom_site_fract_z
Si Si1 0.844067 0.030146 0.943791
Si Si2 0.873597 0.143550 0.359389
Si Si3 0.480490 0.416658 0.851459
Si Si4 0.861828 0.606707 0.629011
Si Si5 0.903760 0.797875 0.469923
Si Si6 0.726875 0.602842 0.839004
Si Si7 0.610202 0.486942 0.521676
O O1 0.736547 0.139056 0.926080
O O2 0.980001 0.050122 0.872459
O O3 0.767455 0.910053 0.911914
O O4 0.889532 0.022657 0.060040
O O5 0.864294 0.283306 0.370391
O O6 0.880405 0.099875 0.244870
O O7 0.017931 0.105108 0.415356
O O8 0.536811 0.289118 0.885457
O O9 0.617177 0.495960 0.823128
O O10 0.860496 0.729234 0.569629
O O11 0.812551 0.634451 0.739491
O O12 0.758019 0.511761 0.578551
O O13 0.025495 0.892173 0.497234
O O14 0.850701 0.571327 0.917062
#
# Coordination Sequence:
#
# PCOD8157088 Si02
#       7
#     4   4   4   4   4   4   4
#     4  10  23  41  67  96 128 167 225 278 319 386
#     4  11  26  43  65  95 139 176 218 270 336 398
#     4  11  23  42  69  92 131 174 219 266 335 389
#     4  11  21  41  67  98 127 165 225 272 323 389
#     4  10  21  42  70  95 125 172 223 274 318 389
#     4  12  25  40  66  98 132 177 214 274 329 390
#     4  11  23  43  66  96 132 177 218 268 336 389
#
# _framework density 19.747788
#
# number of rings (size 3 to 8) (size 9 to 14) (size 15 to 20)
#    0.000    1.143    4.286    3.429    4.000    3.429 
#    0.000    1.429    0.000    0.000    0.000    0.000 
#    0.000    0.000    0.000    0.000    0.000    0.000 
#
# Total GULP energy -347342.193939 kJ/mol
# GULP energy per Si atom -12405.078355 kJ/mol
# Density = 1.970284 g / cm^3
# Si number density = 19.747788 Si / 1000 Ang^3
#
#
#
# Elastic Constant Matrix: (Units=GPa)
#
#
# Indices 1 2 3 4 5 6 
#
# 1 119.1148 43.7129 46.2218 0.0000 0.0000 0.0000
# 2 43.7129 102.7515 44.6135 0.0000 0.0000 0.0000
# 3 46.2218 44.6135 88.8445 0.0000 0.0000 0.0000
# 4 0.0000 0.0000 0.0000 21.1264 0.0000 0.0000
# 5 0.0000 0.0000 0.0000 0.0000 35.9944 0.0000
# 6 0.0000 0.0000 0.0000 0.0000 0.0000 28.6128
#
#
#
# Elastic Compliance Matrix: (Units=1/GPa)
#
#
# Indices 1 2 3 4 5 6 
#
# 1 0.011131 -0.002840 -0.004365 0.000000 0.000000 0.000000
# 2 -0.002840 0.013171 -0.005136 0.000000 0.000000 0.000000
# 3 -0.004365 -0.005136 0.016105 0.000000 0.000000 0.000000
# 4 0.000000 0.000000 0.000000 0.047334 0.000000 0.000000
# 5 0.000000 0.000000 0.000000 0.000000 0.027782 0.000000
# 6 0.000000 0.000000 0.000000 0.000000 0.000000 0.034949
#
#
# Mechanical properties :
#
#
# Convention : Reuss Voigt Hill
#
# Bulk Modulus (GPa) = 63.59254 64.42303 64.00779
# Shear Modulus (GPa) = 27.71663 28.89088 28.30375
#
# Velocity S-wave (km/s) = 3.75044 3.82906 3.78995
# Velocity P-wave (km/s) = 7.14329 7.22791 7.18573
#
# Compressibility (1/GPa) = 0.01572511
#
# Stress axis : x y z
#
# Youngs Moduli (GPa) = 89.83612 75.92712 62.09069
#
# Poissons Ratio (x) = 0.21566 0.27102
# Poissons Ratio (y) = 0.25517 0.31889
# Poissons Ratio (z) = 0.39212 0.38995
#
# Static dielectric constant tensor:
#      x y z
#    x 3.766900 0.000000 0.000000 
#    y 0.000000 3.611800 0.000000 
#    z 0.000000 0.000000 3.670560 
# 
# 
# High freq. dielectric constant tensor:
#      x y z
#    x 1.782920 0.000000 0.000000 
#    y 0.000000 1.771410 0.000000 
#    z 0.000000 0.000000 1.768580 
# 
# From -- ./inp_files/5886.got.cif
#   From: 2010.03.12/outbox.cif.g09.slc.cpg/sg19_3_cif.got.tgz:5886.got - 2010.04.10 18:59:41.
