data_PCOD8157009
_publ_section_title
;
Structure prediction by ZEFSAII (Michael W. Deem and Ramdas Pophale) SiO2 
 PCOD8157009
Probable space group: P 21 21 21
;
_chemical_formula_sum "Si O2"
_cell_formula_units_Z 28
_cell_length_a 22.738891
_cell_length_b 9.875775
_cell_length_c 5.262448
_cell_angle_alpha 90.000000
_cell_angle_beta 90.000000
_cell_angle_gamma 90.000000
_cell_volume 1181.757274
_symmetry_space_group_name_H-M "P 21 21 21"
_symmetry_group_IT_number 19
_symmetry_cell_setting 'orthorhombic'
loop_
_space_group_symop_operation_xyz
x,y,z
1/2-x,-y,1/2+z
1/2+x,1/2-y,-z
-x,1/2+y,1/2-z
loop_
_atom_site_type_symbol
_atom_site_label
_atom_site_fract_x
_atom_site_fract_y
_atom_site_fract_z
Si Si1 0.404479 0.550606 0.247768
Si Si2 0.521630 0.547206 0.913414
Si Si3 0.968542 0.154329 0.470566
Si Si4 0.921912 0.659738 0.729023
Si Si5 0.252780 0.172848 0.972080
Si Si6 0.812852 0.607878 0.028977
Si Si7 0.283666 0.461844 0.073901
O O1 0.408704 0.422770 0.442744
O O2 0.399482 0.696655 0.392408
O O3 0.347353 0.532047 0.072520
O O4 0.462256 0.554988 0.075647
O O5 0.543495 0.700056 0.835080
O O6 0.507273 0.456267 0.673722
O O7 0.577620 0.471575 0.045527
O O8 0.009542 0.187708 0.710875
O O9 0.882259 0.626536 0.977434
O O10 0.203102 0.164338 0.193073
O O11 0.292344 0.304367 0.011724
O O12 0.297711 0.049838 0.988889
O O13 0.221462 0.184703 0.698571
O O14 0.254964 0.471498 0.352768
#
# Coordination Sequence:
#
# PCOD8157009 Si02
#       7
#     4   4   4   4   4   4   4
#     4  10  23  41  63  88 130 163 212 269 319 387
#     4  10  22  40  63  93 126 166 214 264 329 387
#     4  10  22  40  61  93 125 161 211 266 320 390
#     4  10  21  39  63  88 119 169 210 256 325 379
#     4  10  22  42  62  95 131 164 219 262 324 377
#     4  10  22  41  67  92 130 168 212 273 315 389
#     4  12  26  43  67  97 131 175 220 266 328 393
#
# _framework density 23.693529999999999
#
# number of rings (size 3 to 8) (size 9 to 14) (size 15 to 20)
#    0.000    1.714    0.000    3.429    6.000    1.143 
#    0.000    0.000    0.000    0.000    0.000    0.000 
#    0.000    0.000    0.000    0.000    0.000    0.000 
#
# Total GULP energy -346958.181231 kJ/mol
# GULP energy per Si atom -12391.363615 kJ/mol
# Density = 2.363960 g / cm^3
# Si number density = 23.693530 Si / 1000 Ang^3
#
#
#
# Elastic Constant Matrix: (Units=GPa)
#
#
# Indices 1 2 3 4 5 6 
#
# 1 61.3671 22.3967 -4.7131 0.0000 0.0000 0.0000
# 2 22.3967 173.8745 17.1935 0.0000 0.0000 0.0000
# 3 -4.7131 17.1935 66.0782 0.0000 0.0000 0.0000
# 4 0.0000 0.0000 0.0000 29.4833 0.0000 0.0000
# 5 0.0000 0.0000 0.0000 0.0000 23.2049 0.0000
# 6 0.0000 0.0000 0.0000 0.0000 0.0000 33.1104
#
#
#
# Elastic Compliance Matrix: (Units=1/GPa)
#
#
# Indices 1 2 3 4 5 6 
#
# 1 0.017320 -0.002415 0.001864 0.000000 0.000000 0.000000
# 2 -0.002415 0.006240 -0.001796 0.000000 0.000000 0.000000
# 3 0.001864 -0.001796 0.015734 0.000000 0.000000 0.000000
# 4 0.000000 0.000000 0.000000 0.033918 0.000000 0.000000
# 5 0.000000 0.000000 0.000000 0.000000 0.043094 0.000000
# 6 0.000000 0.000000 0.000000 0.000000 0.000000 0.030202
#
#
# Mechanical properties :
#
#
# Convention : Reuss Voigt Hill
#
# Bulk Modulus (GPa) = 28.90253 41.23046 35.06649
# Shear Modulus (GPa) = 30.72474 34.92258 32.82366
#
# Velocity S-wave (km/s) = 3.60496 3.84334 3.72606
# Velocity P-wave (km/s) = 5.43623 6.09380 5.77438
#
# Compressibility (1/GPa) = 0.03459905
#
# Stress axis : x y z
#
# Youngs Moduli (GPa) = 57.73666 160.25702 63.55739
#
# Poissons Ratio (x) = 0.38707 -0.11846
# Poissons Ratio (y) = 0.13945 0.11414
# Poissons Ratio (z) = -0.10761 0.28781
#
# Static dielectric constant tensor:
#      x y z
#    x 4.024200 0.000000 0.000000 
#    y 0.000000 5.020510 0.000000 
#    z 0.000000 0.000000 4.093050 
# 
# 
# High freq. dielectric constant tensor:
#      x y z
#    x 1.921250 0.000000 0.000000 
#    y 0.000000 1.966060 0.000000 
#    z 0.000000 0.000000 1.918690 
# 
# From -- ./inp_files/547.got.cif
#   From: 2010.03.12/outbox.cif.g09.slc.cpg/sg19_1_cif.got.tgz:547.got - 2010.04.10 18:59:41.
