data_PCOD8157592
_publ_section_title
;
Structure prediction by ZEFSAII (Michael W. Deem and Ramdas Pophale) SiO2 
 PCOD8157592
Probable space group: P 21 21 21
;
_chemical_formula_sum "Si O2"
_cell_formula_units_Z 32
_cell_length_a 15.327323
_cell_length_b 5.182843
_cell_length_c 19.811751
_cell_angle_alpha 90.000000
_cell_angle_beta 90.000000
_cell_angle_gamma 90.000000
_cell_volume 1573.827842
_symmetry_space_group_name_H-M "P 21 21 21"
_symmetry_group_IT_number 19
_symmetry_cell_setting 'orthorhombic'
loop_
_space_group_symop_operation_xyz
x,y,z
1/2-x,-y,1/2+z
1/2+x,1/2-y,-z
-x,1/2+y,1/2-z
loop_
_atom_site_type_symbol
_atom_site_label
_atom_site_fract_x
_atom_site_fract_y
_atom_site_fract_z
Si Si1 0.615093 0.249792 0.499527
Si Si2 0.197241 0.250779 0.140704
Si Si3 0.615094 0.250207 0.999527
Si Si4 0.426882 0.248857 0.931446
Si Si5 0.926882 0.248858 0.568554
Si Si6 0.988097 0.770423 0.292573
Si Si7 0.011903 0.229577 0.707427
Si Si8 0.302759 0.750779 0.140704
O O1 0.629385 0.501923 0.545574
O O2 0.519389 0.254319 0.467984
O O3 0.685513 0.243081 0.439975
O O4 0.627231 0.001488 0.547230
O O5 0.238269 0.522283 0.162822
O O6 0.106763 0.208204 0.178525
O O7 0.261731 0.022283 0.162822
O O8 0.185513 0.243081 0.060025
O O9 0.627232 0.498511 0.047230
O O10 0.629386 0.998076 0.045574
O O11 0.519390 0.245680 0.967984
O O12 0.439424 0.245405 0.851081
O O13 0.939424 0.245406 0.648919
O O14 0.011279 0.558948 0.236595
O O15 0.106763 0.291795 0.678525
O O16 0.988722 0.441052 0.763406
#
# Coordination Sequence:
#
# PCOD8157592 Si02
#       8
#     4   4   4   4   4   4   4   4
#     4   9  17  31  53  79 104 132 170 224 287 329
#     4  11  22  37  59  85 114 147 189 247 302 347
#     4   9  17  31  53  79 104 132 170 224 287 329
#     4   9  17  31  53  79 104 132 175 229 271 319
#     4   9  17  31  53  79 104 132 175 229 271 319
#     4  11  22  37  59  85 114 157 206 236 272 343
#     4  11  22  37  59  85 114 157 206 236 272 343
#     4  11  22  37  59  85 114 147 189 247 302 347
#
# _framework density 20.332594
#
# number of rings (size 3 to 8) (size 9 to 14) (size 15 to 20)
#    0.000    2.000    0.000    4.500    0.000    8.000 
#    0.000    0.000    0.000   30.000    0.000    0.000 
#    0.000    0.000    0.000    0.000    0.000    0.000 
#
# Total GULP energy -396901.247757 kJ/mol
# GULP energy per Si atom -12403.163992 kJ/mol
# Density = 2.028632 g / cm^3
# Si number density = 20.332594 Si / 1000 Ang^3
#
#
#
# Elastic Constant Matrix: (Units=GPa)
#
#
# Indices 1 2 3 4 5 6 
#
# 1 36.4829 7.8520 12.3075 0.0000 0.0000 0.0000
# 2 7.8520 150.4579 31.5025 0.0000 0.0000 0.0000
# 3 12.3075 31.5025 95.7562 0.0000 0.0000 0.0000
# 4 0.0000 0.0000 0.0000 36.0344 0.0000 0.0000
# 5 0.0000 0.0000 0.0000 0.0000 27.4702 0.0000
# 6 0.0000 0.0000 0.0000 0.0000 0.0000 27.2517
#
#
#
# Elastic Compliance Matrix: (Units=1/GPa)
#
#
# Indices 1 2 3 4 5 6 
#
# 1 0.028737 -0.000780 -0.003437 0.000000 0.000000 0.000000
# 2 -0.000780 0.007159 -0.002255 0.000000 0.000000 0.000000
# 3 -0.003437 -0.002255 0.011627 0.000000 0.000000 0.000000
# 4 0.000000 0.000000 0.000000 0.027751 0.000000 0.000000
# 5 0.000000 0.000000 0.000000 0.000000 0.036403 0.000000
# 6 0.000000 0.000000 0.000000 0.000000 0.000000 0.036695
#
#
# Mechanical properties :
#
#
# Convention : Reuss Voigt Hill
#
# Bulk Modulus (GPa) = 28.91900 42.89121 35.90511
# Shear Modulus (GPa) = 28.92791 33.55360 31.24076
#
# Velocity S-wave (km/s) = 3.77601 4.06672 3.92406
# Velocity P-wave (km/s) = 5.76757 6.57203 6.18289
#
# Compressibility (1/GPa) = 0.03457934
#
# Stress axis : x y z
#
# Youngs Moduli (GPa) = 34.79774 139.67968 86.00812
#
# Poissons Ratio (x) = 0.10896 0.29561
# Poissons Ratio (y) = 0.02715 0.19395
# Poissons Ratio (z) = 0.11960 0.31498
#
# Static dielectric constant tensor:
#      x y z
#    x 3.327590 0.000000 0.000000 
#    y 0.000000 3.860870 0.000000 
#    z 0.000000 0.000000 3.651700 
# 
# 
# High freq. dielectric constant tensor:
#      x y z
#    x 1.767520 0.000000 0.000000 
#    y 0.000000 1.814810 0.000000 
#    z 0.000000 0.000000 1.784370 
# 
# From -- ./inp_files/6808.got.cif
#   From: 2010.03.12/outbox.cif.g09.slc.cpg/sg19_4_cif.got.tgz:6808.got - 2010.04.10 18:59:41.
