data_PCOD8157202
_publ_section_title
;
Structure prediction by ZEFSAII (Michael W. Deem and Ramdas Pophale) SiO2 
 PCOD8157202
Probable space group: P 21 21 21
;
_chemical_formula_sum "Si O2"
_cell_formula_units_Z 28
_cell_length_a 12.564843
_cell_length_b 11.094473
_cell_length_c 9.129010
_cell_angle_alpha 90.000000
_cell_angle_beta 90.000000
_cell_angle_gamma 90.000000
_cell_volume 1272.586837
_symmetry_space_group_name_H-M "P 21 21 21"
_symmetry_group_IT_number 19
_symmetry_cell_setting 'orthorhombic'
loop_
_space_group_symop_operation_xyz
x,y,z
1/2-x,-y,1/2+z
1/2+x,1/2-y,-z
-x,1/2+y,1/2-z
loop_
_atom_site_type_symbol
_atom_site_label
_atom_site_fract_x
_atom_site_fract_y
_atom_site_fract_z
Si Si1 0.357844 0.076770 0.915963
Si Si2 0.610729 0.312497 0.277469
Si Si3 0.841685 0.939834 0.708686
Si Si4 0.506288 0.489523 0.055766
Si Si5 0.698103 0.550857 0.891202
Si Si6 0.886968 0.152051 0.187604
Si Si7 0.536420 0.903062 0.998486
O O1 0.336656 0.001008 0.767662
O O2 0.360844 0.217852 0.878957
O O3 0.465587 0.024205 0.982593
O O4 0.262109 0.056752 0.030086
O O5 0.615828 0.195054 0.174127
O O6 0.578393 0.423019 0.175814
O O7 0.724771 0.333787 0.360238
O O8 0.522618 0.300892 0.405297
O O9 0.714315 0.934815 0.713387
O O10 0.863945 0.042157 0.587895
O O11 0.898461 0.964078 0.866503
O O12 0.591303 0.585571 0.985368
O O13 0.471135 0.405849 0.922081
O O14 0.937198 0.163945 0.348469
#
# Coordination Sequence:
#
# PCOD8157202 Si02
#       7
#     4   4   4   4   4   4   4
#     4  11  23  40  67  90 124 159 207 262 306 373
#     4  10  22  41  64  90 123 164 210 257 319 370
#     4  11  23  41  59  85 129 167 204 256 307 373
#     4  11  23  39  63  90 126 163 205 261 316 367
#     4  11  20  42  63  92 118 163 205 263 305 368
#     4  12  23  41  62  91 126 166 210 252 315 371
#     4  10  24  40  62  94 124 160 211 255 312 372
#
# _framework density 22.002428999999999
#
# number of rings (size 3 to 8) (size 9 to 14) (size 15 to 20)
#    0.000    1.143    4.286    1.714    2.000    0.000 
#    0.000    0.000    3.143    0.000    0.000    0.000 
#    0.000    0.000    0.000    0.000    0.000    0.000 
#
# Total GULP energy -346883.961421 kJ/mol
# GULP energy per Si atom -12388.712908 kJ/mol
# Density = 2.195235 g / cm^3
# Si number density = 22.002429 Si / 1000 Ang^3
#
#
#
# Elastic Constant Matrix: (Units=GPa)
#
#
# Indices 1 2 3 4 5 6 
#
# 1 77.7629 -0.7983 23.0943 0.0000 0.0000 0.0000
# 2 -0.7983 35.3377 -2.0310 0.0000 0.0000 0.0000
# 3 23.0943 -2.0310 90.1884 0.0000 0.0000 0.0000
# 4 0.0000 0.0000 0.0000 30.7947 0.0000 0.0000
# 5 0.0000 0.0000 0.0000 0.0000 42.8754 0.0000
# 6 0.0000 0.0000 0.0000 0.0000 0.0000 22.8686
#
#
#
# Elastic Compliance Matrix: (Units=1/GPa)
#
#
# Indices 1 2 3 4 5 6 
#
# 1 0.013918 0.000110 -0.003562 0.000000 0.000000 0.000000
# 2 0.000110 0.028336 0.000610 0.000000 0.000000 0.000000
# 3 -0.003562 0.000610 0.012014 0.000000 0.000000 0.000000
# 4 0.000000 0.000000 0.000000 0.032473 0.000000 0.000000
# 5 0.000000 0.000000 0.000000 0.000000 0.023323 0.000000
# 6 0.000000 0.000000 0.000000 0.000000 0.000000 0.043728
#
#
# Mechanical properties :
#
#
# Convention : Reuss Voigt Hill
#
# Bulk Modulus (GPa) = 20.58279 27.09102 23.83690
# Shear Modulus (GPa) = 28.46228 31.50935 29.98581
#
# Velocity S-wave (km/s) = 3.60056 3.78840 3.69567
# Velocity P-wave (km/s) = 5.16338 5.61029 5.39147
#
# Compressibility (1/GPa) = 0.04858427
#
# Stress axis : x y z
#
# Youngs Moduli (GPa) = 71.84701 35.29092 83.23870
#
# Poissons Ratio (x) = -0.00387 0.29646
# Poissons Ratio (y) = -0.00788 -0.05078
# Poissons Ratio (z) = 0.25589 -0.02153
#
# Static dielectric constant tensor:
#      x y z
#    x 4.202940 0.000000 0.000000 
#    y 0.000000 3.566390 0.000000 
#    z 0.000000 0.000000 4.240240 
# 
# 
# High freq. dielectric constant tensor:
#      x y z
#    x 1.881810 0.000000 0.000000 
#    y 0.000000 1.832630 0.000000 
#    z 0.000000 0.000000 1.878940 
# 
# From -- ./inp_files/3457.got.cif
#   From: 2010.03.12/outbox.cif.g09.slc.cpg/sg19_2_cif.got.tgz:3457.got - 2010.04.10 18:59:41.
