data_PCOD8157161
_publ_section_title
;
Structure prediction by ZEFSAII (Michael W. Deem and Ramdas Pophale) SiO2 
 PCOD8157161
Probable space group: P 21 21 21
;
_chemical_formula_sum "Si O2"
_cell_formula_units_Z 32
_cell_length_a 16.246077
_cell_length_b 11.988651
_cell_length_c 7.326868
_cell_angle_alpha 90.000000
_cell_angle_beta 90.000000
_cell_angle_gamma 90.000000
_cell_volume 1427.043436
_symmetry_space_group_name_H-M "P 21 21 21"
_symmetry_group_IT_number 19
_symmetry_cell_setting 'orthorhombic'
loop_
_space_group_symop_operation_xyz
x,y,z
1/2-x,-y,1/2+z
1/2+x,1/2-y,-z
-x,1/2+y,1/2-z
loop_
_atom_site_type_symbol
_atom_site_label
_atom_site_fract_x
_atom_site_fract_y
_atom_site_fract_z
Si Si1 0.528970 0.421064 0.833629
Si Si2 0.622931 0.230327 0.946198
Si Si3 0.576018 0.125152 0.303544
Si Si4 0.762279 0.302516 0.718756
Si Si5 0.593227 0.526344 0.185437
Si Si6 0.184434 0.554259 0.814748
Si Si7 0.614504 0.342627 0.478435
Si Si8 0.640702 0.002755 0.785002
O O1 0.538461 0.299267 0.924540
O O2 0.568954 0.418182 0.631613
O O3 0.432355 0.446727 0.829105
O O4 0.575382 0.508304 0.969147
O O5 0.700627 0.310409 0.893840
O O6 0.621088 0.133823 0.794641
O O7 0.631427 0.181697 0.146077
O O8 0.484957 0.093964 0.235644
O O9 0.573868 0.218158 0.463049
O O10 0.626376 0.008865 0.337398
O O11 0.826944 0.401544 0.726399
O O12 0.808795 0.184263 0.732179
O O13 0.709433 0.320741 0.533413
O O14 0.605961 0.407870 0.286880
O O15 0.272392 0.490245 0.818918
O O16 0.143215 0.549005 0.013246
#
# Coordination Sequence:
#
# PCOD8157161 Si02
#       8
#     4   4   4   4   4   4   4   4
#     4  11  25  43  69 101 141 186 239 299 354 440
#     4   9  21  46  66  99 141 180 230 304 353 428
#     4  11  24  45  73 102 150 184 241 308 372 428
#     4  10  25  43  76 103 144 187 245 296 366 450
#     4  12  28  44  75 104 143 199 247 299 373 449
#     4  10  22  43  69 107 133 188 234 302 365 439
#     4  11  25  47  71 103 142 198 234 313 366 434
#     4  10  22  39  69  97 138 178 236 293 359 432
#
# _framework density 22.423985999999999
#
# number of rings (size 3 to 8) (size 9 to 14) (size 15 to 20)
#    0.000    1.500    1.250    2.250   14.000    0.000 
#    4.500    0.000    0.000    0.000    0.000    0.000 
#    0.000    0.000    0.000    0.000    0.000    0.000 
#
# Total GULP energy -396588.408824 kJ/mol
# GULP energy per Si atom -12393.387776 kJ/mol
# Density = 2.237295 g / cm^3
# Si number density = 22.423986 Si / 1000 Ang^3
#
#
#
# Elastic Constant Matrix: (Units=GPa)
#
#
# Indices 1 2 3 4 5 6 
#
# 1 111.7464 49.4110 25.7156 0.0000 0.0000 0.0000
# 2 49.4110 100.2609 26.4689 0.0000 0.0000 0.0000
# 3 25.7156 26.4689 84.1028 0.0000 0.0000 0.0000
# 4 0.0000 0.0000 0.0000 30.1666 0.0000 0.0000
# 5 0.0000 0.0000 0.0000 0.0000 34.1561 0.0000
# 6 0.0000 0.0000 0.0000 0.0000 0.0000 43.5737
#
#
#
# Elastic Compliance Matrix: (Units=1/GPa)
#
#
# Indices 1 2 3 4 5 6 
#
# 1 0.011721 -0.005268 -0.001926 0.000000 0.000000 0.000000
# 2 -0.005268 0.013246 -0.002558 0.000000 0.000000 0.000000
# 3 -0.001926 -0.002558 0.013284 0.000000 0.000000 0.000000
# 4 0.000000 0.000000 0.000000 0.033149 0.000000 0.000000
# 5 0.000000 0.000000 0.000000 0.000000 0.029277 0.000000
# 6 0.000000 0.000000 0.000000 0.000000 0.000000 0.022950
#
#
# Mechanical properties :
#
#
# Convention : Reuss Voigt Hill
#
# Bulk Modulus (GPa) = 53.34153 55.47792 54.40972
# Shear Modulus (GPa) = 33.47161 34.54694 34.00928
#
# Velocity S-wave (km/s) = 3.86770 3.92934 3.89864
# Velocity P-wave (km/s) = 6.61701 6.73650 6.67702
#
# Compressibility (1/GPa) = 0.01874712
#
# Stress axis : x y z
#
# Youngs Moduli (GPa) = 85.31343 75.49720 75.27792
#
# Poissons Ratio (x) = 0.39773 0.14499
# Poissons Ratio (y) = 0.44945 0.19255
# Poissons Ratio (z) = 0.16431 0.19311
#
# Static dielectric constant tensor:
#      x y z
#    x 4.045980 0.000000 0.000000 
#    y 0.000000 4.172860 0.000000 
#    z 0.000000 0.000000 3.980310 
# 
# 
# High freq. dielectric constant tensor:
#      x y z
#    x 1.877380 0.000000 0.000000 
#    y 0.000000 1.887230 0.000000 
#    z 0.000000 0.000000 1.882700 
# 
# From -- ./inp_files/3997.got.cif
#   From: 2010.03.12/outbox.cif.g09.slc.cpg/sg19_2_cif.got.tgz:3997.got - 2010.04.10 18:59:41.
