data_PCOD8157299
_publ_section_title
;
Structure prediction by ZEFSAII (Michael W. Deem and Ramdas Pophale) SiO2 
 PCOD8157299
Probable space group: P 21 21 21
;
_chemical_formula_sum "Si O2"
_cell_formula_units_Z 32
_cell_length_a 8.374503
_cell_length_b 12.524478
_cell_length_c 12.451039
_cell_angle_alpha 90.000000
_cell_angle_beta 90.000000
_cell_angle_gamma 90.000000
_cell_volume 1305.943145
_symmetry_space_group_name_H-M "P 21 21 21"
_symmetry_group_IT_number 19
_symmetry_cell_setting 'orthorhombic'
loop_
_space_group_symop_operation_xyz
x,y,z
1/2-x,-y,1/2+z
1/2+x,1/2-y,-z
-x,1/2+y,1/2-z
loop_
_atom_site_type_symbol
_atom_site_label
_atom_site_fract_x
_atom_site_fract_y
_atom_site_fract_z
Si Si1 0.102544 0.619626 0.878934
Si Si2 0.065173 0.434110 0.396443
Si Si3 0.522788 0.304816 0.581418
Si Si4 0.286424 0.012604 0.438528
Si Si5 0.270304 0.774725 0.442179
Si Si6 0.544167 0.552170 0.271777
Si Si7 0.819926 0.115131 0.234208
Si Si8 0.122829 0.729108 0.652012
O O1 0.249712 0.555295 0.936061
O O2 0.956411 0.534190 0.869558
O O3 0.143425 0.653290 0.755705
O O4 0.042844 0.713245 0.958595
O O5 0.069873 0.307855 0.365997
O O6 0.060025 0.517465 0.297587
O O7 0.921362 0.460492 0.474058
O O8 0.666879 0.388569 0.575284
O O9 0.377023 0.347406 0.650362
O O10 0.380963 0.993665 0.329005
O O11 0.204500 0.896670 0.458928
O O12 0.167484 0.710540 0.353455
O O13 0.253247 0.712133 0.557152
O O14 0.453241 0.779990 0.406846
O O15 0.361469 0.581859 0.247209
O O16 0.650439 0.652480 0.302668
#
# Coordination Sequence:
#
# PCOD8157299 Si02
#       8
#     4   4   4   4   4   4   4   4
#     4  11  24  46  68 101 143 194 238 294 373 442
#     4  11  25  45  70 102 144 195 240 298 366 438
#     4  12  26  44  71 110 143 190 242 306 371 437
#     4  12  25  44  75 109 146 185 245 316 356 437
#     4  11  25  46  73 107 144 191 245 307 365 443
#     4  10  22  44  67 101 138 191 234 297 367 437
#     4  10  26  46  71 102 147 195 242 297 373 447
#     4  11  23  45  73 104 145 187 244 299 369 427
#
# _framework density 24.503363
#
# number of rings (size 3 to 8) (size 9 to 14) (size 15 to 20)
#    0.000    1.000    1.250    4.500    1.750    8.000 
#    9.000    0.000    0.000    0.000    0.000    0.000 
#    0.000    0.000    0.000    0.000    0.000    0.000 
#
# Total GULP energy -396419.309327 kJ/mol
# GULP energy per Si atom -12388.103416 kJ/mol
# Density = 2.444759 g / cm^3
# Si number density = 24.503363 Si / 1000 Ang^3
#
#
#
# Elastic Constant Matrix: (Units=GPa)
#
#
# Indices 1 2 3 4 5 6 
#
# 1 59.0549 10.5559 43.9891 0.0000 0.0000 0.0000
# 2 10.5559 129.7728 33.5958 0.0000 0.0000 0.0000
# 3 43.9891 33.5958 116.6790 0.0000 0.0000 0.0000
# 4 0.0000 0.0000 0.0000 30.1824 0.0000 0.0000
# 5 0.0000 0.0000 0.0000 0.0000 30.7831 0.0000
# 6 0.0000 0.0000 0.0000 0.0000 0.0000 34.3382
#
#
#
# Elastic Compliance Matrix: (Units=1/GPa)
#
#
# Indices 1 2 3 4 5 6 
#
# 1 0.023566 0.000414 -0.009004 0.000000 0.000000 0.000000
# 2 0.000414 0.008334 -0.002556 0.000000 0.000000 0.000000
# 3 -0.009004 -0.002556 0.012701 0.000000 0.000000 0.000000
# 4 0.000000 0.000000 0.000000 0.033132 0.000000 0.000000
# 5 0.000000 0.000000 0.000000 0.000000 0.032485 0.000000
# 6 0.000000 0.000000 0.000000 0.000000 0.000000 0.029122
#
#
# Mechanical properties :
#
#
# Convention : Reuss Voigt Hill
#
# Bulk Modulus (GPa) = 44.82325 53.53203 49.17764
# Shear Modulus (GPa) = 29.57391 33.55180 31.56285
#
# Velocity S-wave (km/s) = 3.47786 3.70438 3.59291
# Velocity P-wave (km/s) = 5.87025 6.33963 6.10944
#
# Compressibility (1/GPa) = 0.02230985
#
# Stress axis : x y z
#
# Youngs Moduli (GPa) = 42.43356 119.99462 78.73433
#
# Poissons Ratio (x) = -0.04968 0.70892
# Poissons Ratio (y) = -0.01757 0.20122
# Poissons Ratio (z) = 0.38207 0.30666
#
# Static dielectric constant tensor:
#      x y z
#    x 4.435580 0.000000 0.000000 
#    y 0.000000 4.815830 0.000000 
#    z 0.000000 0.000000 4.505110 
# 
# 
# High freq. dielectric constant tensor:
#      x y z
#    x 1.966910 0.000000 0.000000 
#    y 0.000000 1.989420 0.000000 
#    z 0.000000 0.000000 1.973200 
# 
# From -- ./inp_files/4680.got.cif
#   From: 2010.03.12/outbox.cif.g09.slc.cpg/sg19_3_cif.got.tgz:4680.got - 2010.04.10 18:59:41.
