data_PCOD8157952
_publ_section_title
;
Structure prediction by ZEFSAII (Michael W. Deem and Ramdas Pophale) SiO2 
 PCOD8157952
Probable space group: C 2 2 21
;
_chemical_formula_sum "Si O2"
_cell_formula_units_Z 28
_cell_length_a 31.275448
_cell_length_b 8.712785
_cell_length_c 5.091721
_cell_angle_alpha 90.000000
_cell_angle_beta 90.000000
_cell_angle_gamma 90.000000
_cell_volume 1387.474900
_symmetry_space_group_name_H-M "C 2 2 21"
_symmetry_group_IT_number 20
_symmetry_cell_setting 'orthorhombic'
loop_
_space_group_symop_operation_xyz
x,y,z
-x,-y,1/2+z
x,-y,-z
-x,y,1/2-z
1/2+x,1/2+y,z
1/2-x,1/2-y,1/2+z
1/2+x,1/2-y,-z
1/2-x,1/2+y,1/2-z
loop_
_atom_site_type_symbol
_atom_site_label
_atom_site_fract_x
_atom_site_fract_y
_atom_site_fract_z
Si Si1 0.000000 0.899355 0.250000
Si Si2 0.586964 0.320045 0.460460
Si Si3 0.229478 0.180402 0.020171
Si Si4 0.867648 0.818745 0.535753
O O1 0.037868 0.793458 0.368299
O O2 0.982608 0.000000 0.500000
O O3 0.594695 0.500000 0.500000
O O4 0.601108 0.247647 0.739022
O O5 0.617696 0.245670 0.240506
O O6 0.239015 0.253747 0.738579
O O7 0.181120 0.223983 0.099979
O O8 0.236049 0.000000 0.000000
O O9 0.873169 0.000000 0.500000
#
# Coordination Sequence:
#
# PCOD8157952 Si02
#       4
#     4   8   8   8
#     4  10  16  22  34  56  86 124 166 204 242 294
#     4   9  15  24  37  57  86 123 164 201 240 300
#     4  11  22  37  56  79 106 141 183 227 272 321
#     4   9  17  28  43  62  89 126 167 205 250 308
#
# _framework density 20.180544000000001
#
# number of rings (size 3 to 8) (size 9 to 14) (size 15 to 20)
#    0.000    2.286    0.000    6.857    0.000    4.571 
#    0.000    0.000    0.000    0.000    0.000    0.000 
#    0.000    0.000    0.000   72.000    0.000  124.571 
#
# Total GULP energy -173462.209582 kJ/mol
# GULP energy per Si atom -12390.157827 kJ/mol
# Density = 2.013461 g / cm^3
# Si number density = 20.180544 Si / 1000 Ang^3
#
#
#
# Elastic Constant Matrix: (Units=GPa)
#
#
# Indices 1 2 3 4 5 6 
#
# 1 125.1805 25.8198 49.7272 0.0000 0.0000 0.0000
# 2 25.8198 31.2563 13.7578 0.0000 0.0000 0.0000
# 3 49.7272 13.7578 129.1999 0.0000 0.0000 0.0000
# 4 0.0000 0.0000 0.0000 16.0110 0.0000 0.0000
# 5 0.0000 0.0000 0.0000 0.0000 46.0078 0.0000
# 6 0.0000 0.0000 0.0000 0.0000 0.0000 12.6903
#
#
#
# Elastic Compliance Matrix: (Units=1/GPa)
#
#
# Indices 1 2 3 4 5 6 
#
# 1 0.010881 -0.007497 -0.003390 0.000000 0.000000 0.000000
# 2 -0.007497 0.038732 -0.001239 0.000000 0.000000 0.000000
# 3 -0.003390 -0.001239 0.009177 0.000000 0.000000 0.000000
# 4 0.000000 0.000000 0.000000 0.062457 0.000000 0.000000
# 5 0.000000 0.000000 0.000000 0.000000 0.021735 0.000000
# 6 0.000000 0.000000 0.000000 0.000000 0.000000 0.078801
#
#
# Mechanical properties :
#
#
# Convention : Reuss Voigt Hill
#
# Bulk Modulus (GPa) = 28.95304 51.58292 40.26798
# Shear Modulus (GPa) = 19.41401 28.03062 23.72232
#
# Velocity S-wave (km/s) = 3.10500 3.73096 3.43228
# Velocity P-wave (km/s) = 5.21851 6.64653 5.97533
#
# Compressibility (1/GPa) = 0.03453869
#
# Stress axis : x y z
#
# Youngs Moduli (GPa) = 91.90084 25.81872 108.97339
#
# Poissons Ratio (x) = 0.19355 0.36940
# Poissons Ratio (y) = 0.68895 0.13501
# Poissons Ratio (z) = 0.31152 0.03199
#
# Static dielectric constant tensor:
#      x y z
#    x 3.775660 0.000000 0.000000 
#    y 0.000000 2.836490 0.000000 
#    z 0.000000 0.000000 4.251950 
# 
# 
# High freq. dielectric constant tensor:
#      x y z
#    x 1.801640 0.000000 0.000000 
#    y 0.000000 1.685330 0.000000 
#    z 0.000000 0.000000 1.821690 
# 
# From -- ./inp_files/4448.got.cif
#   From: 2010.03.12/outbox.cif.g09.slc.cpg/sg20_3_cif.got.tgz:4448.got - 2010.04.14 01:38:04.
