data_PCOD8157750
_publ_section_title
;
Structure prediction by ZEFSAII (Michael W. Deem and Ramdas Pophale) SiO2 
 PCOD8157750
Probable space group: P 21 21 21
;
_chemical_formula_sum "Si O2"
_cell_formula_units_Z 32
_cell_length_a 11.124420
_cell_length_b 19.247277
_cell_length_c 6.405147
_cell_angle_alpha 90.000000
_cell_angle_beta 90.000000
_cell_angle_gamma 90.000000
_cell_volume 1371.436725
_symmetry_space_group_name_H-M "P 21 21 21"
_symmetry_group_IT_number 19
_symmetry_cell_setting 'orthorhombic'
loop_
_space_group_symop_operation_xyz
x,y,z
1/2-x,-y,1/2+z
1/2+x,1/2-y,-z
-x,1/2+y,1/2-z
loop_
_atom_site_type_symbol
_atom_site_label
_atom_site_fract_x
_atom_site_fract_y
_atom_site_fract_z
Si Si1 0.288104 0.100787 0.248693
Si Si2 0.985569 0.688607 0.639544
Si Si3 0.127331 0.582055 0.890908
Si Si4 0.237075 0.216436 0.582142
Si Si5 0.023463 0.081765 0.202090
Si Si6 0.488861 0.529250 0.132119
Si Si7 0.372544 0.642767 0.906537
Si Si8 0.924561 0.316149 0.087988
O O1 0.287733 0.165500 0.406904
O O2 0.159265 0.063067 0.264118
O O3 0.370706 0.036161 0.317756
O O4 0.338835 0.126290 0.021528
O O5 0.874758 0.683331 0.797377
O O6 0.953419 0.654068 0.419204
O O7 0.092252 0.644371 0.737253
O O8 0.026560 0.767043 0.596828
O O9 0.081842 0.505915 0.823283
O O10 0.271283 0.583211 0.875279
O O11 0.070946 0.597315 0.116246
O O12 0.194150 0.287302 0.474594
O O13 0.345896 0.228374 0.746045
O O14 0.968921 0.019032 0.068767
O O15 0.447934 0.609124 0.096605
O O16 0.458829 0.651091 0.704834
#
# Coordination Sequence:
#
# PCOD8157750 Si02
#       8
#     4   4   4   4   4   4   4   4
#     4  12  25  47  75 110 144 190 248 319 379 446
#     4  11  24  45  71 110 140 192 245 301 385 444
#     4  11  27  48  72 100 156 198 251 304 367 457
#     4  12  25  47  75 111 151 188 248 324 375 455
#     4  11  25  47  74 103 144 199 247 308 372 443
#     4  11  29  45  70 109 141 198 254 300 374 445
#     4  12  28  48  73 106 153 198 251 309 376 458
#     4  12  27  45  76 111 149 195 248 315 388 448
#
# _framework density 23.333195
#
# number of rings (size 3 to 8) (size 9 to 14) (size 15 to 20)
#    0.000    0.500    3.750    3.000    8.750    0.000 
#    2.250    0.000    0.000    0.000    0.000    0.000 
#    0.000    0.000    0.000    0.000    0.000    0.000 
#
# Total GULP energy -396741.711358 kJ/mol
# GULP energy per Si atom -12398.178480 kJ/mol
# Density = 2.328009 g / cm^3
# Si number density = 23.333195 Si / 1000 Ang^3
#
#
#
# Elastic Constant Matrix: (Units=GPa)
#
#
# Indices 1 2 3 4 5 6 
#
# 1 112.9448 7.3518 26.4346 0.0000 0.0000 0.0000
# 2 7.3518 75.3065 19.5633 0.0000 0.0000 0.0000
# 3 26.4346 19.5633 90.0428 0.0000 0.0000 0.0000
# 4 0.0000 0.0000 0.0000 32.1683 0.0000 0.0000
# 5 0.0000 0.0000 0.0000 0.0000 37.3804 0.0000
# 6 0.0000 0.0000 0.0000 0.0000 0.0000 46.0476
#
#
#
# Elastic Compliance Matrix: (Units=1/GPa)
#
#
# Indices 1 2 3 4 5 6 
#
# 1 0.009510 -0.000215 -0.002745 0.000000 0.000000 0.000000
# 2 -0.000215 0.014078 -0.002996 0.000000 0.000000 0.000000
# 3 -0.002745 -0.002996 0.012563 0.000000 0.000000 0.000000
# 4 0.000000 0.000000 0.000000 0.031087 0.000000 0.000000
# 5 0.000000 0.000000 0.000000 0.000000 0.026752 0.000000
# 6 0.000000 0.000000 0.000000 0.000000 0.000000 0.021717
#
#
# Mechanical properties :
#
#
# Convention : Reuss Voigt Hill
#
# Bulk Modulus (GPa) = 41.25565 42.77707 42.01636
# Shear Modulus (GPa) = 36.84641 38.11553 37.48097
#
# Velocity S-wave (km/s) = 3.97815 4.04608 4.01226
# Velocity P-wave (km/s) = 6.23060 6.34040 6.28574
#
# Compressibility (1/GPa) = 0.02423911
#
# Stress axis : x y z
#
# Youngs Moduli (GPa) = 105.14781 71.03142 79.60124
#
# Poissons Ratio (x) = 0.01529 0.21853
# Poissons Ratio (y) = 0.02264 0.23845
# Poissons Ratio (z) = 0.28866 0.21278
#
# Static dielectric constant tensor:
#      x y z
#    x 4.398070 0.000000 0.000000 
#    y 0.000000 3.976160 0.000000 
#    z 0.000000 0.000000 4.245570 
# 
# 
# High freq. dielectric constant tensor:
#      x y z
#    x 1.940710 0.000000 0.000000 
#    y 0.000000 1.917570 0.000000 
#    z 0.000000 0.000000 1.924560 
# 
# From -- ./inp_files/1149.got.cif
#   From: 2010.03.12/outbox.cif.g09.slc.cpg/sg19_1_cif.got.tgz:1149.got - 2010.04.10 18:59:41.
