data_PCOD8157192
_publ_section_title
;
Structure prediction by ZEFSAII (Michael W. Deem and Ramdas Pophale) SiO2 
 PCOD8157192
Probable space group: P 21 21 21
;
_chemical_formula_sum "Si O2"
_cell_formula_units_Z 28
_cell_length_a 11.911992
_cell_length_b 13.437726
_cell_length_c 6.750391
_cell_angle_alpha 90.000000
_cell_angle_beta 90.000000
_cell_angle_gamma 90.000000
_cell_volume 1080.535659
_symmetry_space_group_name_H-M "P 21 21 21"
_symmetry_group_IT_number 19
_symmetry_cell_setting 'orthorhombic'
loop_
_space_group_symop_operation_xyz
x,y,z
1/2-x,-y,1/2+z
1/2+x,1/2-y,-z
-x,1/2+y,1/2-z
loop_
_atom_site_type_symbol
_atom_site_label
_atom_site_fract_x
_atom_site_fract_y
_atom_site_fract_z
Si Si1 0.078308 0.641621 0.280020
Si Si2 0.620212 0.385100 0.082915
Si Si3 0.283737 0.491604 0.047477
Si Si4 0.748611 0.173866 0.683719
Si Si5 0.855679 0.312851 0.970390
Si Si6 0.554043 0.267030 0.463357
Si Si7 0.497464 0.068943 0.283940
O O1 0.162164 0.549033 0.335418
O O2 0.132846 0.748491 0.331602
O O3 0.968983 0.632702 0.413389
O O4 0.036508 0.653206 0.051575
O O5 0.603160 0.305044 0.257023
O O6 0.605386 0.496814 0.162028
O O7 0.743356 0.376832 0.990501
O O8 0.209417 0.401563 0.137206
O O9 0.382891 0.511031 0.212645
O O10 0.222127 0.598314 0.002925
O O11 0.851435 0.237781 0.775674
O O12 0.653904 0.252228 0.623719
O O13 0.962844 0.384819 0.931030
O O14 0.502063 0.156898 0.444705
#
# Coordination Sequence:
#
# PCOD8157192 Si02
#       7
#     4   4   4   4   4   4   4
#     4  10  22  45  66 101 138 181 227 288 338 409
#     4  11  24  47  67 101 142 179 235 285 342 419
#     4   9  22  42  63 105 138 178 241 280 346 408
#     4  10  22  40  70 100 136 183 230 287 341 410
#     4  11  23  43  70  97 142 178 228 286 349 404
#     4  11  23  45  72  98 141 186 230 283 352 402
#     4  10  24  44  68 100 139 181 229 283 346 416
#
# _framework density 25.913073000000001
#
# number of rings (size 3 to 8) (size 9 to 14) (size 15 to 20)
#    0.000    1.714    2.857    0.000    0.000   10.286 
#   10.286    0.000    0.000    0.000    0.000    0.000 
#    0.000    0.000    0.000    0.000    0.000    0.000 
#
# Total GULP energy -346943.880569 kJ/mol
# GULP energy per Si atom -12390.852877 kJ/mol
# Density = 2.585409 g / cm^3
# Si number density = 25.913073 Si / 1000 Ang^3
#
#
#
# Elastic Constant Matrix: (Units=GPa)
#
#
# Indices 1 2 3 4 5 6 
#
# 1 61.6880 16.2056 -7.3115 0.0000 0.0000 0.0000
# 2 16.2056 92.8713 20.1002 0.0000 0.0000 0.0000
# 3 -7.3115 20.1002 40.2686 0.0000 0.0000 0.0000
# 4 0.0000 0.0000 0.0000 40.2937 0.0000 0.0000
# 5 0.0000 0.0000 0.0000 0.0000 21.9661 0.0000
# 6 0.0000 0.0000 0.0000 0.0000 0.0000 40.3460
#
#
#
# Elastic Compliance Matrix: (Units=1/GPa)
#
#
# Indices 1 2 3 4 5 6 
#
# 1 0.017985 -0.004311 0.005417 0.000000 0.000000 0.000000
# 2 -0.004311 0.013105 -0.007324 0.000000 0.000000 0.000000
# 3 0.005417 -0.007324 0.029473 0.000000 0.000000 0.000000
# 4 0.000000 0.000000 0.000000 0.024818 0.000000 0.000000
# 5 0.000000 0.000000 0.000000 0.000000 0.045525 0.000000
# 6 0.000000 0.000000 0.000000 0.000000 0.000000 0.024786
#
#
# Mechanical properties :
#
#
# Convention : Reuss Voigt Hill
#
# Bulk Modulus (GPa) = 20.77807 28.09071 24.43439
# Shear Modulus (GPa) = 27.14903 31.57673 29.36288
#
# Velocity S-wave (km/s) = 3.24033 3.49458 3.36985
# Velocity P-wave (km/s) = 4.69419 5.21025 4.95894
#
# Compressibility (1/GPa) = 0.04812766
#
# Stress axis : x y z
#
# Youngs Moduli (GPa) = 55.60141 76.30700 33.92968
#
# Poissons Ratio (x) = 0.32894 -0.18381
# Poissons Ratio (y) = 0.23969 0.24850
# Poissons Ratio (z) = -0.30121 0.55888
#
# Static dielectric constant tensor:
#      x y z
#    x 4.577050 0.000000 0.000000 
#    y 0.000000 5.030940 0.000000 
#    z 0.000000 0.000000 4.647320 
# 
# 
# High freq. dielectric constant tensor:
#      x y z
#    x 2.027810 0.000000 0.000000 
#    y 0.000000 2.044800 0.000000 
#    z 0.000000 0.000000 2.039210 
# 
# From -- ./inp_files/1487.got.cif
#   From: 2010.03.12/outbox.cif.g09.slc.cpg/sg19_1_cif.got.tgz:1487.got - 2010.04.10 18:59:41.
