data_PCOD8157843
_publ_section_title
;
Structure prediction by ZEFSAII (Michael W. Deem and Ramdas Pophale) SiO2 
 PCOD8157843
Probable space group: P 21 21 21
;
_chemical_formula_sum "Si O2"
_cell_formula_units_Z 28
_cell_length_a 5.165357
_cell_length_b 25.587616
_cell_length_c 8.447728
_cell_angle_alpha 90.000000
_cell_angle_beta 90.000000
_cell_angle_gamma 90.000000
_cell_volume 1116.529210
_symmetry_space_group_name_H-M "P 21 21 21"
_symmetry_group_IT_number 19
_symmetry_cell_setting 'orthorhombic'
loop_
_space_group_symop_operation_xyz
x,y,z
1/2-x,-y,1/2+z
1/2+x,1/2-y,-z
-x,1/2+y,1/2-z
loop_
_atom_site_type_symbol
_atom_site_label
_atom_site_fract_x
_atom_site_fract_y
_atom_site_fract_z
Si Si1 0.374975 0.722467 0.934780
Si Si2 0.590077 0.627327 0.406046
Si Si3 0.751889 0.259332 0.902152
Si Si4 0.025984 0.498289 0.458095
Si Si5 0.401912 0.399233 0.094828
Si Si6 0.827905 0.558603 0.168361
Si Si7 0.308326 0.388859 0.447629
O O1 0.323746 0.724114 0.747296
O O2 0.367795 0.661536 0.987441
O O3 0.658055 0.744974 0.970705
O O4 0.655413 0.684402 0.339724
O O5 0.319659 0.632140 0.499420
O O6 0.583430 0.586062 0.259225
O O7 0.815463 0.608723 0.522757
O O8 0.497200 0.267178 0.010666
O O9 0.168065 0.538724 0.578062
O O10 0.161496 0.443250 0.440003
O O11 0.004458 0.527081 0.290925
O O12 0.750148 0.483520 0.535823
O O13 0.431371 0.380543 0.274610
O O14 0.980169 0.606516 0.086261
#
# Coordination Sequence:
#
# PCOD8157843 Si02
#       7
#     4   4   4   4   4   4   4
#     4  12  29  49  74 112 150 195 253 310 370 436
#     4  11  26  47  74 104 148 191 244 300 370 431
#     4  12  25  48  77 106 146 194 251 305 364 435
#     4  11  27  44  73 105 148 191 245 301 371 451
#     4  11  27  46  74 110 144 191 244 297 369 448
#     4  11  27  45  72 107 149 194 245 302 373 449
#     4  12  27  45  76 102 151 194 246 305 373 434
#
# _framework density 25.077712999999999
#
# number of rings (size 3 to 8) (size 9 to 14) (size 15 to 20)
#    0.000    0.571    0.000    6.000   20.000    0.000 
#    0.000    0.000    0.000    0.000    0.000    0.000 
#    0.000    0.000    0.000    0.000    0.000    0.000 
#
# Total GULP energy -347196.098630 kJ/mol
# GULP energy per Si atom -12399.860665 kJ/mol
# Density = 2.502064 g / cm^3
# Si number density = 25.077713 Si / 1000 Ang^3
#
#
#
# Elastic Constant Matrix: (Units=GPa)
#
#
# Indices 1 2 3 4 5 6 
#
# 1 66.2841 -20.2058 3.3811 0.0000 0.0000 0.0000
# 2 -20.2058 83.2185 -5.6944 0.0000 0.0000 0.0000
# 3 3.3811 -5.6944 97.0712 0.0000 0.0000 0.0000
# 4 0.0000 0.0000 0.0000 32.9147 0.0000 0.0000
# 5 0.0000 0.0000 0.0000 0.0000 31.3703 0.0000
# 6 0.0000 0.0000 0.0000 0.0000 0.0000 41.1139
#
#
#
# Elastic Compliance Matrix: (Units=1/GPa)
#
#
# Indices 1 2 3 4 5 6 
#
# 1 0.016303 0.003935 -0.000337 0.000000 0.000000 0.000000
# 2 0.003935 0.013015 0.000626 0.000000 0.000000 0.000000
# 3 -0.000337 0.000626 0.010350 0.000000 0.000000 0.000000
# 4 0.000000 0.000000 0.000000 0.030382 0.000000 0.000000
# 5 0.000000 0.000000 0.000000 0.000000 0.031877 0.000000
# 6 0.000000 0.000000 0.000000 0.000000 0.000000 0.024323
#
#
# Mechanical properties :
#
#
# Convention : Reuss Voigt Hill
#
# Bulk Modulus (GPa) = 20.78207 22.39284 21.58746
# Shear Modulus (GPa) = 37.35807 39.01929 38.18868
#
# Velocity S-wave (km/s) = 3.86384 3.94881 3.90656
# Velocity P-wave (km/s) = 5.31138 5.45340 5.38286
#
# Compressibility (1/GPa) = 0.04811841
#
# Stress axis : x y z
#
# Youngs Moduli (GPa) = 61.33668 76.83456 96.61645
#
# Poissons Ratio (x) = -0.30238 0.03256
# Poissons Ratio (y) = -0.24139 -0.06052
# Poissons Ratio (z) = 0.02067 -0.04813
#
# Static dielectric constant tensor:
#      x y z
#    x 4.354350 0.000000 0.000000 
#    y 0.000000 4.927990 0.000000 
#    z 0.000000 0.000000 4.845400 
# 
# 
# High freq. dielectric constant tensor:
#      x y z
#    x 1.987290 0.000000 0.000000 
#    y 0.000000 2.021210 0.000000 
#    z 0.000000 0.000000 2.008480 
# 
# From -- ./inp_files/2432.got.cif
#   From: 2010.03.12/outbox.cif.g09.slc.cpg/sg19_2_cif.got.tgz:2432.got - 2010.04.10 18:59:41.
