data_PCOD8157273
_publ_section_title
;
Structure prediction by ZEFSAII (Michael W. Deem and Ramdas Pophale) SiO2 
 PCOD8157273
Probable space group: P 21 21 21
;
_chemical_formula_sum "Si O2"
_cell_formula_units_Z 28
_cell_length_a 17.914108
_cell_length_b 6.998325
_cell_length_c 8.545837
_cell_angle_alpha 90.000000
_cell_angle_beta 90.000000
_cell_angle_gamma 90.000000
_cell_volume 1071.380901
_symmetry_space_group_name_H-M "P 21 21 21"
_symmetry_group_IT_number 19
_symmetry_cell_setting 'orthorhombic'
loop_
_space_group_symop_operation_xyz
x,y,z
1/2-x,-y,1/2+z
1/2+x,1/2-y,-z
-x,1/2+y,1/2-z
loop_
_atom_site_type_symbol
_atom_site_label
_atom_site_fract_x
_atom_site_fract_y
_atom_site_fract_z
Si Si1 0.524304 0.875464 0.065014
Si Si2 0.731446 0.272965 0.537823
Si Si3 0.900892 0.866354 0.800205
Si Si4 0.278398 0.358347 0.145365
Si Si5 0.366072 0.193276 0.658951
Si Si6 0.824729 0.628371 0.550653
Si Si7 0.881454 0.430692 0.996034
O O1 0.476886 0.686631 0.111108
O O2 0.582954 0.942653 0.197689
O O3 0.568281 0.827471 0.906749
O O4 0.469633 0.056254 0.036426
O O5 0.741300 0.127036 0.682463
O O6 0.785492 0.214584 0.391198
O O7 0.759761 0.482097 0.606201
O O8 0.646121 0.342252 0.493873
O O9 0.877782 0.686178 0.693502
O O10 0.826229 0.945320 0.901339
O O11 0.212752 0.320558 0.020694
O O12 0.338354 0.184268 0.139276
O O13 0.371275 0.185052 0.843866
O O14 0.373531 0.980721 0.582596
#
# Coordination Sequence:
#
# PCOD8157273 Si02
#       7
#     4   4   4   4   4   4   4
#     4  12  26  39  67  90 134 180 205 264 320 399
#     4   9  18  44  69  90 124 166 222 256 326 378
#     4  12  24  44  59  98 130 171 222 254 324 391
#     4  11  21  41  69  97 122 171 214 273 319 376
#     4  10  22  43  66  94 129 166 214 264 329 376
#     4   9  21  39  67  93 123 165 209 272 310 371
#     4  11  22  40  67  98 124 167 214 267 328 377
#
# _framework density 26.134495999999999
#
# number of rings (size 3 to 8) (size 9 to 14) (size 15 to 20)
#    0.857    0.571    2.857    2.571    0.000    4.571 
#    5.143    0.000    0.000    0.000    0.000    0.000 
#    0.000    0.000    0.000    0.000    0.000    0.000 
#
# Total GULP energy -347196.140593 kJ/mol
# GULP energy per Si atom -12399.862164 kJ/mol
# Density = 2.607501 g / cm^3
# Si number density = 26.134496 Si / 1000 Ang^3
#
#
#
# Elastic Constant Matrix: (Units=GPa)
#
#
# Indices 1 2 3 4 5 6 
#
# 1 108.9704 5.4303 17.7325 0.0000 0.0000 0.0000
# 2 5.4303 59.0146 -6.3458 0.0000 0.0000 0.0000
# 3 17.7325 -6.3458 78.0629 0.0000 0.0000 0.0000
# 4 0.0000 0.0000 0.0000 36.7516 0.0000 0.0000
# 5 0.0000 0.0000 0.0000 0.0000 36.4370 0.0000
# 6 0.0000 0.0000 0.0000 0.0000 0.0000 47.1924
#
#
#
# Elastic Compliance Matrix: (Units=1/GPa)
#
#
# Indices 1 2 3 4 5 6 
#
# 1 0.009603 -0.001128 -0.002273 0.000000 0.000000 0.000000
# 2 -0.001128 0.017227 0.001657 0.000000 0.000000 0.000000
# 3 -0.002273 0.001657 0.013461 0.000000 0.000000 0.000000
# 4 0.000000 0.000000 0.000000 0.027210 0.000000 0.000000
# 5 0.000000 0.000000 0.000000 0.000000 0.027445 0.000000
# 6 0.000000 0.000000 0.000000 0.000000 0.000000 0.021190
#
#
# Mechanical properties :
#
#
# Convention : Reuss Voigt Hill
#
# Bulk Modulus (GPa) = 27.17240 31.07576 29.12408
# Shear Modulus (GPa) = 37.90997 39.35828 38.63412
#
# Velocity S-wave (km/s) = 3.81277 3.88492 3.84901
# Velocity P-wave (km/s) = 5.45918 5.66039 5.56069
#
# Compressibility (1/GPa) = 0.03680205
#
# Stress axis : x y z
#
# Youngs Moduli (GPa) = 104.13509 58.04876 74.28763
#
# Poissons Ratio (x) = 0.06548 0.16886
# Poissons Ratio (y) = 0.11747 -0.12307
# Poissons Ratio (z) = 0.23671 -0.09617
#
# Static dielectric constant tensor:
#      x y z
#    x 4.846910 0.000000 0.000000 
#    y 0.000000 4.749920 0.000000 
#    z 0.000000 0.000000 4.306070 
# 
# 
# High freq. dielectric constant tensor:
#      x y z
#    x 2.055500 0.000000 0.000000 
#    y 0.000000 2.062620 0.000000 
#    z 0.000000 0.000000 2.037720 
# 
# From -- ./inp_files/4302.got.cif
#   From: 2010.03.12/outbox.cif.g09.slc.cpg/sg19_3_cif.got.tgz:4302.got - 2010.04.10 18:59:41.
