data_PCOD8157770
_publ_section_title
;
Structure prediction by ZEFSAII (Michael W. Deem and Ramdas Pophale) SiO2 
 PCOD8157770
Probable space group: P 21 21 21
;
_chemical_formula_sum "Si O2"
_cell_formula_units_Z 20
_cell_length_a 10.627412
_cell_length_b 4.959748
_cell_length_c 13.545324
_cell_angle_alpha 90.000000
_cell_angle_beta 90.000000
_cell_angle_gamma 90.000000
_cell_volume 713.964349
_symmetry_space_group_name_H-M "P 21 21 21"
_symmetry_group_IT_number 19
_symmetry_cell_setting 'orthorhombic'
loop_
_space_group_symop_operation_xyz
x,y,z
1/2-x,-y,1/2+z
1/2+x,1/2-y,-z
-x,1/2+y,1/2-z
loop_
_atom_site_type_symbol
_atom_site_label
_atom_site_fract_x
_atom_site_fract_y
_atom_site_fract_z
Si Si1 0.512044 0.059330 0.865201
Si Si2 0.874746 0.429466 0.462778
Si Si3 0.378494 0.702103 0.360926
Si Si4 0.640558 0.494068 0.334877
Si Si5 0.191044 0.315427 0.299604
O O1 0.567565 0.867172 0.951388
O O2 0.367961 0.961779 0.845602
O O3 0.532061 0.365469 0.902528
O O4 0.584432 0.014363 0.760150
O O5 0.865921 0.520371 0.576918
O O6 0.734292 0.410209 0.421534
O O7 0.510618 0.565343 0.388921
O O8 0.258717 0.503157 0.382791
O O9 0.380079 0.755855 0.243696
O O10 0.699749 0.747903 0.278306
#
# Coordination Sequence:
#
# PCOD8157770 Si02
#       5
#     4   4   4   4   4
#     4  11  25  47  73 109 145 198 259 314 365 461
#     4  11  28  47  74 113 154 198 264 310 378 458
#     4  12  26  46  76 111 154 211 244 330 386 461
#     4  11  25  48  71 110 153 197 258 309 394 461
#     4  11  24  46  76 101 150 202 251 313 385 451
#
# _framework density 28.012606999999999
#
# number of rings (size 3 to 8) (size 9 to 14) (size 15 to 20)
#    0.000    0.800    4.000    2.400    8.400    0.000 
#    0.000    0.000    0.000    0.000    0.000    0.000 
#    0.000    0.000    0.000    0.000    0.000    0.000 
#
# Total GULP energy -248058.278032 kJ/mol
# GULP energy per Si atom -12402.913902 kJ/mol
# Density = 2.794885 g / cm^3
# Si number density = 28.012607 Si / 1000 Ang^3
#
#
#
# Elastic Constant Matrix: (Units=GPa)
#
#
# Indices 1 2 3 4 5 6 
#
# 1 115.2970 12.3017 26.6089 0.0000 0.0000 0.0000
# 2 12.3017 63.8273 -18.5990 0.0000 0.0000 0.0000
# 3 26.6089 -18.5990 71.8800 0.0000 0.0000 0.0000
# 4 0.0000 0.0000 0.0000 34.4105 0.0000 0.0000
# 5 0.0000 0.0000 0.0000 0.0000 32.8484 0.0000
# 6 0.0000 0.0000 0.0000 0.0000 0.0000 28.3833
#
#
#
# Elastic Compliance Matrix: (Units=1/GPa)
#
#
# Indices 1 2 3 4 5 6 
#
# 1 0.010080 -0.003277 -0.004579 0.000000 0.000000 0.000000
# 2 -0.003277 0.018010 0.005873 0.000000 0.000000 0.000000
# 3 -0.004579 0.005873 0.017127 0.000000 0.000000 0.000000
# 4 0.000000 0.000000 0.000000 0.029061 0.000000 0.000000
# 5 0.000000 0.000000 0.000000 0.000000 0.030443 0.000000
# 6 0.000000 0.000000 0.000000 0.000000 0.000000 0.035232
#
#
# Mechanical properties :
#
#
# Convention : Reuss Voigt Hill
#
# Bulk Modulus (GPa) = 24.24190 32.40306 28.32248
# Shear Modulus (GPa) = 31.71193 34.50795 33.10994
#
# Velocity S-wave (km/s) = 3.36826 3.51361 3.44170
# Velocity P-wave (km/s) = 4.87848 5.29651 5.09179
#
# Compressibility (1/GPa) = 0.04125089
#
# Stress axis : x y z
#
# Youngs Moduli (GPa) = 99.20876 55.52361 58.38733
#
# Poissons Ratio (x) = 0.18196 0.26738
# Poissons Ratio (y) = 0.32512 -0.34293
# Poissons Ratio (z) = 0.45431 -0.32611
#
# Static dielectric constant tensor:
#      x y z
#    x 5.232820 0.000000 0.000000 
#    y 0.000000 4.807030 0.000000 
#    z 0.000000 0.000000 4.841370 
# 
# 
# High freq. dielectric constant tensor:
#      x y z
#    x 2.143550 0.000000 0.000000 
#    y 0.000000 2.129250 0.000000 
#    z 0.000000 0.000000 2.123560 
# 
# From -- ./inp_files/1370.got.cif
#   From: 2010.03.12/outbox.cif.g09.slc.cpg/sg19_1_cif.got.tgz:1370.got - 2010.04.10 18:59:41.
