data_PCOD8157104
_publ_section_title
;
Structure prediction by ZEFSAII (Michael W. Deem and Ramdas Pophale) SiO2 
 PCOD8157104
Probable space group: P 21 21 21
;
_chemical_formula_sum "Si O2"
_cell_formula_units_Z 32
_cell_length_a 14.559672
_cell_length_b 8.804365
_cell_length_c 11.551113
_cell_angle_alpha 90.000000
_cell_angle_beta 90.000000
_cell_angle_gamma 90.000000
_cell_volume 1480.721773
_symmetry_space_group_name_H-M "P 21 21 21"
_symmetry_group_IT_number 19
_symmetry_cell_setting 'orthorhombic'
loop_
_space_group_symop_operation_xyz
x,y,z
1/2-x,-y,1/2+z
1/2+x,1/2-y,-z
-x,1/2+y,1/2-z
loop_
_atom_site_type_symbol
_atom_site_label
_atom_site_fract_x
_atom_site_fract_y
_atom_site_fract_z
Si Si1 0.890063 0.307643 0.670521
Si Si2 0.587106 0.209002 0.405475
Si Si3 0.424778 0.763617 0.830561
Si Si4 0.231647 0.309402 0.773508
Si Si5 0.777981 0.502646 0.130019
Si Si6 0.097689 0.946830 0.589073
Si Si7 0.391050 0.521037 0.437672
Si Si8 0.399560 0.471361 0.689438
O O1 0.815757 0.406501 0.597811
O O2 0.872582 0.333128 0.807979
O O3 0.881768 0.130123 0.640610
O O4 0.992201 0.367334 0.638233
O O5 0.593922 0.191557 0.543122
O O6 0.674969 0.138013 0.340922
O O7 0.591259 0.382853 0.363180
O O8 0.434000 0.631853 0.737044
O O9 0.518569 0.854507 0.829351
O O10 0.342397 0.878561 0.800922
O O11 0.255691 0.131220 0.779848
O O12 0.171485 0.347331 0.885489
O O13 0.325572 0.403722 0.777757
O O14 0.828902 0.436877 0.015834
O O15 0.994040 0.911120 0.546893
O O16 0.352078 0.489537 0.565002
#
# Coordination Sequence:
#
# PCOD8157104 Si02
#       8
#     4   4   4   4   4   4   4   4
#     4  11  21  42  73  96 134 191 230 290 352 409
#     4  10  22  44  69  98 136 184 232 287 351 425
#     4  11  25  49  69 102 140 188 231 298 361 417
#     4  12  26  42  71 103 140 183 237 288 355 422
#     4  11  24  42  70 105 136 182 238 286 352 427
#     4  10  21  43  68  98 139 176 233 291 346 420
#     4  11  25  46  67 101 141 183 231 294 351 423
#     4  12  26  46  73  99 146 185 238 294 358 427
#
# _framework density 21.611080999999999
#
# number of rings (size 3 to 8) (size 9 to 14) (size 15 to 20)
#    0.000    1.000    6.250    1.500    5.250    2.000 
#    4.500    0.000    0.000    0.000    0.000    0.000 
#    0.000    0.000    0.000    0.000    0.000    0.000 
#
# Total GULP energy -396776.936616 kJ/mol
# GULP energy per Si atom -12399.279269 kJ/mol
# Density = 2.156189 g / cm^3
# Si number density = 21.611081 Si / 1000 Ang^3
#
#
#
# Elastic Constant Matrix: (Units=GPa)
#
#
# Indices 1 2 3 4 5 6 
#
# 1 123.0830 25.7559 47.9738 0.0000 0.0000 0.0000
# 2 25.7559 65.2105 44.4649 0.0000 0.0000 0.0000
# 3 47.9738 44.4649 101.5119 0.0000 0.0000 0.0000
# 4 0.0000 0.0000 0.0000 35.4520 0.0000 0.0000
# 5 0.0000 0.0000 0.0000 0.0000 36.0365 0.0000
# 6 0.0000 0.0000 0.0000 0.0000 0.0000 29.6796
#
#
#
# Elastic Compliance Matrix: (Units=1/GPa)
#
#
# Indices 1 2 3 4 5 6 
#
# 1 0.010008 -0.001038 -0.004275 0.000000 0.000000 0.000000
# 2 -0.001038 0.021973 -0.009134 0.000000 0.000000 0.000000
# 3 -0.004275 -0.009134 0.015873 0.000000 0.000000 0.000000
# 4 0.000000 0.000000 0.000000 0.028207 0.000000 0.000000
# 5 0.000000 0.000000 0.000000 0.000000 0.027750 0.000000
# 6 0.000000 0.000000 0.000000 0.000000 0.000000 0.033693
#
#
# Mechanical properties :
#
#
# Convention : Reuss Voigt Hill
#
# Bulk Modulus (GPa) = 52.74476 58.46606 55.60541
# Shear Modulus (GPa) = 28.94885 31.67435 30.31160
#
# Velocity S-wave (km/s) = 3.66394 3.83254 3.74919
# Velocity P-wave (km/s) = 6.50835 6.83352 6.67291
#
# Compressibility (1/GPa) = 0.01895923
#
# Stress axis : x y z
#
# Youngs Moduli (GPa) = 99.91915 45.50981 63.00155
#
# Poissons Ratio (x) = 0.04723 0.26934
# Poissons Ratio (y) = 0.10369 0.57548
# Poissons Ratio (z) = 0.42717 0.41571
#
# Static dielectric constant tensor:
#      x y z
#    x 4.193070 0.000000 0.000000 
#    y 0.000000 3.669400 0.000000 
#    z 0.000000 0.000000 3.741750 
# 
# 
# High freq. dielectric constant tensor:
#      x y z
#    x 1.867290 0.000000 0.000000 
#    y 0.000000 1.832590 0.000000 
#    z 0.000000 0.000000 1.839200 
# 
# From -- ./inp_files/5256.got.cif
#   From: 2010.03.12/outbox.cif.g09.slc.cpg/sg19_3_cif.got.tgz:5256.got - 2010.04.10 18:59:41.
