data_PCOD8157672
_publ_section_title
;
Structure prediction by ZEFSAII (Michael W. Deem and Ramdas Pophale) SiO2 
 PCOD8157672
Probable space group: P 21 21 21
;
_chemical_formula_sum "Si O2"
_cell_formula_units_Z 28
_cell_length_a 12.312564
_cell_length_b 9.296301
_cell_length_c 11.042473
_cell_angle_alpha 90.000000
_cell_angle_beta 90.000000
_cell_angle_gamma 90.000000
_cell_volume 1263.935826
_symmetry_space_group_name_H-M "P 21 21 21"
_symmetry_group_IT_number 19
_symmetry_cell_setting 'orthorhombic'
loop_
_space_group_symop_operation_xyz
x,y,z
1/2-x,-y,1/2+z
1/2+x,1/2-y,-z
-x,1/2+y,1/2-z
loop_
_atom_site_type_symbol
_atom_site_label
_atom_site_fract_x
_atom_site_fract_y
_atom_site_fract_z
Si Si1 0.016839 0.799613 0.666567
Si Si2 0.926652 0.614183 0.869577
Si Si3 0.259321 0.755807 0.745667
Si Si4 0.716820 0.616190 0.003720
Si Si5 0.433173 0.868381 0.552385
Si Si6 0.452523 0.306786 0.603215
Si Si7 0.429162 0.548488 0.784044
O O1 0.138819 0.742582 0.692346
O O2 0.934158 0.732177 0.763841
O O3 0.976201 0.756410 0.533975
O O4 0.008969 0.972107 0.672669
O O5 0.804291 0.565798 0.902907
O O6 0.968252 0.692504 0.989279
O O7 0.264863 0.859683 0.862441
O O8 0.347664 0.808733 0.649028
O O9 0.302876 0.598364 0.789154
O O10 0.626619 0.493541 0.022772
O O11 0.664838 0.761407 0.948650
O O12 0.541846 0.935909 0.610847
O O13 0.449049 0.467229 0.657067
O O14 0.493575 0.190038 0.702995
#
# Coordination Sequence:
#
# PCOD8157672 Si02
#       7
#     4   4   4   4   4   4   4
#     4  12  28  47  73 110 149 191 248 313 375 439
#     4  12  25  48  74 104 150 194 243 302 372 447
#     4  12  23  46  71 103 144 191 240 304 370 437
#     4  11  24  46  75 102 146 200 237 300 380 439
#     4  11  25  46  73 104 143 191 253 296 366 454
#     4  11  24  44  73 103 144 188 248 300 358 439
#     4  11  23  43  73 102 142 187 243 301 357 433
#
# _framework density 22.153023000000001
#
# number of rings (size 3 to 8) (size 9 to 14) (size 15 to 20)
#    0.000    0.571    5.714    1.714    2.000    2.286 
#    5.143    0.000    0.000    0.000    0.000    0.000 
#    0.000    0.000    0.000    0.000    0.000    0.000 
#
# Total GULP energy -347151.269536 kJ/mol
# GULP energy per Si atom -12398.259626 kJ/mol
# Density = 2.210260 g / cm^3
# Si number density = 22.153023 Si / 1000 Ang^3
#
#
#
# Elastic Constant Matrix: (Units=GPa)
#
#
# Indices 1 2 3 4 5 6 
#
# 1 72.2151 18.2946 35.2054 0.0000 0.0000 0.0000
# 2 18.2946 94.2636 42.2962 0.0000 0.0000 0.0000
# 3 35.2054 42.2962 114.8230 0.0000 0.0000 0.0000
# 4 0.0000 0.0000 0.0000 34.4139 0.0000 0.0000
# 5 0.0000 0.0000 0.0000 0.0000 44.4813 0.0000
# 6 0.0000 0.0000 0.0000 0.0000 0.0000 32.6779
#
#
#
# Elastic Compliance Matrix: (Units=1/GPa)
#
#
# Indices 1 2 3 4 5 6 
#
# 1 0.016377 -0.001109 -0.004613 0.000000 0.000000 0.000000
# 2 -0.001109 0.012784 -0.004369 0.000000 0.000000 0.000000
# 3 -0.004613 -0.004369 0.011733 0.000000 0.000000 0.000000
# 4 0.000000 0.000000 0.000000 0.029058 0.000000 0.000000
# 5 0.000000 0.000000 0.000000 0.000000 0.022481 0.000000
# 6 0.000000 0.000000 0.000000 0.000000 0.000000 0.030602
#
#
# Mechanical properties :
#
#
# Convention : Reuss Voigt Hill
#
# Bulk Modulus (GPa) = 48.27988 52.54379 50.41183
# Shear Modulus (GPa) = 33.30637 34.68165 33.99401
#
# Velocity S-wave (km/s) = 3.88166 3.96099 3.92153
# Velocity P-wave (km/s) = 6.47541 6.68501 6.58104
#
# Compressibility (1/GPa) = 0.02071256
#
# Stress axis : x y z
#
# Youngs Moduli (GPa) = 61.06034 78.22145 85.23049
#
# Poissons Ratio (x) = 0.08672 0.39317
# Poissons Ratio (y) = 0.06769 0.37240
# Poissons Ratio (z) = 0.28167 0.34177
#
# Static dielectric constant tensor:
#      x y z
#    x 4.153960 0.000000 0.000000 
#    y 0.000000 4.080490 0.000000 
#    z 0.000000 0.000000 3.980460 
# 
# 
# High freq. dielectric constant tensor:
#      x y z
#    x 1.865720 0.000000 0.000000 
#    y 0.000000 1.873500 0.000000 
#    z 0.000000 0.000000 1.880250 
# 
# From -- ./inp_files/4580.got.cif
#   From: 2010.03.12/outbox.cif.g09.slc.cpg/sg19_3_cif.got.tgz:4580.got - 2010.04.10 18:59:41.
