data_PCOD8157287
_publ_section_title
;
Structure prediction by ZEFSAII (Michael W. Deem and Ramdas Pophale) SiO2 
 PCOD8157287
Probable space group: P 21 21 21
;
_chemical_formula_sum "Si O2"
_cell_formula_units_Z 28
_cell_length_a 7.301030
_cell_length_b 8.970524
_cell_length_c 17.776561
_cell_angle_alpha 90.000000
_cell_angle_beta 90.000000
_cell_angle_gamma 90.000000
_cell_volume 1164.259239
_symmetry_space_group_name_H-M "P 21 21 21"
_symmetry_group_IT_number 19
_symmetry_cell_setting 'orthorhombic'
loop_
_space_group_symop_operation_xyz
x,y,z
1/2-x,-y,1/2+z
1/2+x,1/2-y,-z
-x,1/2+y,1/2-z
loop_
_atom_site_type_symbol
_atom_site_label
_atom_site_fract_x
_atom_site_fract_y
_atom_site_fract_z
Si Si1 0.963303 0.408569 0.488614
Si Si2 0.246160 0.077338 0.124078
Si Si3 0.343312 0.401805 0.111930
Si Si4 0.463878 0.996530 0.842106
Si Si5 0.394027 0.319457 0.793371
Si Si6 0.068618 0.529487 0.782051
Si Si7 0.735985 0.756098 0.102739
O O1 0.779233 0.471091 0.448267
O O2 0.914194 0.259930 0.536368
O O3 0.045103 0.532599 0.543292
O O4 0.104447 0.365699 0.423273
O O5 0.356881 0.224792 0.101365
O O6 0.361088 0.995317 0.189988
O O7 0.040870 0.118066 0.148200
O O8 0.427685 0.449673 0.192585
O O9 0.132275 0.454279 0.105240
O O10 0.538384 0.865491 0.788682
O O11 0.302517 0.915629 0.887408
O O12 0.383615 0.139869 0.797933
O O13 0.193680 0.389342 0.808094
O O14 0.147418 0.680227 0.820672
#
# Coordination Sequence:
#
# PCOD8157287 Si02
#       7
#     4   4   4   4   4   4   4
#     4  12  27  45  71 106 153 192 243 308 371 446
#     4  11  25  45  74 105 147 195 238 303 377 437
#     4  10  26  46  72 113 145 194 249 305 364 441
#     4  10  22  43  73 103 146 193 244 297 372 419
#     4  10  22  43  71 109 144 185 243 309 351 438
#     4  11  25  46  77 109 146 193 252 305 361 437
#     4  12  25  46  70 107 147 198 243 303 370 442
#
# _framework density 24.049627000000001
#
# number of rings (size 3 to 8) (size 9 to 14) (size 15 to 20)
#    0.000    1.143    1.429    4.286    6.000    3.429 
#    0.000    0.000    0.000    0.000    0.000    0.000 
#    0.000    0.000    0.000    0.000    0.000    0.000 
#
# Total GULP energy -347245.825805 kJ/mol
# GULP energy per Si atom -12401.636636 kJ/mol
# Density = 2.399489 g / cm^3
# Si number density = 24.049627 Si / 1000 Ang^3
#
#
#
# Elastic Constant Matrix: (Units=GPa)
#
#
# Indices 1 2 3 4 5 6 
#
# 1 58.7675 25.9475 13.2476 0.0000 0.0000 0.0000
# 2 25.9475 88.5930 23.4864 0.0000 0.0000 0.0000
# 3 13.2476 23.4864 51.2208 0.0000 0.0000 0.0000
# 4 0.0000 0.0000 0.0000 40.2313 0.0000 0.0000
# 5 0.0000 0.0000 0.0000 0.0000 38.6203 0.0000
# 6 0.0000 0.0000 0.0000 0.0000 0.0000 33.9611
#
#
#
# Elastic Compliance Matrix: (Units=1/GPa)
#
#
# Indices 1 2 3 4 5 6 
#
# 1 0.019894 -0.005080 -0.002816 0.000000 0.000000 0.000000
# 2 -0.005080 0.014147 -0.005173 0.000000 0.000000 0.000000
# 3 -0.002816 -0.005173 0.022624 0.000000 0.000000 0.000000
# 4 0.000000 0.000000 0.000000 0.024856 0.000000 0.000000
# 5 0.000000 0.000000 0.000000 0.000000 0.025893 0.000000
# 6 0.000000 0.000000 0.000000 0.000000 0.000000 0.029445
#
#
# Mechanical properties :
#
#
# Convention : Reuss Voigt Hill
#
# Bulk Modulus (GPa) = 32.75836 35.99380 34.37608
# Shear Modulus (GPa) = 28.87292 31.62251 30.24772
#
# Velocity S-wave (km/s) = 3.46866 3.63007 3.55028
# Velocity P-wave (km/s) = 5.44912 5.70691 5.57950
#
# Compressibility (1/GPa) = 0.03052656
#
# Stress axis : x y z
#
# Youngs Moduli (GPa) = 50.26634 70.68725 44.20171
#
# Poissons Ratio (x) = 0.35910 0.12447
# Poissons Ratio (y) = 0.25536 0.22865
# Poissons Ratio (z) = 0.14155 0.36566
#
# Static dielectric constant tensor:
#      x y z
#    x 4.393850 0.000000 0.000000 
#    y 0.000000 4.360480 0.000000 
#    z 0.000000 0.000000 4.073630 
# 
# 
# High freq. dielectric constant tensor:
#      x y z
#    x 1.958690 0.000000 0.000000 
#    y 0.000000 1.960290 0.000000 
#    z 0.000000 0.000000 1.944790 
# 
# From -- ./inp_files/6588.got.cif
#   From: 2010.03.12/outbox.cif.g09.slc.cpg/sg19_4_cif.got.tgz:6588.got - 2010.04.10 18:59:41.
