data_PCOD8157135
_publ_section_title
;
Structure prediction by ZEFSAII (Michael W. Deem and Ramdas Pophale) SiO2 
 PCOD8157135
Probable space group: P 21 21 21
;
_chemical_formula_sum "Si O2"
_cell_formula_units_Z 16
_cell_length_a 14.247092
_cell_length_b 8.172879
_cell_length_c 5.045510
_cell_angle_alpha 90.000000
_cell_angle_beta 90.000000
_cell_angle_gamma 90.000000
_cell_volume 587.497969
_symmetry_space_group_name_H-M "P 21 21 21"
_symmetry_group_IT_number 19
_symmetry_cell_setting 'orthorhombic'
loop_
_space_group_symop_operation_xyz
x,y,z
1/2-x,-y,1/2+z
1/2+x,1/2-y,-z
-x,1/2+y,1/2-z
loop_
_atom_site_type_symbol
_atom_site_label
_atom_site_fract_x
_atom_site_fract_y
_atom_site_fract_z
Si Si1 0.709137 0.919359 0.205813
Si Si2 0.542614 0.048769 0.516086
Si Si3 0.150577 0.933220 0.803873
Si Si4 0.389196 0.878697 0.790701
O O1 0.604114 0.943135 0.314167
O O2 0.722538 0.721415 0.174170
O O3 0.781863 0.994659 0.419895
O O4 0.498692 0.930427 0.742488
O O5 0.456724 0.131548 0.352553
O O6 0.611451 0.185325 0.644724
O O7 0.341407 0.983647 0.020209
O O8 0.171687 0.071699 0.029360
#
# Coordination Sequence:
#
# PCOD8157135 Si02
#       4
#     4   4   4   4
#     4  12  27  44  69 105 148 181 224 296 368 406
#     4  10  24  41  73 106 134 184 241 283 342 412
#     4  10  23  42  68 102 136 180 241 277 335 426
#     4  10  22  37  74  97 134 169 248 282 323 404
#
# _framework density 27.234134999999998
#
# number of rings (size 3 to 8) (size 9 to 14) (size 15 to 20)
#    1.500    0.000    0.000    4.500   10.500    0.000 
#    0.000    5.000    0.000    0.000    0.000    0.000 
#    0.000    0.000    0.000    0.000    0.000    0.000 
#
# Total GULP energy -198408.642252 kJ/mol
# GULP energy per Si atom -12400.540141 kJ/mol
# Density = 2.717215 g / cm^3
# Si number density = 27.234135 Si / 1000 Ang^3
#
#
#
# Elastic Constant Matrix: (Units=GPa)
#
#
# Indices 1 2 3 4 5 6 
#
# 1 58.8142 5.7490 -5.6009 0.0000 0.0000 0.0000
# 2 5.7490 118.5135 27.9573 0.0000 0.0000 0.0000
# 3 -5.6009 27.9573 125.9425 0.0000 0.0000 0.0000
# 4 0.0000 0.0000 0.0000 65.9564 0.0000 0.0000
# 5 0.0000 0.0000 0.0000 0.0000 -32.2725 0.0000
# 6 0.0000 0.0000 0.0000 0.0000 0.0000 44.4900
#
#
#
# Elastic Compliance Matrix: (Units=1/GPa)
#
#
# Indices 1 2 3 4 5 6 
#
# 1 0.017203 -0.001071 0.001003 0.000000 0.000000 0.000000
# 2 -0.001071 0.008971 -0.002039 0.000000 0.000000 0.000000
# 3 0.001003 -0.002039 0.008437 0.000000 0.000000 0.000000
# 4 0.000000 0.000000 0.000000 0.015162 0.000000 0.000000
# 5 0.000000 0.000000 0.000000 0.000000 -0.030986 0.000000
# 6 0.000000 0.000000 0.000000 0.000000 0.000000 0.022477
#
#
# Mechanical properties :
#
#
# Convention : Reuss Voigt Hill
#
# Bulk Modulus (GPa) = 32.89851 39.94234 36.42043
# Shear Modulus (GPa) = 89.91165 33.97910 61.94538
#
# Velocity S-wave (km/s) = 5.75204 3.53606 4.77440
# Velocity P-wave (km/s) = 7.49805 5.60087 6.61780
#
# Compressibility (1/GPa) = 0.03039651
#
# Stress axis : x y z
#
# Youngs Moduli (GPa) = 58.12975 111.47260 118.52053
#
# Poissons Ratio (x) = 0.11939 -0.11885
# Poissons Ratio (y) = 0.06226 0.24167
# Poissons Ratio (z) = -0.05829 0.22729
#
# Static dielectric constant tensor:
#      x y z
#    x 4.165560 0.000000 0.000000 
#    y 0.000000 4.621180 0.000000 
#    z 0.000000 0.000000 4.634390 
# 
# 
# High freq. dielectric constant tensor:
#      x y z
#    x 2.145710 0.000000 0.000000 
#    y 0.000000 2.086960 0.000000 
#    z 0.000000 0.000000 2.091730 
# 
# From -- ./inp_files/1364.got.cif
#   From: 2010.03.12/outbox.cif.g09.slc.cpg/sg19_1_cif.got.tgz:1364.got - 2010.04.10 18:59:41.
