data_PCOD8157545
_publ_section_title
;
Structure prediction by ZEFSAII (Michael W. Deem and Ramdas Pophale) SiO2 
 PCOD8157545
Probable space group: P 21 21 21
;
_chemical_formula_sum "Si O2"
_cell_formula_units_Z 32
_cell_length_a 21.287931
_cell_length_b 5.248826
_cell_length_c 12.319572
_cell_angle_alpha 90.000000
_cell_angle_beta 90.000000
_cell_angle_gamma 90.000000
_cell_volume 1376.547652
_symmetry_space_group_name_H-M "P 21 21 21"
_symmetry_group_IT_number 19
_symmetry_cell_setting 'orthorhombic'
loop_
_space_group_symop_operation_xyz
x,y,z
1/2-x,-y,1/2+z
1/2+x,1/2-y,-z
-x,1/2+y,1/2-z
loop_
_atom_site_type_symbol
_atom_site_label
_atom_site_fract_x
_atom_site_fract_y
_atom_site_fract_z
Si Si1 0.599810 0.832712 0.708108
Si Si2 0.006381 0.674478 0.478263
Si Si3 0.058744 0.776295 0.879128
Si Si4 0.386091 0.487458 0.560773
Si Si5 0.756592 0.815289 0.357918
Si Si6 0.812741 0.689466 0.916768
Si Si7 0.326831 0.826349 0.840607
Si Si8 0.062341 0.996467 0.655309
O O1 0.534349 0.836771 0.643451
O O2 0.595407 0.798217 0.838912
O O3 0.645390 0.612615 0.662404
O O4 0.622621 0.121901 0.698095
O O5 0.986569 0.410798 0.532534
O O6 0.059692 0.787707 0.559225
O O7 0.943471 0.831183 0.465869
O O8 0.009943 0.576656 0.826180
O O9 0.087333 0.918608 0.775170
O O10 0.118490 0.673481 0.948094
O O11 0.322357 0.647438 0.577784
O O12 0.713771 0.598483 0.410945
O O13 0.767323 0.703573 0.237899
O O14 0.723786 0.092560 0.349780
O O15 0.885829 0.702709 0.881907
O O16 0.805149 0.761585 0.041632
#
# Coordination Sequence:
#
# PCOD8157545 Si02
#       8
#     4   4   4   4   4   4   4   4
#     4  11  24  43  75 102 143 177 233 289 367 426
#     4  11  24  42  73 103 138 190 226 302 360 432
#     4  11  24  44  71 104 148 180 233 310 362 430
#     4  10  27  43  67 104 144 182 231 298 365 418
#     4  11  27  48  70 103 142 189 239 295 347 422
#     4  12  26  47  77  99 140 194 247 284 351 437
#     4  11  24  48  70 102 140 180 233 303 343 418
#     4  11  24  45  71 107 139 188 244 293 363 425
#
# _framework density 23.246563999999999
#
# number of rings (size 3 to 8) (size 9 to 14) (size 15 to 20)
#    0.000    1.000    2.500    3.000   10.500    1.000 
#    2.250    0.000    0.000    0.000    0.000    0.000 
#    0.000    0.000    0.000    0.000    0.000    0.000 
#
# Total GULP energy -396521.153445 kJ/mol
# GULP energy per Si atom -12391.286045 kJ/mol
# Density = 2.319365 g / cm^3
# Si number density = 23.246564 Si / 1000 Ang^3
#
#
#
# Elastic Constant Matrix: (Units=GPa)
#
#
# Indices 1 2 3 4 5 6 
#
# 1 71.9087 6.5077 19.4437 0.0000 0.0000 0.0000
# 2 6.5077 72.8257 5.3794 0.0000 0.0000 0.0000
# 3 19.4437 5.3794 108.1280 0.0000 0.0000 0.0000
# 4 0.0000 0.0000 0.0000 35.3795 0.0000 0.0000
# 5 0.0000 0.0000 0.0000 0.0000 27.4897 0.0000
# 6 0.0000 0.0000 0.0000 0.0000 0.0000 29.0525
#
#
#
# Elastic Compliance Matrix: (Units=1/GPa)
#
#
# Indices 1 2 3 4 5 6 
#
# 1 0.014708 -0.001123 -0.002589 0.000000 0.000000 0.000000
# 2 -0.001123 0.013868 -0.000488 0.000000 0.000000 0.000000
# 3 -0.002589 -0.000488 0.009738 0.000000 0.000000 0.000000
# 4 0.000000 0.000000 0.000000 0.028265 0.000000 0.000000
# 5 0.000000 0.000000 0.000000 0.000000 0.036377 0.000000
# 6 0.000000 0.000000 0.000000 0.000000 0.000000 0.034420
#
#
# Mechanical properties :
#
#
# Convention : Reuss Voigt Hill
#
# Bulk Modulus (GPa) = 33.42907 35.05822 34.24364
# Shear Modulus (GPa) = 32.10309 33.15312 32.62810
#
# Velocity S-wave (km/s) = 3.72019 3.78054 3.75048
# Velocity P-wave (km/s) = 5.73276 5.84555 5.78943
#
# Compressibility (1/GPa) = 0.02991409
#
# Stress axis : x y z
#
# Youngs Moduli (GPa) = 67.98930 72.10942 102.68916
#
# Poissons Ratio (x) = 0.08099 0.26586
# Poissons Ratio (y) = 0.07636 0.05011
# Poissons Ratio (z) = 0.17602 0.03519
#
# Static dielectric constant tensor:
#      x y z
#    x 3.977210 0.000000 0.000000 
#    y 0.000000 4.282290 0.000000 
#    z 0.000000 0.000000 5.047240 
# 
# 
# High freq. dielectric constant tensor:
#      x y z
#    x 1.906260 0.000000 0.000000 
#    y 0.000000 1.916790 0.000000 
#    z 0.000000 0.000000 1.937710 
# 
# From -- ./inp_files/5469.got.cif
#   From: 2010.03.12/outbox.cif.g09.slc.cpg/sg19_3_cif.got.tgz:5469.got - 2010.04.10 18:59:41.
