data_PCOD8157572
_publ_section_title
;
Structure prediction by ZEFSAII (Michael W. Deem and Ramdas Pophale) SiO2 
 PCOD8157572
Probable space group: P 21 21 21
;
_chemical_formula_sum "Si O2"
_cell_formula_units_Z 32
_cell_length_a 13.950114
_cell_length_b 9.226150
_cell_length_c 11.876623
_cell_angle_alpha 90.000000
_cell_angle_beta 90.000000
_cell_angle_gamma 90.000000
_cell_volume 1528.590790
_symmetry_space_group_name_H-M "P 21 21 21"
_symmetry_group_IT_number 19
_symmetry_cell_setting 'orthorhombic'
loop_
_space_group_symop_operation_xyz
x,y,z
1/2-x,-y,1/2+z
1/2+x,1/2-y,-z
-x,1/2+y,1/2-z
loop_
_atom_site_type_symbol
_atom_site_label
_atom_site_fract_x
_atom_site_fract_y
_atom_site_fract_z
Si Si1 0.593617 0.395957 0.766169
Si Si2 0.291130 0.171080 0.127101
Si Si3 0.894996 0.086305 0.762995
Si Si4 0.836277 0.230175 0.532609
Si Si5 0.843691 0.840501 0.915795
Si Si6 0.384365 0.909917 0.234605
Si Si7 0.765602 0.472011 0.101213
Si Si8 0.509705 0.150939 0.610498
O O1 0.678722 0.333117 0.843427
O O2 0.639444 0.501423 0.673783
O O3 0.538668 0.260476 0.710529
O O4 0.522830 0.495928 0.840043
O O5 0.334779 0.329804 0.141500
O O6 0.357845 0.077200 0.210982
O O7 0.305106 0.119649 0.001344
O O8 0.861419 0.126113 0.637566
O O9 0.007960 0.111450 0.776594
O O10 0.871877 0.922211 0.799695
O O11 0.767579 0.139822 0.448753
O O12 0.780601 0.373403 0.570998
O O13 0.929595 0.272231 0.464297
O O14 0.863422 0.673920 0.881626
O O15 0.903320 0.884074 0.026359
O O16 0.311395 0.868200 0.335382
#
# Coordination Sequence:
#
# PCOD8157572 Si02
#       8
#     4   4   4   4   4   4   4   4
#     4  11  24  42  70  98 133 182 227 276 337 413
#     4  11  22  43  69  94 135 181 230 278 335 409
#     4  12  25  39  68 103 132 174 229 287 332 407
#     4  12  22  44  70  93 139 179 219 283 345 393
#     4  12  25  43  68 100 141 176 219 292 347 388
#     4  11  21  42  69  97 127 181 232 270 340 410
#     4  11  21  44  71  93 129 184 230 269 333 411
#     4  12  24  45  69 100 138 181 228 279 343 401
#
# _framework density 20.934314000000001
#
# number of rings (size 3 to 8) (size 9 to 14) (size 15 to 20)
#    0.000    0.500    7.500    2.250    0.000    4.000 
#    0.000    0.000    0.000    0.000    0.000    0.000 
#    0.000    0.000    0.000    0.000    0.000    0.000 
#
# Total GULP energy -396782.270331 kJ/mol
# GULP energy per Si atom -12399.445948 kJ/mol
# Density = 2.088667 g / cm^3
# Si number density = 20.934314 Si / 1000 Ang^3
#
#
#
# Elastic Constant Matrix: (Units=GPa)
#
#
# Indices 1 2 3 4 5 6 
#
# 1 60.5205 26.5192 11.3437 0.0000 0.0000 0.0000
# 2 26.5192 53.3768 15.1663 0.0000 0.0000 0.0000
# 3 11.3437 15.1663 65.9513 0.0000 0.0000 0.0000
# 4 0.0000 0.0000 0.0000 43.1475 0.0000 0.0000
# 5 0.0000 0.0000 0.0000 0.0000 41.4516 0.0000
# 6 0.0000 0.0000 0.0000 0.0000 0.0000 34.5783
#
#
#
# Elastic Compliance Matrix: (Units=1/GPa)
#
#
# Indices 1 2 3 4 5 6 
#
# 1 0.021227 -0.010174 -0.001312 0.000000 0.000000 0.000000
# 2 -0.010174 0.024920 -0.003981 0.000000 0.000000 0.000000
# 3 -0.001312 -0.003981 0.016304 0.000000 0.000000 0.000000
# 4 0.000000 0.000000 0.000000 0.023176 0.000000 0.000000
# 5 0.000000 0.000000 0.000000 0.000000 0.024125 0.000000
# 6 0.000000 0.000000 0.000000 0.000000 0.000000 0.028920
#
#
# Mechanical properties :
#
#
# Convention : Reuss Voigt Hill
#
# Bulk Modulus (GPa) = 31.72671 31.76745 31.74708
# Shear Modulus (GPa) = 27.76079 32.29014 30.02546
#
# Velocity S-wave (km/s) = 3.64550 3.93166 3.79128
# Velocity P-wave (km/s) = 5.73654 5.98485 5.86201
#
# Compressibility (1/GPa) = 0.03151918
#
# Stress axis : x y z
#
# Youngs Moduli (GPa) = 47.10967 40.12782 61.33566
#
# Poissons Ratio (x) = 0.40824 0.08045
# Poissons Ratio (y) = 0.47927 0.24417
# Poissons Ratio (z) = 0.06179 0.15974
#
# Static dielectric constant tensor:
#      x y z
#    x 3.946770 0.000000 0.000000 
#    y 0.000000 3.629840 0.000000 
#    z 0.000000 0.000000 4.005110 
# 
# 
# High freq. dielectric constant tensor:
#      x y z
#    x 1.829000 0.000000 0.000000 
#    y 0.000000 1.804950 0.000000 
#    z 0.000000 0.000000 1.830230 
# 
# From -- ./inp_files/5225.got.cif
#   From: 2010.03.12/outbox.cif.g09.slc.cpg/sg19_3_cif.got.tgz:5225.got - 2010.04.10 18:59:41.
