data_PCOD8157053
_publ_section_title
;
Structure prediction by ZEFSAII (Michael W. Deem and Ramdas Pophale) SiO2 
 PCOD8157053
Probable space group: P 21 21 21
;
_chemical_formula_sum "Si O2"
_cell_formula_units_Z 20
_cell_length_a 9.897024
_cell_length_b 5.277210
_cell_length_c 19.162305
_cell_angle_alpha 90.000000
_cell_angle_beta 90.000000
_cell_angle_gamma 90.000000
_cell_volume 1000.821781
_symmetry_space_group_name_H-M "P 21 21 21"
_symmetry_group_IT_number 19
_symmetry_cell_setting 'orthorhombic'
loop_
_space_group_symop_operation_xyz
x,y,z
1/2-x,-y,1/2+z
1/2+x,1/2-y,-z
-x,1/2+y,1/2-z
loop_
_atom_site_type_symbol
_atom_site_label
_atom_site_fract_x
_atom_site_fract_y
_atom_site_fract_z
Si Si1 0.300740 0.385169 0.976812
Si Si2 0.604681 0.126749 0.392771
Si Si3 0.033917 0.597866 0.340158
Si Si4 0.001582 0.365927 0.932950
Si Si5 0.624659 0.899079 0.815626
O O1 0.353297 0.429945 0.899044
O O2 0.140777 0.347473 0.974939
O O3 0.329930 0.621094 0.029027
O O4 0.378499 0.143434 0.010569
O O5 0.514494 0.380535 0.386737
O O6 0.717631 0.111252 0.333319
O O7 0.507755 0.881091 0.382470
O O8 0.939615 0.353509 0.347588
O O9 0.113385 0.598098 0.267530
O O10 0.944378 0.851373 0.348756
#
# Coordination Sequence:
#
# PCOD8157053 Si02
#       5
#     4   4   4   4   4
#     4  10  24  37  60  88 118 153 201 240 294 348
#     4  10  23  35  60  81 122 150 194 243 295 337
#     4  10  22  36  66  84 121 154 205 238 291 360
#     4  10  24  35  58  85 117 154 192 239 299 339
#     4  10  21  41  58  92 114 161 194 248 293 344
#
# _framework density 19.983577
#
# number of rings (size 3 to 8) (size 9 to 14) (size 15 to 20)
#    1.200    0.800    0.000    2.400   11.200    0.000 
#    0.000    2.000    0.000    0.000    0.000    0.000 
#    0.000    0.000    0.000    0.000    0.000    0.000 
#
# Total GULP energy -247867.594081 kJ/mol
# GULP energy per Si atom -12393.379704 kJ/mol
# Density = 1.993809 g / cm^3
# Si number density = 19.983577 Si / 1000 Ang^3
#
#
#
# Elastic Constant Matrix: (Units=GPa)
#
#
# Indices 1 2 3 4 5 6 
#
# 1 55.3861 18.0286 -5.1988 0.0000 0.0000 0.0000
# 2 18.0286 148.1917 7.6713 0.0000 0.0000 0.0000
# 3 -5.1988 7.6713 38.7226 0.0000 0.0000 0.0000
# 4 0.0000 0.0000 0.0000 11.4140 0.0000 0.0000
# 5 0.0000 0.0000 0.0000 0.0000 40.9224 0.0000
# 6 0.0000 0.0000 0.0000 0.0000 0.0000 17.3430
#
#
#
# Elastic Compliance Matrix: (Units=1/GPa)
#
#
# Indices 1 2 3 4 5 6 
#
# 1 0.019153 -0.002489 0.003064 0.000000 0.000000 0.000000
# 2 -0.002489 0.007141 -0.001749 0.000000 0.000000 0.000000
# 3 0.003064 -0.001749 0.026583 0.000000 0.000000 0.000000
# 4 0.000000 0.000000 0.000000 0.087612 0.000000 0.000000
# 5 0.000000 0.000000 0.000000 0.000000 0.024436 0.000000
# 6 0.000000 0.000000 0.000000 0.000000 0.000000 0.057660
#
#
# Mechanical properties :
#
#
# Convention : Reuss Voigt Hill
#
# Bulk Modulus (GPa) = 19.79004 31.47806 25.63405
# Shear Modulus (GPa) = 20.68037 28.72249 24.70143
#
# Velocity S-wave (km/s) = 3.22043 3.79529 3.51962
# Velocity P-wave (km/s) = 4.87369 5.91539 5.41963
#
# Compressibility (1/GPa) = 0.05053048
#
# Stress axis : x y z
#
# Youngs Moduli (GPa) = 52.21162 140.03009 37.61853
#
# Poissons Ratio (x) = 0.34850 -0.11528
# Poissons Ratio (y) = 0.12994 0.06579
# Poissons Ratio (z) = -0.16000 0.24490
#
# Static dielectric constant tensor:
#      x y z
#    x 3.354220 0.000000 0.000000 
#    y 0.000000 3.771290 0.000000 
#    z 0.000000 0.000000 3.347210 
# 
# 
# High freq. dielectric constant tensor:
#      x y z
#    x 1.769610 0.000000 0.000000 
#    y 0.000000 1.788410 0.000000 
#    z 0.000000 0.000000 1.760170 
# 
# From -- ./inp_files/1908.got.cif
#   From: 2010.03.12/outbox.cif.g09.slc.cpg/sg19_1_cif.got.tgz:1908.got - 2010.04.10 18:59:41.
