data_PCOD8157832
_publ_section_title
;
Structure prediction by ZEFSAII (Michael W. Deem and Ramdas Pophale) SiO2 
 PCOD8157832
Probable space group: P 21 21 21
;
_chemical_formula_sum "Si O2"
_cell_formula_units_Z 24
_cell_length_a 9.130824
_cell_length_b 11.127573
_cell_length_c 9.104932
_cell_angle_alpha 90.000000
_cell_angle_beta 90.000000
_cell_angle_gamma 90.000000
_cell_volume 925.096697
_symmetry_space_group_name_H-M "P 21 21 21"
_symmetry_group_IT_number 19
_symmetry_cell_setting 'orthorhombic'
loop_
_space_group_symop_operation_xyz
x,y,z
1/2-x,-y,1/2+z
1/2+x,1/2-y,-z
-x,1/2+y,1/2-z
loop_
_atom_site_type_symbol
_atom_site_label
_atom_site_fract_x
_atom_site_fract_y
_atom_site_fract_z
Si Si1 0.928318 0.997707 0.971009
Si Si2 0.046981 0.766941 0.449300
Si Si3 0.450119 0.018325 0.164879
Si Si4 0.836698 0.156187 0.514162
Si Si5 0.598175 0.302653 0.675821
Si Si6 0.359838 0.055758 0.724689
O O1 0.897126 0.139921 0.989655
O O2 0.037682 0.963992 0.839578
O O3 0.771965 0.937409 0.934305
O O4 0.997055 0.937776 0.118258
O O5 0.013130 0.856436 0.583516
O O6 0.159506 0.829825 0.333559
O O7 0.902747 0.740273 0.347283
O O8 0.563953 0.914618 0.128440
O O9 0.286390 0.970273 0.131095
O O10 0.741774 0.253959 0.598762
O O11 0.940717 0.229074 0.400919
O O12 0.607330 0.446326 0.663821
#
# Coordination Sequence:
#
# PCOD8157832 Si02
#       6
#     4   4   4   4   4   4
#     4  11  29  50  82 122 162 217 282 335 423 500
#     4  11  26  54  83 114 165 212 271 350 409 496
#     4  12  29  47  83 117 163 214 280 331 425 497
#     4  12  29  50  82 119 162 221 278 344 411 503
#     4  11  28  50  82 116 170 214 277 345 421 487
#     4  11  25  55  76 118 162 216 274 351 417 497
#
# _framework density 25.943232999999999
#
# number of rings (size 3 to 8) (size 9 to 14) (size 15 to 20)
#    0.000    0.667    3.333    1.000   14.000    2.667 
#    0.000    0.000    0.000    0.000    0.000    0.000 
#    0.000    0.000    0.000    0.000    0.000    0.000 
#
# Total GULP energy -297582.883708 kJ/mol
# GULP energy per Si atom -12399.286821 kJ/mol
# Density = 2.588418 g / cm^3
# Si number density = 25.943233 Si / 1000 Ang^3
#
#
#
# Elastic Constant Matrix: (Units=GPa)
#
#
# Indices 1 2 3 4 5 6 
#
# 1 132.7600 29.1933 18.3898 0.0000 0.0000 0.0000
# 2 29.1933 148.8495 50.6712 0.0000 0.0000 0.0000
# 3 18.3898 50.6712 102.9330 0.0000 0.0000 0.0000
# 4 0.0000 0.0000 0.0000 44.4101 0.0000 0.0000
# 5 0.0000 0.0000 0.0000 0.0000 39.1065 0.0000
# 6 0.0000 0.0000 0.0000 0.0000 0.0000 45.8724
#
#
#
# Elastic Compliance Matrix: (Units=1/GPa)
#
#
# Indices 1 2 3 4 5 6 
#
# 1 0.007924 -0.001288 -0.000782 0.000000 0.000000 0.000000
# 2 -0.001288 0.008280 -0.003846 0.000000 0.000000 0.000000
# 3 -0.000782 -0.003846 0.011748 0.000000 0.000000 0.000000
# 4 0.000000 0.000000 0.000000 0.022517 0.000000 0.000000
# 5 0.000000 0.000000 0.000000 0.000000 0.025571 0.000000
# 6 0.000000 0.000000 0.000000 0.000000 0.000000 0.021800
#
#
# Mechanical properties :
#
#
# Convention : Reuss Voigt Hill
#
# Bulk Modulus (GPa) = 62.03178 64.56123 63.29651
# Shear Modulus (GPa) = 43.46134 44.96368 44.21251
#
# Velocity S-wave (km/s) = 4.09742 4.16764 4.13268
# Velocity P-wave (km/s) = 6.80791 6.93531 6.87190
#
# Compressibility (1/GPa) = 0.01612077
#
# Stress axis : x y z
#
# Youngs Moduli (GPa) = 126.20079 120.77249 85.12121
#
# Poissons Ratio (x) = 0.15556 0.06653
# Poissons Ratio (y) = 0.16255 0.32737
# Poissons Ratio (z) = 0.09864 0.46448
#
# Static dielectric constant tensor:
#      x y z
#    x 4.518620 0.000000 0.000000 
#    y 0.000000 4.940310 0.000000 
#    z 0.000000 0.000000 4.658880 
# 
# 
# High freq. dielectric constant tensor:
#      x y z
#    x 2.023950 0.000000 0.000000 
#    y 0.000000 2.067080 0.000000 
#    z 0.000000 0.000000 2.043530 
# 
# From -- ./inp_files/2681.got.cif
#   From: 2010.03.12/outbox.cif.g09.slc.cpg/sg19_2_cif.got.tgz:2681.got - 2010.04.10 18:59:41.
