data_PCOD8157620
_publ_section_title
;
Structure prediction by ZEFSAII (Michael W. Deem and Ramdas Pophale) SiO2 
 PCOD8157620
Probable space group: P 21 21 21
;
_chemical_formula_sum "Si O2"
_cell_formula_units_Z 28
_cell_length_a 11.604451
_cell_length_b 9.036424
_cell_length_c 13.208732
_cell_angle_alpha 90.000000
_cell_angle_beta 90.000000
_cell_angle_gamma 90.000000
_cell_volume 1385.103823
_symmetry_space_group_name_H-M "P 21 21 21"
_symmetry_group_IT_number 19
_symmetry_cell_setting 'orthorhombic'
loop_
_space_group_symop_operation_xyz
x,y,z
1/2-x,-y,1/2+z
1/2+x,1/2-y,-z
-x,1/2+y,1/2-z
loop_
_atom_site_type_symbol
_atom_site_label
_atom_site_fract_x
_atom_site_fract_y
_atom_site_fract_z
Si Si1 0.648785 0.962275 0.219651
Si Si2 0.278870 0.223508 0.124205
Si Si3 0.448527 0.443587 0.631092
Si Si4 0.186343 0.348654 0.600130
Si Si5 0.670114 0.926612 0.558446
Si Si6 0.464919 0.783977 0.677013
Si Si7 0.932113 0.551176 0.918103
O O1 0.693345 0.815006 0.274382
O O2 0.537687 0.917823 0.156205
O O3 0.617765 0.084470 0.304095
O O4 0.746145 0.036399 0.150380
O O5 0.156083 0.143629 0.141618
O O6 0.379317 0.106937 0.106856
O O7 0.265072 0.327224 0.025539
O O8 0.321350 0.385839 0.606383
O O9 0.447451 0.607186 0.678418
O O10 0.505784 0.331599 0.709817
O O11 0.526160 0.444251 0.532351
O O12 0.133660 0.421191 0.497654
O O13 0.166252 0.173877 0.597885
O O14 0.560446 0.837555 0.598076
#
# Coordination Sequence:
#
# PCOD8157620 Si02
#       7
#     4   4   4   4   4   4   4
#     4  11  22  47  69  93 140 180 226 281 346 412
#     4  11  25  43  67 103 136 181 230 286 342 408
#     4  12  26  44  72  98 140 181 231 285 339 420
#     4  11  25  44  67 101 137 187 224 280 355 401
#     4  11  22  44  72  94 133 186 223 279 348 404
#     4  12  24  45  70 101 135 182 233 286 342 413
#     4  12  26  43  69 106 139 177 233 287 344 418
#
# _framework density 20.215091000000001
#
# number of rings (size 3 to 8) (size 9 to 14) (size 15 to 20)
#    0.000    0.571    7.143    0.857    6.000    0.000 
#    0.000    0.000    0.000    0.000    0.000    0.000 
#    0.000    0.000    0.000    0.000    0.000    0.000 
#
# Total GULP energy -347279.499701 kJ/mol
# GULP energy per Si atom -12402.839275 kJ/mol
# Density = 2.016908 g / cm^3
# Si number density = 20.215091 Si / 1000 Ang^3
#
#
#
# Elastic Constant Matrix: (Units=GPa)
#
#
# Indices 1 2 3 4 5 6 
#
# 1 125.5731 50.3268 54.3746 0.0000 0.0000 0.0000
# 2 50.3268 95.4025 40.6812 0.0000 0.0000 0.0000
# 3 54.3746 40.6812 118.8454 0.0000 0.0000 0.0000
# 4 0.0000 0.0000 0.0000 27.2666 0.0000 0.0000
# 5 0.0000 0.0000 0.0000 0.0000 30.3617 0.0000
# 6 0.0000 0.0000 0.0000 0.0000 0.0000 34.9478
#
#
#
# Elastic Compliance Matrix: (Units=1/GPa)
#
#
# Indices 1 2 3 4 5 6 
#
# 1 0.011318 -0.004406 -0.003670 0.000000 0.000000 0.000000
# 2 -0.004406 0.013988 -0.002773 0.000000 0.000000 0.000000
# 3 -0.003670 -0.002773 0.011043 0.000000 0.000000 0.000000
# 4 0.000000 0.000000 0.000000 0.036675 0.000000 0.000000
# 5 0.000000 0.000000 0.000000 0.000000 0.032936 0.000000
# 6 0.000000 0.000000 0.000000 0.000000 0.000000 0.028614
#
#
# Mechanical properties :
#
#
# Convention : Reuss Voigt Hill
#
# Bulk Modulus (GPa) = 68.24913 70.06513 69.15713
# Shear Modulus (GPa) = 31.02589 31.47779 31.25184
#
# Velocity S-wave (km/s) = 3.92189 3.95035 3.93614
# Velocity P-wave (km/s) = 7.37177 7.45265 7.41232
#
# Compressibility (1/GPa) = 0.01465220
#
# Stress axis : x y z
#
# Youngs Moduli (GPa) = 88.35096 71.48876 90.55794
#
# Poissons Ratio (x) = 0.31495 0.33239
# Poissons Ratio (y) = 0.38924 0.25108
# Poissons Ratio (z) = 0.32429 0.19821
#
# Static dielectric constant tensor:
#      x y z
#    x 3.649510 0.000000 0.000000 
#    y 0.000000 3.703330 0.000000 
#    z 0.000000 0.000000 3.932310 
# 
# 
# High freq. dielectric constant tensor:
#      x y z
#    x 1.790690 0.000000 0.000000 
#    y 0.000000 1.789680 0.000000 
#    z 0.000000 0.000000 1.810300 
# 
# From -- ./inp_files/3429.got.cif
#   From: 2010.03.12/outbox.cif.g09.slc.cpg/sg19_2_cif.got.tgz:3429.got - 2010.04.10 18:59:41.
