data_PCOD8157498
_publ_section_title
;
Structure prediction by ZEFSAII (Michael W. Deem and Ramdas Pophale) SiO2 
 PCOD8157498
Probable space group: P 21 21 21
;
_chemical_formula_sum "Si O2"
_cell_formula_units_Z 20
_cell_length_a 7.669349
_cell_length_b 8.954471
_cell_length_c 12.809665
_cell_angle_alpha 90.000000
_cell_angle_beta 90.000000
_cell_angle_gamma 90.000000
_cell_volume 879.703273
_symmetry_space_group_name_H-M "P 21 21 21"
_symmetry_group_IT_number 19
_symmetry_cell_setting 'orthorhombic'
loop_
_space_group_symop_operation_xyz
x,y,z
1/2-x,-y,1/2+z
1/2+x,1/2-y,-z
-x,1/2+y,1/2-z
loop_
_atom_site_type_symbol
_atom_site_label
_atom_site_fract_x
_atom_site_fract_y
_atom_site_fract_z
Si Si1 0.680385 0.440292 0.214194
Si Si2 0.970048 0.916012 0.369332
Si Si3 0.526266 0.426594 0.830342
Si Si4 0.740718 0.087664 0.525618
Si Si5 0.986422 0.780665 0.855688
O O1 0.783880 0.496290 0.318217
O O2 0.589288 0.287518 0.248712
O O3 0.534965 0.551850 0.173939
O O4 0.818031 0.416315 0.118947
O O5 0.924730 0.746662 0.339806
O O6 0.873183 0.969795 0.472894
O O7 0.917801 0.032155 0.275870
O O8 0.417744 0.491386 0.926910
O O9 0.657807 0.208323 0.446641
O O10 0.846265 0.182927 0.610609
#
# Coordination Sequence:
#
# PCOD8157498 Si02
#       5
#     4   4   4   4   4
#     4  10  26  42  74  96 144 172 236 270 360 392
#     4  10  24  46  71  98 141 179 228 287 338 407
#     4  10  24  46  71  98 141 179 228 287 338 407
#     4  12  26  42  76 102 140 174 242 274 344 404
#     4  12  26  44  72 104 136 188 222 288 338 416
#
# _framework density 22.734939000000001
#
# number of rings (size 3 to 8) (size 9 to 14) (size 15 to 20)
#    1.200    0.000    0.000    4.800   11.200    3.200 
#    0.000    0.000    0.000    0.000    0.000    0.000 
#    0.000    0.000    0.000    0.000    0.000    0.000 
#
# Total GULP energy -247879.970703 kJ/mol
# GULP energy per Si atom -12393.998535 kJ/mol
# Density = 2.268319 g / cm^3
# Si number density = 22.734939 Si / 1000 Ang^3
#
#
#
# Elastic Constant Matrix: (Units=GPa)
#
#
# Indices 1 2 3 4 5 6 
#
# 1 69.4667 -10.1806 8.5802 0.0000 0.0000 0.0000
# 2 -10.1806 54.3672 -4.5900 0.0000 0.0000 0.0000
# 3 8.5802 -4.5900 54.6225 0.0000 0.0000 0.0000
# 4 0.0000 0.0000 0.0000 34.9219 0.0000 0.0000
# 5 0.0000 0.0000 0.0000 0.0000 45.8732 0.0000
# 6 0.0000 0.0000 0.0000 0.0000 0.0000 37.5368
#
#
#
# Elastic Compliance Matrix: (Units=1/GPa)
#
#
# Indices 1 2 3 4 5 6 
#
# 1 0.015046 0.002637 -0.002142 0.000000 0.000000 0.000000
# 2 0.002637 0.018987 0.001181 0.000000 0.000000 0.000000
# 3 -0.002142 0.001181 0.018743 0.000000 0.000000 0.000000
# 4 0.000000 0.000000 0.000000 0.028635 0.000000 0.000000
# 5 0.000000 0.000000 0.000000 0.000000 0.021799 0.000000
# 6 0.000000 0.000000 0.000000 0.000000 0.000000 0.026640
#
#
# Mechanical properties :
#
#
# Convention : Reuss Voigt Hill
#
# Bulk Modulus (GPa) = 17.81624 18.45286 18.13455
# Shear Modulus (GPa) = 34.43315 35.97618 35.20467
#
# Velocity S-wave (km/s) = 3.89594 3.98228 3.93935
# Velocity P-wave (km/s) = 5.30013 5.41099 5.35585
#
# Compressibility (1/GPa) = 0.05612857
#
# Stress axis : x y z
#
# Youngs Moduli (GPa) = 66.46127 52.66788 53.35271
#
# Poissons Ratio (x) = -0.13887 0.11428
# Poissons Ratio (y) = -0.17524 -0.06303
# Poissons Ratio (z) = 0.14236 -0.06222
#
# Static dielectric constant tensor:
#      x y z
#    x 4.082780 0.000000 0.000000 
#    y 0.000000 3.898000 0.000000 
#    z 0.000000 0.000000 3.820540 
# 
# 
# High freq. dielectric constant tensor:
#      x y z
#    x 1.904460 0.000000 0.000000 
#    y 0.000000 1.902280 0.000000 
#    z 0.000000 0.000000 1.872400 
# 
# From -- ./inp_files/5800.got.cif
#   From: 2010.03.12/outbox.cif.g09.slc.cpg/sg19_3_cif.got.tgz:5800.got - 2010.04.10 18:59:41.
