data_PCOD8157364
_publ_section_title
;
Structure prediction by ZEFSAII (Michael W. Deem and Ramdas Pophale) SiO2 
 PCOD8157364
Probable space group: P 21 21 21
;
_chemical_formula_sum "Si O2"
_cell_formula_units_Z 28
_cell_length_a 9.082533
_cell_length_b 9.601083
_cell_length_c 14.865947
_cell_angle_alpha 90.000000
_cell_angle_beta 90.000000
_cell_angle_gamma 90.000000
_cell_volume 1296.342588
_symmetry_space_group_name_H-M "P 21 21 21"
_symmetry_group_IT_number 19
_symmetry_cell_setting 'orthorhombic'
loop_
_space_group_symop_operation_xyz
x,y,z
1/2-x,-y,1/2+z
1/2+x,1/2-y,-z
-x,1/2+y,1/2-z
loop_
_atom_site_type_symbol
_atom_site_label
_atom_site_fract_x
_atom_site_fract_y
_atom_site_fract_z
Si Si1 0.381327 0.797035 0.095481
Si Si2 0.857691 0.387633 0.074328
Si Si3 0.181484 0.187274 0.249891
Si Si4 0.277693 0.693853 0.280862
Si Si5 0.447032 0.521529 0.713586
Si Si6 0.321118 0.150416 0.438205
Si Si7 0.935126 0.383675 0.886167
O O1 0.335802 0.786775 0.199372
O O2 0.505649 0.684288 0.067784
O O3 0.435840 0.954534 0.087417
O O4 0.245929 0.773907 0.026538
O O5 0.830816 0.279197 0.154976
O O6 0.711813 0.483569 0.057752
O O7 0.997804 0.481049 0.109001
O O8 0.905989 0.308514 0.982756
O O9 0.076382 0.319490 0.240373
O O10 0.245863 0.207404 0.348698
O O11 0.312801 0.177080 0.179552
O O12 0.082813 0.049532 0.232536
O O13 0.202114 0.562252 0.232313
O O14 0.407617 0.645612 0.345157
#
# Coordination Sequence:
#
# PCOD8157364 Si02
#       7
#     4   4   4   4   4   4   4
#     4  11  24  42  68 103 136 186 233 293 351 419
#     4  10  25  45  68 102 143 179 238 293 347 423
#     4  11  23  45  66  98 140 179 228 294 343 420
#     4  12  25  43  74  98 139 189 232 287 360 423
#     4  11  24  43  71  98 136 184 232 281 356 413
#     4  10  23  42  68  98 141 177 234 291 341 419
#     4  11  26  44  69 101 147 180 239 289 356 419
#
# _framework density 21.599228
#
# number of rings (size 3 to 8) (size 9 to 14) (size 15 to 20)
#    0.000    1.143    2.857    2.571    8.000    1.143 
#    0.000    1.429    0.000    0.000    0.000    0.000 
#    0.000    0.000    0.000    0.000    0.000    0.000 
#
# Total GULP energy -347023.990439 kJ/mol
# GULP energy per Si atom -12393.713944 kJ/mol
# Density = 2.155007 g / cm^3
# Si number density = 21.599228 Si / 1000 Ang^3
#
#
#
# Elastic Constant Matrix: (Units=GPa)
#
#
# Indices 1 2 3 4 5 6 
#
# 1 101.1594 27.9974 54.0810 0.0000 0.0000 0.0000
# 2 27.9974 69.4695 32.6059 0.0000 0.0000 0.0000
# 3 54.0810 32.6059 151.2767 0.0000 0.0000 0.0000
# 4 0.0000 0.0000 0.0000 23.5671 0.0000 0.0000
# 5 0.0000 0.0000 0.0000 0.0000 43.0913 0.0000
# 6 0.0000 0.0000 0.0000 0.0000 0.0000 35.1175
#
#
#
# Elastic Compliance Matrix: (Units=1/GPa)
#
#
# Indices 1 2 3 4 5 6 
#
# 1 0.012895 -0.003375 -0.003883 0.000000 0.000000 0.000000
# 2 -0.003375 0.016898 -0.002436 0.000000 0.000000 0.000000
# 3 -0.003883 -0.002436 0.008523 0.000000 0.000000 0.000000
# 4 0.000000 0.000000 0.000000 0.042432 0.000000 0.000000
# 5 0.000000 0.000000 0.000000 0.000000 0.023207 0.000000
# 6 0.000000 0.000000 0.000000 0.000000 0.000000 0.028476
#
#
# Mechanical properties :
#
#
# Convention : Reuss Voigt Hill
#
# Bulk Modulus (GPa) = 52.82452 61.25270 57.03861
# Shear Modulus (GPa) = 31.62014 34.16993 32.89503
#
# Velocity S-wave (km/s) = 3.83031 3.98175 3.90676
# Velocity P-wave (km/s) = 6.63863 7.03984 6.84218
#
# Compressibility (1/GPa) = 0.01893060
#
# Stress axis : x y z
#
# Youngs Moduli (GPa) = 77.54914 59.17836 117.32379
#
# Poissons Ratio (x) = 0.19970 0.45552
# Poissons Ratio (y) = 0.26170 0.28577
# Poissons Ratio (z) = 0.30109 0.14414
#
# Static dielectric constant tensor:
#      x y z
#    x 3.945950 0.000000 0.000000 
#    y 0.000000 3.750050 0.000000 
#    z 0.000000 0.000000 4.248430 
# 
# 
# High freq. dielectric constant tensor:
#      x y z
#    x 1.850460 0.000000 0.000000 
#    y 0.000000 1.834320 0.000000 
#    z 0.000000 0.000000 1.864050 
# 
# From -- ./inp_files/5851.got.cif
#   From: 2010.03.12/outbox.cif.g09.slc.cpg/sg19_3_cif.got.tgz:5851.got - 2010.04.10 18:59:41.
