data_PCOD8157007
_publ_section_title
;
Structure prediction by ZEFSAII (Michael W. Deem and Ramdas Pophale) SiO2 
 PCOD8157007
Probable space group: P 21 21 21
;
_chemical_formula_sum "Si O2"
_cell_formula_units_Z 24
_cell_length_a 11.810975
_cell_length_b 5.466876
_cell_length_c 15.834118
_cell_angle_alpha 90.000000
_cell_angle_beta 90.000000
_cell_angle_gamma 90.000000
_cell_volume 1022.395315
_symmetry_space_group_name_H-M "P 21 21 21"
_symmetry_group_IT_number 19
_symmetry_cell_setting 'orthorhombic'
loop_
_space_group_symop_operation_xyz
x,y,z
1/2-x,-y,1/2+z
1/2+x,1/2-y,-z
-x,1/2+y,1/2-z
loop_
_atom_site_type_symbol
_atom_site_label
_atom_site_fract_x
_atom_site_fract_y
_atom_site_fract_z
Si Si1 0.003691 0.393391 0.367385
Si Si2 0.659684 0.777207 0.727055
Si Si3 0.881092 0.477630 0.927714
Si Si4 0.780793 0.989524 0.870526
Si Si5 0.714318 0.425151 0.601752
Si Si6 0.390571 0.355891 0.490292
O O1 0.070322 0.640966 0.345562
O O2 0.096523 0.180005 0.362373
O O3 0.904471 0.373489 0.299292
O O4 0.948856 0.379152 0.461398
O O5 0.726279 0.992280 0.776238
O O6 0.750768 0.616631 0.674475
O O7 0.851095 0.736022 0.882078
O O8 0.013697 0.471512 0.950589
O O9 0.856844 0.234331 0.872832
O O10 0.804918 0.449852 0.011116
O O11 0.682072 0.007581 0.941049
O O12 0.812806 0.226155 0.588488
#
# Coordination Sequence:
#
# PCOD8157007 Si02
#       6
#     4   4   4   4   4   4
#     4  10  21  39  63 103 136 175 229 287 350 406
#     4  11  22  38  69 102 138 180 225 295 350 405
#     4  10  23  43  66 101 139 183 231 281 346 418
#     4  10  24  42  68 102 140 180 229 290 346 414
#     4  10  22  39  65 103 138 179 230 286 346 416
#     4   9  22  43  67 101 137 185 230 285 346 417
#
# _framework density 23.474284999999998
#
# number of rings (size 3 to 8) (size 9 to 14) (size 15 to 20)
#    0.000    2.000    1.667    0.000    9.333    4.000 
#    0.000    0.000    3.667    0.000    0.000    0.000 
#    0.000    0.000    0.000    0.000    0.000    0.000 
#
# Total GULP energy -297401.950452 kJ/mol
# GULP energy per Si atom -12391.747936 kJ/mol
# Density = 2.342086 g / cm^3
# Si number density = 23.474285 Si / 1000 Ang^3
#
#
#
# Elastic Constant Matrix: (Units=GPa)
#
#
# Indices 1 2 3 4 5 6 
#
# 1 83.9141 38.2072 36.0374 0.0000 0.0000 0.0000
# 2 38.2072 100.7077 28.3484 0.0000 0.0000 0.0000
# 3 36.0374 28.3484 69.2834 0.0000 0.0000 0.0000
# 4 0.0000 0.0000 0.0000 31.1055 0.0000 0.0000
# 5 0.0000 0.0000 0.0000 0.0000 22.6258 0.0000
# 6 0.0000 0.0000 0.0000 0.0000 0.0000 29.9423
#
#
#
# Elastic Compliance Matrix: (Units=1/GPa)
#
#
# Indices 1 2 3 4 5 6 
#
# 1 0.016951 -0.004463 -0.006991 0.000000 0.000000 0.000000
# 2 -0.004463 0.012397 -0.002751 0.000000 0.000000 0.000000
# 3 -0.006991 -0.002751 0.019195 0.000000 0.000000 0.000000
# 4 0.000000 0.000000 0.000000 0.032149 0.000000 0.000000
# 5 0.000000 0.000000 0.000000 0.000000 0.044197 0.000000
# 6 0.000000 0.000000 0.000000 0.000000 0.000000 0.033398
#
#
# Mechanical properties :
#
#
# Convention : Reuss Voigt Hill
#
# Bulk Modulus (GPa) = 49.66802 51.01016 50.33909
# Shear Modulus (GPa) = 25.85185 26.82220 26.33702
#
# Velocity S-wave (km/s) = 3.32216 3.38393 3.35319
# Velocity P-wave (km/s) = 5.99334 6.08649 6.04009
#
# Compressibility (1/GPa) = 0.02013368
#
# Stress axis : x y z
#
# Youngs Moduli (GPa) = 58.99200 80.66184 52.09568
#
# Poissons Ratio (x) = 0.36001 0.36420
# Poissons Ratio (y) = 0.26330 0.14332
# Poissons Ratio (z) = 0.41241 0.22191
#
# Static dielectric constant tensor:
#      x y z
#    x 4.318670 0.000000 0.000000 
#    y 0.000000 3.823440 0.000000 
#    z 0.000000 0.000000 4.273120 
# 
# 
# High freq. dielectric constant tensor:
#      x y z
#    x 1.918230 0.000000 0.000000 
#    y 0.000000 1.909790 0.000000 
#    z 0.000000 0.000000 1.920050 
# 
# From -- ./inp_files/962.got.cif
#   From: 2010.03.12/outbox.cif.g09.slc.cpg/sg19_1_cif.got.tgz:962.got - 2010.04.10 18:59:41.
