data_PCOD8157400
_publ_section_title
;
Structure prediction by ZEFSAII (Michael W. Deem and Ramdas Pophale) SiO2 
 PCOD8157400
Probable space group: P 21 21 21
;
_chemical_formula_sum "Si O2"
_cell_formula_units_Z 20
_cell_length_a 13.754192
_cell_length_b 5.161839
_cell_length_c 12.557735
_cell_angle_alpha 90.000000
_cell_angle_beta 90.000000
_cell_angle_gamma 90.000000
_cell_volume 891.560566
_symmetry_space_group_name_H-M "P 21 21 21"
_symmetry_group_IT_number 19
_symmetry_cell_setting 'orthorhombic'
loop_
_space_group_symop_operation_xyz
x,y,z
1/2-x,-y,1/2+z
1/2+x,1/2-y,-z
-x,1/2+y,1/2-z
loop_
_atom_site_type_symbol
_atom_site_label
_atom_site_fract_x
_atom_site_fract_y
_atom_site_fract_z
Si Si1 0.673020 0.631237 0.473437
Si Si2 0.985026 0.303388 0.816726
Si Si3 0.441676 0.522144 0.719610
Si Si4 0.864580 0.878960 0.505394
Si Si5 0.814446 0.879887 0.092623
O O1 0.621542 0.607557 0.358493
O O2 0.790599 0.654769 0.462665
O O3 0.645428 0.389215 0.547300
O O4 0.630338 0.889814 0.529191
O O5 0.055994 0.257953 0.916659
O O6 0.025429 0.530355 0.742173
O O7 0.480054 0.246330 0.759953
O O8 0.416765 0.490919 0.595317
O O9 0.342485 0.594160 0.783396
O O10 0.801852 0.092074 0.572685
#
# Coordination Sequence:
#
# PCOD8157400 Si02
#       5
#     4   4   4   4   4
#     4  10  24  44  70  96 138 173 231 272 333 401
#     4  12  27  44  69 100 140 178 224 276 340 394
#     4  12  26  43  71 100 137 176 227 280 340 394
#     4  10  28  43  73  99 137 178 230 274 336 404
#     4  10  23  44  67  95 134 173 224 272 339 387
#
# _framework density 22.432573999999999
#
# number of rings (size 3 to 8) (size 9 to 14) (size 15 to 20)
#    1.200    0.000    0.000    4.800    8.400    0.000 
#    0.000    0.000    0.000    0.000    0.000    0.000 
#    0.000    0.000    0.000    0.000    0.000    0.000 
#
# Total GULP energy -247921.700706 kJ/mol
# GULP energy per Si atom -12396.085035 kJ/mol
# Density = 2.238152 g / cm^3
# Si number density = 22.432574 Si / 1000 Ang^3
#
#
#
# Elastic Constant Matrix: (Units=GPa)
#
#
# Indices 1 2 3 4 5 6 
#
# 1 101.8694 13.0583 50.3347 0.0000 0.0000 0.0000
# 2 13.0583 108.8102 7.4677 0.0000 0.0000 0.0000
# 3 50.3347 7.4677 106.8672 0.0000 0.0000 0.0000
# 4 0.0000 0.0000 0.0000 33.7506 0.0000 0.0000
# 5 0.0000 0.0000 0.0000 0.0000 47.8103 0.0000
# 6 0.0000 0.0000 0.0000 0.0000 0.0000 21.9710
#
#
#
# Elastic Compliance Matrix: (Units=1/GPa)
#
#
# Indices 1 2 3 4 5 6 
#
# 1 0.012933 -0.001139 -0.006012 0.000000 0.000000 0.000000
# 2 -0.001139 0.009335 -0.000116 0.000000 0.000000 0.000000
# 3 -0.006012 -0.000116 0.012197 0.000000 0.000000 0.000000
# 4 0.000000 0.000000 0.000000 0.029629 0.000000 0.000000
# 5 0.000000 0.000000 0.000000 0.000000 0.020916 0.000000
# 6 0.000000 0.000000 0.000000 0.000000 0.000000 0.045515
#
#
# Mechanical properties :
#
#
# Convention : Reuss Voigt Hill
#
# Bulk Modulus (GPa) = 50.17260 51.02980 50.60120
# Shear Modulus (GPa) = 32.95923 37.15212 35.05568
#
# Velocity S-wave (km/s) = 3.83725 4.07402 3.95741
# Velocity P-wave (km/s) = 6.48438 6.70281 6.59450
#
# Compressibility (1/GPa) = 0.01993120
#
# Stress axis : x y z
#
# Youngs Moduli (GPa) = 77.32102 107.12377 81.98673
#
# Poissons Ratio (x) = 0.12207 0.49290
# Poissons Ratio (y) = 0.08811 0.00948
# Poissons Ratio (z) = 0.46485 0.01238
#
# Static dielectric constant tensor:
#      x y z
#    x 3.924460 0.000000 0.000000 
#    y 0.000000 3.808330 0.000000 
#    z 0.000000 0.000000 3.917050 
# 
# 
# High freq. dielectric constant tensor:
#      x y z
#    x 1.879880 0.000000 0.000000 
#    y 0.000000 1.879210 0.000000 
#    z 0.000000 0.000000 1.882600 
# 
# From -- ./inp_files/828.got.cif
#   From: 2010.03.12/outbox.cif.g09.slc.cpg/sg19_1_cif.got.tgz:828.got - 2010.04.10 18:59:41.
