data_PCOD8157391
_publ_section_title
;
Structure prediction by ZEFSAII (Michael W. Deem and Ramdas Pophale) SiO2 
 PCOD8157391
Probable space group: P 21 21 21
;
_chemical_formula_sum "Si O2"
_cell_formula_units_Z 32
_cell_length_a 18.273490
_cell_length_b 5.963126
_cell_length_c 13.069003
_cell_angle_alpha 90.000000
_cell_angle_beta 90.000000
_cell_angle_gamma 90.000000
_cell_volume 1424.091662
_symmetry_space_group_name_H-M "P 21 21 21"
_symmetry_group_IT_number 19
_symmetry_cell_setting 'orthorhombic'
loop_
_space_group_symop_operation_xyz
x,y,z
1/2-x,-y,1/2+z
1/2+x,1/2-y,-z
-x,1/2+y,1/2-z
loop_
_atom_site_type_symbol
_atom_site_label
_atom_site_fract_x
_atom_site_fract_y
_atom_site_fract_z
Si Si1 0.183335 0.792190 0.485906
Si Si2 0.024453 0.222704 0.291748
Si Si3 0.680206 0.409894 0.700755
Si Si4 0.726248 0.906404 0.076819
Si Si5 0.553899 0.810662 0.381905
Si Si6 0.077570 0.520442 0.840155
Si Si7 0.466769 0.133817 0.505587
Si Si8 0.185239 0.950667 0.076664
O O1 0.199799 0.540172 0.449423
O O2 0.123739 0.824554 0.575577
O O3 0.262156 0.869604 0.525506
O O4 0.154059 0.923396 0.388052
O O5 0.111439 0.252802 0.278805
O O6 0.995419 0.473054 0.255458
O O7 0.996604 0.196007 0.408480
O O8 0.751763 0.274628 0.663762
O O9 0.699672 0.552217 0.801839
O O10 0.659269 0.054036 0.123726
O O11 0.701218 0.794529 0.969875
O O12 0.482109 0.666922 0.360963
O O13 0.579110 0.936016 0.280295
O O14 0.534109 0.976970 0.474190
O O15 0.058270 0.744112 0.901924
O O16 0.398957 0.987831 0.550201
#
# Coordination Sequence:
#
# PCOD8157391 Si02
#       8
#     4   4   4   4   4   4   4   4
#     4  11  25  43  68 103 140 187 246 315 373 460
#     4  12  28  46  74 111 150 199 248 312 382 454
#     4  11  24  43  69 103 143 187 249 308 381 455
#     4  10  24  44  68 100 140 189 246 303 385 453
#     4  12  24  43  69 102 141 189 245 309 380 452
#     4  11  24  44  68 100 138 190 241 309 376 460
#     4  11  24  43  69  99 144 186 246 302 377 453
#     4  10  23  44  65 100 138 189 237 306 376 455
#
# _framework density 22.470464
#
# number of rings (size 3 to 8) (size 9 to 14) (size 15 to 20)
#    0.000    1.000    2.500    3.000    5.250    5.000 
#    2.250    0.000    0.000    0.000    0.000    0.000 
#    0.000    0.000    0.000    0.000    0.000    0.000 
#
# Total GULP energy -396592.273244 kJ/mol
# GULP energy per Si atom -12393.508539 kJ/mol
# Density = 2.241932 g / cm^3
# Si number density = 22.470464 Si / 1000 Ang^3
#
#
#
# Elastic Constant Matrix: (Units=GPa)
#
#
# Indices 1 2 3 4 5 6 
#
# 1 97.9832 23.3175 43.9631 0.0000 0.0000 0.0000
# 2 23.3175 77.1572 37.1063 0.0000 0.0000 0.0000
# 3 43.9631 37.1063 144.3503 0.0000 0.0000 0.0000
# 4 0.0000 0.0000 0.0000 23.3925 0.0000 0.0000
# 5 0.0000 0.0000 0.0000 0.0000 38.4316 0.0000
# 6 0.0000 0.0000 0.0000 0.0000 0.0000 30.7553
#
#
#
# Elastic Compliance Matrix: (Units=1/GPa)
#
#
# Indices 1 2 3 4 5 6 
#
# 1 0.012127 -0.002155 -0.003139 0.000000 0.000000 0.000000
# 2 -0.002155 0.015172 -0.003244 0.000000 0.000000 0.000000
# 3 -0.003139 -0.003244 0.008718 0.000000 0.000000 0.000000
# 4 0.000000 0.000000 0.000000 0.042749 0.000000 0.000000
# 5 0.000000 0.000000 0.000000 0.000000 0.026020 0.000000
# 6 0.000000 0.000000 0.000000 0.000000 0.000000 0.032515
#
#
# Mechanical properties :
#
#
# Convention : Reuss Voigt Hill
#
# Bulk Modulus (GPa) = 52.79800 58.69605 55.74702
# Shear Modulus (GPa) = 31.11576 32.85614 31.98595
#
# Velocity S-wave (km/s) = 3.72525 3.82801 3.77698
# Velocity P-wave (km/s) = 6.48467 6.76139 6.62447
#
# Compressibility (1/GPa) = 0.01894011
#
# Stress axis : x y z
#
# Youngs Moduli (GPa) = 82.45843 65.91189 114.71110
#
# Poissons Ratio (x) = 0.14205 0.36013
# Poissons Ratio (y) = 0.17771 0.37208
# Poissons Ratio (z) = 0.25888 0.21379
#
# Static dielectric constant tensor:
#      x y z
#    x 4.162190 0.000000 0.000000 
#    y 0.000000 3.836460 0.000000 
#    z 0.000000 0.000000 4.278210 
# 
# 
# High freq. dielectric constant tensor:
#      x y z
#    x 1.901990 0.000000 0.000000 
#    y 0.000000 1.864150 0.000000 
#    z 0.000000 0.000000 1.899410 
# 
# From -- ./inp_files/5523.got.cif
#   From: 2010.03.12/outbox.cif.g09.slc.cpg/sg19_3_cif.got.tgz:5523.got - 2010.04.10 18:59:41.
