data_PCOD8157427
_publ_section_title
;
Structure prediction by ZEFSAII (Michael W. Deem and Ramdas Pophale) SiO2 
 PCOD8157427
Probable space group: P 21 21 21
;
_chemical_formula_sum "Si O2"
_cell_formula_units_Z 28
_cell_length_a 10.992543
_cell_length_b 13.657562
_cell_length_c 8.501025
_cell_angle_alpha 90.000000
_cell_angle_beta 90.000000
_cell_angle_gamma 90.000000
_cell_volume 1276.270254
_symmetry_space_group_name_H-M "P 21 21 21"
_symmetry_group_IT_number 19
_symmetry_cell_setting 'orthorhombic'
loop_
_space_group_symop_operation_xyz
x,y,z
1/2-x,-y,1/2+z
1/2+x,1/2-y,-z
-x,1/2+y,1/2-z
loop_
_atom_site_type_symbol
_atom_site_label
_atom_site_fract_x
_atom_site_fract_y
_atom_site_fract_z
Si Si1 0.799123 0.680296 0.769988
Si Si2 0.555707 0.352061 0.580762
Si Si3 0.128539 0.329391 0.236938
Si Si4 0.498018 0.417759 0.076278
Si Si5 0.239055 0.649030 0.434143
Si Si6 0.653813 0.937191 0.119961
Si Si7 0.079665 0.968460 0.212614
O O1 0.755702 0.790498 0.727016
O O2 0.688361 0.606417 0.772037
O O3 0.894285 0.650597 0.635862
O O4 0.857420 0.679453 0.940135
O O5 0.545848 0.256485 0.689941
O O6 0.425119 0.388222 0.518838
O O7 0.616473 0.437123 0.684926
O O8 0.241381 0.358370 0.347980
O O9 0.041694 0.422615 0.212306
O O10 0.185599 0.295868 0.071073
O O11 0.427276 0.462109 0.226570
O O12 0.405086 0.353082 0.971376
O O13 0.554397 0.504537 0.969898
O O14 0.286122 0.538386 0.430376
#
# Coordination Sequence:
#
# PCOD8157427 Si02
#       7
#     4   4   4   4   4   4   4
#     4  11  27  43  69 104 138 186 228 291 357 423
#     4  11  26  44  67 103 141 180 240 289 357 417
#     4  11  25  40  71 102 130 188 234 290 351 418
#     4  10  24  45  67  99 141 185 229 287 354 420
#     4  11  23  45  72  98 141 185 237 291 347 428
#     4  10  23  46  68 102 139 181 240 293 342 427
#     4  12  24  43  70  98 142 179 230 291 356 413
#
# _framework density 21.938928000000001
#
# number of rings (size 3 to 8) (size 9 to 14) (size 15 to 20)
#    0.000    1.143    2.857    1.714    8.000    0.000 
#    0.000    2.857    0.000    0.000    0.000    0.000 
#    0.000    0.000    0.000    0.000    0.000    0.000 
#
# Total GULP energy -347247.288701 kJ/mol
# GULP energy per Si atom -12401.688882 kJ/mol
# Density = 2.188899 g / cm^3
# Si number density = 21.938928 Si / 1000 Ang^3
#
#
#
# Elastic Constant Matrix: (Units=GPa)
#
#
# Indices 1 2 3 4 5 6 
#
# 1 82.4131 23.3470 28.6337 0.0000 0.0000 0.0000
# 2 23.3470 105.6116 46.9514 0.0000 0.0000 0.0000
# 3 28.6337 46.9514 77.3236 0.0000 0.0000 0.0000
# 4 0.0000 0.0000 0.0000 41.8734 0.0000 0.0000
# 5 0.0000 0.0000 0.0000 0.0000 31.1912 0.0000
# 6 0.0000 0.0000 0.0000 0.0000 0.0000 30.7591
#
#
#
# Elastic Compliance Matrix: (Units=1/GPa)
#
#
# Indices 1 2 3 4 5 6 
#
# 1 0.014016 -0.001083 -0.004532 0.000000 0.000000 0.000000
# 2 -0.001083 0.013054 -0.007525 0.000000 0.000000 0.000000
# 3 -0.004532 -0.007525 0.019180 0.000000 0.000000 0.000000
# 4 0.000000 0.000000 0.000000 0.023881 0.000000 0.000000
# 5 0.000000 0.000000 0.000000 0.000000 0.032060 0.000000
# 6 0.000000 0.000000 0.000000 0.000000 0.000000 0.032511
#
#
# Mechanical properties :
#
#
# Convention : Reuss Voigt Hill
#
# Bulk Modulus (GPa) = 50.08013 51.46806 50.77409
# Shear Modulus (GPa) = 29.82595 31.85916 30.84256
#
# Velocity S-wave (km/s) = 3.69114 3.81488 3.75352
# Velocity P-wave (km/s) = 6.40645 6.55095 6.47911
#
# Compressibility (1/GPa) = 0.01996800
#
# Stress axis : x y z
#
# Youngs Moduli (GPa) = 71.34892 76.60766 52.13701
#
# Poissons Ratio (x) = 0.08300 0.23630
# Poissons Ratio (y) = 0.07730 0.39233
# Poissons Ratio (z) = 0.32337 0.57647
#
# Static dielectric constant tensor:
#      x y z
#    x 4.062590 0.000000 0.000000 
#    y 0.000000 3.761850 0.000000 
#    z 0.000000 0.000000 4.145390 
# 
# 
# High freq. dielectric constant tensor:
#      x y z
#    x 1.873690 0.000000 0.000000 
#    y 0.000000 1.855410 0.000000 
#    z 0.000000 0.000000 1.874560 
# 
# From -- ./inp_files/3456.got.cif
#   From: 2010.03.12/outbox.cif.g09.slc.cpg/sg19_2_cif.got.tgz:3456.got - 2010.04.10 18:59:41.
