data_PCOD8157026
_publ_section_title
;
Structure prediction by ZEFSAII (Michael W. Deem and Ramdas Pophale) SiO2 
 PCOD8157026
Probable space group: P 21 21 21
;
_chemical_formula_sum "Si O2"
_cell_formula_units_Z 32
_cell_length_a 12.664281
_cell_length_b 8.051891
_cell_length_c 13.965019
_cell_angle_alpha 90.000000
_cell_angle_beta 90.000000
_cell_angle_gamma 90.000000
_cell_volume 1424.032681
_symmetry_space_group_name_H-M "P 21 21 21"
_symmetry_group_IT_number 19
_symmetry_cell_setting 'orthorhombic'
loop_
_space_group_symop_operation_xyz
x,y,z
1/2-x,-y,1/2+z
1/2+x,1/2-y,-z
-x,1/2+y,1/2-z
loop_
_atom_site_type_symbol
_atom_site_label
_atom_site_fract_x
_atom_site_fract_y
_atom_site_fract_z
Si Si1 0.990534 0.903020 0.101130
Si Si2 0.213407 0.371163 0.184486
Si Si3 0.332803 0.604618 0.061002
Si Si4 0.587082 0.285901 0.261652
Si Si5 0.765638 0.536421 0.215257
Si Si6 0.113044 0.533761 0.825322
Si Si7 0.837068 0.294857 0.532669
Si Si8 0.003065 0.050860 0.291304
O O1 0.999199 0.733969 0.163545
O O2 0.079869 0.912593 0.020260
O O3 0.996321 0.056551 0.174778
O O4 0.881591 0.917655 0.044064
O O5 0.279461 0.429274 0.091299
O O6 0.215203 0.173665 0.200931
O O7 0.271258 0.450505 0.277214
O O8 0.094017 0.438721 0.172032
O O9 0.412345 0.670747 0.142605
O O10 0.247021 0.750025 0.048409
O O11 0.692311 0.396390 0.260865
O O12 0.478584 0.386275 0.258514
O O13 0.587600 0.163057 0.169008
O O14 0.707218 0.607368 0.122995
O O15 0.881741 0.469152 0.184266
O O16 0.111530 0.620591 0.929292
#
# Coordination Sequence:
#
# PCOD8157026 Si02
#       8
#     4   4   4   4   4   4   4   4
#     4  12  24  43  70  97 135 188 227 289 342 412
#     4  10  22  39  68  97 135 181 229 280 342 414
#     4  11  22  42  69  98 131 183 230 282 347 401
#     4  11  23  41  69 100 137 182 223 289 354 415
#     4  11  24  42  67 103 142 180 232 286 348 424
#     4  10  21  39  66  98 135 176 224 283 346 412
#     4  11  21  42  67  98 137 175 233 285 339 410
#     4  12  23  44  68  95 140 187 232 276 358 414
#
# _framework density 22.471394
#
# number of rings (size 3 to 8) (size 9 to 14) (size 15 to 20)
#    0.000    1.000    5.000    3.000    3.500    0.000 
#    0.000    5.000    0.000    0.000    0.000    0.000 
#    0.000    0.000    0.000    0.000    0.000    0.000 
#
# Total GULP energy -396573.023182 kJ/mol
# GULP energy per Si atom -12392.906974 kJ/mol
# Density = 2.242025 g / cm^3
# Si number density = 22.471394 Si / 1000 Ang^3
#
#
#
# Elastic Constant Matrix: (Units=GPa)
#
#
# Indices 1 2 3 4 5 6 
#
# 1 122.8956 39.4845 36.7565 0.0000 0.0000 0.0000
# 2 39.4845 85.2443 40.6715 0.0000 0.0000 0.0000
# 3 36.7565 40.6715 105.5662 0.0000 0.0000 0.0000
# 4 0.0000 0.0000 0.0000 39.7897 0.0000 0.0000
# 5 0.0000 0.0000 0.0000 0.0000 41.0349 0.0000
# 6 0.0000 0.0000 0.0000 0.0000 0.0000 29.6152
#
#
#
# Elastic Compliance Matrix: (Units=1/GPa)
#
#
# Indices 1 2 3 4 5 6 
#
# 1 0.009913 -0.003608 -0.002061 0.000000 0.000000 0.000000
# 2 -0.003608 0.015686 -0.004787 0.000000 0.000000 0.000000
# 3 -0.002061 -0.004787 0.012035 0.000000 0.000000 0.000000
# 4 0.000000 0.000000 0.000000 0.025132 0.000000 0.000000
# 5 0.000000 0.000000 0.000000 0.000000 0.024369 0.000000
# 6 0.000000 0.000000 0.000000 0.000000 0.000000 0.033766
#
#
# Mechanical properties :
#
#
# Convention : Reuss Voigt Hill
#
# Bulk Modulus (GPa) = 59.80631 60.83678 60.32154
# Shear Modulus (GPa) = 33.92394 35.20754 34.56574
#
# Velocity S-wave (km/s) = 3.88964 3.96254 3.92626
# Velocity P-wave (km/s) = 6.84431 6.93307 6.88883
#
# Compressibility (1/GPa) = 0.01672064
#
# Stress axis : x y z
#
# Youngs Moduli (GPa) = 100.88055 63.75020 83.09206
#
# Poissons Ratio (x) = 0.23001 0.17129
# Poissons Ratio (y) = 0.36397 0.39778
# Poissons Ratio (z) = 0.20796 0.30518
#
# Static dielectric constant tensor:
#      x y z
#    x 4.328600 0.000000 0.000000 
#    y 0.000000 4.003540 0.000000 
#    z 0.000000 0.000000 3.968010 
# 
# 
# High freq. dielectric constant tensor:
#      x y z
#    x 1.909750 0.000000 0.000000 
#    y 0.000000 1.861990 0.000000 
#    z 0.000000 0.000000 1.869960 
# 
# From -- ./inp_files/6100.got.cif
#   From: 2010.03.12/outbox.cif.g09.slc.cpg/sg19_4_cif.got.tgz:6100.got - 2010.04.10 18:59:41.
