data_PCOD8157864
_publ_section_title
;
Structure prediction by ZEFSAII (Michael W. Deem and Ramdas Pophale) SiO2 
 PCOD8157864
Probable space group: P 21 21 21
;
_chemical_formula_sum "Si O2"
_cell_formula_units_Z 24
_cell_length_a 8.793213
_cell_length_b 18.286287
_cell_length_c 6.750050
_cell_angle_alpha 90.000000
_cell_angle_beta 90.000000
_cell_angle_gamma 90.000000
_cell_volume 1085.375752
_symmetry_space_group_name_H-M "P 21 21 21"
_symmetry_group_IT_number 19
_symmetry_cell_setting 'orthorhombic'
loop_
_space_group_symop_operation_xyz
x,y,z
1/2-x,-y,1/2+z
1/2+x,1/2-y,-z
-x,1/2+y,1/2-z
loop_
_atom_site_type_symbol
_atom_site_label
_atom_site_fract_x
_atom_site_fract_y
_atom_site_fract_z
Si Si1 0.414707 0.076168 0.444312
Si Si2 0.091058 0.667360 0.839541
Si Si3 0.088477 0.494910 0.236926
Si Si4 0.893233 0.532533 0.911644
Si Si5 0.265925 0.380773 0.962732
Si Si6 0.377801 0.702160 0.124340
O O1 0.265490 0.075433 0.582068
O O2 0.466307 0.159326 0.425763
O O3 0.558807 0.037616 0.546923
O O4 0.387429 0.035019 0.238438
O O5 0.128966 0.669515 0.604045
O O6 0.039910 0.583691 0.873883
O O7 0.939602 0.715023 0.881345
O O8 0.237910 0.690838 0.970836
O O9 0.186387 0.440123 0.103627
O O10 0.157004 0.575444 0.279581
O O11 0.924814 0.501186 0.130390
O O12 0.161573 0.322105 0.848723
#
# Coordination Sequence:
#
# PCOD8157864 Si02
#       6
#     4   4   4   4   4   4
#     4  12  24  43  72 106 139 178 230 293 350 414
#     4  12  27  48  70 100 142 188 236 290 350 418
#     4  12  22  42  74 104 138 170 236 292 352 418
#     4  12  24  43  72 106 139 178 230 293 350 414
#     4  12  24  44  74 104 138 184 234 290 356 420
#     4  12  27  48  70 100 142 188 236 290 350 418
#
# _framework density 22.112157
#
# number of rings (size 3 to 8) (size 9 to 14) (size 15 to 20)
#    0.000    0.000    8.333    3.000    0.000    1.333 
#    9.000    0.000    0.000    0.000    0.000    0.000 
#    0.000    0.000    0.000    0.000    0.000    0.000 
#
# Total GULP energy -297377.208105 kJ/mol
# GULP energy per Si atom -12390.717004 kJ/mol
# Density = 2.206183 g / cm^3
# Si number density = 22.112157 Si / 1000 Ang^3
#
#
#
# Elastic Constant Matrix: (Units=GPa)
#
#
# Indices 1 2 3 4 5 6 
#
# 1 89.1397 21.7871 31.8244 0.0000 0.0000 0.0000
# 2 21.7871 67.0905 19.2623 0.0000 0.0000 0.0000
# 3 31.8244 19.2623 105.2539 0.0000 0.0000 0.0000
# 4 0.0000 0.0000 0.0000 30.3423 0.0000 0.0000
# 5 0.0000 0.0000 0.0000 0.0000 41.9013 0.0000
# 6 0.0000 0.0000 0.0000 0.0000 0.0000 45.7662
#
#
#
# Elastic Compliance Matrix: (Units=1/GPa)
#
#
# Indices 1 2 3 4 5 6 
#
# 1 0.013244 -0.003326 -0.003396 0.000000 0.000000 0.000000
# 2 -0.003326 0.016567 -0.002026 0.000000 0.000000 0.000000
# 3 -0.003396 -0.002026 0.010898 0.000000 0.000000 0.000000
# 4 0.000000 0.000000 0.000000 0.032957 0.000000 0.000000
# 5 0.000000 0.000000 0.000000 0.000000 0.023866 0.000000
# 6 0.000000 0.000000 0.000000 0.000000 0.000000 0.021850
#
#
# Mechanical properties :
#
#
# Convention : Reuss Voigt Hill
#
# Bulk Modulus (GPa) = 43.07856 45.24798 44.16327
# Shear Modulus (GPa) = 34.57449 36.17599 35.37524
#
# Velocity S-wave (km/s) = 3.95852 4.04917 4.00410
# Velocity P-wave (km/s) = 6.35746 6.50910 6.43373
#
# Compressibility (1/GPa) = 0.02321340
#
# Stress axis : x y z
#
# Youngs Moduli (GPa) = 75.50855 60.36081 91.75682
#
# Poissons Ratio (x) = 0.20075 0.31157
# Poissons Ratio (y) = 0.25113 0.18593
# Poissons Ratio (z) = 0.25640 0.12231
#
# Static dielectric constant tensor:
#      x y z
#    x 3.931950 0.000000 0.000000 
#    y 0.000000 3.799140 0.000000 
#    z 0.000000 0.000000 4.149120 
# 
# 
# High freq. dielectric constant tensor:
#      x y z
#    x 1.876950 0.000000 0.000000 
#    y 0.000000 1.857980 0.000000 
#    z 0.000000 0.000000 1.882580 
# 
# From -- ./inp_files/427.got.cif
#   From: 2010.03.12/outbox.cif.g09.slc.cpg/sg19_1_cif.got.tgz:427.got - 2010.04.10 18:59:41.
