data_PCOD8157347
_publ_section_title
;
Structure prediction by ZEFSAII (Michael W. Deem and Ramdas Pophale) SiO2 
 PCOD8157347
Probable space group: P 21 21 21
;
_chemical_formula_sum "Si O2"
_cell_formula_units_Z 32
_cell_length_a 14.036439
_cell_length_b 12.329817
_cell_length_c 8.160543
_cell_angle_alpha 90.000000
_cell_angle_beta 90.000000
_cell_angle_gamma 90.000000
_cell_volume 1412.318445
_symmetry_space_group_name_H-M "P 21 21 21"
_symmetry_group_IT_number 19
_symmetry_cell_setting 'orthorhombic'
loop_
_space_group_symop_operation_xyz
x,y,z
1/2-x,-y,1/2+z
1/2+x,1/2-y,-z
-x,1/2+y,1/2-z
loop_
_atom_site_type_symbol
_atom_site_label
_atom_site_fract_x
_atom_site_fract_y
_atom_site_fract_z
Si Si1 0.254871 0.362116 0.087214
Si Si2 0.290145 0.886293 0.187900
Si Si3 0.977536 0.599989 0.210136
Si Si4 0.144854 0.939020 0.452283
Si Si5 0.929386 0.777945 0.961422
Si Si6 0.881382 0.672734 0.505213
Si Si7 0.937812 0.255206 0.844827
Si Si8 0.645840 0.019329 0.634211
O O1 0.207125 0.256655 0.002986
O O2 0.359173 0.340258 0.166439
O O3 0.184530 0.402239 0.226546
O O4 0.267123 0.457103 0.953054
O O5 0.189929 0.883539 0.288260
O O6 0.328667 0.774942 0.101128
O O7 0.366823 0.905156 0.336270
O O8 0.284416 0.976938 0.046171
O O9 0.952790 0.500349 0.090824
O O10 0.889862 0.602856 0.340260
O O11 0.078501 0.575324 0.293524
O O12 0.976567 0.713169 0.112756
O O13 0.122002 0.856797 0.595393
O O14 0.011981 0.777842 0.826509
O O15 0.910536 0.902624 0.008673
O O16 0.983093 0.732143 0.517358
#
# Coordination Sequence:
#
# PCOD8157347 Si02
#       8
#     4   4   4   4   4   4   4   4
#     4  12  27  46  72 105 142 192 237 295 361 436
#     4  10  23  41  69  99 138 178 228 296 351 424
#     4  11  24  46  70 101 143 186 240 298 364 428
#     4  11  23  41  70 104 130 188 234 289 359 432
#     4  10  26  48  68 101 146 186 236 308 358 430
#     4  11  22  48  68  99 148 179 232 303 354 423
#     4  11  25  44  71 100 143 186 237 292 363 423
#     4  12  28  46  72 105 142 193 242 293 362 438
#
# _framework density 22.657781
#
# number of rings (size 3 to 8) (size 9 to 14) (size 15 to 20)
#    0.000    1.000    3.750    1.500    7.000    1.000 
#    2.250    0.000    0.000    0.000    0.000    0.000 
#    0.000    0.000    0.000    0.000    0.000    0.000 
#
# Total GULP energy -396604.722088 kJ/mol
# GULP energy per Si atom -12393.897565 kJ/mol
# Density = 2.260621 g / cm^3
# Si number density = 22.657781 Si / 1000 Ang^3
#
#
#
# Elastic Constant Matrix: (Units=GPa)
#
#
# Indices 1 2 3 4 5 6 
#
# 1 97.0836 25.9568 22.5369 0.0000 0.0000 0.0000
# 2 25.9568 60.7552 21.3007 0.0000 0.0000 0.0000
# 3 22.5369 21.3007 96.2826 0.0000 0.0000 0.0000
# 4 0.0000 0.0000 0.0000 35.1114 0.0000 0.0000
# 5 0.0000 0.0000 0.0000 0.0000 46.0187 0.0000
# 6 0.0000 0.0000 0.0000 0.0000 0.0000 32.6371
#
#
#
# Elastic Compliance Matrix: (Units=1/GPa)
#
#
# Indices 1 2 3 4 5 6 
#
# 1 0.011910 -0.004457 -0.001802 0.000000 0.000000 0.000000
# 2 -0.004457 0.019511 -0.003273 0.000000 0.000000 0.000000
# 3 -0.001802 -0.003273 0.011532 0.000000 0.000000 0.000000
# 4 0.000000 0.000000 0.000000 0.028481 0.000000 0.000000
# 5 0.000000 0.000000 0.000000 0.000000 0.021730 0.000000
# 6 0.000000 0.000000 0.000000 0.000000 0.000000 0.030640
#
#
# Mechanical properties :
#
#
# Convention : Reuss Voigt Hill
#
# Bulk Modulus (GPa) = 41.85916 43.74559 42.80237
# Shear Modulus (GPa) = 33.14956 35.04189 34.09573
#
# Velocity S-wave (km/s) = 3.82914 3.93691 3.88340
# Velocity P-wave (km/s) = 6.16963 6.32572 6.24816
#
# Compressibility (1/GPa) = 0.02388963
#
# Stress axis : x y z
#
# Youngs Moduli (GPa) = 83.96119 51.25266 86.71514
#
# Poissons Ratio (x) = 0.22842 0.15625
# Poissons Ratio (y) = 0.37419 0.28384
# Poissons Ratio (z) = 0.15129 0.16776
#
# Static dielectric constant tensor:
#      x y z
#    x 4.006720 0.000000 0.000000 
#    y 0.000000 3.982180 0.000000 
#    z 0.000000 0.000000 4.224510 
# 
# 
# High freq. dielectric constant tensor:
#      x y z
#    x 1.887660 0.000000 0.000000 
#    y 0.000000 1.886580 0.000000 
#    z 0.000000 0.000000 1.906890 
# 
# From -- ./inp_files/3917.got.cif
#   From: 2010.03.12/outbox.cif.g09.slc.cpg/sg19_2_cif.got.tgz:3917.got - 2010.04.10 18:59:41.
