data_PCOD8157117
_publ_section_title
;
Structure prediction by ZEFSAII (Michael W. Deem and Ramdas Pophale) SiO2 
 PCOD8157117
Probable space group: P 21 21 21
;
_chemical_formula_sum "Si O2"
_cell_formula_units_Z 32
_cell_length_a 13.667474
_cell_length_b 11.620051
_cell_length_c 9.257842
_cell_angle_alpha 90.000000
_cell_angle_beta 90.000000
_cell_angle_gamma 90.000000
_cell_volume 1470.300331
_symmetry_space_group_name_H-M "P 21 21 21"
_symmetry_group_IT_number 19
_symmetry_cell_setting 'orthorhombic'
loop_
_space_group_symop_operation_xyz
x,y,z
1/2-x,-y,1/2+z
1/2+x,1/2-y,-z
-x,1/2+y,1/2-z
loop_
_atom_site_type_symbol
_atom_site_label
_atom_site_fract_x
_atom_site_fract_y
_atom_site_fract_z
Si Si1 0.006691 0.181611 0.597321
Si Si2 0.163697 0.071417 0.230577
Si Si3 0.416430 0.252174 0.110758
Si Si4 0.651361 0.129767 0.503097
Si Si5 0.152179 0.998076 0.559126
Si Si6 0.536109 0.926713 0.602760
Si Si7 0.291121 0.668149 0.683298
Si Si8 0.150749 0.573757 0.115763
O O1 0.082686 0.259125 0.507753
O O2 0.968855 0.254049 0.733959
O O3 0.916172 0.136976 0.502437
O O4 0.071357 0.072153 0.645312
O O5 0.249261 0.001007 0.152445
O O6 0.161853 0.204873 0.181052
O O7 0.061149 0.020854 0.175695
O O8 0.173973 0.052357 0.401838
O O9 0.392528 0.128180 0.047052
O O10 0.318094 0.327411 0.122414
O O11 0.486060 0.314439 0.994418
O O12 0.711093 0.127271 0.652021
O O13 0.737591 0.121702 0.384381
O O14 0.579184 0.021619 0.494642
O O15 0.611226 0.891238 0.727921
O O16 0.349328 0.567065 0.594993
#
# Coordination Sequence:
#
# PCOD8157117 Si02
#       8
#     4   4   4   4   4   4   4   4
#     4  12  26  46  72 105 143 196 241 301 376 441
#     4  11  25  47  71 104 150 194 241 306 371 443
#     4  11  26  43  69 108 144 185 244 308 360 442
#     4  11  23  42  72 102 141 189 238 299 364 433
#     4  11  27  47  71 108 146 195 246 306 375 437
#     4  11  25  44  70 107 142 189 242 301 368 436
#     4  10  21  45  69 101 142 183 241 299 357 430
#     4  11  23  44  74 101 140 195 247 298 365 446
#
# _framework density 21.764261000000001
#
# number of rings (size 3 to 8) (size 9 to 14) (size 15 to 20)
#    0.000    1.000    5.000    0.000    5.250    4.000 
#    2.250    0.000    0.000    0.000    0.000    0.000 
#    0.000    0.000    0.000    0.000    0.000    0.000 
#
# Total GULP energy -396713.923517 kJ/mol
# GULP energy per Si atom -12397.310110 kJ/mol
# Density = 2.171472 g / cm^3
# Si number density = 21.764261 Si / 1000 Ang^3
#
#
#
# Elastic Constant Matrix: (Units=GPa)
#
#
# Indices 1 2 3 4 5 6 
#
# 1 110.7448 40.7769 38.2358 0.0000 0.0000 0.0000
# 2 40.7769 88.4323 25.7183 0.0000 0.0000 0.0000
# 3 38.2358 25.7183 79.8337 0.0000 0.0000 0.0000
# 4 0.0000 0.0000 0.0000 30.9271 0.0000 0.0000
# 5 0.0000 0.0000 0.0000 0.0000 33.4218 0.0000
# 6 0.0000 0.0000 0.0000 0.0000 0.0000 30.6112
#
#
#
# Elastic Compliance Matrix: (Units=1/GPa)
#
#
# Indices 1 2 3 4 5 6 
#
# 1 0.012147 -0.004313 -0.004428 0.000000 0.000000 0.000000
# 2 -0.004313 0.014009 -0.002447 0.000000 0.000000 0.000000
# 3 -0.004428 -0.002447 0.015435 0.000000 0.000000 0.000000
# 4 0.000000 0.000000 0.000000 0.032334 0.000000 0.000000
# 5 0.000000 0.000000 0.000000 0.000000 0.029921 0.000000
# 6 0.000000 0.000000 0.000000 0.000000 0.000000 0.032668
#
#
# Mechanical properties :
#
#
# Convention : Reuss Voigt Hill
#
# Bulk Modulus (GPa) = 52.04599 54.27476 53.16038
# Shear Modulus (GPa) = 30.24906 30.61067 30.42986
#
# Velocity S-wave (km/s) = 3.73211 3.75436 3.74325
# Velocity P-wave (km/s) = 6.52204 6.61704 6.56971
#
# Compressibility (1/GPa) = 0.01921377
#
# Stress axis : x y z
#
# Youngs Moduli (GPa) = 82.32648 71.38479 64.78704
#
# Poissons Ratio (x) = 0.30789 0.28689
# Poissons Ratio (y) = 0.35509 0.15854
# Poissons Ratio (z) = 0.36455 0.17469
#
# Static dielectric constant tensor:
#      x y z
#    x 3.992700 0.000000 0.000000 
#    y 0.000000 4.086800 0.000000 
#    z 0.000000 0.000000 3.699460 
# 
# 
# High freq. dielectric constant tensor:
#      x y z
#    x 1.864010 0.000000 0.000000 
#    y 0.000000 1.860520 0.000000 
#    z 0.000000 0.000000 1.845430 
# 
# From -- ./inp_files/3964.got.cif
#   From: 2010.03.12/outbox.cif.g09.slc.cpg/sg19_2_cif.got.tgz:3964.got - 2010.04.10 18:59:41.
