data_PCOD8157685
_publ_section_title
;
Structure prediction by ZEFSAII (Michael W. Deem and Ramdas Pophale) SiO2 
 PCOD8157685
Probable space group: P 21 21 21
;
_chemical_formula_sum "Si O2"
_cell_formula_units_Z 28
_cell_length_a 5.826284
_cell_length_b 10.043135
_cell_length_c 20.420029
_cell_angle_alpha 90.000000
_cell_angle_beta 90.000000
_cell_angle_gamma 90.000000
_cell_volume 1194.860778
_symmetry_space_group_name_H-M "P 21 21 21"
_symmetry_group_IT_number 19
_symmetry_cell_setting 'orthorhombic'
loop_
_space_group_symop_operation_xyz
x,y,z
1/2-x,-y,1/2+z
1/2+x,1/2-y,-z
-x,1/2+y,1/2-z
loop_
_atom_site_type_symbol
_atom_site_label
_atom_site_fract_x
_atom_site_fract_y
_atom_site_fract_z
Si Si1 0.633144 0.837383 0.227295
Si Si2 0.959286 0.931562 0.971785
Si Si3 0.231888 0.272634 0.414439
Si Si4 0.544125 0.248487 0.845029
Si Si5 0.823143 0.683846 0.481297
Si Si6 0.725003 0.122388 0.250681
Si Si7 0.061787 0.533297 0.120460
O O1 0.766727 0.826702 0.159035
O O2 0.782660 0.783044 0.286594
O O3 0.407283 0.749664 0.222086
O O4 0.565641 0.992204 0.238921
O O5 0.794013 0.002211 0.919026
O O6 0.029569 0.790452 0.939319
O O7 0.837097 0.896301 0.040264
O O8 0.164293 0.035791 0.987528
O O9 0.066033 0.144964 0.421165
O O10 0.679702 0.325413 0.902364
O O11 0.343377 0.342352 0.818162
O O12 0.433805 0.109441 0.872189
O O13 0.575466 0.745942 0.502139
O O14 0.908838 0.088020 0.306141
#
# Coordination Sequence:
#
# PCOD8157685 Si02
#       7
#     4   4   4   4   4   4   4
#     4  11  26  44  71 107 144 188 244 308 377 453
#     4  12  25  44  74 102 144 195 246 311 377 453
#     4  12  24  45  68 103 142 188 248 307 373 456
#     4  11  25  46  72 101 146 190 246 307 373 448
#     4  12  28  49  75 110 148 198 253 308 380 458
#     4  11  25  43  71 104 141 190 240 303 381 452
#     4  11  23  45  69 101 141 189 241 300 383 434
#
# _framework density 23.433695
#
# number of rings (size 3 to 8) (size 9 to 14) (size 15 to 20)
#    0.000    0.571    5.714    1.714    4.000    0.000 
#    5.143    0.000    0.000    0.000    0.000    0.000 
#    0.000    0.000    0.000    0.000    0.000    0.000 
#
# Total GULP energy -347016.282585 kJ/mol
# GULP energy per Si atom -12393.438664 kJ/mol
# Density = 2.338036 g / cm^3
# Si number density = 23.433695 Si / 1000 Ang^3
#
#
#
# Elastic Constant Matrix: (Units=GPa)
#
#
# Indices 1 2 3 4 5 6 
#
# 1 56.7650 9.7508 12.4696 0.0000 0.0000 0.0000
# 2 9.7508 100.7599 23.4246 0.0000 0.0000 0.0000
# 3 12.4696 23.4246 126.1821 0.0000 0.0000 0.0000
# 4 0.0000 0.0000 0.0000 35.6522 0.0000 0.0000
# 5 0.0000 0.0000 0.0000 0.0000 28.7612 0.0000
# 6 0.0000 0.0000 0.0000 0.0000 0.0000 39.4896
#
#
#
# Elastic Compliance Matrix: (Units=1/GPa)
#
#
# Indices 1 2 3 4 5 6 
#
# 1 0.018195 -0.001403 -0.001538 0.000000 0.000000 0.000000
# 2 -0.001403 0.010480 -0.001807 0.000000 0.000000 0.000000
# 3 -0.001538 -0.001807 0.008412 0.000000 0.000000 0.000000
# 4 0.000000 0.000000 0.000000 0.028049 0.000000 0.000000
# 5 0.000000 0.000000 0.000000 0.000000 0.034769 0.000000
# 6 0.000000 0.000000 0.000000 0.000000 0.000000 0.025323
#
#
# Mechanical properties :
#
#
# Convention : Reuss Voigt Hill
#
# Bulk Modulus (GPa) = 36.24175 41.66634 38.95404
# Shear Modulus (GPa) = 34.74094 36.65139 35.69616
#
# Velocity S-wave (km/s) = 3.85453 3.95909 3.90716
# Velocity P-wave (km/s) = 5.94214 6.22241 6.08389
#
# Compressibility (1/GPa) = 0.02759249
#
# Stress axis : x y z
#
# Youngs Moduli (GPa) = 54.95924 95.41561 118.87162
#
# Poissons Ratio (x) = 0.13390 0.18278
# Poissons Ratio (y) = 0.07713 0.21479
# Poissons Ratio (z) = 0.08450 0.17241
#
# Static dielectric constant tensor:
#      x y z
#    x 3.948290 0.000000 0.000000 
#    y 0.000000 4.434970 0.000000 
#    z 0.000000 0.000000 4.366230 
# 
# 
# High freq. dielectric constant tensor:
#      x y z
#    x 1.897000 0.000000 0.000000 
#    y 0.000000 1.937910 0.000000 
#    z 0.000000 0.000000 1.951220 
# 
# From -- ./inp_files/1925.got.cif
#   From: 2010.03.12/outbox.cif.g09.slc.cpg/sg19_1_cif.got.tgz:1925.got - 2010.04.10 18:59:41.
