data_PCOD8157893
_publ_section_title
;
Structure prediction by ZEFSAII (Michael W. Deem and Ramdas Pophale) SiO2 
 PCOD8157893
Probable space group: P 21 21 21
;
_chemical_formula_sum "Si O2"
_cell_formula_units_Z 16
_cell_length_a 18.512813
_cell_length_b 4.954478
_cell_length_c 7.739607
_cell_angle_alpha 90.000000
_cell_angle_beta 90.000000
_cell_angle_gamma 90.000000
_cell_volume 709.887007
_symmetry_space_group_name_H-M "P 21 21 21"
_symmetry_group_IT_number 19
_symmetry_cell_setting 'orthorhombic'
loop_
_space_group_symop_operation_xyz
x,y,z
1/2-x,-y,1/2+z
1/2+x,1/2-y,-z
-x,1/2+y,1/2-z
loop_
_atom_site_type_symbol
_atom_site_label
_atom_site_fract_x
_atom_site_fract_y
_atom_site_fract_z
Si Si1 0.043204 0.571489 0.304072
Si Si2 0.543354 0.073844 0.303223
Si Si3 0.311718 0.739012 0.386034
Si Si4 0.812036 0.252295 0.380612
O O1 0.059288 0.507216 0.501704
O O2 0.116438 0.663268 0.216532
O O3 0.015962 0.307700 0.203382
O O4 0.486881 0.319861 0.303382
O O5 0.617293 0.162120 0.217572
O O6 0.283188 0.486716 0.497166
O O7 0.249509 0.830736 0.255330
O O8 0.331500 0.986358 0.508849
#
# Coordination Sequence:
#
# PCOD8157893 Si02
#       4
#     4   4   4   4
#     4  12  25  44  70 101 135 175 221 274 332 395
#     4  12  25  44  70 101 135 175 221 274 332 395
#     4  12  26  46  69  99 135 177 223 274 331 395
#     4  12  26  46  69  99 135 177 223 274 331 395
#
# _framework density 22.538796000000001
#
# number of rings (size 3 to 8) (size 9 to 14) (size 15 to 20)
#    0.000    0.000    0.000   12.000    0.000    4.000 
#    0.000    0.000    0.000    0.000    0.000    0.000 
#    0.000    0.000    0.000    0.000    0.000    0.000 
#
# Total GULP energy -198591.876549 kJ/mol
# GULP energy per Si atom -12411.992284 kJ/mol
# Density = 2.248750 g / cm^3
# Si number density = 22.538796 Si / 1000 Ang^3
#
#
#
# Elastic Constant Matrix: (Units=GPa)
#
#
# Indices 1 2 3 4 5 6 
#
# 1 -2.0362 -106.3629 -25.0112 0.0000 0.0000 0.0000
# 2 -106.3629 -38.0778 -77.1637 0.0000 0.0000 0.0000
# 3 -25.0112 -77.1637 46.1322 0.0000 0.0000 0.0000
# 4 0.0000 0.0000 0.0000 53.5513 0.0000 0.0000
# 5 0.0000 0.0000 0.0000 0.0000 22.5014 0.0000
# 6 0.0000 0.0000 0.0000 0.0000 0.0000 -3.1635
#
#
#
# Elastic Compliance Matrix: (Units=1/GPa)
#
#
# Indices 1 2 3 4 5 6 
#
# 1 0.008635 -0.007657 -0.008125 0.000000 0.000000 0.000000
# 2 -0.007657 0.000806 -0.002803 0.000000 0.000000 0.000000
# 3 -0.008125 -0.002803 0.012583 0.000000 0.000000 0.000000
# 4 0.000000 0.000000 0.000000 0.018674 0.000000 0.000000
# 5 0.000000 0.000000 0.000000 0.000000 0.044442 0.000000
# 6 0.000000 0.000000 0.000000 0.000000 0.000000 -0.316103
#
#
# Mechanical properties :
#
#
# Convention : Reuss Voigt Hill
#
# Bulk Modulus (GPa) = -66.02638 -45.67306 -55.84972
# Shear Modulus (GPa) = -25.14549 28.88155 1.86803
#
# Velocity S-wave (km/s) = -3.34376 3.58357 0.91137
# Velocity P-wave (km/s) = 6.65326 1.78482 4.87090
#
# Compressibility (1/GPa) = -0.01514546
#
# Stress axis : x y z
#
# Youngs Moduli (GPa) = 115.80124 1241.04441 79.47346
#
# Poissons Ratio (x) = 9.50208 0.64572
# Poissons Ratio (y) = 0.88663 0.22279
# Poissons Ratio (z) = 0.94088 3.47902
#
# Static dielectric constant tensor:
#      x y z
#    x 4.036280 0.000000 0.000000 
#    y 0.000000 4.372270 0.000000 
#    z 0.000000 0.000000 4.306500 
# 
# 
# High freq. dielectric constant tensor:
#      x y z
#    x 1.898760 0.000000 0.000000 
#    y 0.000000 1.909420 0.000000 
#    z 0.000000 0.000000 1.910500 
# 
# From -- ./inp_files/1659.got.cif
#   From: 2010.03.12/outbox.cif.g09.slc.cpg/sg19_1_cif.got.tgz:1659.got - 2010.04.10 18:59:41.
