data_PCOD8157721
_publ_section_title
;
Structure prediction by ZEFSAII (Michael W. Deem and Ramdas Pophale) SiO2 
 PCOD8157721
Probable space group: P 21 21 21
;
_chemical_formula_sum "Si O2"
_cell_formula_units_Z 24
_cell_length_a 5.342525
_cell_length_b 7.325814
_cell_length_c 26.968863
_cell_angle_alpha 90.000000
_cell_angle_beta 90.000000
_cell_angle_gamma 90.000000
_cell_volume 1055.516649
_symmetry_space_group_name_H-M "P 21 21 21"
_symmetry_group_IT_number 19
_symmetry_cell_setting 'orthorhombic'
loop_
_space_group_symop_operation_xyz
x,y,z
1/2-x,-y,1/2+z
1/2+x,1/2-y,-z
-x,1/2+y,1/2-z
loop_
_atom_site_type_symbol
_atom_site_label
_atom_site_fract_x
_atom_site_fract_y
_atom_site_fract_z
Si Si1 0.038389 0.859745 0.508448
Si Si2 0.051551 0.134242 0.589508
Si Si3 0.965662 0.650731 0.074923
Si Si4 0.409249 0.994723 0.822188
Si Si5 0.803229 0.155854 0.230701
Si Si6 0.448066 0.305236 0.305333
O O1 0.764309 0.781946 0.496511
O O2 0.036193 0.934291 0.564834
O O3 0.093456 0.024174 0.471290
O O4 0.778812 0.225013 0.582568
O O5 0.114505 0.118301 0.648607
O O6 0.282726 0.236443 0.562918
O O7 0.031395 0.530757 0.123919
O O8 0.532951 0.874655 0.779100
O O9 0.139743 0.895423 0.823809
O O10 0.422729 0.209974 0.810335
O O11 0.573300 0.275931 0.251799
O O12 0.755192 0.964110 0.204063
#
# Coordination Sequence:
#
# PCOD8157721 Si02
#       6
#     4   4   4   4   4   4
#     4  12  26  46  70 106 136 168 224 286 346 404
#     4  11  24  46  72  97 134 181 226 273 342 410
#     4  11  24  46  72  97 134 181 226 273 342 410
#     4  11  24  40  66  97 135 178 229 276 340 398
#     4  12  22  42  62  98 134 180 222 286 326 404
#     4  11  24  40  66  97 135 178 229 276 340 398
#
# _framework density 22.737680999999998
#
# number of rings (size 3 to 8) (size 9 to 14) (size 15 to 20)
#    0.000    0.667    5.000    3.000    2.333    0.000 
#    6.000    0.000    0.000    0.000    0.000    0.000 
#    0.000    0.000    0.000    0.000    0.000    0.000 
#
# Total GULP energy -297429.439632 kJ/mol
# GULP energy per Si atom -12392.893318 kJ/mol
# Density = 2.268593 g / cm^3
# Si number density = 22.737681 Si / 1000 Ang^3
#
#
#
# Elastic Constant Matrix: (Units=GPa)
#
#
# Indices 1 2 3 4 5 6 
#
# 1 86.5147 12.9991 -2.0542 0.0000 0.0000 0.0000
# 2 12.9991 78.8809 10.6360 0.0000 0.0000 0.0000
# 3 -2.0542 10.6360 71.4642 0.0000 0.0000 0.0000
# 4 0.0000 0.0000 0.0000 34.6979 0.0000 0.0000
# 5 0.0000 0.0000 0.0000 0.0000 26.4533 0.0000
# 6 0.0000 0.0000 0.0000 0.0000 0.0000 40.8300
#
#
#
# Elastic Compliance Matrix: (Units=1/GPa)
#
#
# Indices 1 2 3 4 5 6 
#
# 1 0.011881 -0.002045 0.000646 0.000000 0.000000 0.000000
# 2 -0.002045 0.013289 -0.002037 0.000000 0.000000 0.000000
# 3 0.000646 -0.002037 0.014315 0.000000 0.000000 0.000000
# 4 0.000000 0.000000 0.000000 0.028820 0.000000 0.000000
# 5 0.000000 0.000000 0.000000 0.000000 0.037803 0.000000
# 6 0.000000 0.000000 0.000000 0.000000 0.000000 0.024492
#
#
# Mechanical properties :
#
#
# Convention : Reuss Voigt Hill
#
# Bulk Modulus (GPa) = 30.66215 31.11349 30.88782
# Shear Modulus (GPa) = 33.70586 34.74816 34.22701
#
# Velocity S-wave (km/s) = 3.85434 3.91349 3.88403
# Velocity P-wave (km/s) = 5.77256 5.84242 5.80759
#
# Compressibility (1/GPa) = 0.03261350
#
# Stress axis : x y z
#
# Youngs Moduli (GPa) = 84.16556 75.25042 69.85832
#
# Poissons Ratio (x) = 0.15389 -0.04512
# Poissons Ratio (y) = 0.17212 0.14227
# Poissons Ratio (z) = -0.05436 0.15325
#
# Static dielectric constant tensor:
#      x y z
#    x 4.108930 0.000000 0.000000 
#    y 0.000000 3.923160 0.000000 
#    z 0.000000 0.000000 4.473820 
# 
# 
# High freq. dielectric constant tensor:
#      x y z
#    x 1.889610 0.000000 0.000000 
#    y 0.000000 1.893700 0.000000 
#    z 0.000000 0.000000 1.910240 
# 
# From -- ./inp_files/186.got.cif
#   From: 2010.03.12/outbox.cif.g09.slc.cpg/sg19_1_cif.got.tgz:186.got - 2010.04.10 18:59:41.
