data_PCOD8157891
_publ_section_title
;
Structure prediction by ZEFSAII (Michael W. Deem and Ramdas Pophale) SiO2 
 PCOD8157891
Probable space group: P 21 21 21
;
_chemical_formula_sum "Si O2"
_cell_formula_units_Z 20
_cell_length_a 26.987443
_cell_length_b 5.084107
_cell_length_c 5.460417
_cell_angle_alpha 90.000000
_cell_angle_beta 90.000000
_cell_angle_gamma 90.000000
_cell_volume 749.207697
_symmetry_space_group_name_H-M "P 21 21 21"
_symmetry_group_IT_number 19
_symmetry_cell_setting 'orthorhombic'
loop_
_space_group_symop_operation_xyz
x,y,z
1/2-x,-y,1/2+z
1/2+x,1/2-y,-z
-x,1/2+y,1/2-z
loop_
_atom_site_type_symbol
_atom_site_label
_atom_site_fract_x
_atom_site_fract_y
_atom_site_fract_z
Si Si1 0.496347 0.655198 0.898510
Si Si2 0.250226 0.666523 0.466736
Si Si3 0.828481 0.534597 0.254082
Si Si4 0.891215 0.787354 0.887849
Si Si5 0.400310 0.230224 0.402973
O O1 0.514297 0.367876 0.813077
O O2 0.445591 0.613600 0.040349
O O3 0.540985 0.772958 0.059458
O O4 0.259019 0.502336 0.215996
O O5 0.298073 0.850930 0.514773
O O6 0.204636 0.864208 0.431124
O O7 0.873169 0.350512 0.346837
O O8 0.851663 0.786020 0.110060
O O9 0.892588 0.488507 0.801556
O O10 0.874796 0.996355 0.681734
#
# Coordination Sequence:
#
# PCOD8157891 Si02
#       5
#     4   4   4   4   4
#     4  12  24  50  78 122 172 228 284 354 432 522
#     4  12  32  56  90 122 180 232 298 380 450 528
#     4  12  32  54  80 134 166 228 298 366 448 524
#     4  12  29  50  85 122 171 228 286 358 439 525
#     4  12  29  50  85 122 171 228 286 358 439 525
#
# _framework density 26.694869000000001
#
# number of rings (size 3 to 8) (size 9 to 14) (size 15 to 20)
#    0.000    0.000    2.000    4.800   14.000    0.000 
#    0.000    0.000    0.000    0.000    0.000    0.000 
#    0.000    0.000    0.000    0.000    0.000    0.000 
#
# Total GULP energy -248107.408245 kJ/mol
# GULP energy per Si atom -12405.370412 kJ/mol
# Density = 2.663411 g / cm^3
# Si number density = 26.694869 Si / 1000 Ang^3
#
#
#
# Elastic Constant Matrix: (Units=GPa)
#
#
# Indices 1 2 3 4 5 6 
#
# 1 94.7614 17.7790 26.3715 0.0000 0.0000 0.0000
# 2 17.7790 114.9863 35.2953 0.0000 0.0000 0.0000
# 3 26.3715 35.2953 123.1093 0.0000 0.0000 0.0000
# 4 0.0000 0.0000 0.0000 69.8213 0.0000 0.0000
# 5 0.0000 0.0000 0.0000 0.0000 45.8871 0.0000
# 6 0.0000 0.0000 0.0000 0.0000 0.0000 33.6273
#
#
#
# Elastic Compliance Matrix: (Units=1/GPa)
#
#
# Indices 1 2 3 4 5 6 
#
# 1 0.011349 -0.001106 -0.002114 0.000000 0.000000 0.000000
# 2 -0.001106 0.009644 -0.002528 0.000000 0.000000 0.000000
# 3 -0.002114 -0.002528 0.009300 0.000000 0.000000 0.000000
# 4 0.000000 0.000000 0.000000 0.014322 0.000000 0.000000
# 5 0.000000 0.000000 0.000000 0.000000 0.021793 0.000000
# 6 0.000000 0.000000 0.000000 0.000000 0.000000 0.029738
#
#
# Mechanical properties :
#
#
# Convention : Reuss Voigt Hill
#
# Bulk Modulus (GPa) = 53.19931 54.63872 53.91901
# Shear Modulus (GPa) = 43.89567 46.76124 45.32845
#
# Velocity S-wave (km/s) = 4.05946 4.18986 4.12518
# Velocity P-wave (km/s) = 6.47643 6.62714 6.55222
#
# Compressibility (1/GPa) = 0.01879724
#
# Stress axis : x y z
#
# Youngs Moduli (GPa) = 88.11661 103.69551 107.52159
#
# Poissons Ratio (x) = 0.11467 0.22730
# Poissons Ratio (y) = 0.09744 0.27181
# Poissons Ratio (z) = 0.18628 0.26214
#
# Static dielectric constant tensor:
#      x y z
#    x 5.047510 0.000000 0.000000 
#    y 0.000000 4.860200 0.000000 
#    z 0.000000 0.000000 4.731500 
# 
# 
# High freq. dielectric constant tensor:
#      x y z
#    x 2.090700 0.000000 0.000000 
#    y 0.000000 2.084570 0.000000 
#    z 0.000000 0.000000 2.071000 
# 
# From -- ./inp_files/2213.got.cif
#   From: 2010.03.12/outbox.cif.g09.slc.cpg/sg19_2_cif.got.tgz:2213.got - 2010.04.10 18:59:41.
