data_PCOD8157921
_publ_section_title
;
Structure prediction by ZEFSAII (Michael W. Deem and Ramdas Pophale) SiO2 
 PCOD8157921
Probable space group: P 21 21 21
;
_chemical_formula_sum "Si O2"
_cell_formula_units_Z 32
_cell_length_a 13.288715
_cell_length_b 11.395896
_cell_length_c 9.375017
_cell_angle_alpha 90.000000
_cell_angle_beta 90.000000
_cell_angle_gamma 90.000000
_cell_volume 1419.722707
_symmetry_space_group_name_H-M "P 21 21 21"
_symmetry_group_IT_number 19
_symmetry_cell_setting 'orthorhombic'
loop_
_space_group_symop_operation_xyz
x,y,z
1/2-x,-y,1/2+z
1/2+x,1/2-y,-z
-x,1/2+y,1/2-z
loop_
_atom_site_type_symbol
_atom_site_label
_atom_site_fract_x
_atom_site_fract_y
_atom_site_fract_z
Si Si1 0.949897 0.224209 0.922243
Si Si2 0.967348 0.714183 0.879403
Si Si3 0.767865 0.858812 0.816266
Si Si4 0.920153 0.308436 0.363264
Si Si5 0.123239 0.979908 0.549863
Si Si6 0.903739 0.748242 0.347225
Si Si7 0.748895 0.912346 0.493818
Si Si8 0.195649 0.018566 0.245791
O O1 0.944008 0.364714 0.938115
O O2 0.850105 0.165403 0.980525
O O3 0.969106 0.186066 0.761233
O O4 0.044801 0.184409 0.017469
O O5 0.861470 0.773691 0.843461
O O6 0.950531 0.591227 0.960881
O O7 0.037449 0.795209 0.977507
O O8 0.664762 0.786891 0.827097
O O9 0.779344 0.916823 0.660232
O O10 0.769945 0.956590 0.939091
O O11 0.876053 0.438744 0.351973
O O12 0.011388 0.300290 0.253876
O O13 0.193032 0.974157 0.408898
O O14 0.190711 0.992233 0.691113
O O15 0.835342 0.855793 0.397424
O O16 0.837255 0.653859 0.262804
#
# Coordination Sequence:
#
# PCOD8157921 Si02
#       8
#     4   4   4   4   4   4   4   4
#     4  12  28  48  75 106 145 195 241 296 364 428
#     4  12  30  47  76 110 146 190 247 297 361 432
#     4  12  29  51  72 108 149 191 241 306 359 434
#     4  12  28  48  75 107 148 192 242 297 363 434
#     4  12  27  49  74 106 146 190 246 303 357 427
#     4  12  26  47  76 104 144 197 238 290 366 430
#     4  12  29  49  74 107 151 190 244 300 365 431
#     4  12  27  47  76 104 147 191 243 303 359 428
#
# _framework density 22.539611000000001
#
# number of rings (size 3 to 8) (size 9 to 14) (size 15 to 20)
#    0.000    0.000    7.500    0.000   14.000    0.000 
#    0.000    0.000    0.000    0.000    0.000    0.000 
#    0.000    0.000    0.000    0.000    0.000    0.000 
#
# Total GULP energy -397068.714595 kJ/mol
# GULP energy per Si atom -12408.397331 kJ/mol
# Density = 2.248831 g / cm^3
# Si number density = 22.539611 Si / 1000 Ang^3
#
#
#
# Elastic Constant Matrix: (Units=GPa)
#
#
# Indices 1 2 3 4 5 6 
#
# 1 53.7690 4.9887 15.4736 0.0000 0.0000 0.0000
# 2 4.9887 69.2064 19.1031 0.0000 0.0000 0.0000
# 3 15.4736 19.1031 69.6102 0.0000 0.0000 0.0000
# 4 0.0000 0.0000 0.0000 34.6357 0.0000 0.0000
# 5 0.0000 0.0000 0.0000 0.0000 41.9255 0.0000
# 6 0.0000 0.0000 0.0000 0.0000 0.0000 24.1701
#
#
#
# Elastic Compliance Matrix: (Units=1/GPa)
#
#
# Indices 1 2 3 4 5 6 
#
# 1 0.019873 -0.000231 -0.004354 0.000000 0.000000 0.000000
# 2 -0.000231 0.015636 -0.004240 0.000000 0.000000 0.000000
# 3 -0.004354 -0.004240 0.016497 0.000000 0.000000 0.000000
# 4 0.000000 0.000000 0.000000 0.028872 0.000000 0.000000
# 5 0.000000 0.000000 0.000000 0.000000 0.023852 0.000000
# 6 0.000000 0.000000 0.000000 0.000000 0.000000 0.041373
#
#
# Mechanical properties :
#
#
# Convention : Reuss Voigt Hill
#
# Bulk Modulus (GPa) = 29.10624 30.19069 29.64847
# Shear Modulus (GPa) = 28.53801 30.34760 29.44280
#
# Velocity S-wave (km/s) = 3.56213 3.67333 3.61816
# Velocity P-wave (km/s) = 5.46441 5.60488 5.53509
#
# Compressibility (1/GPa) = 0.03435689
#
# Stress axis : x y z
#
# Youngs Moduli (GPa) = 50.32073 63.95297 60.61658
#
# Poissons Ratio (x) = 0.01475 0.26393
# Poissons Ratio (y) = 0.01161 0.25700
# Poissons Ratio (z) = 0.21910 0.27115
#
# Static dielectric constant tensor:
#      x y z
#    x 4.111650 0.000000 0.000000 
#    y 0.000000 4.092990 0.000000 
#    z 0.000000 0.000000 4.252560 
# 
# 
# High freq. dielectric constant tensor:
#      x y z
#    x 1.897540 0.000000 0.000000 
#    y 0.000000 1.890640 0.000000 
#    z 0.000000 0.000000 1.901920 
# 
# From -- ./inp_files/3916.got.cif
#   From: 2010.03.12/outbox.cif.g09.slc.cpg/sg19_2_cif.got.tgz:3916.got - 2010.04.10 18:59:41.
