data_PCOD8157571
_publ_section_title
;
Structure prediction by ZEFSAII (Michael W. Deem and Ramdas Pophale) SiO2 
 PCOD8157571
Probable space group: P 21 21 21
;
_chemical_formula_sum "Si O2"
_cell_formula_units_Z 32
_cell_length_a 8.848955
_cell_length_b 11.641652
_cell_length_c 13.757302
_cell_angle_alpha 90.000000
_cell_angle_beta 90.000000
_cell_angle_gamma 90.000000
_cell_volume 1417.228478
_symmetry_space_group_name_H-M "P 21 21 21"
_symmetry_group_IT_number 19
_symmetry_cell_setting 'orthorhombic'
loop_
_space_group_symop_operation_xyz
x,y,z
1/2-x,-y,1/2+z
1/2+x,1/2-y,-z
-x,1/2+y,1/2-z
loop_
_atom_site_type_symbol
_atom_site_label
_atom_site_fract_x
_atom_site_fract_y
_atom_site_fract_z
Si Si1 0.998924 0.196551 0.893360
Si Si2 0.105320 0.086801 0.216768
Si Si3 0.784964 0.349002 0.233671
Si Si4 0.946581 0.790997 0.407633
Si Si5 0.137248 0.338488 0.651618
Si Si6 0.674551 0.749933 0.204119
Si Si7 0.769420 0.009253 0.192569
Si Si8 0.216729 0.531792 0.527784
O O1 0.887994 0.250480 0.813918
O O2 0.946897 0.077124 0.940765
O O3 0.158610 0.165189 0.847969
O O4 0.998080 0.288865 0.981339
O O5 0.121152 0.164688 0.119115
O O6 0.181276 0.163811 0.303371
O O7 0.207839 0.972508 0.214461
O O8 0.933063 0.045629 0.235531
O O9 0.751574 0.263897 0.322682
O O10 0.936314 0.316064 0.177810
O O11 0.830649 0.897617 0.402149
O O12 0.141474 0.432962 0.739704
O O13 0.207272 0.396179 0.553980
O O14 0.965714 0.291412 0.635977
O O15 0.739073 0.874814 0.178916
O O16 0.752098 0.060182 0.084230
#
# Coordination Sequence:
#
# PCOD8157571 Si02
#       8
#     4   4   4   4   4   4   4   4
#     4  11  21  42  67  98 129 169 230 277 335 400
#     4  12  23  41  67  96 137 173 230 278 342 402
#     4  11  25  40  65 100 133 177 224 283 348 399
#     4  12  23  41  69 103 128 178 228 287 331 410
#     4  11  23  46  69  94 140 181 229 279 351 411
#     4  11  25  44  71  97 136 183 228 278 351 405
#     4  12  25  46  69 101 141 179 228 291 342 405
#     4  12  23  44  71  99 136 180 225 281 344 410
#
# _framework density 22.579281000000002
#
# number of rings (size 3 to 8) (size 9 to 14) (size 15 to 20)
#    0.000    0.500    5.000    4.500    1.750    0.000 
#    2.250    0.000    0.000    0.000    0.000    0.000 
#    0.000    0.000    0.000    0.000    0.000    0.000 
#
# Total GULP energy -396480.843835 kJ/mol
# GULP energy per Si atom -12390.026370 kJ/mol
# Density = 2.252789 g / cm^3
# Si number density = 22.579281 Si / 1000 Ang^3
#
#
#
# Elastic Constant Matrix: (Units=GPa)
#
#
# Indices 1 2 3 4 5 6 
#
# 1 108.2345 48.3280 13.8794 0.0000 0.0000 0.0000
# 2 48.3280 140.7641 3.8671 0.0000 0.0000 0.0000
# 3 13.8794 3.8671 44.2467 0.0000 0.0000 0.0000
# 4 0.0000 0.0000 0.0000 35.6834 0.0000 0.0000
# 5 0.0000 0.0000 0.0000 0.0000 20.5106 0.0000
# 6 0.0000 0.0000 0.0000 0.0000 0.0000 43.6071
#
#
#
# Elastic Compliance Matrix: (Units=1/GPa)
#
#
# Indices 1 2 3 4 5 6 
#
# 1 0.011354 -0.003809 -0.003229 0.000000 0.000000 0.000000
# 2 -0.003809 0.008399 0.000461 0.000000 0.000000 0.000000
# 3 -0.003229 0.000461 0.023573 0.000000 0.000000 0.000000
# 4 0.000000 0.000000 0.000000 0.028024 0.000000 0.000000
# 5 0.000000 0.000000 0.000000 0.000000 0.048755 0.000000
# 6 0.000000 0.000000 0.000000 0.000000 0.000000 0.022932
#
#
# Mechanical properties :
#
#
# Convention : Reuss Voigt Hill
#
# Bulk Modulus (GPa) = 33.14329 47.26603 40.20466
# Shear Modulus (GPa) = 30.07518 35.10494 32.59006
#
# Velocity S-wave (km/s) = 3.65359 3.94730 3.80328
# Velocity P-wave (km/s) = 5.70165 6.46171 6.09354
#
# Compressibility (1/GPa) = 0.03017202
#
# Stress axis : x y z
#
# Youngs Moduli (GPa) = 88.07302 119.05720 42.42129
#
# Poissons Ratio (x) = 0.45355 0.13696
# Poissons Ratio (y) = 0.33551 -0.01955
# Poissons Ratio (z) = 0.28436 -0.05487
#
# Static dielectric constant tensor:
#      x y z
#    x 4.370590 0.000000 0.000000 
#    y 0.000000 4.340780 0.000000 
#    z 0.000000 0.000000 3.897630 
# 
# 
# High freq. dielectric constant tensor:
#      x y z
#    x 1.894280 0.000000 0.000000 
#    y 0.000000 1.902060 0.000000 
#    z 0.000000 0.000000 1.863060 
# 
# From -- ./inp_files/5910.got.cif
#   From: 2010.03.12/outbox.cif.g09.slc.cpg/sg19_3_cif.got.tgz:5910.got - 2010.04.10 18:59:41.
