data_PCOD8157808
_publ_section_title
;
Structure prediction by ZEFSAII (Michael W. Deem and Ramdas Pophale) SiO2 
 PCOD8157808
Probable space group: P 21 21 21
;
_chemical_formula_sum "Si O2"
_cell_formula_units_Z 20
_cell_length_a 10.037745
_cell_length_b 17.113874
_cell_length_c 4.996795
_cell_angle_alpha 90.000000
_cell_angle_beta 90.000000
_cell_angle_gamma 90.000000
_cell_volume 858.372946
_symmetry_space_group_name_H-M "P 21 21 21"
_symmetry_group_IT_number 19
_symmetry_cell_setting 'orthorhombic'
loop_
_space_group_symop_operation_xyz
x,y,z
1/2-x,-y,1/2+z
1/2+x,1/2-y,-z
-x,1/2+y,1/2-z
loop_
_atom_site_type_symbol
_atom_site_label
_atom_site_fract_x
_atom_site_fract_y
_atom_site_fract_z
Si Si1 0.853336 0.385023 0.636848
Si Si2 0.315998 0.852514 0.362991
Si Si3 0.188187 0.422694 0.233221
Si Si4 0.530869 0.974954 0.406108
Si Si5 0.874491 0.822631 0.785892
O O1 0.780307 0.394381 0.350877
O O2 0.922131 0.466826 0.723990
O O3 0.968804 0.319409 0.638679
O O4 0.743750 0.359128 0.845102
O O5 0.462604 0.890116 0.402570
O O6 0.326133 0.762944 0.281923
O O7 0.070404 0.485189 0.306713
O O8 0.328876 0.468649 0.249280
O O9 0.201422 0.354303 0.453821
O O10 0.155297 0.383246 0.951902
#
# Coordination Sequence:
#
# PCOD8157808 Si02
#       5
#     4   4   4   4   4
#     4  11  25  46  67 105 141 181 242 293 348 425
#     4  12  27  42  75 101 148 185 234 292 363 414
#     4  11  25  47  74 103 144 187 244 284 352 425
#     4  11  25  47  74 105 138 193 234 297 343 428
#     4  11  26  46  70 106 147 188 234 298 354 428
#
# _framework density 23.299894999999999
#
# number of rings (size 3 to 8) (size 9 to 14) (size 15 to 20)
#    0.000    0.800    0.000    7.200    5.600    8.000 
#    0.000    0.000    0.000    0.000    0.000    0.000 
#    0.000    0.000    0.000    0.000    0.000    0.000 
#
# Total GULP energy -247910.167528 kJ/mol
# GULP energy per Si atom -12395.508376 kJ/mol
# Density = 2.324686 g / cm^3
# Si number density = 23.299895 Si / 1000 Ang^3
#
#
#
# Elastic Constant Matrix: (Units=GPa)
#
#
# Indices 1 2 3 4 5 6 
#
# 1 121.9775 51.8983 26.4098 0.0000 0.0000 0.0000
# 2 51.8983 98.1590 7.6056 0.0000 0.0000 0.0000
# 3 26.4098 7.6056 66.1576 0.0000 0.0000 0.0000
# 4 0.0000 0.0000 0.0000 17.9841 0.0000 0.0000
# 5 0.0000 0.0000 0.0000 0.0000 42.3737 0.0000
# 6 0.0000 0.0000 0.0000 0.0000 0.0000 36.9890
#
#
#
# Elastic Compliance Matrix: (Units=1/GPa)
#
#
# Indices 1 2 3 4 5 6 
#
# 1 0.011508 -0.005780 -0.003930 0.000000 0.000000 0.000000
# 2 -0.005780 0.013182 0.000792 0.000000 0.000000 0.000000
# 3 -0.003930 0.000792 0.016593 0.000000 0.000000 0.000000
# 4 0.000000 0.000000 0.000000 0.055605 0.000000 0.000000
# 5 0.000000 0.000000 0.000000 0.000000 0.023600 0.000000
# 6 0.000000 0.000000 0.000000 0.000000 0.000000 0.027035
#
#
# Mechanical properties :
#
#
# Convention : Reuss Voigt Hill
#
# Bulk Modulus (GPa) = 42.64746 50.90240 46.77493
# Shear Modulus (GPa) = 28.87259 32.82805 30.85032
#
# Velocity S-wave (km/s) = 3.52401 3.75765 3.64270
# Velocity P-wave (km/s) = 5.90776 6.38127 6.14908
#
# Compressibility (1/GPa) = 0.02344806
#
# Stress axis : x y z
#
# Youngs Moduli (GPa) = 86.89325 75.85939 60.26625
#
# Poissons Ratio (x) = 0.43848 0.23682
# Poissons Ratio (y) = 0.50226 -0.04773
# Poissons Ratio (z) = 0.34145 -0.06008
#
# Static dielectric constant tensor:
#      x y z
#    x 4.412790 0.000000 0.000000 
#    y 0.000000 4.164790 0.000000 
#    z 0.000000 0.000000 4.169450 
# 
# 
# High freq. dielectric constant tensor:
#      x y z
#    x 1.931940 0.000000 0.000000 
#    y 0.000000 1.922200 0.000000 
#    z 0.000000 0.000000 1.925940 
# 
# From -- ./inp_files/373.got.cif
#   From: 2010.03.12/outbox.cif.g09.slc.cpg/sg19_1_cif.got.tgz:373.got - 2010.04.10 18:59:41.
