data_PCOD8157634
_publ_section_title
;
Structure prediction by ZEFSAII (Michael W. Deem and Ramdas Pophale) SiO2 
 PCOD8157634
Probable space group: P 21 21 21
;
_chemical_formula_sum "Si O2"
_cell_formula_units_Z 32
_cell_length_a 8.660807
_cell_length_b 8.904209
_cell_length_c 18.728295
_cell_angle_alpha 90.000000
_cell_angle_beta 90.000000
_cell_angle_gamma 90.000000
_cell_volume 1444.281830
_symmetry_space_group_name_H-M "P 21 21 21"
_symmetry_group_IT_number 19
_symmetry_cell_setting 'orthorhombic'
loop_
_space_group_symop_operation_xyz
x,y,z
1/2-x,-y,1/2+z
1/2+x,1/2-y,-z
-x,1/2+y,1/2-z
loop_
_atom_site_type_symbol
_atom_site_label
_atom_site_fract_x
_atom_site_fract_y
_atom_site_fract_z
Si Si1 0.818466 0.419575 0.975646
Si Si2 0.138278 0.578422 0.991331
Si Si3 0.351811 0.567446 0.726782
Si Si4 0.219641 0.276280 0.361040
Si Si5 0.672445 0.723331 0.743273
Si Si6 0.368940 0.161837 0.601472
Si Si7 0.661291 0.893904 0.413982
Si Si8 0.178041 0.058969 0.878924
O O1 0.682149 0.506243 0.934216
O O2 0.870609 0.282380 0.925718
O O3 0.750889 0.363288 0.051134
O O4 0.962875 0.524832 0.993765
O O5 0.176066 0.707405 0.047842
O O6 0.262569 0.450886 0.011969
O O7 0.159919 0.641549 0.912118
O O8 0.249685 0.670193 0.780010
O O9 0.522359 0.632578 0.718533
O O10 0.359551 0.400658 0.759739
O O11 0.281050 0.571293 0.648563
O O12 0.050229 0.332438 0.383213
O O13 0.235861 0.097625 0.363627
O O14 0.722726 0.680513 0.823814
O O15 0.805923 0.673003 0.687958
O O16 0.501744 0.974723 0.393683
#
# Coordination Sequence:
#
# PCOD8157634 Si02
#       8
#     4   4   4   4   4   4   4   4
#     4  12  27  44  75 104 143 187 242 303 356 428
#     4  12  23  47  69 104 140 184 243 284 371 423
#     4  11  26  46  72 102 138 186 238 288 365 429
#     4  11  26  43  73 103 135 188 232 295 363 432
#     4  11  25  46  72 101 140 188 235 294 357 438
#     4  11  22  46  73 101 133 185 235 294 356 430
#     4  12  29  45  70 103 147 188 238 305 354 433
#     4  12  26  47  68 104 144 184 239 295 360 429
#
# _framework density 22.156341999999999
#
# number of rings (size 3 to 8) (size 9 to 14) (size 15 to 20)
#    0.000    0.500    3.750    3.750   10.500    2.000 
#    0.000    0.000    0.000    0.000    0.000    0.000 
#    0.000    0.000    0.000    0.000    0.000    0.000 
#
# Total GULP energy -396934.191512 kJ/mol
# GULP energy per Si atom -12404.193485 kJ/mol
# Density = 2.210591 g / cm^3
# Si number density = 22.156342 Si / 1000 Ang^3
#
#
#
# Elastic Constant Matrix: (Units=GPa)
#
#
# Indices 1 2 3 4 5 6 
#
# 1 57.3476 20.2958 5.3526 0.0000 0.0000 0.0000
# 2 20.2958 110.3227 31.7749 0.0000 0.0000 0.0000
# 3 5.3526 31.7749 75.6540 0.0000 0.0000 0.0000
# 4 0.0000 0.0000 0.0000 43.5760 0.0000 0.0000
# 5 0.0000 0.0000 0.0000 0.0000 36.7894 0.0000
# 6 0.0000 0.0000 0.0000 0.0000 0.0000 30.6456
#
#
#
# Elastic Compliance Matrix: (Units=1/GPa)
#
#
# Indices 1 2 3 4 5 6 
#
# 1 0.018653 -0.003471 0.000138 0.000000 0.000000 0.000000
# 2 -0.003471 0.010958 -0.004357 0.000000 0.000000 0.000000
# 3 0.000138 -0.004357 0.015038 0.000000 0.000000 0.000000
# 4 0.000000 0.000000 0.000000 0.022948 0.000000 0.000000
# 5 0.000000 0.000000 0.000000 0.000000 0.027182 0.000000
# 6 0.000000 0.000000 0.000000 0.000000 0.000000 0.032631
#
#
# Mechanical properties :
#
#
# Convention : Reuss Voigt Hill
#
# Bulk Modulus (GPa) = 34.16538 39.79677 36.98108
# Shear Modulus (GPa) = 32.77690 34.59559 33.68625
#
# Velocity S-wave (km/s) = 3.85040 3.95578 3.90345
# Velocity P-wave (km/s) = 5.93473 6.23418 6.08630
#
# Compressibility (1/GPa) = 0.02926939
#
# Stress axis : x y z
#
# Youngs Moduli (GPa) = 53.61018 91.25970 66.49776
#
# Poissons Ratio (x) = 0.31680 -0.00919
# Poissons Ratio (y) = 0.18610 0.28971
# Poissons Ratio (z) = -0.00741 0.39759
#
# Static dielectric constant tensor:
#      x y z
#    x 3.808950 0.000000 0.000000 
#    y 0.000000 4.022530 0.000000 
#    z 0.000000 0.000000 4.335550 
# 
# 
# High freq. dielectric constant tensor:
#      x y z
#    x 1.863030 0.000000 0.000000 
#    y 0.000000 1.877790 0.000000 
#    z 0.000000 0.000000 1.887680 
# 
# From -- ./inp_files/7031.got.cif
#   From: 2010.03.12/outbox.cif.g09.slc.cpg/sg19_4_cif.got.tgz:7031.got - 2010.04.10 18:59:41.
