data_PCOD8157454
_publ_section_title
;
Structure prediction by ZEFSAII (Michael W. Deem and Ramdas Pophale) SiO2 
 PCOD8157454
Probable space group: P 21 21 21
;
_chemical_formula_sum "Si O2"
_cell_formula_units_Z 32
_cell_length_a 10.543692
_cell_length_b 16.349619
_cell_length_c 8.423167
_cell_angle_alpha 90.000000
_cell_angle_beta 90.000000
_cell_angle_gamma 90.000000
_cell_volume 1452.030567
_symmetry_space_group_name_H-M "P 21 21 21"
_symmetry_group_IT_number 19
_symmetry_cell_setting 'orthorhombic'
loop_
_space_group_symop_operation_xyz
x,y,z
1/2-x,-y,1/2+z
1/2+x,1/2-y,-z
-x,1/2+y,1/2-z
loop_
_atom_site_type_symbol
_atom_site_label
_atom_site_fract_x
_atom_site_fract_y
_atom_site_fract_z
Si Si1 0.319148 0.942135 0.731112
Si Si2 0.215795 0.195667 0.652569
Si Si3 0.788557 0.127594 0.324839
Si Si4 0.873561 0.174082 0.990063
Si Si5 0.650626 0.294675 0.000864
Si Si6 0.915035 0.004572 0.821712
Si Si7 0.127657 0.923150 0.992500
Si Si8 0.985648 0.576864 0.982781
O O1 0.358498 0.863064 0.632125
O O2 0.427237 0.966437 0.860590
O O3 0.296537 0.016313 0.610361
O O4 0.188089 0.923727 0.818279
O O5 0.201680 0.293444 0.635524
O O6 0.351223 0.165401 0.576237
O O7 0.101719 0.154793 0.556144
O O8 0.209902 0.169020 0.836979
O O9 0.874470 0.148227 0.173400
O O10 0.707160 0.048292 0.278895
O O11 0.874089 0.109205 0.477442
O O12 0.001859 0.229491 0.964577
O O13 0.742707 0.221058 0.944354
O O14 0.877884 0.094643 0.879161
O O15 0.001658 0.014049 0.664105
O O16 0.984887 0.954266 0.964429
#
# Coordination Sequence:
#
# PCOD8157454 Si02
#       8
#     4   4   4   4   4   4   4   4
#     4  11  21  39  69  98 132 181 225 292 341 420
#     4  10  24  41  67  98 136 182 235 294 343 419
#     4  11  25  43  66  99 139 181 234 285 360 420
#     4  11  24  47  71 102 141 189 234 292 355 426
#     4  11  22  46  71 100 144 183 240 292 354 429
#     4  12  24  43  70  99 143 186 231 296 356 430
#     4  11  22  39  67 100 135 176 234 282 352 416
#     4  11  22  42  67  96 140 176 231 289 343 422
#
# _framework density 22.038105000000002
#
# number of rings (size 3 to 8) (size 9 to 14) (size 15 to 20)
#    0.000    1.000    3.750    3.000    1.750    4.000 
#    0.000   10.000    0.000    0.000    0.000    0.000 
#    0.000    0.000    0.000    0.000    0.000    0.000 
#
# Total GULP energy -396690.386025 kJ/mol
# GULP energy per Si atom -12396.574563 kJ/mol
# Density = 2.198794 g / cm^3
# Si number density = 22.038105 Si / 1000 Ang^3
#
#
#
# Elastic Constant Matrix: (Units=GPa)
#
#
# Indices 1 2 3 4 5 6 
#
# 1 98.2704 43.6182 12.5518 0.0000 0.0000 0.0000
# 2 43.6182 88.2637 21.4309 0.0000 0.0000 0.0000
# 3 12.5518 21.4309 78.5588 0.0000 0.0000 0.0000
# 4 0.0000 0.0000 0.0000 24.4733 0.0000 0.0000
# 5 0.0000 0.0000 0.0000 0.0000 37.9761 0.0000
# 6 0.0000 0.0000 0.0000 0.0000 0.0000 34.3183
#
#
#
# Elastic Compliance Matrix: (Units=1/GPa)
#
#
# Indices 1 2 3 4 5 6 
#
# 1 0.013044 -0.006361 -0.000349 0.000000 0.000000 0.000000
# 2 -0.006361 0.015236 -0.003140 0.000000 0.000000 0.000000
# 3 -0.000349 -0.003140 0.013642 0.000000 0.000000 0.000000
# 4 0.000000 0.000000 0.000000 0.040861 0.000000 0.000000
# 5 0.000000 0.000000 0.000000 0.000000 0.026332 0.000000
# 6 0.000000 0.000000 0.000000 0.000000 0.000000 0.029139
#
#
# Mechanical properties :
#
#
# Convention : Reuss Voigt Hill
#
# Bulk Modulus (GPa) = 45.00190 46.69941 45.85065
# Shear Modulus (GPa) = 30.23686 31.85301 31.04493
#
# Velocity S-wave (km/s) = 3.70811 3.80591 3.75733
# Velocity P-wave (km/s) = 6.22879 6.36786 6.29871
#
# Compressibility (1/GPa) = 0.02222129
#
# Stress axis : x y z
#
# Youngs Moduli (GPa) = 76.66275 65.63493 73.30511
#
# Poissons Ratio (x) = 0.41754 0.02556
# Poissons Ratio (y) = 0.48769 0.23017
# Poissons Ratio (z) = 0.02673 0.20609
#
# Static dielectric constant tensor:
#      x y z
#    x 3.991360 0.000000 0.000000 
#    y 0.000000 3.848100 0.000000 
#    z 0.000000 0.000000 4.154620 
# 
# 
# High freq. dielectric constant tensor:
#      x y z
#    x 1.864660 0.000000 0.000000 
#    y 0.000000 1.847490 0.000000 
#    z 0.000000 0.000000 1.880700 
# 
# From -- ./inp_files/3599.got.cif
#   From: 2010.03.12/outbox.cif.g09.slc.cpg/sg19_2_cif.got.tgz:3599.got - 2010.04.10 18:59:41.
