data_PCOD8157624
_publ_section_title
;
Structure prediction by ZEFSAII (Michael W. Deem and Ramdas Pophale) SiO2 
 PCOD8157624
Probable space group: P 21 21 21
;
_chemical_formula_sum "Si O2"
_cell_formula_units_Z 28
_cell_length_a 7.202112
_cell_length_b 17.592347
_cell_length_c 9.212453
_cell_angle_alpha 90.000000
_cell_angle_beta 90.000000
_cell_angle_gamma 90.000000
_cell_volume 1167.236712
_symmetry_space_group_name_H-M "P 21 21 21"
_symmetry_group_IT_number 19
_symmetry_cell_setting 'orthorhombic'
loop_
_space_group_symop_operation_xyz
x,y,z
1/2-x,-y,1/2+z
1/2+x,1/2-y,-z
-x,1/2+y,1/2-z
loop_
_atom_site_type_symbol
_atom_site_label
_atom_site_fract_x
_atom_site_fract_y
_atom_site_fract_z
Si Si1 0.645025 0.407952 0.622732
Si Si2 0.761344 0.853775 0.789241
Si Si3 0.341307 0.234968 0.508588
Si Si4 0.626034 0.019790 0.485364
Si Si5 0.256739 0.037097 0.071599
Si Si6 0.670517 0.159100 0.675010
Si Si7 0.605145 0.115059 0.986048
O O1 0.447923 0.379234 0.677363
O O2 0.770470 0.337444 0.577389
O O3 0.739617 0.455621 0.754604
O O4 0.637556 0.459911 0.477735
O O5 0.799474 0.842068 0.620401
O O6 0.801575 0.774128 0.872090
O O7 0.893603 0.921734 0.850100
O O8 0.522340 0.215848 0.600351
O O9 0.363565 0.304363 0.387658
O O10 0.645075 0.070827 0.631691
O O11 0.447081 0.965064 0.497192
O O12 0.806687 0.968337 0.466236
O O13 0.382818 0.106503 0.009491
O O14 0.648961 0.166861 0.847014
#
# Coordination Sequence:
#
# PCOD8157624 Si02
#       7
#     4   4   4   4   4   4   4
#     4  12  24  45  70 106 146 193 243 297 373 437
#     4  11  24  46  72 103 150 199 237 302 371 440
#     4  11  25  49  70  98 146 194 246 288 363 447
#     4  11  22  44  74 108 145 189 234 301 375 428
#     4  12  25  42  74 108 145 184 244 305 358 440
#     4  11  25  47  73 103 142 195 247 294 365 439
#     4  12  25  45  71 112 148 182 249 313 357 427
#
# _framework density 23.988278000000001
#
# number of rings (size 3 to 8) (size 9 to 14) (size 15 to 20)
#    0.000    0.571    5.714    2.571    2.000    0.000 
#    5.143    0.000    0.000    0.000    0.000    0.000 
#    0.000    0.000    0.000    0.000    0.000    0.000 
#
# Total GULP energy -346915.566632 kJ/mol
# GULP energy per Si atom -12389.841665 kJ/mol
# Density = 2.393368 g / cm^3
# Si number density = 23.988278 Si / 1000 Ang^3
#
#
#
# Elastic Constant Matrix: (Units=GPa)
#
#
# Indices 1 2 3 4 5 6 
#
# 1 75.4495 23.6642 44.4339 0.0000 0.0000 0.0000
# 2 23.6642 81.1062 67.8042 0.0000 0.0000 0.0000
# 3 44.4339 67.8042 211.0393 0.0000 0.0000 0.0000
# 4 0.0000 0.0000 0.0000 17.7802 0.0000 0.0000
# 5 0.0000 0.0000 0.0000 0.0000 31.7378 0.0000
# 6 0.0000 0.0000 0.0000 0.0000 0.0000 34.0904
#
#
#
# Elastic Compliance Matrix: (Units=1/GPa)
#
#
# Indices 1 2 3 4 5 6 
#
# 1 0.015478 -0.002450 -0.002472 0.000000 0.000000 0.000000
# 2 -0.002450 0.017245 -0.005025 0.000000 0.000000 0.000000
# 3 -0.002472 -0.005025 0.006873 0.000000 0.000000 0.000000
# 4 0.000000 0.000000 0.000000 0.056242 0.000000 0.000000
# 5 0.000000 0.000000 0.000000 0.000000 0.031508 0.000000
# 6 0.000000 0.000000 0.000000 0.000000 0.000000 0.029334
#
#
# Mechanical properties :
#
#
# Convention : Reuss Voigt Hill
#
# Bulk Modulus (GPa) = 50.75174 71.04440 60.89807
# Shear Modulus (GPa) = 27.30141 32.16785 29.73463
#
# Velocity S-wave (km/s) = 3.37726 3.66591 3.52454
# Velocity P-wave (km/s) = 6.03412 6.89922 6.48112
#
# Compressibility (1/GPa) = 0.01970376
#
# Stress axis : x y z
#
# Youngs Moduli (GPa) = 64.60827 57.98804 145.49023
#
# Poissons Ratio (x) = 0.14204 0.35963
# Poissons Ratio (y) = 0.15826 0.73107
# Poissons Ratio (z) = 0.15970 0.29138
#
# Static dielectric constant tensor:
#      x y z
#    x 4.681480 0.000000 0.000000 
#    y 0.000000 4.377840 0.000000 
#    z 0.000000 0.000000 4.448740 
# 
# 
# High freq. dielectric constant tensor:
#      x y z
#    x 1.960330 0.000000 0.000000 
#    y 0.000000 1.935530 0.000000 
#    z 0.000000 0.000000 1.950170 
# 
# From -- ./inp_files/3027.got.cif
#   From: 2010.03.12/outbox.cif.g09.slc.cpg/sg19_2_cif.got.tgz:3027.got - 2010.04.10 18:59:41.
