data_PCOD8157493
_publ_section_title
;
Structure prediction by ZEFSAII (Michael W. Deem and Ramdas Pophale) SiO2 
 PCOD8157493
Probable space group: P 21 21 21
;
_chemical_formula_sum "Si O2"
_cell_formula_units_Z 32
_cell_length_a 10.425387
_cell_length_b 14.418857
_cell_length_c 9.338670
_cell_angle_alpha 90.000000
_cell_angle_beta 90.000000
_cell_angle_gamma 90.000000
_cell_volume 1403.809086
_symmetry_space_group_name_H-M "P 21 21 21"
_symmetry_group_IT_number 19
_symmetry_cell_setting 'orthorhombic'
loop_
_space_group_symop_operation_xyz
x,y,z
1/2-x,-y,1/2+z
1/2+x,1/2-y,-z
-x,1/2+y,1/2-z
loop_
_atom_site_type_symbol
_atom_site_label
_atom_site_fract_x
_atom_site_fract_y
_atom_site_fract_z
Si Si1 0.366170 0.040547 0.524387
Si Si2 0.919936 0.960787 0.226450
Si Si3 0.717019 0.393676 0.200802
Si Si4 0.016498 0.723447 0.631026
Si Si5 0.648755 0.870207 0.894903
Si Si6 0.057750 0.392332 0.688799
Si Si7 0.551616 0.723714 0.676649
Si Si8 0.642658 0.913503 0.200658
O O1 0.477278 0.990274 0.619422
O O2 0.264535 0.082294 0.637955
O O3 0.451368 0.116587 0.437867
O O4 0.289422 0.979150 0.410047
O O5 0.781536 0.952384 0.153458
O O6 0.959454 0.858412 0.274691
O O7 0.901862 0.026919 0.361155
O O8 0.581339 0.344494 0.214488
O O9 0.813280 0.320491 0.128217
O O10 0.997288 0.827689 0.685178
O O11 0.996788 0.722008 0.460873
O O12 0.146979 0.668251 0.677004
O O13 0.801965 0.860250 0.865615
O O14 0.570828 0.794702 0.805392
O O15 0.600525 0.859295 0.057193
O O16 0.057266 0.498118 0.748803
#
# Coordination Sequence:
#
# PCOD8157493 Si02
#       8
#     4   4   4   4   4   4   4   4
#     4  11  24  48  71  99 146 185 238 297 358 425
#     4  10  24  45  72 102 142 187 238 289 360 425
#     4  11  26  46  73 106 143 191 242 294 367 427
#     4  12  26  43  73 103 148 187 242 293 357 432
#     4  11  23  43  73 101 142 186 235 296 349 428
#     4  11  24  44  71  98 147 187 237 294 354 427
#     4  11  26  45  70 106 146 185 241 296 359 427
#     4  11  25  42  73 107 136 188 241 285 364 421
#
# _framework density 22.795123
#
# number of rings (size 3 to 8) (size 9 to 14) (size 15 to 20)
#    0.000    1.000    3.750    1.500    7.000    3.000 
#    0.000    0.000    0.000    0.000    0.000    0.000 
#    0.000    0.000    0.000    0.000    0.000    0.000 
#
# Total GULP energy -396511.339665 kJ/mol
# GULP energy per Si atom -12390.979365 kJ/mol
# Density = 2.274324 g / cm^3
# Si number density = 22.795123 Si / 1000 Ang^3
#
#
#
# Elastic Constant Matrix: (Units=GPa)
#
#
# Indices 1 2 3 4 5 6 
#
# 1 61.0576 25.4111 32.0395 0.0000 0.0000 0.0000
# 2 25.4111 121.3909 49.4933 0.0000 0.0000 0.0000
# 3 32.0395 49.4933 137.7322 0.0000 0.0000 0.0000
# 4 0.0000 0.0000 0.0000 33.3207 0.0000 0.0000
# 5 0.0000 0.0000 0.0000 0.0000 35.1526 0.0000
# 6 0.0000 0.0000 0.0000 0.0000 0.0000 38.5904
#
#
#
# Elastic Compliance Matrix: (Units=1/GPa)
#
#
# Indices 1 2 3 4 5 6 
#
# 1 0.019327 -0.002593 -0.003564 0.000000 0.000000 0.000000
# 2 -0.002593 0.010000 -0.002990 0.000000 0.000000 0.000000
# 3 -0.003564 -0.002990 0.009164 0.000000 0.000000 0.000000
# 4 0.000000 0.000000 0.000000 0.030011 0.000000 0.000000
# 5 0.000000 0.000000 0.000000 0.000000 0.028447 0.000000
# 6 0.000000 0.000000 0.000000 0.000000 0.000000 0.025913
#
#
# Mechanical properties :
#
#
# Convention : Reuss Voigt Hill
#
# Bulk Modulus (GPa) = 49.51266 59.34094 54.42680
# Shear Modulus (GPa) = 33.80894 35.62851 34.71873
#
# Velocity S-wave (km/s) = 3.85537 3.95775 3.90690
# Velocity P-wave (km/s) = 6.44875 6.85375 6.65433
#
# Compressibility (1/GPa) = 0.02019686
#
# Stress axis : x y z
#
# Youngs Moduli (GPa) = 51.74020 100.00244 109.12095
#
# Poissons Ratio (x) = 0.25927 0.38894
# Poissons Ratio (y) = 0.13414 0.32630
# Poissons Ratio (z) = 0.18442 0.29903
#
# Static dielectric constant tensor:
#      x y z
#    x 4.263800 0.000000 0.000000 
#    y 0.000000 3.997310 0.000000 
#    z 0.000000 0.000000 4.074020 
# 
# 
# High freq. dielectric constant tensor:
#      x y z
#    x 1.898720 0.000000 0.000000 
#    y 0.000000 1.897880 0.000000 
#    z 0.000000 0.000000 1.906430 
# 
# From -- ./inp_files/3604.got.cif
#   From: 2010.03.12/outbox.cif.g09.slc.cpg/sg19_2_cif.got.tgz:3604.got - 2010.04.10 18:59:41.
