data_PCOD8157031
_publ_section_title
;
Structure prediction by ZEFSAII (Michael W. Deem and Ramdas Pophale) SiO2 
 PCOD8157031
Probable space group: P 21 21 21
;
_chemical_formula_sum "Si O2"
_cell_formula_units_Z 28
_cell_length_a 19.030053
_cell_length_b 11.802572
_cell_length_c 5.154538
_cell_angle_alpha 90.000000
_cell_angle_beta 90.000000
_cell_angle_gamma 90.000000
_cell_volume 1157.727640
_symmetry_space_group_name_H-M "P 21 21 21"
_symmetry_group_IT_number 19
_symmetry_cell_setting 'orthorhombic'
loop_
_space_group_symop_operation_xyz
x,y,z
1/2-x,-y,1/2+z
1/2+x,1/2-y,-z
-x,1/2+y,1/2-z
loop_
_atom_site_type_symbol
_atom_site_label
_atom_site_fract_x
_atom_site_fract_y
_atom_site_fract_z
Si Si1 0.388264 0.298161 0.294676
Si Si2 0.993778 0.814455 0.045480
Si Si3 0.286064 0.121744 0.529212
Si Si4 0.094049 0.301230 0.943151
Si Si5 0.600493 0.614966 0.593879
Si Si6 0.147710 0.075298 0.734170
Si Si7 0.203319 0.488126 0.842438
O O1 0.453690 0.294385 0.498517
O O2 0.320481 0.221794 0.363798
O O3 0.419744 0.236566 0.037023
O O4 0.359186 0.424796 0.264177
O O5 0.934101 0.799145 0.262669
O O6 0.048718 0.907976 0.159365
O O7 0.959306 0.853950 0.773082
O O8 0.201901 0.138085 0.536206
O O9 0.303209 0.996925 0.423144
O O10 0.318691 0.125575 0.818289
O O11 0.103494 0.169839 0.879089
O O12 0.166935 0.370430 0.927022
O O13 0.591923 0.506990 0.406714
O O14 0.252465 0.467959 0.591316
#
# Coordination Sequence:
#
# PCOD8157031 Si02
#       7
#     4   4   4   4   4   4   4
#     4  10  24  47  75  98 141 196 237 288 364 429
#     4  11  25  51  67 105 141 194 240 292 348 433
#     4  10  21  39  70 105 139 174 237 285 371 420
#     4  12  28  47  72 110 147 182 251 295 354 420
#     4  10  22  45  70  99 140 186 236 284 368 421
#     4  11  23  39  70 109 139 182 221 313 355 418
#     4  12  29  50  76 108 145 200 244 301 362 435
#
# _framework density 24.185307999999999
#
# number of rings (size 3 to 8) (size 9 to 14) (size 15 to 20)
#    0.000    1.143    2.857    1.714    8.000    1.143 
#    7.714    0.000    0.000    0.000    0.000    0.000 
#    0.000    0.000    0.000    0.000    0.000    0.000 
#
# Total GULP energy -346937.198119 kJ/mol
# GULP energy per Si atom -12390.614219 kJ/mol
# Density = 2.413026 g / cm^3
# Si number density = 24.185308 Si / 1000 Ang^3
#
#
#
# Elastic Constant Matrix: (Units=GPa)
#
#
# Indices 1 2 3 4 5 6 
#
# 1 82.5305 6.9476 21.1923 0.0000 0.0000 0.0000
# 2 6.9476 73.2510 -0.5509 0.0000 0.0000 0.0000
# 3 21.1923 -0.5509 91.9029 0.0000 0.0000 0.0000
# 4 0.0000 0.0000 0.0000 20.4437 0.0000 0.0000
# 5 0.0000 0.0000 0.0000 0.0000 48.2555 0.0000
# 6 0.0000 0.0000 0.0000 0.0000 0.0000 30.5141
#
#
#
# Elastic Compliance Matrix: (Units=1/GPa)
#
#
# Indices 1 2 3 4 5 6 
#
# 1 0.012994 -0.001255 -0.003004 0.000000 0.000000 0.000000
# 2 -0.001255 0.013774 0.000372 0.000000 0.000000 0.000000
# 3 -0.003004 0.000372 0.011576 0.000000 0.000000 0.000000
# 4 0.000000 0.000000 0.000000 0.048915 0.000000 0.000000
# 5 0.000000 0.000000 0.000000 0.000000 0.020723 0.000000
# 6 0.000000 0.000000 0.000000 0.000000 0.000000 0.032772
#
#
# Mechanical properties :
#
#
# Convention : Reuss Voigt Hill
#
# Bulk Modulus (GPa) = 32.71237 33.65138 33.18188
# Shear Modulus (GPa) = 31.50276 34.51568 33.00922
#
# Velocity S-wave (km/s) = 3.61301 3.78184 3.69839
# Velocity P-wave (km/s) = 5.56419 5.74578 5.65571
#
# Compressibility (1/GPa) = 0.03056948
#
# Stress axis : x y z
#
# Youngs Moduli (GPa) = 76.96032 72.60312 86.38604
#
# Poissons Ratio (x) = 0.09112 0.25949
# Poissons Ratio (y) = 0.09658 -0.03213
# Poissons Ratio (z) = 0.23117 -0.02701
#
# Static dielectric constant tensor:
#      x y z
#    x 4.534480 0.000000 0.000000 
#    y 0.000000 3.966320 0.000000 
#    z 0.000000 0.000000 4.590420 
# 
# 
# High freq. dielectric constant tensor:
#      x y z
#    x 1.969660 0.000000 0.000000 
#    y 0.000000 1.926810 0.000000 
#    z 0.000000 0.000000 1.969820 
# 
# From -- ./inp_files/1756.got.cif
#   From: 2010.03.12/outbox.cif.g09.slc.cpg/sg19_1_cif.got.tgz:1756.got - 2010.04.10 18:59:41.
