data_PCOD8157796
_publ_section_title
;
Structure prediction by ZEFSAII (Michael W. Deem and Ramdas Pophale) SiO2 
 PCOD8157796
Probable space group: P 21 21 21
;
_chemical_formula_sum "Si O2"
_cell_formula_units_Z 24
_cell_length_a 16.038753
_cell_length_b 4.955754
_cell_length_c 12.434076
_cell_angle_alpha 90.000000
_cell_angle_beta 90.000000
_cell_angle_gamma 90.000000
_cell_volume 988.311518
_symmetry_space_group_name_H-M "P 21 21 21"
_symmetry_group_IT_number 19
_symmetry_cell_setting 'orthorhombic'
loop_
_space_group_symop_operation_xyz
x,y,z
1/2-x,-y,1/2+z
1/2+x,1/2-y,-z
-x,1/2+y,1/2-z
loop_
_atom_site_type_symbol
_atom_site_label
_atom_site_fract_x
_atom_site_fract_y
_atom_site_fract_z
Si Si1 0.139343 0.653897 0.057539
Si Si2 0.451794 0.672959 0.215205
Si Si3 0.706776 0.970626 0.170347
Si Si4 0.652584 0.722654 0.555279
Si Si5 0.951472 0.769703 0.030385
Si Si6 0.229383 0.159651 0.138312
O O1 0.164507 0.674204 0.932142
O O2 0.153857 0.353185 0.100642
O O3 0.043607 0.727257 0.076092
O O4 0.198036 0.853171 0.126832
O O5 0.498930 0.387025 0.211625
O O6 0.359571 0.643358 0.262491
O O7 0.448006 0.793716 0.096073
O O8 0.744272 0.725152 0.239994
O O9 0.777724 0.185549 0.139630
O O10 0.614531 0.432440 0.587782
O O11 0.690516 0.715527 0.435889
O O12 0.575227 0.927739 0.556316
#
# Coordination Sequence:
#
# PCOD8157796 Si02
#       6
#     4   4   4   4   4   4
#     4  11  26  44  72 103 145 185 238 301 358 426
#     4  12  26  41  72 113 144 183 237 308 371 424
#     4  11  26  47  74 107 147 192 243 296 370 431
#     4  11  25  43  70 102 145 189 236 295 356 434
#     4  12  24  46  67 106 143 187 238 301 357 421
#     4  11  25  45  69 107 142 190 236 299 360 432
#
# _framework density 24.283840000000001
#
# number of rings (size 3 to 8) (size 9 to 14) (size 15 to 20)
#    0.000    0.667    3.333    4.000    4.667    5.333 
#    0.000    3.333    0.000    0.000    0.000    0.000 
#    0.000    0.000    0.000    0.000    0.000    0.000 
#
# Total GULP energy -297812.512923 kJ/mol
# GULP energy per Si atom -12408.854705 kJ/mol
# Density = 2.422857 g / cm^3
# Si number density = 24.283840 Si / 1000 Ang^3
#
#
#
# Elastic Constant Matrix: (Units=GPa)
#
#
# Indices 1 2 3 4 5 6 
#
# 1 124.9363 12.5885 12.2126 0.0000 0.0000 0.0000
# 2 12.5885 88.6518 -2.6015 0.0000 0.0000 0.0000
# 3 12.2126 -2.6015 44.3155 0.0000 0.0000 0.0000
# 4 0.0000 0.0000 0.0000 17.6897 0.0000 0.0000
# 5 0.0000 0.0000 0.0000 0.0000 26.0202 0.0000
# 6 0.0000 0.0000 0.0000 0.0000 0.0000 43.5438
#
#
#
# Elastic Compliance Matrix: (Units=1/GPa)
#
#
# Indices 1 2 3 4 5 6 
#
# 1 0.008363 -0.001257 -0.002379 0.000000 0.000000 0.000000
# 2 -0.001257 0.011489 0.001021 0.000000 0.000000 0.000000
# 3 -0.002379 0.001021 0.023281 0.000000 0.000000 0.000000
# 4 0.000000 0.000000 0.000000 0.056530 0.000000 0.000000
# 5 0.000000 0.000000 0.000000 0.000000 0.038432 0.000000
# 6 0.000000 0.000000 0.000000 0.000000 0.000000 0.022965
#
#
# Mechanical properties :
#
#
# Convention : Reuss Voigt Hill
#
# Bulk Modulus (GPa) = 26.38337 33.58922 29.98630
# Shear Modulus (GPa) = 27.94482 33.16436 30.55459
#
# Velocity S-wave (km/s) = 3.39596 3.69954 3.55100
# Velocity P-wave (km/s) = 5.12493 5.66664 5.40258
#
# Compressibility (1/GPa) = 0.03790266
#
# Stress axis : x y z
#
# Youngs Moduli (GPa) = 119.57033 87.04289 42.95371
#
# Poissons Ratio (x) = 0.10945 0.10217
# Poissons Ratio (y) = 0.15035 -0.04385
# Poissons Ratio (z) = 0.28441 -0.08886
#
# Static dielectric constant tensor:
#      x y z
#    x 4.435670 0.000000 0.000000 
#    y 0.000000 4.302540 0.000000 
#    z 0.000000 0.000000 4.200190 
# 
# 
# High freq. dielectric constant tensor:
#      x y z
#    x 1.975210 0.000000 0.000000 
#    y 0.000000 1.974120 0.000000 
#    z 0.000000 0.000000 1.950100 
# 
# From -- ./inp_files/5169.got.cif
#   From: 2010.03.12/outbox.cif.g09.slc.cpg/sg19_3_cif.got.tgz:5169.got - 2010.04.10 18:59:41.
