data_PCOD8157670
_publ_section_title
;
Structure prediction by ZEFSAII (Michael W. Deem and Ramdas Pophale) SiO2 
 PCOD8157670
Probable space group: P 21 21 21
;
_chemical_formula_sum "Si O2"
_cell_formula_units_Z 20
_cell_length_a 27.475908
_cell_length_b 5.290205
_cell_length_c 4.937813
_cell_angle_alpha 90.000000
_cell_angle_beta 90.000000
_cell_angle_gamma 90.000000
_cell_volume 717.726851
_symmetry_space_group_name_H-M "P 21 21 21"
_symmetry_group_IT_number 19
_symmetry_cell_setting 'orthorhombic'
loop_
_space_group_symop_operation_xyz
x,y,z
1/2-x,-y,1/2+z
1/2+x,1/2-y,-z
-x,1/2+y,1/2-z
loop_
_atom_site_type_symbol
_atom_site_label
_atom_site_fract_x
_atom_site_fract_y
_atom_site_fract_z
Si Si1 0.157023 0.612719 0.181269
Si Si2 0.057930 0.657416 0.933737
Si Si3 0.218888 0.943538 0.866082
Si Si4 0.045270 0.960795 0.437729
Si Si5 0.357246 0.861852 0.006281
O O1 0.170042 0.375903 0.371079
O O2 0.149509 0.875437 0.342930
O O3 0.108655 0.527544 0.015658
O O4 0.201830 0.667842 0.975503
O O5 0.062112 0.719898 0.616643
O O6 0.011012 0.487743 0.989608
O O7 0.050147 0.909007 0.118405
O O8 0.250029 0.907348 0.592113
O O9 0.169393 0.103419 0.797212
O O10 0.083691 0.183499 0.527227
#
# Coordination Sequence:
#
# PCOD8157670 Si02
#       5
#     4   4   4   4   4
#     4  11  26  52  80 116 163 209 270 337 406 487
#     4  11  23  43  71 114 158 210 265 323 400 485
#     4  12  26  56  80 124 158 218 278 346 412 486
#     4  11  23  43  71 114 158 210 265 323 400 485
#     4  11  26  52  80 116 163 209 270 337 406 487
#
# _framework density 27.865755
#
# number of rings (size 3 to 8) (size 9 to 14) (size 15 to 20)
#    0.000    0.800    4.000    2.400    0.000    4.800 
#    7.200    0.000    0.000    0.000    0.000    0.000 
#    0.000    0.000    0.000    0.000    0.000    0.000 
#
# Total GULP energy -247876.419792 kJ/mol
# GULP energy per Si atom -12393.820990 kJ/mol
# Density = 2.780233 g / cm^3
# Si number density = 27.865755 Si / 1000 Ang^3
#
#
#
# Elastic Constant Matrix: (Units=GPa)
#
#
# Indices 1 2 3 4 5 6 
#
# 1 103.5835 -8.8225 16.8580 0.0000 0.0000 0.0000
# 2 -8.8225 85.0664 10.1838 0.0000 0.0000 0.0000
# 3 16.8580 10.1838 96.0668 0.0000 0.0000 0.0000
# 4 0.0000 0.0000 0.0000 36.1186 0.0000 0.0000
# 5 0.0000 0.0000 0.0000 0.0000 56.4602 0.0000
# 6 0.0000 0.0000 0.0000 0.0000 0.0000 27.1628
#
#
#
# Elastic Compliance Matrix: (Units=1/GPa)
#
#
# Indices 1 2 3 4 5 6 
#
# 1 0.010072 0.001272 -0.001902 0.000000 0.000000 0.000000
# 2 0.001272 0.012067 -0.001503 0.000000 0.000000 0.000000
# 3 -0.001902 -0.001503 0.010903 0.000000 0.000000 0.000000
# 4 0.000000 0.000000 0.000000 0.027687 0.000000 0.000000
# 5 0.000000 0.000000 0.000000 0.000000 0.017712 0.000000
# 6 0.000000 0.000000 0.000000 0.000000 0.000000 0.036815
#
#
# Mechanical properties :
#
#
# Convention : Reuss Voigt Hill
#
# Bulk Modulus (GPa) = 34.75007 35.68389 35.21698
# Shear Modulus (GPa) = 38.72595 41.71482 40.22039
#
# Velocity S-wave (km/s) = 3.73196 3.87330 3.80328
# Velocity P-wave (km/s) = 5.57383 5.73033 5.65262
#
# Compressibility (1/GPa) = 0.02877692
#
# Stress axis : x y z
#
# Youngs Moduli (GPa) = 99.28499 82.86819 91.72186
#
# Poissons Ratio (x) = -0.10544 0.17449
# Poissons Ratio (y) = -0.12632 0.13781
# Poissons Ratio (z) = 0.18887 0.12451
#
# Static dielectric constant tensor:
#      x y z
#    x 5.999590 0.000000 0.000000 
#    y 0.000000 4.394690 0.000000 
#    z 0.000000 0.000000 5.296410 
# 
# 
# High freq. dielectric constant tensor:
#      x y z
#    x 2.152850 0.000000 0.000000 
#    y 0.000000 2.086670 0.000000 
#    z 0.000000 0.000000 2.136650 
# 
# From -- ./inp_files/2217.got.cif
#   From: 2010.03.12/outbox.cif.g09.slc.cpg/sg19_2_cif.got.tgz:2217.got - 2010.04.10 18:59:41.
