data_PCOD8157562
_publ_section_title
;
Structure prediction by ZEFSAII (Michael W. Deem and Ramdas Pophale) SiO2 
 PCOD8157562
Probable space group: P 21 21 21
;
_chemical_formula_sum "Si O2"
_cell_formula_units_Z 20
_cell_length_a 8.247487
_cell_length_b 4.918932
_cell_length_c 23.181993
_cell_angle_alpha 90.000000
_cell_angle_beta 90.000000
_cell_angle_gamma 90.000000
_cell_volume 940.466280
_symmetry_space_group_name_H-M "P 21 21 21"
_symmetry_group_IT_number 19
_symmetry_cell_setting 'orthorhombic'
loop_
_space_group_symop_operation_xyz
x,y,z
1/2-x,-y,1/2+z
1/2+x,1/2-y,-z
-x,1/2+y,1/2-z
loop_
_atom_site_type_symbol
_atom_site_label
_atom_site_fract_x
_atom_site_fract_y
_atom_site_fract_z
Si Si1 0.009685 0.210624 0.788498
Si Si2 0.299151 0.149028 0.104261
Si Si3 0.449116 0.565488 0.913109
Si Si4 0.751264 0.446806 0.117327
Si Si5 0.551757 0.137238 0.452845
O O1 0.169980 0.101467 0.820616
O O2 0.938566 0.966973 0.750016
O O3 0.869749 0.302205 0.832284
O O4 0.117322 0.045016 0.111959
O O5 0.409529 0.934485 0.070651
O O6 0.307414 0.428788 0.067660
O O7 0.315057 0.335196 0.907282
O O8 0.393729 0.829707 0.876551
O O9 0.465373 0.654186 0.979026
O O10 0.621716 0.550432 0.071102
#
# Coordination Sequence:
#
# PCOD8157562 Si02
#       5
#     4   4   4   4   4
#     4  11  23  45  68  84 114 166 215 259 304 361
#     4  11  24  39  63  94 123 163 210 245 299 370
#     4  12  22  38  61  97 133 154 191 258 304 355
#     4  11  24  39  63  94 123 163 210 245 299 369
#     4  11  21  39  61  91 131 172 194 227 300 385
#
# _framework density 21.266048999999999
#
# number of rings (size 3 to 8) (size 9 to 14) (size 15 to 20)
#    0.000    0.800    0.000   10.800    0.000    0.000 
#    0.000    4.000    0.000    2.400    0.000    0.000 
#    0.000    0.000    0.000    0.000    0.000    0.000 
#
# Total GULP energy -248143.146354 kJ/mol
# GULP energy per Si atom -12407.157318 kJ/mol
# Density = 2.121765 g / cm^3
# Si number density = 21.266049 Si / 1000 Ang^3
#
#
#
# Elastic Constant Matrix: (Units=GPa)
#
#
# Indices 1 2 3 4 5 6 
#
# 1 90.4272 17.5588 52.0528 0.0000 0.0000 0.0000
# 2 17.5588 105.6773 37.3329 0.0000 0.0000 0.0000
# 3 52.0528 37.3329 98.1627 0.0000 0.0000 0.0000
# 4 0.0000 0.0000 0.0000 45.3123 0.0000 0.0000
# 5 0.0000 0.0000 0.0000 0.0000 7.8647 0.0000
# 6 0.0000 0.0000 0.0000 0.0000 0.0000 41.6495
#
#
#
# Elastic Compliance Matrix: (Units=1/GPa)
#
#
# Indices 1 2 3 4 5 6 
#
# 1 0.015931 0.000390 -0.008596 0.000000 0.000000 0.000000
# 2 0.000390 0.010941 -0.004368 0.000000 0.000000 0.000000
# 3 -0.008596 -0.004368 0.016406 0.000000 0.000000 0.000000
# 4 0.000000 0.000000 0.000000 0.022069 0.000000 0.000000
# 5 0.000000 0.000000 0.000000 0.000000 0.127151 0.000000
# 6 0.000000 0.000000 0.000000 0.000000 0.000000 0.024010
#
#
# Mechanical properties :
#
#
# Convention : Reuss Voigt Hill
#
# Bulk Modulus (GPa) = 55.15538 56.46179 55.80858
# Shear Modulus (GPa) = 20.18574 31.45346 25.81960
#
# Velocity S-wave (km/s) = 3.08425 3.85001 3.48821
# Velocity P-wave (km/s) = 6.21898 6.80964 6.52100
#
# Compressibility (1/GPa) = 0.01813060
#
# Stress axis : x y z
#
# Youngs Moduli (GPa) = 62.77034 91.39925 60.95146
#
# Poissons Ratio (x) = -0.03562 0.52394
# Poissons Ratio (y) = -0.02446 0.26622
# Poissons Ratio (z) = 0.53957 0.39920
#
# Static dielectric constant tensor:
#      x y z
#    x 3.861190 0.000000 0.000000 
#    y 0.000000 4.252890 0.000000 
#    z 0.000000 0.000000 3.775390 
# 
# 
# High freq. dielectric constant tensor:
#      x y z
#    x 1.831460 0.000000 0.000000 
#    y 0.000000 1.863120 0.000000 
#    z 0.000000 0.000000 1.824770 
# 
# From -- ./inp_files/6984.got.cif
#   From: 2010.03.12/outbox.cif.g09.slc.cpg/sg19_4_cif.got.tgz:6984.got - 2010.04.10 18:59:41.
