data_PCOD8157056
_publ_section_title
;
Structure prediction by ZEFSAII (Michael W. Deem and Ramdas Pophale) SiO2 
 PCOD8157056
Probable space group: P 21 21 21
;
_chemical_formula_sum "Si O2"
_cell_formula_units_Z 24
_cell_length_a 18.612246
_cell_length_b 11.249825
_cell_length_c 5.147999
_cell_angle_alpha 90.000000
_cell_angle_beta 90.000000
_cell_angle_gamma 90.000000
_cell_volume 1077.911250
_symmetry_space_group_name_H-M "P 21 21 21"
_symmetry_group_IT_number 19
_symmetry_cell_setting 'orthorhombic'
loop_
_space_group_symop_operation_xyz
x,y,z
1/2-x,-y,1/2+z
1/2+x,1/2-y,-z
-x,1/2+y,1/2-z
loop_
_atom_site_type_symbol
_atom_site_label
_atom_site_fract_x
_atom_site_fract_y
_atom_site_fract_z
Si Si1 0.595570 0.208064 0.145374
Si Si2 0.280893 0.440206 0.520406
Si Si3 0.569998 0.841177 0.908948
Si Si4 0.171757 0.272772 0.360226
Si Si5 0.915489 0.575771 0.957400
Si Si6 0.562028 0.687143 0.412093
O O1 0.621167 0.157795 0.425949
O O2 0.582839 0.352193 0.182055
O O3 0.521382 0.150451 0.053604
O O4 0.655498 0.178603 0.927970
O O5 0.252656 0.528862 0.299247
O O6 0.367578 0.438609 0.538609
O O7 0.253322 0.306659 0.436618
O O8 0.587294 0.776290 0.636997
O O9 0.492186 0.903561 0.898324
O O10 0.574310 0.742766 0.131979
O O11 0.150676 0.133128 0.374025
O O12 0.895906 0.438036 0.923992
#
# Coordination Sequence:
#
# PCOD8157056 Si02
#       6
#     4   4   4   4   4   4
#     4   9  19  38  59  92 121 163 209 259 305 385
#     4  12  27  44  67  93 132 178 206 265 333 383
#     4  11  25  40  60 102 127 159 226 265 303 399
#     4  10  21  41  60  92 123 162 219 251 313 392
#     4   9  23  36  69  88 127 170 204 268 328 361
#     4  11  21  39  63  93 128 162 212 278 312 364
#
# _framework density 22.265283
#
# number of rings (size 3 to 8) (size 9 to 14) (size 15 to 20)
#    1.000    0.667    1.667    2.000    7.000    0.000 
#    0.000    1.667    0.000    0.000    0.000    0.000 
#    0.000    0.000    0.000    0.000    0.000    0.000 
#
# Total GULP energy -297333.028052 kJ/mol
# GULP energy per Si atom -12388.876169 kJ/mol
# Density = 2.221461 g / cm^3
# Si number density = 22.265283 Si / 1000 Ang^3
#
#
#
# Elastic Constant Matrix: (Units=GPa)
#
#
# Indices 1 2 3 4 5 6 
#
# 1 55.1254 -5.5109 -1.8343 0.0000 0.0000 0.0000
# 2 -5.5109 56.0402 -2.9364 0.0000 0.0000 0.0000
# 3 -1.8343 -2.9364 103.6091 0.0000 0.0000 0.0000
# 4 0.0000 0.0000 0.0000 29.7169 0.0000 0.0000
# 5 0.0000 0.0000 0.0000 0.0000 27.7531 0.0000
# 6 0.0000 0.0000 0.0000 0.0000 0.0000 28.8819
#
#
#
# Elastic Compliance Matrix: (Units=1/GPa)
#
#
# Indices 1 2 3 4 5 6 
#
# 1 0.018335 0.001823 0.000376 0.000000 0.000000 0.000000
# 2 0.001823 0.018052 0.000544 0.000000 0.000000 0.000000
# 3 0.000376 0.000544 0.009674 0.000000 0.000000 0.000000
# 4 0.000000 0.000000 0.000000 0.033651 0.000000 0.000000
# 5 0.000000 0.000000 0.000000 0.000000 0.036032 0.000000
# 6 0.000000 0.000000 0.000000 0.000000 0.000000 0.034624
#
#
# Mechanical properties :
#
#
# Convention : Reuss Voigt Hill
#
# Bulk Modulus (GPa) = 19.39983 21.57907 20.48945
# Shear Modulus (GPa) = 30.85198 32.27412 31.56305
#
# Velocity S-wave (km/s) = 3.72648 3.81140 3.76917
# Velocity P-wave (km/s) = 5.21991 5.39276 5.30704
#
# Compressibility (1/GPa) = 0.05154684
#
# Stress axis : x y z
#
# Youngs Moduli (GPa) = 54.53990 55.39530 103.37267
#
# Poissons Ratio (x) = -0.10097 -0.03889
# Poissons Ratio (y) = -0.09941 -0.05622
# Poissons Ratio (z) = -0.02052 -0.03013
#
# Static dielectric constant tensor:
#      x y z
#    x 3.937570 0.000000 0.000000 
#    y 0.000000 3.738390 0.000000 
#    z 0.000000 0.000000 3.914340 
# 
# 
# High freq. dielectric constant tensor:
#      x y z
#    x 1.855450 0.000000 0.000000 
#    y 0.000000 1.856050 0.000000 
#    z 0.000000 0.000000 1.884610 
# 
# From -- ./inp_files/1917.got.cif
#   From: 2010.03.12/outbox.cif.g09.slc.cpg/sg19_1_cif.got.tgz:1917.got - 2010.04.10 18:59:41.
