data_PCOD8157910
_publ_section_title
;
Structure prediction by ZEFSAII (Michael W. Deem and Ramdas Pophale) SiO2 
 PCOD8157910
Probable space group: P 21 21 21
;
_chemical_formula_sum "Si O2"
_cell_formula_units_Z 24
_cell_length_a 9.663579
_cell_length_b 12.485135
_cell_length_c 8.552902
_cell_angle_alpha 90.000000
_cell_angle_beta 90.000000
_cell_angle_gamma 90.000000
_cell_volume 1031.916935
_symmetry_space_group_name_H-M "P 21 21 21"
_symmetry_group_IT_number 19
_symmetry_cell_setting 'orthorhombic'
loop_
_space_group_symop_operation_xyz
x,y,z
1/2-x,-y,1/2+z
1/2+x,1/2-y,-z
-x,1/2+y,1/2-z
loop_
_atom_site_type_symbol
_atom_site_label
_atom_site_fract_x
_atom_site_fract_y
_atom_site_fract_z
Si Si1 0.000133 0.949139 0.170035
Si Si2 0.718571 0.842096 0.087951
Si Si3 0.231130 0.175267 0.649374
Si Si4 0.427632 0.851036 0.472908
Si Si5 0.534983 0.481080 0.485745
Si Si6 0.847989 0.299244 0.867195
O O1 0.851349 0.895676 0.163274
O O2 0.111443 0.855117 0.180509
O O3 0.007354 0.010149 0.332094
O O4 0.032221 0.028751 0.025139
O O5 0.653622 0.743738 0.189200
O O6 0.762080 0.796663 0.916869
O O7 0.604314 0.934495 0.087985
O O8 0.135478 0.156840 0.799779
O O9 0.164007 0.099842 0.517843
O O10 0.568466 0.782393 0.479716
O O11 0.312334 0.801740 0.585656
O O12 0.576990 0.586469 0.386913
#
# Coordination Sequence:
#
# PCOD8157910 Si02
#       6
#     4   4   4   4   4   4
#     4  12  27  50  77 111 154 203 261 316 386 466
#     4  12  30  46  80 113 155 202 264 319 383 467
#     4  12  25  51  74 112 145 205 247 320 386 460
#     4  12  28  46  79 108 155 199 257 318 387 459
#     4  12  27  50  76 109 156 204 256 316 390 453
#     4  12  27  49  74 115 153 203 261 319 392 463
#
# _framework density 23.257686
#
# number of rings (size 3 to 8) (size 9 to 14) (size 15 to 20)
#    0.000    0.000    5.000    3.000    9.333    0.000 
#    0.000    0.000    0.000    0.000    0.000    0.000 
#    0.000    0.000    0.000    0.000    0.000    0.000 
#
# Total GULP energy -297611.287268 kJ/mol
# GULP energy per Si atom -12400.470303 kJ/mol
# Density = 2.320475 g / cm^3
# Si number density = 23.257686 Si / 1000 Ang^3
#
#
#
# Elastic Constant Matrix: (Units=GPa)
#
#
# Indices 1 2 3 4 5 6 
#
# 1 117.8243 -19.3298 21.8945 0.0000 0.0000 0.0000
# 2 -19.3298 -217.2051 15.3877 0.0000 0.0000 0.0000
# 3 21.8945 15.3877 103.5728 0.0000 0.0000 0.0000
# 4 0.0000 0.0000 0.0000 14.1067 0.0000 0.0000
# 5 0.0000 0.0000 0.0000 0.0000 35.9772 0.0000
# 6 0.0000 0.0000 0.0000 0.0000 0.0000 47.1584
#
#
#
# Elastic Compliance Matrix: (Units=1/GPa)
#
#
# Indices 1 2 3 4 5 6 
#
# 1 0.008657 -0.000891 -0.001698 0.000000 0.000000 0.000000
# 2 -0.000891 -0.004464 0.000852 0.000000 0.000000 0.000000
# 3 -0.001698 0.000852 0.009887 0.000000 0.000000 0.000000
# 4 0.000000 0.000000 0.000000 0.070888 0.000000 0.000000
# 5 0.000000 0.000000 0.000000 0.000000 0.027795 0.000000
# 6 0.000000 0.000000 0.000000 0.000000 0.000000 0.021205
#
#
# Mechanical properties :
#
#
# Convention : Reuss Voigt Hill
#
# Bulk Modulus (GPa) = 94.28471 4.45520 49.36996
# Shear Modulus (GPa) = 35.46678 18.53110 26.99894
#
# Velocity S-wave (km/s) = 3.90930 2.82578 3.41084
# Velocity P-wave (km/s) = 7.81050 3.54492 6.06508
#
# Compressibility (1/GPa) = 0.01060617
#
# Stress axis : x y z
#
# Youngs Moduli (GPa) = 115.51935 -223.99651 101.13883
#
# Poissons Ratio (x) = -0.19950 0.17169
# Poissons Ratio (y) = 0.10289 -0.08612
# Poissons Ratio (z) = 0.19611 0.19074
#
# Static dielectric constant tensor:
#      x y z
#    x 4.523400 0.000000 0.000000 
#    y 0.000000 4.328920 0.000000 
#    z 0.000000 0.000000 4.383690 
# 
# 
# High freq. dielectric constant tensor:
#      x y z
#    x 1.943620 0.000000 0.000000 
#    y 0.000000 1.917660 0.000000 
#    z 0.000000 0.000000 1.922550 
# 
# From -- ./inp_files/2683.got.cif
#   From: 2010.03.12/outbox.cif.g09.slc.cpg/sg19_2_cif.got.tgz:2683.got - 2010.04.10 18:59:41.
