data_PCOD8157028
_publ_section_title
;
Structure prediction by ZEFSAII (Michael W. Deem and Ramdas Pophale) SiO2 
 PCOD8157028
Probable space group: P 21 21 21
;
_chemical_formula_sum "Si O2"
_cell_formula_units_Z 24
_cell_length_a 9.928572
_cell_length_b 11.809613
_cell_length_c 9.478188
_cell_angle_alpha 90.000000
_cell_angle_beta 90.000000
_cell_angle_gamma 90.000000
_cell_volume 1111.342120
_symmetry_space_group_name_H-M "P 21 21 21"
_symmetry_group_IT_number 19
_symmetry_cell_setting 'orthorhombic'
loop_
_space_group_symop_operation_xyz
x,y,z
1/2-x,-y,1/2+z
1/2+x,1/2-y,-z
-x,1/2+y,1/2-z
loop_
_atom_site_type_symbol
_atom_site_label
_atom_site_fract_x
_atom_site_fract_y
_atom_site_fract_z
Si Si1 0.170345 0.024100 0.655226
Si Si2 0.369007 0.404283 0.393704
Si Si3 0.656244 0.000831 0.403585
Si Si4 0.561745 0.674575 0.178182
Si Si5 0.232115 0.868720 0.423936
Si Si6 0.992823 0.217203 0.965650
O O1 0.164253 0.914295 0.755509
O O2 0.244883 0.988540 0.510120
O O3 0.246783 0.114864 0.755198
O O4 0.024843 0.063386 0.605969
O O5 0.295028 0.466173 0.521887
O O6 0.303115 0.451896 0.249475
O O7 0.358594 0.267238 0.417946
O O8 0.561208 0.111909 0.399611
O O9 0.576120 0.904727 0.490955
O O10 0.504931 0.755026 0.300950
O O11 0.346999 0.789831 0.498132
O O12 0.084848 0.812317 0.443333
#
# Coordination Sequence:
#
# PCOD8157028 Si02
#       6
#     4   4   4   4   4   4
#     4  10  22  41  65  92 137 166 219 269 333 376
#     4  10  21  40  67  92 128 179 213 275 326 387
#     4  10  21  39  68  90 130 167 225 262 326 386
#     4   9  18  40  60  90 127 172 205 272 324 376
#     4  11  22  44  69  94 129 179 215 273 326 393
#     4  10  22  40  71  92 129 175 219 259 337 388
#
# _framework density 21.595510000000001
#
# number of rings (size 3 to 8) (size 9 to 14) (size 15 to 20)
#    0.000    2.000    5.000    0.000    7.000    1.333 
#    3.000    0.000    0.000    0.000    0.000    0.000 
#    0.000    0.000    0.000    0.000    0.000    0.000 
#
# Total GULP energy -297346.738699 kJ/mol
# GULP energy per Si atom -12389.447446 kJ/mol
# Density = 2.154636 g / cm^3
# Si number density = 21.595510 Si / 1000 Ang^3
#
#
#
# Elastic Constant Matrix: (Units=GPa)
#
#
# Indices 1 2 3 4 5 6 
#
# 1 29.0770 -2.9832 15.4262 0.0000 0.0000 0.0000
# 2 -2.9832 82.1760 1.6749 0.0000 0.0000 0.0000
# 3 15.4262 1.6749 54.5770 0.0000 0.0000 0.0000
# 4 0.0000 0.0000 0.0000 28.0641 0.0000 0.0000
# 5 0.0000 0.0000 0.0000 0.0000 39.2548 0.0000
# 6 0.0000 0.0000 0.0000 0.0000 0.0000 25.5440
#
#
#
# Elastic Compliance Matrix: (Units=1/GPa)
#
#
# Indices 1 2 3 4 5 6 
#
# 1 0.040698 0.001713 -0.011556 0.000000 0.000000 0.000000
# 2 0.001713 0.012249 -0.000860 0.000000 0.000000 0.000000
# 3 -0.011556 -0.000860 0.021615 0.000000 0.000000 0.000000
# 4 0.000000 0.000000 0.000000 0.035633 0.000000 0.000000
# 5 0.000000 0.000000 0.000000 0.000000 0.025475 0.000000
# 6 0.000000 0.000000 0.000000 0.000000 0.000000 0.039148
#
#
# Mechanical properties :
#
#
# Convention : Reuss Voigt Hill
#
# Bulk Modulus (GPa) = 18.81253 21.56287 20.18770
# Shear Modulus (GPa) = 23.37080 28.68670 26.02875
#
# Velocity S-wave (km/s) = 3.29326 3.64863 3.47549
# Velocity P-wave (km/s) = 4.81570 5.26845 5.04715
#
# Compressibility (1/GPa) = 0.05315607
#
# Stress axis : x y z
#
# Youngs Moduli (GPa) = 24.57130 81.64122 46.26327
#
# Poissons Ratio (x) = -0.13985 0.53461
# Poissons Ratio (y) = -0.04209 0.03979
# Poissons Ratio (z) = 0.28394 0.07022
#
# Static dielectric constant tensor:
#      x y z
#    x 3.601990 0.000000 0.000000 
#    y 0.000000 4.342770 0.000000 
#    z 0.000000 0.000000 3.732800 
# 
# 
# High freq. dielectric constant tensor:
#      x y z
#    x 1.830310 0.000000 0.000000 
#    y 0.000000 1.865270 0.000000 
#    z 0.000000 0.000000 1.818120 
# 
# From -- ./inp_files/3390.got.cif
#   From: 2010.03.12/outbox.cif.g09.slc.cpg/sg19_2_cif.got.tgz:3390.got - 2010.04.10 18:59:41.
