data_PCOD8157994
_publ_section_title
;
Structure prediction by ZEFSAII (Michael W. Deem and Ramdas Pophale) SiO2 
 PCOD8157994
Probable space group: C 2 2 21
;
_chemical_formula_sum "Si O2"
_cell_formula_units_Z 44
_cell_length_a 19.767064
_cell_length_b 11.352104
_cell_length_c 11.452292
_cell_angle_alpha 90.000000
_cell_angle_beta 90.000000
_cell_angle_gamma 90.000000
_cell_volume 2569.868744
_symmetry_space_group_name_H-M "C 2 2 21"
_symmetry_group_IT_number 20
_symmetry_cell_setting 'orthorhombic'
loop_
_space_group_symop_operation_xyz
x,y,z
-x,-y,1/2+z
x,-y,-z
-x,y,1/2-z
1/2+x,1/2+y,z
1/2-x,1/2-y,1/2+z
1/2+x,1/2-y,-z
1/2-x,1/2+y,1/2-z
loop_
_atom_site_type_symbol
_atom_site_label
_atom_site_fract_x
_atom_site_fract_y
_atom_site_fract_z
Si Si1 0.134922 0.132004 0.532000
Si Si2 0.310668 0.797425 0.140933
Si Si3 0.874368 0.500000 0.000000
Si Si4 0.285490 0.890875 0.378363
Si Si5 0.929190 0.320295 0.814937
Si Si6 0.183835 0.648247 0.124633
O O1 0.137845 0.198661 0.407187
O O2 0.208956 0.147008 0.590120
O O3 0.081167 0.195609 0.617604
O O4 0.112504 0.000000 0.500000
O O5 0.323427 0.916384 0.069629
O O6 0.321676 0.815163 0.278406
O O7 0.232757 0.760306 0.129217
O O8 0.920914 0.572737 0.092014
O O9 0.335697 0.870672 0.488302
O O10 0.279187 0.026795 0.337491
O O11 0.878335 0.329326 0.707672
O O12 0.000000 0.325208 0.750000
#
# Coordination Sequence:
#
# PCOD8157994 Si02
#       6
#     8   8   4   8   8   8
#     4  10  19  35  58  80 108 148 186 227 282 330
#     4  10  18  32  56  86 112 140 180 235 289 323
#     4  10  22  36  56  86 108 144 186 234 282 326
#     4  10  17  30  55  88 113 138 174 241 281 320
#     4  11  23  38  57  77 112 154 185 220 269 341
#     4  10  19  31  53  84 113 144 177 222 284 325
#
# _framework density 17.121497999999999
#
# number of rings (size 3 to 8) (size 9 to 14) (size 15 to 20)
#    0.000    1.818    7.273    0.000    0.000    1.455 
#    0.000    0.000    6.000    0.000    0.000    0.000 
#    0.000    0.000    0.000    0.000    0.000    0.000 
#
# Total GULP energy -272563.660873 kJ/mol
# GULP energy per Si atom -12389.257312 kJ/mol
# Density = 1.708253 g / cm^3
# Si number density = 17.121498 Si / 1000 Ang^3
#
#
#
# Elastic Constant Matrix: (Units=GPa)
#
#
# Indices 1 2 3 4 5 6 
#
# 1 81.5755 42.6345 58.6040 0.0000 0.0000 0.0000
# 2 42.6345 122.2264 73.5559 0.0000 0.0000 0.0000
# 3 58.6040 73.5559 136.2614 0.0000 0.0000 0.0000
# 4 0.0000 0.0000 0.0000 29.1405 0.0000 0.0000
# 5 0.0000 0.0000 0.0000 0.0000 28.8010 0.0000
# 6 0.0000 0.0000 0.0000 0.0000 0.0000 13.9030
#
#
#
# Elastic Compliance Matrix: (Units=1/GPa)
#
#
# Indices 1 2 3 4 5 6 
#
# 1 0.018213 -0.002428 -0.006523 0.000000 0.000000 0.000000
# 2 -0.002428 0.012442 -0.005672 0.000000 0.000000 0.000000
# 3 -0.006523 -0.005672 0.013206 0.000000 0.000000 0.000000
# 4 0.000000 0.000000 0.000000 0.034316 0.000000 0.000000
# 5 0.000000 0.000000 0.000000 0.000000 0.034721 0.000000
# 6 0.000000 0.000000 0.000000 0.000000 0.000000 0.071927
#
#
# Mechanical properties :
#
#
# Convention : Reuss Voigt Hill
#
# Bulk Modulus (GPa) = 68.41809 76.62802 72.52306
# Shear Modulus (GPa) = 22.83697 25.38683 24.11190
#
# Velocity S-wave (km/s) = 3.65611 3.85482 3.75678
# Velocity P-wave (km/s) = 7.60723 8.04148 7.82737
#
# Compressibility (1/GPa) = 0.01461602
#
# Stress axis : x y z
#
# Youngs Moduli (GPa) = 54.90468 80.37365 75.72243
#
# Poissons Ratio (x) = 0.19512 0.49392
# Poissons Ratio (y) = 0.13329 0.42951
# Poissons Ratio (z) = 0.35813 0.45590
#
# Static dielectric constant tensor:
#      x y z
#    x 2.777960 0.000000 0.000000 
#    y 0.000000 3.429070 0.000000 
#    z 0.000000 0.000000 3.596990 
# 
# 
# High freq. dielectric constant tensor:
#      x y z
#    x 1.608700 0.000000 0.000000 
#    y 0.000000 1.670380 0.000000 
#    z 0.000000 0.000000 1.680610 
# 
# From -- ./inp_files/14025.got.cif
#   From: 2010.03.12/outbox.cif.g09.slc.cpg/sg20_8_cif.got.tgz:14025.got - 2010.04.14 01:38:04.
