data_PCOD8157920
_publ_section_title
;
Structure prediction by ZEFSAII (Michael W. Deem and Ramdas Pophale) SiO2 
 PCOD8157920
Probable space group: P 21 21 21
;
_chemical_formula_sum "Si O2"
_cell_formula_units_Z 24
_cell_length_a 4.809813
_cell_length_b 8.350086
_cell_length_c 19.742556
_cell_angle_alpha 90.000000
_cell_angle_beta 90.000000
_cell_angle_gamma 90.000000
_cell_volume 792.907487
_symmetry_space_group_name_H-M "P 21 21 21"
_symmetry_group_IT_number 19
_symmetry_cell_setting 'orthorhombic'
loop_
_space_group_symop_operation_xyz
x,y,z
1/2-x,-y,1/2+z
1/2+x,1/2-y,-z
-x,1/2+y,1/2-z
loop_
_atom_site_type_symbol
_atom_site_label
_atom_site_fract_x
_atom_site_fract_y
_atom_site_fract_z
Si Si1 0.628058 0.432057 0.964225
Si Si2 0.883325 0.153406 0.900927
Si Si3 0.049456 0.693663 0.959175
Si Si4 0.320355 0.384287 0.839176
Si Si5 0.671228 0.159217 0.325704
Si Si6 0.182407 0.300525 0.258345
O O1 0.930355 0.514031 0.960843
O O2 0.419384 0.493680 0.903934
O O3 0.642638 0.242305 0.944523
O O4 0.542490 0.451710 0.042566
O O5 0.049397 0.290309 0.861742
O O6 0.790241 0.030493 0.841434
O O7 0.009186 0.758631 0.884523
O O8 0.868839 0.801585 0.013769
O O9 0.278325 0.506193 0.774097
O O10 0.550748 0.250273 0.815309
O O11 0.972426 0.237003 0.316419
O O12 0.476773 0.205446 0.261305
#
# Coordination Sequence:
#
# PCOD8157920 Si02
#       6
#     4   4   4   4   4   4
#     4  12  27  45  76 113 157 203 259 328 403 469
#     4  12  28  46  80 113 162 201 265 330 407 469
#     4  12  26  46  78 112 157 202 257 323 402 471
#     4  12  29  52  78 114 156 214 267 331 392 484
#     4  12  28  50  80 116 154 209 261 327 394 478
#     4  12  30  53  82 112 160 213 271 323 396 473
#
# _framework density 30.268346999999999
#
# number of rings (size 3 to 8) (size 9 to 14) (size 15 to 20)
#    0.000    0.000    5.000    3.000   11.667    0.000 
#    0.000    0.000    0.000    0.000    0.000    0.000 
#    0.000    0.000    0.000    0.000    0.000    0.000 
#
# Total GULP energy -297653.163343 kJ/mol
# GULP energy per Si atom -12402.215139 kJ/mol
# Density = 3.019946 g / cm^3
# Si number density = 30.268347 Si / 1000 Ang^3
#
#
#
# Elastic Constant Matrix: (Units=GPa)
#
#
# Indices 1 2 3 4 5 6 
#
# 1 72.5755 16.2170 -5.8978 0.0000 0.0000 0.0000
# 2 16.2170 134.1808 31.4898 0.0000 0.0000 0.0000
# 3 -5.8978 31.4898 187.1081 0.0000 0.0000 0.0000
# 4 0.0000 0.0000 0.0000 45.8662 0.0000 0.0000
# 5 0.0000 0.0000 0.0000 0.0000 32.0140 0.0000
# 6 0.0000 0.0000 0.0000 0.0000 0.0000 53.4763
#
#
#
# Elastic Compliance Matrix: (Units=1/GPa)
#
#
# Indices 1 2 3 4 5 6 
#
# 1 0.014267 -0.001905 0.000770 0.000000 0.000000 0.000000
# 2 -0.001905 0.008013 -0.001409 0.000000 0.000000 0.000000
# 3 0.000770 -0.001409 0.005606 0.000000 0.000000 0.000000
# 4 0.000000 0.000000 0.000000 0.021803 0.000000 0.000000
# 5 0.000000 0.000000 0.000000 0.000000 0.031236 0.000000
# 6 0.000000 0.000000 0.000000 0.000000 0.000000 0.018700
#
#
# Mechanical properties :
#
#
# Convention : Reuss Voigt Hill
#
# Bulk Modulus (GPa) = 43.86067 53.05360 48.45714
# Shear Modulus (GPa) = 44.51891 49.74168 47.13030
#
# Velocity S-wave (km/s) = 3.83927 4.05823 3.95027
# Velocity P-wave (km/s) = 5.84597 6.28687 6.07043
#
# Compressibility (1/GPa) = 0.02279947
#
# Stress axis : x y z
#
# Youngs Moduli (GPa) = 70.09162 124.78986 178.38460
#
# Poissons Ratio (x) = 0.23774 -0.13741
# Poissons Ratio (y) = 0.13353 0.25129
# Poissons Ratio (z) = -0.05399 0.17579
#
# Static dielectric constant tensor:
#      x y z
#    x 5.295560 0.000000 0.000000 
#    y 0.000000 5.870330 0.000000 
#    z 0.000000 0.000000 6.479650 
# 
# 
# High freq. dielectric constant tensor:
#      x y z
#    x 2.231200 0.000000 0.000000 
#    y 0.000000 2.269010 0.000000 
#    z 0.000000 0.000000 2.298840 
# 
# From -- ./inp_files/6392.got.cif
#   From: 2010.03.12/outbox.cif.g09.slc.cpg/sg19_4_cif.got.tgz:6392.got - 2010.04.10 18:59:41.
