data_PCOD8157974
_publ_section_title
;
Structure prediction by ZEFSAII (Michael W. Deem and Ramdas Pophale) SiO2 
 PCOD8157974
Probable space group: C 2 2 21
;
_chemical_formula_sum "Si O2"
_cell_formula_units_Z 48
_cell_length_a 10.916187
_cell_length_b 13.743541
_cell_length_c 17.580880
_cell_angle_alpha 90.000000
_cell_angle_beta 90.000000
_cell_angle_gamma 90.000000
_cell_volume 2637.607802
_symmetry_space_group_name_H-M "C 2 2 21"
_symmetry_group_IT_number 20
_symmetry_cell_setting 'orthorhombic'
loop_
_space_group_symop_operation_xyz
x,y,z
-x,-y,1/2+z
x,-y,-z
-x,y,1/2-z
1/2+x,1/2+y,z
1/2-x,1/2-y,1/2+z
1/2+x,1/2-y,-z
1/2-x,1/2+y,1/2-z
loop_
_atom_site_type_symbol
_atom_site_label
_atom_site_fract_x
_atom_site_fract_y
_atom_site_fract_z
Si Si1 0.620517 0.106599 0.517524
Si Si2 0.780473 0.431800 0.653986
Si Si3 0.000000 0.609666 0.250000
Si Si4 0.284898 0.712657 0.640066
Si Si5 0.561852 0.242746 0.381955
Si Si6 0.134927 0.900019 0.281949
Si Si7 0.613714 0.000000 0.000000
O O1 0.691437 0.155586 0.586375
O O2 0.627205 0.183973 0.448935
O O3 0.682268 0.000000 0.500000
O O4 0.475501 0.086030 0.533009
O O5 0.907301 0.453339 0.699216
O O6 0.735220 0.320559 0.658073
O O7 0.678214 0.492971 0.696774
O O8 0.799246 0.461386 0.566472
O O9 0.075836 0.678518 0.306131
O O10 0.419610 0.728142 0.602153
O O11 0.283305 0.650616 0.717352
O O12 0.637988 0.339706 0.361524
O O13 0.000000 0.908811 0.250000
#
# Coordination Sequence:
#
# PCOD8157974 Si02
#       7
#     8   8   4   8   8   8   4
#     4  10  21  35  59  86 117 145 196 240 282 347
#     4  11  22  37  62  86 118 152 194 243 292 340
#     4  10  16  38  62  80 106 160 194 230 284 344
#     4  10  20  38  59  84 116 151 187 243 285 344
#     4  10  18  38  58  80 113 157 195 223 298 354
#     4  10  22  38  61  82 114 159 197 233 290 354
#     4  10  22  38  56  90 114 150 196 240 284 350
#
# _framework density 18.198308000000001
#
# number of rings (size 3 to 8) (size 9 to 14) (size 15 to 20)
#    0.500    1.333    7.500    0.000    7.000    0.000 
#    0.000    5.000    0.000    0.000    0.000    0.000 
#    0.000    0.000    0.000    0.000    0.000    0.000 
#
# Total GULP energy -297365.931532 kJ/mol
# GULP energy per Si atom -12390.247147 kJ/mol
# Density = 1.815689 g / cm^3
# Si number density = 18.198308 Si / 1000 Ang^3
#
#
#
# Elastic Constant Matrix: (Units=GPa)
#
#
# Indices 1 2 3 4 5 6 
#
# 1 33.7771 44.1627 37.7572 0.0000 0.0000 0.0000
# 2 44.1627 137.8675 63.3497 0.0000 0.0000 0.0000
# 3 37.7572 63.3497 83.5515 0.0000 0.0000 0.0000
# 4 0.0000 0.0000 0.0000 33.5103 0.0000 0.0000
# 5 0.0000 0.0000 0.0000 0.0000 29.1287 0.0000
# 6 0.0000 0.0000 0.0000 0.0000 0.0000 45.1673
#
#
#
# Elastic Compliance Matrix: (Units=1/GPa)
#
#
# Indices 1 2 3 4 5 6 
#
# 1 0.071285 -0.012327 -0.022868 0.000000 0.000000 0.000000
# 2 -0.012327 0.013263 -0.004486 0.000000 0.000000 0.000000
# 3 -0.022868 -0.004486 0.025704 0.000000 0.000000 0.000000
# 4 0.000000 0.000000 0.000000 0.029842 0.000000 0.000000
# 5 0.000000 0.000000 0.000000 0.000000 0.034330 0.000000
# 6 0.000000 0.000000 0.000000 0.000000 0.000000 0.022140
#
#
# Mechanical properties :
#
#
# Convention : Reuss Voigt Hill
#
# Bulk Modulus (GPa) = 32.37122 60.63729 46.50425
# Shear Modulus (GPa) = 17.46895 28.88969 23.17932
#
# Velocity S-wave (km/s) = 3.10162 3.98866 3.57278
# Velocity P-wave (km/s) = 5.53655 7.38953 6.52911
#
# Compressibility (1/GPa) = 0.03089164
#
# Stress axis : x y z
#
# Youngs Moduli (GPa) = 14.02810 75.39672 38.90493
#
# Poissons Ratio (x) = 0.92942 0.88966
# Poissons Ratio (y) = 0.17293 0.17451
# Poissons Ratio (z) = 0.32079 0.33820
#
# Static dielectric constant tensor:
#      x y z
#    x 3.080810 0.000000 0.000000 
#    y 0.000000 3.516380 0.000000 
#    z 0.000000 0.000000 2.449300 
# 
# 
# High freq. dielectric constant tensor:
#      x y z
#    x 1.672350 0.000000 0.000000 
#    y 0.000000 1.710420 0.000000 
#    z 0.000000 0.000000 1.705400 
# 
# From -- ./inp_files/24274.got.cif
#   From: 2010.03.12/outbox.cif.g09.slc.cpg/sg20_13_cif.got.tgz:24274.got - 2010.04.14 01:38:04.
