data_PCOD8157328
_publ_section_title
;
Structure prediction by ZEFSAII (Michael W. Deem and Ramdas Pophale) SiO2 
 PCOD8157328
Probable space group: P 21 21 21
;
_chemical_formula_sum "Si O2"
_cell_formula_units_Z 16
_cell_length_a 13.171059
_cell_length_b 7.641134
_cell_length_c 6.719933
_cell_angle_alpha 90.000000
_cell_angle_beta 90.000000
_cell_angle_gamma 90.000000
_cell_volume 676.306333
_symmetry_space_group_name_H-M "P 21 21 21"
_symmetry_group_IT_number 19
_symmetry_cell_setting 'orthorhombic'
loop_
_space_group_symop_operation_xyz
x,y,z
1/2-x,-y,1/2+z
1/2+x,1/2-y,-z
-x,1/2+y,1/2-z
loop_
_atom_site_type_symbol
_atom_site_label
_atom_site_fract_x
_atom_site_fract_y
_atom_site_fract_z
Si Si1 0.927105 0.865259 0.924080
Si Si2 0.393946 0.537138 0.654763
Si Si3 0.419752 0.011121 0.128461
Si Si4 0.799501 0.173564 0.023415
O O1 0.877864 0.685841 0.833704
O O2 0.038329 0.900914 0.830252
O O3 0.855626 0.033081 0.876023
O O4 0.936089 0.843214 0.163893
O O5 0.487366 0.478438 0.522300
O O6 0.320470 0.653077 0.513939
O O7 0.333547 0.369727 0.749076
O O8 0.331813 0.130245 0.035023
#
# Coordination Sequence:
#
# PCOD8157328 Si02
#       4
#     4   4   4   4
#     4  10  23  37  66  90 123 170 203 262 315 376
#     4  10  23  44  63  96 130 171 208 271 318 368
#     4  12  21  45  66  96 127 170 219 254 323 379
#     4  10  23  42  65  92 134 165 208 273 308 383
#
# _framework density 23.657921000000002
#
# number of rings (size 3 to 8) (size 9 to 14) (size 15 to 20)
#    1.500    0.000    2.500    3.000    0.000    0.000 
#    9.000    0.000    0.000    0.000    0.000    0.000 
#    0.000    0.000    0.000    0.000    0.000    0.000 
#
# Total GULP energy -198270.714104 kJ/mol
# GULP energy per Si atom -12391.919632 kJ/mol
# Density = 2.360407 g / cm^3
# Si number density = 23.657921 Si / 1000 Ang^3
#
#
#
# Elastic Constant Matrix: (Units=GPa)
#
#
# Indices 1 2 3 4 5 6 
#
# 1 23.4452 -3.3777 4.9646 0.0000 0.0000 0.0000
# 2 -3.3777 132.4869 5.0496 0.0000 0.0000 0.0000
# 3 4.9646 5.0496 72.3945 0.0000 0.0000 0.0000
# 4 0.0000 0.0000 0.0000 24.6033 0.0000 0.0000
# 5 0.0000 0.0000 0.0000 0.0000 32.0519 0.0000
# 6 0.0000 0.0000 0.0000 0.0000 0.0000 29.2725
#
#
#
# Elastic Compliance Matrix: (Units=1/GPa)
#
#
# Indices 1 2 3 4 5 6 
#
# 1 0.043479 0.001225 -0.003067 0.000000 0.000000 0.000000
# 2 0.001225 0.007603 -0.000614 0.000000 0.000000 0.000000
# 3 -0.003067 -0.000614 0.014066 0.000000 0.000000 0.000000
# 4 0.000000 0.000000 0.000000 0.040645 0.000000 0.000000
# 5 0.000000 0.000000 0.000000 0.000000 0.031199 0.000000
# 6 0.000000 0.000000 0.000000 0.000000 0.000000 0.034162
#
#
# Mechanical properties :
#
#
# Convention : Reuss Voigt Hill
#
# Bulk Modulus (GPa) = 16.60149 26.84439 21.72294
# Shear Modulus (GPa) = 25.49144 31.96488 28.72816
#
# Velocity S-wave (km/s) = 3.28609 3.67976 3.48848
# Velocity P-wave (km/s) = 4.62930 5.42454 5.04262
#
# Compressibility (1/GPa) = 0.06023556
#
# Stress axis : x y z
#
# Youngs Moduli (GPa) = 22.99979 131.53447 71.09153
#
# Poissons Ratio (x) = -0.16118 0.21804
# Poissons Ratio (y) = -0.02818 0.04367
# Poissons Ratio (z) = 0.07054 0.08080
#
# Static dielectric constant tensor:
#      x y z
#    x 3.782870 0.000000 0.000000 
#    y 0.000000 4.063870 0.000000 
#    z 0.000000 0.000000 4.061220 
# 
# 
# High freq. dielectric constant tensor:
#      x y z
#    x 1.911480 0.000000 0.000000 
#    y 0.000000 1.927530 0.000000 
#    z 0.000000 0.000000 1.936620 
# 
# From -- ./inp_files/287.got.cif
#   From: 2010.03.12/outbox.cif.g09.slc.cpg/sg19_1_cif.got.tgz:287.got - 2010.04.10 18:59:41.
