data_PCOD8157556
_publ_section_title
;
Structure prediction by ZEFSAII (Michael W. Deem and Ramdas Pophale) SiO2 
 PCOD8157556
Probable space group: P 21 21 21
;
_chemical_formula_sum "Si O2"
_cell_formula_units_Z 32
_cell_length_a 9.877491
_cell_length_b 7.626467
_cell_length_c 20.131354
_cell_angle_alpha 90.000000
_cell_angle_beta 90.000000
_cell_angle_gamma 90.000000
_cell_volume 1516.502127
_symmetry_space_group_name_H-M "P 21 21 21"
_symmetry_group_IT_number 19
_symmetry_cell_setting 'orthorhombic'
loop_
_space_group_symop_operation_xyz
x,y,z
1/2-x,-y,1/2+z
1/2+x,1/2-y,-z
-x,1/2+y,1/2-z
loop_
_atom_site_type_symbol
_atom_site_label
_atom_site_fract_x
_atom_site_fract_y
_atom_site_fract_z
Si Si1 0.078722 0.776182 0.432031
Si Si2 0.492999 0.841291 0.919754
Si Si3 0.321116 0.009789 0.747677
Si Si4 0.259339 0.132103 0.610343
Si Si5 0.395682 0.384986 0.797571
Si Si6 0.747823 0.208619 0.659600
Si Si7 0.854586 0.597180 0.512011
Si Si8 0.979796 0.263952 0.569239
O O1 0.065019 0.629591 0.375419
O O2 0.234820 0.788715 0.455511
O O3 0.976901 0.724172 0.490980
O O4 0.029937 0.958093 0.399797
O O5 0.617538 0.766753 0.877318
O O6 0.360859 0.732215 0.899708
O O7 0.522835 0.828604 0.997833
O O8 0.247083 0.012619 0.676137
O O9 0.322903 0.208108 0.774442
O O10 0.471524 0.927286 0.745222
O O11 0.235926 0.885183 0.796559
O O12 0.130374 0.255385 0.598124
O O13 0.285363 0.006267 0.548296
O O14 0.291762 0.547804 0.791975
O O15 0.887011 0.161515 0.622298
O O16 0.921829 0.461601 0.563968
#
# Coordination Sequence:
#
# PCOD8157556 Si02
#       8
#     4   4   4   4   4   4   4   4
#     4  12  24  39  65 105 139 169 227 283 352 412
#     4  11  20  41  69  97 130 174 225 283 339 404
#     4  12  23  43  65  97 134 171 240 277 330 417
#     4  11  23  42  66  94 130 180 226 275 349 412
#     4  12  23  39  70  96 123 177 232 284 327 400
#     4  12  24  45  70  98 135 181 226 288 339 405
#     4  11  24  41  64 105 136 175 221 289 346 419
#     4  11  23  44  65  96 137 175 221 285 356 411
#
# _framework density 21.101189000000002
#
# number of rings (size 3 to 8) (size 9 to 14) (size 15 to 20)
#    0.000    0.500    7.500    1.500    3.500    0.000 
#    2.250    0.000    0.000    0.000    0.000    0.000 
#    0.000    0.000    0.000    0.000    0.000    0.000 
#
# Total GULP energy -396912.958761 kJ/mol
# GULP energy per Si atom -12403.529961 kJ/mol
# Density = 2.105316 g / cm^3
# Si number density = 21.101189 Si / 1000 Ang^3
#
#
#
# Elastic Constant Matrix: (Units=GPa)
#
#
# Indices 1 2 3 4 5 6 
#
# 1 103.1880 18.8848 18.6410 0.0000 0.0000 0.0000
# 2 18.8848 93.2504 12.5991 0.0000 0.0000 0.0000
# 3 18.6410 12.5991 72.2857 0.0000 0.0000 0.0000
# 4 0.0000 0.0000 0.0000 35.3810 0.0000 0.0000
# 5 0.0000 0.0000 0.0000 0.0000 24.6161 0.0000
# 6 0.0000 0.0000 0.0000 0.0000 0.0000 26.0143
#
#
#
# Elastic Compliance Matrix: (Units=1/GPa)
#
#
# Indices 1 2 3 4 5 6 
#
# 1 0.010450 -0.001794 -0.002382 0.000000 0.000000 0.000000
# 2 -0.001794 0.011291 -0.001505 0.000000 0.000000 0.000000
# 3 -0.002382 -0.001505 0.014711 0.000000 0.000000 0.000000
# 4 0.000000 0.000000 0.000000 0.028264 0.000000 0.000000
# 5 0.000000 0.000000 0.000000 0.000000 0.040624 0.000000
# 6 0.000000 0.000000 0.000000 0.000000 0.000000 0.038440
#
#
# Mechanical properties :
#
#
# Convention : Reuss Voigt Hill
#
# Bulk Modulus (GPa) = 39.86008 40.99710 40.42859
# Shear Modulus (GPa) = 30.58016 31.77555 31.17785
#
# Velocity S-wave (km/s) = 3.81099 3.88476 3.84805
# Velocity P-wave (km/s) = 6.18836 6.29228 6.24054
#
# Compressibility (1/GPa) = 0.02508776
#
# Stress axis : x y z
#
# Youngs Moduli (GPa) = 95.69586 88.56938 67.97808
#
# Poissons Ratio (x) = 0.15893 0.16193
# Poissons Ratio (y) = 0.17172 0.10232
# Poissons Ratio (z) = 0.22795 0.13331
#
# Static dielectric constant tensor:
#      x y z
#    x 3.727290 0.000000 0.000000 
#    y 0.000000 3.807050 0.000000 
#    z 0.000000 0.000000 3.812900 
# 
# 
# High freq. dielectric constant tensor:
#      x y z
#    x 1.812440 0.000000 0.000000 
#    y 0.000000 1.828710 0.000000 
#    z 0.000000 0.000000 1.828830 
# 
# From -- ./inp_files/7043.got.cif
#   From: 2010.03.12/outbox.cif.g09.slc.cpg/sg19_4_cif.got.tgz:7043.got - 2010.04.10 18:59:41.
