data_PCOD8157346
_publ_section_title
;
Structure prediction by ZEFSAII (Michael W. Deem and Ramdas Pophale) SiO2 
 PCOD8157346
Probable space group: P 21 21 21
;
_chemical_formula_sum "Si O2"
_cell_formula_units_Z 28
_cell_length_a 5.148515
_cell_length_b 11.476378
_cell_length_c 19.396759
_cell_angle_alpha 90.000000
_cell_angle_beta 90.000000
_cell_angle_gamma 90.000000
_cell_volume 1146.082804
_symmetry_space_group_name_H-M "P 21 21 21"
_symmetry_group_IT_number 19
_symmetry_cell_setting 'orthorhombic'
loop_
_space_group_symop_operation_xyz
x,y,z
1/2-x,-y,1/2+z
1/2+x,1/2-y,-z
-x,1/2+y,1/2-z
loop_
_atom_site_type_symbol
_atom_site_label
_atom_site_fract_x
_atom_site_fract_y
_atom_site_fract_z
Si Si1 0.599198 0.213176 0.088527
Si Si2 0.604969 0.148457 0.931318
Si Si3 0.498761 0.889382 0.933110
Si Si4 0.543928 0.064798 0.218288
Si Si5 0.808167 0.265163 0.678261
Si Si6 0.955694 0.428210 0.298579
Si Si7 0.804790 0.657777 0.920205
O O1 0.870267 0.278995 0.103639
O O2 0.538209 0.106774 0.139415
O O3 0.373424 0.306680 0.099070
O O4 0.591043 0.158433 0.013221
O O5 0.608422 0.013519 0.910113
O O6 0.283218 0.859821 0.876806
O O7 0.719627 0.790749 0.936191
O O8 0.373454 0.903871 0.008686
O O9 0.502922 0.174835 0.268193
O O10 0.833772 0.018462 0.230426
O O11 0.320271 0.967492 0.234046
O O12 0.566772 0.202134 0.719020
O O13 0.960720 0.163822 0.635767
O O14 0.918906 0.420113 0.382764
#
# Coordination Sequence:
#
# PCOD8157346 Si02
#       7
#     4   4   4   4   4   4   4
#     4  10  23  44  63 100 132 177 236 286 331 434
#     4  10  23  41  68  96 133 176 233 286 352 395
#     4  11  24  40  74 100 148 182 233 304 361 409
#     4  12  26  46  74  97 144 193 229 289 364 423
#     4  11  27  46  69 110 142 180 246 291 352 435
#     4  11  26  46  72 101 136 192 232 286 353 438
#     4  11  23  47  68 112 137 186 243 296 355 432
#
# _framework density 24.431045000000001
#
# number of rings (size 3 to 8) (size 9 to 14) (size 15 to 20)
#    0.000    1.143    2.857    1.714    6.000    4.571 
#    0.000    0.000    0.000    0.000    0.000    0.000 
#    0.000    0.000    0.000    0.000    0.000    0.000 
#
# Total GULP energy -347119.786942 kJ/mol
# GULP energy per Si atom -12397.135248 kJ/mol
# Density = 2.437544 g / cm^3
# Si number density = 24.431045 Si / 1000 Ang^3
#
#
#
# Elastic Constant Matrix: (Units=GPa)
#
#
# Indices 1 2 3 4 5 6 
#
# 1 78.4147 -1.2119 7.0423 0.0000 0.0000 0.0000
# 2 -1.2119 61.3970 -2.5675 0.0000 0.0000 0.0000
# 3 7.0423 -2.5675 38.6130 0.0000 0.0000 0.0000
# 4 0.0000 0.0000 0.0000 29.5962 0.0000 0.0000
# 5 0.0000 0.0000 0.0000 0.0000 23.7050 0.0000
# 6 0.0000 0.0000 0.0000 0.0000 0.0000 45.2257
#
#
#
# Elastic Compliance Matrix: (Units=1/GPa)
#
#
# Indices 1 2 3 4 5 6 
#
# 1 0.012967 0.000157 -0.002354 0.000000 0.000000 0.000000
# 2 0.000157 0.016335 0.001057 0.000000 0.000000 0.000000
# 3 -0.002354 0.001057 0.026398 0.000000 0.000000 0.000000
# 4 0.000000 0.000000 0.000000 0.033788 0.000000 0.000000
# 5 0.000000 0.000000 0.000000 0.000000 0.042185 0.000000
# 6 0.000000 0.000000 0.000000 0.000000 0.000000 0.022111
#
#
# Mechanical properties :
#
#
# Convention : Reuss Voigt Hill
#
# Bulk Modulus (GPa) = 18.71954 20.55006 19.63480
# Shear Modulus (GPa) = 28.75721 31.38282 30.07002
#
# Velocity S-wave (km/s) = 3.43458 3.58795 3.51210
# Velocity P-wave (km/s) = 4.83810 5.05907 4.94982
#
# Compressibility (1/GPa) = 0.05342011
#
# Stress axis : x y z
#
# Youngs Moduli (GPa) = 77.12127 61.21909 37.88206
#
# Poissons Ratio (x) = -0.00964 0.08919
# Poissons Ratio (y) = -0.01215 -0.04006
# Poissons Ratio (z) = 0.18157 -0.06473
#
# Static dielectric constant tensor:
#      x y z
#    x 4.568330 0.000000 0.000000 
#    y 0.000000 4.297770 0.000000 
#    z 0.000000 0.000000 4.233920 
# 
# 
# High freq. dielectric constant tensor:
#      x y z
#    x 1.979050 0.000000 0.000000 
#    y 0.000000 1.972690 0.000000 
#    z 0.000000 0.000000 1.958550 
# 
# From -- ./inp_files/6419.got.cif
#   From: 2010.03.12/outbox.cif.g09.slc.cpg/sg19_4_cif.got.tgz:6419.got - 2010.04.10 18:59:41.
