data_PCOD8157591
_publ_section_title
;
Structure prediction by ZEFSAII (Michael W. Deem and Ramdas Pophale) SiO2 
 PCOD8157591
Probable space group: P 21 21 21
;
_chemical_formula_sum "Si O2"
_cell_formula_units_Z 32
_cell_length_a 13.792570
_cell_length_b 8.649407
_cell_length_c 14.235016
_cell_angle_alpha 90.000000
_cell_angle_beta 90.000000
_cell_angle_gamma 90.000000
_cell_volume 1698.202554
_symmetry_space_group_name_H-M "P 21 21 21"
_symmetry_group_IT_number 19
_symmetry_cell_setting 'orthorhombic'
loop_
_space_group_symop_operation_xyz
x,y,z
1/2-x,-y,1/2+z
1/2+x,1/2-y,-z
-x,1/2+y,1/2-z
loop_
_atom_site_type_symbol
_atom_site_label
_atom_site_fract_x
_atom_site_fract_y
_atom_site_fract_z
Si Si1 0.075689 0.618333 0.250001
Si Si2 0.782189 0.177304 0.893386
Si Si3 0.282188 0.322694 0.393388
Si Si4 0.371373 0.828629 0.250001
Si Si5 0.923597 0.313910 0.749999
Si Si6 0.733944 0.821475 0.607640
Si Si7 0.875611 0.769940 0.249999
Si Si8 0.266055 0.321475 0.607641
O O1 0.129160 0.684908 0.342285
O O2 0.076844 0.435862 0.250004
O O3 0.129159 0.684901 0.157714
O O4 0.962005 0.649213 0.250000
O O5 0.879657 0.236514 0.843822
O O6 0.690063 0.255020 0.842299
O O7 0.779009 0.992409 0.883728
O O8 0.781147 0.231132 0.000926
O O9 0.379658 0.263487 0.343825
O O10 0.279005 0.507589 0.383729
O O11 0.190064 0.244973 0.342298
O O12 0.281145 0.268866 0.500927
O O13 0.462198 0.713536 0.249999
O O14 0.307687 0.796377 0.342865
O O15 0.307684 0.796380 0.157139
O O16 0.405135 0.004152 0.250002
#
# Coordination Sequence:
#
# PCOD8157591 Si02
#       8
#     4   4   4   4   4   4   4   4
#     4   9  18  32  51  75 103 133 165 207 258 310
#     4   9  19  37  57  77 104 138 177 222 269 314
#     4   9  19  37  57  77 104 138 177 222 269 314
#     4  11  22  36  55  79 109 143 181 223 266 318
#     4  11  22  36  55  79 109 143 181 223 266 318
#     4   9  19  37  57  77 104 138 177 222 269 314
#     4   9  18  32  51  75 103 133 165 207 258 310
#     4   9  19  37  57  77 104 138 177 222 269 314
#
# _framework density 18.843451999999999
#
# number of rings (size 3 to 8) (size 9 to 14) (size 15 to 20)
#    0.000    2.500    0.000    3.750    0.000    7.000 
#    0.000    5.000    0.000    0.000    0.000    0.000 
#    0.000    0.000    0.000    0.000    0.000    0.000 
#
# Total GULP energy -396841.322318 kJ/mol
# GULP energy per Si atom -12401.291322 kJ/mol
# Density = 1.880056 g / cm^3
# Si number density = 18.843452 Si / 1000 Ang^3
#
#
#
# Elastic Constant Matrix: (Units=GPa)
#
#
# Indices 1 2 3 4 5 6 
#
# 1 56.7834 -7.8518 22.9849 0.0000 0.0000 0.0000
# 2 -7.8518 31.4902 12.9084 0.0000 0.0000 0.0000
# 3 22.9849 12.9084 160.6374 0.0000 0.0000 0.0000
# 4 0.0000 0.0000 0.0000 14.3672 0.0000 0.0000
# 5 0.0000 0.0000 0.0000 0.0000 11.2781 0.0000
# 6 0.0000 0.0000 0.0000 0.0000 0.0000 36.3211
#
#
#
# Elastic Compliance Matrix: (Units=1/GPa)
#
#
# Indices 1 2 3 4 5 6 
#
# 1 0.019839 0.006318 -0.003346 0.000000 0.000000 0.000000
# 2 0.006318 0.034850 -0.003705 0.000000 0.000000 0.000000
# 3 -0.003346 -0.003705 0.007002 0.000000 0.000000 0.000000
# 4 0.000000 0.000000 0.000000 0.069603 0.000000 0.000000
# 5 0.000000 0.000000 0.000000 0.000000 0.088668 0.000000
# 6 0.000000 0.000000 0.000000 0.000000 0.000000 0.027532
#
#
# Mechanical properties :
#
#
# Convention : Reuss Voigt Hill
#
# Bulk Modulus (GPa) = 16.60419 33.88820 25.24620
# Shear Modulus (GPa) = 18.58504 27.11792 22.85148
#
# Velocity S-wave (km/s) = 3.14393 3.79768 3.48616
# Velocity P-wave (km/s) = 4.69146 6.10352 5.44347
#
# Compressibility (1/GPa) = 0.06022575
#
# Stress axis : x y z
#
# Youngs Moduli (GPa) = 50.40567 28.69445 142.82224
#
# Poissons Ratio (x) = -0.18130 0.47794
# Poissons Ratio (y) = -0.31849 0.52909
# Poissons Ratio (z) = 0.16868 0.10630
#
# Static dielectric constant tensor:
#      x y z
#    x 3.399960 0.000000 0.000000 
#    y 0.000000 3.266100 0.000000 
#    z 0.000000 0.000000 3.703020 
# 
# 
# High freq. dielectric constant tensor:
#      x y z
#    x 1.730730 0.000000 0.000000 
#    y 0.000000 1.723320 0.000000 
#    z 0.000000 0.000000 1.734880 
# 
# From -- ./inp_files/6134.got.cif
#   From: 2010.03.12/outbox.cif.g09.slc.cpg/sg19_4_cif.got.tgz:6134.got - 2010.04.10 18:59:41.
