data_PCOD8157743
_publ_section_title
;
Structure prediction by ZEFSAII (Michael W. Deem and Ramdas Pophale) SiO2 
 PCOD8157743
Probable space group: P 21 21 21
;
_chemical_formula_sum "Si O2"
_cell_formula_units_Z 28
_cell_length_a 23.839477
_cell_length_b 5.292669
_cell_length_c 9.574529
_cell_angle_alpha 90.000000
_cell_angle_beta 90.000000
_cell_angle_gamma 90.000000
_cell_volume 1208.061035
_symmetry_space_group_name_H-M "P 21 21 21"
_symmetry_group_IT_number 19
_symmetry_cell_setting 'orthorhombic'
loop_
_space_group_symop_operation_xyz
x,y,z
1/2-x,-y,1/2+z
1/2+x,1/2-y,-z
-x,1/2+y,1/2-z
loop_
_atom_site_type_symbol
_atom_site_label
_atom_site_fract_x
_atom_site_fract_y
_atom_site_fract_z
Si Si1 0.511055 0.660931 0.020575
Si Si2 0.596499 0.870816 0.501640
Si Si3 0.706011 0.836725 0.350124
Si Si4 0.165465 0.186155 0.777027
Si Si5 0.890690 0.287997 0.303740
Si Si6 0.666858 0.227251 0.908970
Si Si7 0.945585 0.518639 0.798553
O O1 0.448181 0.592674 0.967775
O O2 0.538267 0.475494 0.135178
O O3 0.500056 0.916657 0.108487
O O4 0.551656 0.692671 0.890264
O O5 0.662860 0.918473 0.474433
O O6 0.593086 0.704046 0.641461
O O7 0.576271 0.745399 0.356970
O O8 0.691379 0.587360 0.260131
O O9 0.766379 0.796783 0.416033
O O10 0.707819 0.083075 0.250646
O O11 0.107058 0.216736 0.689067
O O12 0.146905 0.200738 0.937149
O O13 0.851511 0.533523 0.316878
O O14 0.859732 0.030465 0.349525
#
# Coordination Sequence:
#
# PCOD8157743 Si02
#       7
#     4   4   4   4   4   4   4
#     4  12  25  45  76 103 146 195 244 306 361 442
#     4  11  28  47  71 111 144 194 244 308 368 435
#     4  11  26  46  78 101 143 188 249 302 360 430
#     4  11  24  48  72 109 136 190 249 295 356 433
#     4  12  31  47  74 110 152 194 238 305 379 438
#     4  12  28  49  74 106 148 195 241 306 365 444
#     4  11  24  44  75 102 143 188 251 294 359 430
#
# _framework density 23.177638000000002
#
# number of rings (size 3 to 8) (size 9 to 14) (size 15 to 20)
#    0.000    0.571    4.286    1.714   14.000    0.000 
#    0.000    0.000    0.000    0.000    0.000    0.000 
#    0.000    0.000    0.000    0.000    0.000    0.000 
#
# Total GULP energy -346900.909712 kJ/mol
# GULP energy per Si atom -12389.318204 kJ/mol
# Density = 2.312489 g / cm^3
# Si number density = 23.177638 Si / 1000 Ang^3
#
#
#
# Elastic Constant Matrix: (Units=GPa)
#
#
# Indices 1 2 3 4 5 6 
#
# 1 133.1307 40.2201 32.2419 0.0000 0.0000 0.0000
# 2 40.2201 132.9528 15.4316 0.0000 0.0000 0.0000
# 3 32.2419 15.4316 102.6342 0.0000 0.0000 0.0000
# 4 0.0000 0.0000 0.0000 28.6330 0.0000 0.0000
# 5 0.0000 0.0000 0.0000 0.0000 30.5648 0.0000
# 6 0.0000 0.0000 0.0000 0.0000 0.0000 36.2705
#
#
#
# Elastic Compliance Matrix: (Units=1/GPa)
#
#
# Indices 1 2 3 4 5 6 
#
# 1 0.008816 -0.002387 -0.002411 0.000000 0.000000 0.000000
# 2 -0.002387 0.008301 -0.000498 0.000000 0.000000 0.000000
# 3 -0.002411 -0.000498 0.010576 0.000000 0.000000 0.000000
# 4 0.000000 0.000000 0.000000 0.034925 0.000000 0.000000
# 5 0.000000 0.000000 0.000000 0.000000 0.032717 0.000000
# 6 0.000000 0.000000 0.000000 0.000000 0.000000 0.027571
#
#
# Mechanical properties :
#
#
# Convention : Reuss Voigt Hill
#
# Bulk Modulus (GPa) = 58.47583 60.50054 59.48818
# Shear Modulus (GPa) = 35.91980 37.81527 36.86754
#
# Velocity S-wave (km/s) = 3.94097 4.04362 3.99262
# Velocity P-wave (km/s) = 6.78178 6.92537 6.85395
#
# Compressibility (1/GPa) = 0.01710108
#
# Stress axis : x y z
#
# Youngs Moduli (GPa) = 113.42406 120.46034 94.55765
#
# Poissons Ratio (x) = 0.28758 0.22795
# Poissons Ratio (y) = 0.27078 0.04711
# Poissons Ratio (z) = 0.27343 0.06002
#
# Static dielectric constant tensor:
#      x y z
#    x 4.475930 0.000000 0.000000 
#    y 0.000000 4.106140 0.000000 
#    z 0.000000 0.000000 4.113850 
# 
# 
# High freq. dielectric constant tensor:
#      x y z
#    x 1.931650 0.000000 0.000000 
#    y 0.000000 1.915750 0.000000 
#    z 0.000000 0.000000 1.914650 
# 
# From -- ./inp_files/531.got.cif
#   From: 2010.03.12/outbox.cif.g09.slc.cpg/sg19_1_cif.got.tgz:531.got - 2010.04.10 18:59:41.
