data_PCOD8157289
_publ_section_title
;
Structure prediction by ZEFSAII (Michael W. Deem and Ramdas Pophale) SiO2 
 PCOD8157289
Probable space group: P 21 21 21
;
_chemical_formula_sum "Si O2"
_cell_formula_units_Z 32
_cell_length_a 8.347449
_cell_length_b 14.633417
_cell_length_c 12.258626
_cell_angle_alpha 90.000000
_cell_angle_beta 90.000000
_cell_angle_gamma 90.000000
_cell_volume 1497.412031
_symmetry_space_group_name_H-M "P 21 21 21"
_symmetry_group_IT_number 19
_symmetry_cell_setting 'orthorhombic'
loop_
_space_group_symop_operation_xyz
x,y,z
1/2-x,-y,1/2+z
1/2+x,1/2-y,-z
-x,1/2+y,1/2-z
loop_
_atom_site_type_symbol
_atom_site_label
_atom_site_fract_x
_atom_site_fract_y
_atom_site_fract_z
Si Si1 0.343591 0.386994 0.744103
Si Si2 0.688428 0.653533 0.979792
Si Si3 0.688428 0.153532 0.479793
Si Si4 0.134529 0.526289 0.856603
Si Si5 0.999999 0.880147 0.500000
Si Si6 0.656410 0.386994 0.255895
Si Si7 0.249999 0.750000 0.421708
Si Si8 0.634529 0.473711 0.643395
O O1 0.228665 0.349905 0.648363
O O2 0.273328 0.484890 0.781329
O O3 0.355282 0.315001 0.843004
O O4 0.526913 0.400089 0.706660
O O5 0.500000 0.642440 0.999999
O O6 0.728666 0.650095 0.851636
O O7 0.750000 0.750000 0.027814
O O8 0.784058 0.572360 0.038432
O O9 0.784058 0.072360 0.538433
O O10 0.016125 0.443925 0.893558
O O11 0.026913 0.599911 0.793338
O O12 0.151878 0.813399 0.504578
O O13 0.848119 0.813401 0.495422
O O14 0.016125 0.943925 0.393560
O O15 0.644719 0.315000 0.156994
O O16 0.726673 0.484889 0.218670
#
# Coordination Sequence:
#
# PCOD8157289 Si02
#       8
#     4   4   4   4   4   4   4   4
#     4  11  22  42  64  94 128 168 219 264 325 386
#     4  12  24  42  66  95 131 170 214 271 330 386
#     4  12  24  42  66  95 131 170 214 271 330 386
#     4  11  23  43  66  93 131 171 214 271 319 394
#     4  10  22  44  62  92 128 168 210 262 320 370
#     4  11  22  42  64  94 128 168 219 264 325 386
#     4  10  24  40  66  90 130 168 212 270 314 386
#     4  11  23  43  66  93 131 171 214 271 319 394
#
# _framework density 21.370204000000001
#
# number of rings (size 3 to 8) (size 9 to 14) (size 15 to 20)
#    0.000    1.000    3.750    3.000    0.000    2.000 
#    9.000    0.000    0.000    0.000    0.000    0.000 
#    0.000    0.000    0.000    0.000    0.000    0.000 
#
# Total GULP energy -396795.099859 kJ/mol
# GULP energy per Si atom -12399.846871 kJ/mol
# Density = 2.132156 g / cm^3
# Si number density = 21.370204 Si / 1000 Ang^3
#
#
#
# Elastic Constant Matrix: (Units=GPa)
#
#
# Indices 1 2 3 4 5 6 
#
# 1 95.6079 48.0370 34.5177 0.0000 0.0000 0.0000
# 2 48.0370 111.7261 30.7010 0.0000 0.0000 0.0000
# 3 34.5177 30.7010 64.0602 0.0000 0.0000 0.0000
# 4 0.0000 0.0000 0.0000 24.0958 0.0000 0.0000
# 5 0.0000 0.0000 0.0000 0.0000 25.4453 0.0000
# 6 0.0000 0.0000 0.0000 0.0000 0.0000 38.5724
#
#
#
# Elastic Compliance Matrix: (Units=1/GPa)
#
#
# Indices 1 2 3 4 5 6 
#
# 1 0.014974 -0.004861 -0.005739 0.000000 0.000000 0.000000
# 2 -0.004861 0.011886 -0.003077 0.000000 0.000000 0.000000
# 3 -0.005739 -0.003077 0.020177 0.000000 0.000000 0.000000
# 4 0.000000 0.000000 0.000000 0.041501 0.000000 0.000000
# 5 0.000000 0.000000 0.000000 0.000000 0.039300 0.000000
# 6 0.000000 0.000000 0.000000 0.000000 0.000000 0.025925
#
#
# Mechanical properties :
#
#
# Convention : Reuss Voigt Hill
#
# Bulk Modulus (GPa) = 50.80453 55.32286 53.06369
# Shear Modulus (GPa) = 26.64145 28.16529 27.40337
#
# Velocity S-wave (km/s) = 3.53464 3.63432 3.58483
# Velocity P-wave (km/s) = 6.36266 6.59963 6.48223
#
# Compressibility (1/GPa) = 0.01968328
#
# Stress axis : x y z
#
# Youngs Moduli (GPa) = 66.78427 84.13231 49.56097
#
# Poissons Ratio (x) = 0.40897 0.28441
# Poissons Ratio (y) = 0.32464 0.15250
# Poissons Ratio (z) = 0.38325 0.25889
#
# Static dielectric constant tensor:
#      x y z
#    x 3.737170 0.000000 0.000000 
#    y 0.000000 4.075700 0.000000 
#    z 0.000000 0.000000 3.722380 
# 
# 
# High freq. dielectric constant tensor:
#      x y z
#    x 1.830020 0.000000 0.000000 
#    y 0.000000 1.857130 0.000000 
#    z 0.000000 0.000000 1.828760 
# 
# From -- ./inp_files/4661.got.cif
#   From: 2010.03.12/outbox.cif.g09.slc.cpg/sg19_3_cif.got.tgz:4661.got - 2010.04.10 18:59:41.
