data_PCOD8157050
_publ_section_title
;
Structure prediction by ZEFSAII (Michael W. Deem and Ramdas Pophale) SiO2 
 PCOD8157050
Probable space group: P 21 21 21
;
_chemical_formula_sum "Si O2"
_cell_formula_units_Z 24
_cell_length_a 14.349714
_cell_length_b 11.411012
_cell_length_c 5.488983
_cell_angle_alpha 90.000000
_cell_angle_beta 90.000000
_cell_angle_gamma 90.000000
_cell_volume 898.792197
_symmetry_space_group_name_H-M "P 21 21 21"
_symmetry_group_IT_number 19
_symmetry_cell_setting 'orthorhombic'
loop_
_space_group_symop_operation_xyz
x,y,z
1/2-x,-y,1/2+z
1/2+x,1/2-y,-z
-x,1/2+y,1/2-z
loop_
_atom_site_type_symbol
_atom_site_label
_atom_site_fract_x
_atom_site_fract_y
_atom_site_fract_z
Si Si1 0.266663 0.930307 0.174586
Si Si2 0.592814 0.722344 0.755906
Si Si3 0.066427 0.221301 0.595045
Si Si4 0.376643 0.405110 0.159466
Si Si5 0.545248 0.079495 0.024818
Si Si6 0.309927 0.607502 0.844009
O O1 0.198260 0.815970 0.183389
O O2 0.257062 0.998945 0.429468
O O3 0.376076 0.895708 0.163157
O O4 0.540772 0.784529 0.987945
O O5 0.586201 0.818934 0.544286
O O6 0.539583 0.602422 0.664968
O O7 0.058348 0.301136 0.830105
O O8 0.127522 0.277707 0.381764
O O9 0.467184 0.461984 0.302400
O O10 0.295814 0.344533 0.320043
O O11 0.318817 0.517965 0.066204
O O12 0.643384 0.048724 0.894637
#
# Coordination Sequence:
#
# PCOD8157050 Si02
#       6
#     4   4   4   4   4   4
#     4  12  32  55  85 119 173 226 282 342 434 510
#     4  11  28  48  79 117 160 218 277 344 421 498
#     4  10  26  50  76 109 158 212 275 343 407 503
#     4  11  22  41  76 110 152 202 268 343 409 483
#     4  10  23  44  71 109 153 197 271 339 405 488
#     4  10  21  40  71 110 142 191 263 329 404 476
#
# _framework density 26.702504000000001
#
# number of rings (size 3 to 8) (size 9 to 14) (size 15 to 20)
#    0.000    1.333    1.667    1.000   11.667    6.667 
#    0.000    0.000    0.000    0.000    0.000    0.000 
#    0.000    0.000    0.000    0.000    0.000    0.000 
#
# Total GULP energy -297388.901370 kJ/mol
# GULP energy per Si atom -12391.204224 kJ/mol
# Density = 2.664173 g / cm^3
# Si number density = 26.702504 Si / 1000 Ang^3
#
#
#
# Elastic Constant Matrix: (Units=GPa)
#
#
# Indices 1 2 3 4 5 6 
#
# 1 163.1647 22.9456 19.3523 0.0000 0.0000 0.0000
# 2 22.9456 73.7570 24.0645 0.0000 0.0000 0.0000
# 3 19.3523 24.0645 88.8137 0.0000 0.0000 0.0000
# 4 0.0000 0.0000 0.0000 51.1217 0.0000 0.0000
# 5 0.0000 0.0000 0.0000 0.0000 40.0821 0.0000
# 6 0.0000 0.0000 0.0000 0.0000 0.0000 26.5922
#
#
#
# Elastic Compliance Matrix: (Units=1/GPa)
#
#
# Indices 1 2 3 4 5 6 
#
# 1 0.006481 -0.001706 -0.000950 0.000000 0.000000 0.000000
# 2 -0.001706 0.015322 -0.003780 0.000000 0.000000 0.000000
# 3 -0.000950 -0.003780 0.012491 0.000000 0.000000 0.000000
# 4 0.000000 0.000000 0.000000 0.019561 0.000000 0.000000
# 5 0.000000 0.000000 0.000000 0.000000 0.024949 0.000000
# 6 0.000000 0.000000 0.000000 0.000000 0.000000 0.037605
#
#
# Mechanical properties :
#
#
# Convention : Reuss Voigt Hill
#
# Bulk Modulus (GPa) = 46.68111 50.94003 48.81057
# Shear Modulus (GPa) = 36.65096 40.85073 38.75085
#
# Velocity S-wave (km/s) = 3.70884 3.91557 3.81360
# Velocity P-wave (km/s) = 5.98836 6.28972 6.14089
#
# Compressibility (1/GPa) = 0.02142194
#
# Stress axis : x y z
#
# Youngs Moduli (GPa) = 154.28731 65.26516 80.05981
#
# Poissons Ratio (x) = 0.11137 0.07605
# Poissons Ratio (y) = 0.26328 0.30261
# Poissons Ratio (z) = 0.14656 0.24669
#
# Static dielectric constant tensor:
#      x y z
#    x 5.219350 0.000000 0.000000 
#    y 0.000000 4.760200 0.000000 
#    z 0.000000 0.000000 4.977310 
# 
# 
# High freq. dielectric constant tensor:
#      x y z
#    x 2.093320 0.000000 0.000000 
#    y 0.000000 2.072080 0.000000 
#    z 0.000000 0.000000 2.084090 
# 
# From -- ./inp_files/1425.got.cif
#   From: 2010.03.12/outbox.cif.g09.slc.cpg/sg19_1_cif.got.tgz:1425.got - 2010.04.10 18:59:41.
