data_PCOD8157250
_publ_section_title
;
Structure prediction by ZEFSAII (Michael W. Deem and Ramdas Pophale) SiO2 
 PCOD8157250
Probable space group: P 21 21 21
;
_chemical_formula_sum "Si O2"
_cell_formula_units_Z 32
_cell_length_a 22.068798
_cell_length_b 10.547637
_cell_length_c 5.483105
_cell_angle_alpha 90.000000
_cell_angle_beta 90.000000
_cell_angle_gamma 90.000000
_cell_volume 1276.322476
_symmetry_space_group_name_H-M "P 21 21 21"
_symmetry_group_IT_number 19
_symmetry_cell_setting 'orthorhombic'
loop_
_space_group_symop_operation_xyz
x,y,z
1/2-x,-y,1/2+z
1/2+x,1/2-y,-z
-x,1/2+y,1/2-z
loop_
_atom_site_type_symbol
_atom_site_label
_atom_site_fract_x
_atom_site_fract_y
_atom_site_fract_z
Si Si1 0.331992 0.923428 0.995764
Si Si2 0.063823 0.598121 0.741488
Si Si3 0.001936 0.929225 0.099809
Si Si4 0.791265 0.363061 0.292607
Si Si5 0.883744 0.350922 0.691075
Si Si6 0.222911 0.643262 0.515364
Si Si7 0.826960 0.031731 0.485161
Si Si8 0.539830 0.339964 0.575446
O O1 0.388006 0.827361 0.964665
O O2 0.310228 0.989830 0.743142
O O3 0.275206 0.845081 0.092916
O O4 0.350298 0.039237 0.167608
O O5 0.056145 0.497039 0.525326
O O6 0.100935 0.723735 0.649881
O O7 0.100305 0.528034 0.965100
O O8 0.997888 0.648138 0.825913
O O9 0.981289 0.791243 0.209918
O O10 0.028888 0.025728 0.294881
O O11 0.053315 0.907543 0.900720
O O12 0.842217 0.300813 0.466045
O O13 0.786195 0.293652 0.028220
O O14 0.294079 0.605147 0.496651
O O15 0.198886 0.611294 0.782802
O O16 0.186942 0.583435 0.284039
#
# Coordination Sequence:
#
# PCOD8157250 Si02
#       8
#     4   4   4   4   4   4   4   4
#     4  12  25  44  66 102 138 180 245 310 369 454
#     4  11  24  42  73  98 142 190 243 297 383 436
#     4  11  26  44  71 105 141 197 238 306 375 447
#     4  12  24  41  70  98 135 191 236 303 379 441
#     4  11  23  45  68  99 136 183 247 294 370 450
#     4  10  23  42  67  99 142 183 243 300 372 437
#     4  10  22  42  67 102 138 186 241 305 361 456
#     4  11  27  46  70 107 146 188 247 309 371 459
#
# _framework density 25.072035
#
# number of rings (size 3 to 8) (size 9 to 14) (size 15 to 20)
#    0.000    1.000    5.000    0.750    5.250    0.000 
#    0.000    1.250    0.000    0.000    0.000    0.000 
#    0.000    0.000    0.000    0.000    0.000    0.000 
#
# Total GULP energy -396452.502318 kJ/mol
# GULP energy per Si atom -12389.140697 kJ/mol
# Density = 2.501497 g / cm^3
# Si number density = 25.072035 Si / 1000 Ang^3
#
#
#
# Elastic Constant Matrix: (Units=GPa)
#
#
# Indices 1 2 3 4 5 6 
#
# 1 116.0286 15.0782 0.0003 0.0000 0.0000 0.0000
# 2 15.0782 106.1449 10.8260 0.0000 0.0000 0.0000
# 3 0.0003 10.8260 47.3853 0.0000 0.0000 0.0000
# 4 0.0000 0.0000 0.0000 39.1056 0.0000 0.0000
# 5 0.0000 0.0000 0.0000 0.0000 28.4608 0.0000
# 6 0.0000 0.0000 0.0000 0.0000 0.0000 41.2810
#
#
#
# Elastic Compliance Matrix: (Units=1/GPa)
#
#
# Indices 1 2 3 4 5 6 
#
# 1 0.008785 -0.001278 0.000292 0.000000 0.000000 0.000000
# 2 -0.001278 0.009832 -0.002246 0.000000 0.000000 0.000000
# 3 0.000292 -0.002246 0.021617 0.000000 0.000000 0.000000
# 4 0.000000 0.000000 0.000000 0.025572 0.000000 0.000000
# 5 0.000000 0.000000 0.000000 0.000000 0.035136 0.000000
# 6 0.000000 0.000000 0.000000 0.000000 0.000000 0.024224
#
#
# Mechanical properties :
#
#
# Convention : Reuss Voigt Hill
#
# Bulk Modulus (GPa) = 29.61294 35.70754 32.66024
# Shear Modulus (GPa) = 34.99303 38.01307 36.50305
#
# Velocity S-wave (km/s) = 3.73996 3.89801 3.81980
# Velocity P-wave (km/s) = 5.52146 5.87641 5.70170
#
# Compressibility (1/GPa) = 0.03376903
#
# Stress axis : x y z
#
# Youngs Moduli (GPa) = 113.83562 101.71203 46.26032
#
# Poissons Ratio (x) = 0.12995 -0.01350
# Poissons Ratio (y) = 0.14544 0.10391
# Poissons Ratio (z) = -0.03322 0.22847
#
# Static dielectric constant tensor:
#      x y z
#    x 5.150000 0.000000 0.000000 
#    y 0.000000 4.721610 0.000000 
#    z 0.000000 0.000000 4.206630 
# 
# 
# High freq. dielectric constant tensor:
#      x y z
#    x 2.017280 0.000000 0.000000 
#    y 0.000000 1.999280 0.000000 
#    z 0.000000 0.000000 1.979700 
# 
# From -- ./inp_files/2000.got.cif
#   From: 2010.03.12/outbox.cif.g09.slc.cpg/sg19_1_cif.got.tgz:2000.got - 2010.04.10 18:59:41.
