data_PCOD8157931
_publ_section_title
;
Structure prediction by ZEFSAII (Michael W. Deem and Ramdas Pophale) SiO2 
 PCOD8157931
Probable space group: P 21 21 21
;
_chemical_formula_sum "Si O2"
_cell_formula_units_Z 28
_cell_length_a 9.000164
_cell_length_b 5.106975
_cell_length_c 22.335441
_cell_angle_alpha 90.000000
_cell_angle_beta 90.000000
_cell_angle_gamma 90.000000
_cell_volume 1026.617556
_symmetry_space_group_name_H-M "P 21 21 21"
_symmetry_group_IT_number 19
_symmetry_cell_setting 'orthorhombic'
loop_
_space_group_symop_operation_xyz
x,y,z
1/2-x,-y,1/2+z
1/2+x,1/2-y,-z
-x,1/2+y,1/2-z
loop_
_atom_site_type_symbol
_atom_site_label
_atom_site_fract_x
_atom_site_fract_y
_atom_site_fract_z
Si Si1 0.097011 0.880835 0.077231
Si Si2 0.223207 0.282632 0.428070
Si Si3 0.034795 0.938221 0.785455
Si Si4 0.905646 0.740186 0.323310
Si Si5 0.152610 0.514201 0.604120
Si Si6 0.108710 0.214031 0.969406
Si Si7 0.651688 0.375049 0.691624
O O1 0.240346 0.694494 0.070220
O O2 0.946571 0.769386 0.046247
O O3 0.062272 0.952542 0.147541
O O4 0.124767 0.153940 0.040743
O O5 0.329472 0.495359 0.458913
O O6 0.210893 0.339821 0.356490
O O7 0.290254 0.996203 0.435664
O O8 0.203814 0.046986 0.790645
O O9 0.050484 0.664238 0.750218
O O10 0.962896 0.874095 0.850415
O O11 0.913919 0.752898 0.251696
O O12 0.746622 0.802437 0.351725
O O13 0.029685 0.949274 0.343661
O O14 0.061093 0.684629 0.555092
#
# Coordination Sequence:
#
# PCOD8157931 Si02
#       7
#     4   4   4   4   4   4   4
#     4  12  29  52  79 114 165 211 283 330 419 487
#     4  12  28  52  78 120 154 219 265 339 410 494
#     4  12  28  47  78 115 162 208 264 333 405 488
#     4  12  28  49  80 119 161 219 269 342 412 502
#     4  12  28  50  77 119 157 215 276 339 404 495
#     4  12  31  50  85 114 166 213 277 342 412 477
#     4  12  26  50  81 115 171 209 276 335 424 487
#
# _framework density 27.274031999999998
#
# number of rings (size 3 to 8) (size 9 to 14) (size 15 to 20)
#    0.000    0.000    4.286    3.429   10.000    0.000 
#    0.000    0.000    0.000    0.000    0.000    0.000 
#    0.000    0.000    0.000    0.000    0.000    0.000 
#
# Total GULP energy -347142.218153 kJ/mol
# GULP energy per Si atom -12397.936363 kJ/mol
# Density = 2.721196 g / cm^3
# Si number density = 27.274032 Si / 1000 Ang^3
#
#
#
# Elastic Constant Matrix: (Units=GPa)
#
#
# Indices 1 2 3 4 5 6 
#
# 1 141.9825 12.9028 11.7103 0.0000 0.0000 0.0000
# 2 12.9028 60.4449 -2.9495 0.0000 0.0000 0.0000
# 3 11.7103 -2.9495 116.7670 0.0000 0.0000 0.0000
# 4 0.0000 0.0000 0.0000 39.6421 0.0000 0.0000
# 5 0.0000 0.0000 0.0000 0.0000 43.1742 0.0000
# 6 0.0000 0.0000 0.0000 0.0000 0.0000 41.8142
#
#
#
# Elastic Compliance Matrix: (Units=1/GPa)
#
#
# Indices 1 2 3 4 5 6 
#
# 1 0.007250 -0.001585 -0.000767 0.000000 0.000000 0.000000
# 2 -0.001585 0.016911 0.000586 0.000000 0.000000 0.000000
# 3 -0.000767 0.000586 0.008656 0.000000 0.000000 0.000000
# 4 0.000000 0.000000 0.000000 0.025226 0.000000 0.000000
# 5 0.000000 0.000000 0.000000 0.000000 0.023162 0.000000
# 6 0.000000 0.000000 0.000000 0.000000 0.000000 0.023915
#
#
# Mechanical properties :
#
#
# Convention : Reuss Voigt Hill
#
# Bulk Modulus (GPa) = 34.14734 40.28017 37.21376
# Shear Modulus (GPa) = 42.22466 44.76148 43.49307
#
# Velocity S-wave (km/s) = 3.93894 4.05554 3.99766
# Velocity P-wave (km/s) = 5.76492 6.06058 5.91459
#
# Compressibility (1/GPa) = 0.02928486
#
# Stress axis : x y z
#
# Youngs Moduli (GPa) = 137.92254 59.13327 115.52934
#
# Poissons Ratio (x) = 0.09373 0.08863
# Poissons Ratio (y) = 0.21863 -0.06772
# Poissons Ratio (z) = 0.10581 -0.03466
#
# Static dielectric constant tensor:
#      x y z
#    x 5.301930 0.000000 0.000000 
#    y 0.000000 4.400790 0.000000 
#    z 0.000000 0.000000 5.102130 
# 
# 
# High freq. dielectric constant tensor:
#      x y z
#    x 2.129860 0.000000 0.000000 
#    y 0.000000 2.068590 0.000000 
#    z 0.000000 0.000000 2.117800 
# 
# From -- ./inp_files/7346.got.cif
#   From: 2010.03.12/outbox.cif.g09.slc.cpg/sg19_4_cif.got.tgz:7346.got - 2010.04.10 18:59:41.
