data_PCOD8157548
_publ_section_title
;
Structure prediction by ZEFSAII (Michael W. Deem and Ramdas Pophale) SiO2 
 PCOD8157548
Probable space group: P 21 21 21
;
_chemical_formula_sum "Si O2"
_cell_formula_units_Z 32
_cell_length_a 9.124683
_cell_length_b 13.523376
_cell_length_c 10.753993
_cell_angle_alpha 90.000000
_cell_angle_beta 90.000000
_cell_angle_gamma 90.000000
_cell_volume 1327.005303
_symmetry_space_group_name_H-M "P 21 21 21"
_symmetry_group_IT_number 19
_symmetry_cell_setting 'orthorhombic'
loop_
_space_group_symop_operation_xyz
x,y,z
1/2-x,-y,1/2+z
1/2+x,1/2-y,-z
-x,1/2+y,1/2-z
loop_
_atom_site_type_symbol
_atom_site_label
_atom_site_fract_x
_atom_site_fract_y
_atom_site_fract_z
Si Si1 0.377476 0.043475 0.310783
Si Si2 0.284511 0.846390 0.409781
Si Si3 0.886955 0.080908 0.359143
Si Si4 0.389004 0.676895 0.249328
Si Si5 0.877992 0.658385 0.313740
Si Si6 0.565535 0.307117 0.460352
Si Si7 0.523502 0.127145 0.819090
Si Si8 0.096618 0.863262 0.062383
O O1 0.505329 0.083464 0.216647
O O2 0.235019 0.108660 0.282203
O O3 0.434947 0.061798 0.450995
O O4 0.346481 0.925721 0.306373
O O5 0.329033 0.734105 0.370622
O O6 0.346394 0.874292 0.544853
O O7 0.107779 0.851892 0.417744
O O8 0.732323 0.136312 0.347947
O O9 0.966809 0.118973 0.233732
O O10 0.970453 0.099388 0.491760
O O11 0.869962 0.962233 0.358171
O O12 0.484487 0.758415 0.171161
O O13 0.872892 0.777566 0.306452
O O14 0.519020 0.227438 0.565574
O O15 0.736527 0.328296 0.450883
O O16 0.434461 0.089291 0.696227
#
# Coordination Sequence:
#
# PCOD8157548 Si02
#       8
#     4   4   4   4   4   4   4   4
#     4  11  26  43  74 106 138 190 245 289 352 432
#     4  12  25  45  71 102 151 192 229 301 363 429
#     4  12  23  44  72 100 134 186 238 292 360 435
#     4  11  26  45  68 103 146 177 242 308 348 418
#     4  12  25  45  73 103 145 189 240 291 363 437
#     4  11  18  39  68  92 128 174 227 287 342 405
#     4  12  24  44  73 103 140 189 234 292 370 424
#     4  11  19  39  69  99 130 175 235 288 338 412
#
# _framework density 24.114449
#
# number of rings (size 3 to 8) (size 9 to 14) (size 15 to 20)
#    0.000    0.500    7.500    0.750    1.750    2.000 
#    0.000    1.250    0.000    0.000    0.000    0.000 
#    0.000    0.000    0.000    0.000    0.000    0.000 
#
# Total GULP energy -396443.385214 kJ/mol
# GULP energy per Si atom -12388.855788 kJ/mol
# Density = 2.405956 g / cm^3
# Si number density = 24.114449 Si / 1000 Ang^3
#
#
#
# Elastic Constant Matrix: (Units=GPa)
#
#
# Indices 1 2 3 4 5 6 
#
# 1 69.1526 23.9528 2.0371 0.0000 0.0000 0.0000
# 2 23.9528 126.0997 9.1107 0.0000 0.0000 0.0000
# 3 2.0371 9.1107 66.5758 0.0000 0.0000 0.0000
# 4 0.0000 0.0000 0.0000 29.4111 0.0000 0.0000
# 5 0.0000 0.0000 0.0000 0.0000 18.9812 0.0000
# 6 0.0000 0.0000 0.0000 0.0000 0.0000 32.0520
#
#
#
# Elastic Compliance Matrix: (Units=1/GPa)
#
#
# Indices 1 2 3 4 5 6 
#
# 1 0.015480 -0.002935 -0.000072 0.000000 0.000000 0.000000
# 2 -0.002935 0.008566 -0.001082 0.000000 0.000000 0.000000
# 3 -0.000072 -0.001082 0.015171 0.000000 0.000000 0.000000
# 4 0.000000 0.000000 0.000000 0.034001 0.000000 0.000000
# 5 0.000000 0.000000 0.000000 0.000000 0.052684 0.000000
# 6 0.000000 0.000000 0.000000 0.000000 0.000000 0.031199
#
#
# Mechanical properties :
#
#
# Convention : Reuss Voigt Hill
#
# Bulk Modulus (GPa) = 32.21940 36.89216 34.55578
# Shear Modulus (GPa) = 28.46973 31.20401 29.83687
#
# Velocity S-wave (km/s) = 3.43973 3.60112 3.52135
# Velocity P-wave (km/s) = 5.40052 5.71163 5.55825
#
# Compressibility (1/GPa) = 0.03103721
#
# Stress axis : x y z
#
# Youngs Moduli (GPa) = 64.60128 116.74092 65.91611
#
# Poissons Ratio (x) = 0.34265 0.00475
# Poissons Ratio (y) = 0.18962 0.07135
# Poissons Ratio (z) = 0.00465 0.12636
#
# Static dielectric constant tensor:
#      x y z
#    x 4.191610 0.000000 0.000000 
#    y 0.000000 4.425440 0.000000 
#    z 0.000000 0.000000 4.249920 
# 
# 
# High freq. dielectric constant tensor:
#      x y z
#    x 1.939130 0.000000 0.000000 
#    y 0.000000 1.963160 0.000000 
#    z 0.000000 0.000000 1.944970 
# 
# From -- ./inp_files/4670.got.cif
#   From: 2010.03.12/outbox.cif.g09.slc.cpg/sg19_3_cif.got.tgz:4670.got - 2010.04.10 18:59:41.
