data_PCOD8157826
_publ_section_title
;
Structure prediction by ZEFSAII (Michael W. Deem and Ramdas Pophale) SiO2 
 PCOD8157826
Probable space group: P 21 21 21
;
_chemical_formula_sum "Si O2"
_cell_formula_units_Z 24
_cell_length_a 18.722386
_cell_length_b 5.954960
_cell_length_c 9.582956
_cell_angle_alpha 90.000000
_cell_angle_beta 90.000000
_cell_angle_gamma 90.000000
_cell_volume 1068.413920
_symmetry_space_group_name_H-M "P 21 21 21"
_symmetry_group_IT_number 19
_symmetry_cell_setting 'orthorhombic'
loop_
_space_group_symop_operation_xyz
x,y,z
1/2-x,-y,1/2+z
1/2+x,1/2-y,-z
-x,1/2+y,1/2-z
loop_
_atom_site_type_symbol
_atom_site_label
_atom_site_fract_x
_atom_site_fract_y
_atom_site_fract_z
Si Si1 0.223630 0.734979 0.903832
Si Si2 0.570483 0.610710 0.090887
Si Si3 0.810702 0.060099 0.884157
Si Si4 0.034164 0.973160 0.213215
Si Si5 0.848733 0.458746 0.071248
Si Si6 0.922770 0.717820 0.835061
O O1 0.140664 0.746945 0.945384
O O2 0.235439 0.654416 0.744630
O O3 0.266249 0.970350 0.908621
O O4 0.257366 0.580554 0.021814
O O5 0.597717 0.434809 0.204719
O O6 0.508183 0.759229 0.160020
O O7 0.540851 0.492250 0.952338
O O8 0.878237 0.943066 0.809693
O O9 0.849441 0.232168 0.985506
O O10 0.112126 0.938123 0.280431
O O11 0.996771 0.722089 0.238802
O O12 0.895440 0.633587 0.983887
#
# Coordination Sequence:
#
# PCOD8157826 Si02
#       6
#     4   4   4   4   4   4
#     4  11  28  44  74 108 143 198 246 307 385 457
#     4  12  26  46  77 109 143 197 261 304 383 467
#     4  11  26  48  73 105 147 195 245 318 382 454
#     4  12  29  49  78 115 151 201 255 319 381 452
#     4  11  26  49  69 103 157 188 240 320 379 438
#     4  11  25  48  71 106 145 189 249 316 372 442
#
# _framework density 22.463204999999999
#
# number of rings (size 3 to 8) (size 9 to 14) (size 15 to 20)
#    0.000    0.667    3.333    2.000   11.667    1.333 
#    0.000    0.000    0.000    0.000    0.000    0.000 
#    0.000    0.000    0.000    0.000    0.000    0.000 
#
# Total GULP energy -297362.813483 kJ/mol
# GULP energy per Si atom -12390.117228 kJ/mol
# Density = 2.241208 g / cm^3
# Si number density = 22.463205 Si / 1000 Ang^3
#
#
#
# Elastic Constant Matrix: (Units=GPa)
#
#
# Indices 1 2 3 4 5 6 
#
# 1 131.8747 43.4440 24.6838 0.0000 0.0000 0.0000
# 2 43.4440 87.2213 7.8177 0.0000 0.0000 0.0000
# 3 24.6838 7.8177 103.9952 0.0000 0.0000 0.0000
# 4 0.0000 0.0000 0.0000 25.9629 0.0000 0.0000
# 5 0.0000 0.0000 0.0000 0.0000 41.9399 0.0000
# 6 0.0000 0.0000 0.0000 0.0000 0.0000 27.2009
#
#
#
# Elastic Compliance Matrix: (Units=1/GPa)
#
#
# Indices 1 2 3 4 5 6 
#
# 1 0.009429 -0.004527 -0.001898 0.000000 0.000000 0.000000
# 2 -0.004527 0.013716 0.000043 0.000000 0.000000 0.000000
# 3 -0.001898 0.000043 0.010063 0.000000 0.000000 0.000000
# 4 0.000000 0.000000 0.000000 0.038516 0.000000 0.000000
# 5 0.000000 0.000000 0.000000 0.000000 0.023844 0.000000
# 6 0.000000 0.000000 0.000000 0.000000 0.000000 0.036763
#
#
# Mechanical properties :
#
#
# Convention : Reuss Voigt Hill
#
# Bulk Modulus (GPa) = 48.90904 52.77580 50.84242
# Shear Modulus (GPa) = 32.91436 35.49712 34.20574
#
# Velocity S-wave (km/s) = 3.83202 3.97953 3.90647
# Velocity P-wave (km/s) = 6.43424 6.68288 6.55974
#
# Compressibility (1/GPa) = 0.02044612
#
# Stress axis : x y z
#
# Youngs Moduli (GPa) = 106.05132 72.90831 99.37361
#
# Poissons Ratio (x) = 0.33003 0.18859
# Poissons Ratio (y) = 0.48005 -0.00431
# Poissons Ratio (z) = 0.20127 -0.00316
#
# Static dielectric constant tensor:
#      x y z
#    x 4.121400 0.000000 0.000000 
#    y 0.000000 4.641890 0.000000 
#    z 0.000000 0.000000 4.206740 
# 
# 
# High freq. dielectric constant tensor:
#      x y z
#    x 1.893370 0.000000 0.000000 
#    y 0.000000 1.884720 0.000000 
#    z 0.000000 0.000000 1.904490 
# 
# From -- ./inp_files/407.got.cif
#   From: 2010.03.12/outbox.cif.g09.slc.cpg/sg19_1_cif.got.tgz:407.got - 2010.04.10 18:59:41.
