data_PCOD8157379
_publ_section_title
;
Structure prediction by ZEFSAII (Michael W. Deem and Ramdas Pophale) SiO2 
 PCOD8157379
Probable space group: P 21 21 21
;
_chemical_formula_sum "Si O2"
_cell_formula_units_Z 24
_cell_length_a 13.582753
_cell_length_b 11.556969
_cell_length_c 6.927044
_cell_angle_alpha 90.000000
_cell_angle_beta 90.000000
_cell_angle_gamma 90.000000
_cell_volume 1087.375886
_symmetry_space_group_name_H-M "P 21 21 21"
_symmetry_group_IT_number 19
_symmetry_cell_setting 'orthorhombic'
loop_
_space_group_symop_operation_xyz
x,y,z
1/2-x,-y,1/2+z
1/2+x,1/2-y,-z
-x,1/2+y,1/2-z
loop_
_atom_site_type_symbol
_atom_site_label
_atom_site_fract_x
_atom_site_fract_y
_atom_site_fract_z
Si Si1 0.668282 0.364716 0.617114
Si Si2 0.660331 0.595381 0.846513
Si Si3 0.638684 0.986387 0.112496
Si Si4 0.051479 0.675689 0.190506
Si Si5 0.527309 0.010204 0.494552
Si Si6 0.674849 0.128541 0.766588
O O1 0.680597 0.494950 0.692470
O O2 0.734922 0.359601 0.424833
O O3 0.554536 0.330672 0.583486
O O4 0.709292 0.262740 0.758854
O O5 0.596753 0.700001 0.753603
O O6 0.588516 0.542286 0.010977
O O7 0.554203 0.999566 0.271045
O O8 0.739671 0.963722 0.224175
O O9 0.624159 0.881538 0.963816
O O10 0.640280 0.104406 0.986375
O O11 0.044802 0.610349 0.394607
O O12 0.588188 0.108970 0.609464
#
# Coordination Sequence:
#
# PCOD8157379 Si02
#       6
#     4   4   4   4   4   4
#     4  11  25  45  65 101 140 179 229 286 346 412
#     4  11  24  46  68  99 142 182 227 285 350 415
#     4  11  22  40  71  99 128 176 230 278 336 403
#     4  10  23  45  68  91 137 179 225 281 333 415
#     4  10  23  43  67  99 132 178 229 282 338 404
#     4  11  21  41  67 101 133 172 228 288 333 401
#
# _framework density 22.071486
#
# number of rings (size 3 to 8) (size 9 to 14) (size 15 to 20)
#    0.000    1.333    5.000    0.000    2.333    1.333 
#    9.000    0.000    0.000    0.000    0.000    0.000 
#    0.000    0.000    0.000    0.000    0.000    0.000 
#
# Total GULP energy -297442.352768 kJ/mol
# GULP energy per Si atom -12393.431365 kJ/mol
# Density = 2.202125 g / cm^3
# Si number density = 22.071486 Si / 1000 Ang^3
#
#
#
# Elastic Constant Matrix: (Units=GPa)
#
#
# Indices 1 2 3 4 5 6 
#
# 1 73.5226 22.9658 6.4039 0.0000 0.0000 0.0000
# 2 22.9658 148.7790 32.2830 0.0000 0.0000 0.0000
# 3 6.4039 32.2830 78.6350 0.0000 0.0000 0.0000
# 4 0.0000 0.0000 0.0000 18.8598 0.0000 0.0000
# 5 0.0000 0.0000 0.0000 0.0000 36.0198 0.0000
# 6 0.0000 0.0000 0.0000 0.0000 0.0000 32.4894
#
#
#
# Elastic Compliance Matrix: (Units=1/GPa)
#
#
# Indices 1 2 3 4 5 6 
#
# 1 0.014296 -0.002145 -0.000284 0.000000 0.000000 0.000000
# 2 -0.002145 0.007701 -0.002987 0.000000 0.000000 0.000000
# 3 -0.000284 -0.002987 0.013966 0.000000 0.000000 0.000000
# 4 0.000000 0.000000 0.000000 0.053023 0.000000 0.000000
# 5 0.000000 0.000000 0.000000 0.000000 0.027763 0.000000
# 6 0.000000 0.000000 0.000000 0.000000 0.000000 0.030779
#
#
# Mechanical properties :
#
#
# Convention : Reuss Voigt Hill
#
# Bulk Modulus (GPa) = 39.79002 47.13798 43.46400
# Shear Modulus (GPa) = 29.98756 33.42605 31.70680
#
# Velocity S-wave (km/s) = 3.68999 3.89581 3.79430
# Velocity P-wave (km/s) = 6.01844 6.45289 6.23945
#
# Compressibility (1/GPa) = 0.02513193
#
# Stress axis : x y z
#
# Youngs Moduli (GPa) = 69.94935 129.86001 71.60115
#
# Poissons Ratio (x) = 0.27858 0.02030
# Poissons Ratio (y) = 0.15006 0.21385
# Poissons Ratio (z) = 0.01983 0.38786
#
# Static dielectric constant tensor:
#      x y z
#    x 4.119790 0.000000 0.000000 
#    y 0.000000 4.149330 0.000000 
#    z 0.000000 0.000000 3.514840 
# 
# 
# High freq. dielectric constant tensor:
#      x y z
#    x 1.879920 0.000000 0.000000 
#    y 0.000000 1.878640 0.000000 
#    z 0.000000 0.000000 1.834810 
# 
# From -- ./inp_files/961.got.cif
#   From: 2010.03.12/outbox.cif.g09.slc.cpg/sg19_1_cif.got.tgz:961.got - 2010.04.10 18:59:41.
