data_PCOD8157218
_publ_section_title
;
Structure prediction by ZEFSAII (Michael W. Deem and Ramdas Pophale) SiO2 
 PCOD8157218
Probable space group: P 21 21 21
;
_chemical_formula_sum "Si O2"
_cell_formula_units_Z 28
_cell_length_a 8.074388
_cell_length_b 8.801213
_cell_length_c 18.349663
_cell_angle_alpha 90.000000
_cell_angle_beta 90.000000
_cell_angle_gamma 90.000000
_cell_volume 1304.007950
_symmetry_space_group_name_H-M "P 21 21 21"
_symmetry_group_IT_number 19
_symmetry_cell_setting 'orthorhombic'
loop_
_space_group_symop_operation_xyz
x,y,z
1/2-x,-y,1/2+z
1/2+x,1/2-y,-z
-x,1/2+y,1/2-z
loop_
_atom_site_type_symbol
_atom_site_label
_atom_site_fract_x
_atom_site_fract_y
_atom_site_fract_z
Si Si1 0.950906 0.693615 0.084887
Si Si2 0.453822 0.980686 0.192353
Si Si3 0.517843 0.128081 0.340085
Si Si4 0.151529 0.456028 0.160750
Si Si5 0.638064 0.374632 0.887255
Si Si6 0.661253 0.594595 0.006981
Si Si7 0.822944 0.964727 0.173123
O O1 0.857136 0.618645 0.016320
O O2 0.830738 0.814295 0.124244
O O3 0.995594 0.561553 0.141598
O O4 0.108538 0.778220 0.051464
O O5 0.452246 0.798883 0.187689
O O6 0.637831 0.037215 0.165187
O O7 0.427793 0.033433 0.275824
O O8 0.302933 0.049566 0.146501
O O9 0.691273 0.054612 0.359887
O O10 0.413929 0.112987 0.413329
O O11 0.153028 0.305757 0.111475
O O12 0.147270 0.408372 0.244658
O O13 0.467203 0.416210 0.845960
O O14 0.624397 0.430381 0.971225
#
# Coordination Sequence:
#
# PCOD8157218 Si02
#       7
#     4   4   4   4   4   4   4
#     4  11  22  42  68  94 136 176 230 275 340 414
#     4  11  22  43  70 102 131 179 227 289 336 409
#     4  11  23  43  70 102 134 176 236 282 350 405
#     4  11  24  42  65 100 135 176 223 287 342 408
#     4  11  25  43  67  99 143 175 230 280 344 413
#     4  11  24  42  68  99 130 190 220 282 342 412
#     4  10  22  41  68  98 127 178 230 281 338 401
#
# _framework density 21.472262000000001
#
# number of rings (size 3 to 8) (size 9 to 14) (size 15 to 20)
#    0.000    1.143    1.429    6.000    2.000    2.286 
#    2.571    1.429    0.000    0.000    0.000    0.000 
#    0.000    0.000    0.000    0.000    0.000    0.000 
#
# Total GULP energy -347151.548000 kJ/mol
# GULP energy per Si atom -12398.269571 kJ/mol
# Density = 2.142339 g / cm^3
# Si number density = 21.472262 Si / 1000 Ang^3
#
#
#
# Elastic Constant Matrix: (Units=GPa)
#
#
# Indices 1 2 3 4 5 6 
#
# 1 109.9305 38.6010 22.4552 0.0000 0.0000 0.0000
# 2 38.6010 95.2935 33.2784 0.0000 0.0000 0.0000
# 3 22.4552 33.2784 83.7778 0.0000 0.0000 0.0000
# 4 0.0000 0.0000 0.0000 20.3034 0.0000 0.0000
# 5 0.0000 0.0000 0.0000 0.0000 31.1077 0.0000
# 6 0.0000 0.0000 0.0000 0.0000 0.0000 24.2014
#
#
#
# Elastic Compliance Matrix: (Units=1/GPa)
#
#
# Indices 1 2 3 4 5 6 
#
# 1 0.010732 -0.003881 -0.001335 0.000000 0.000000 0.000000
# 2 -0.003881 0.013588 -0.004357 0.000000 0.000000 0.000000
# 3 -0.001335 -0.004357 0.014025 0.000000 0.000000 0.000000
# 4 0.000000 0.000000 0.000000 0.049253 0.000000 0.000000
# 5 0.000000 0.000000 0.000000 0.000000 0.032146 0.000000
# 6 0.000000 0.000000 0.000000 0.000000 0.000000 0.041320
#
#
# Mechanical properties :
#
#
# Convention : Reuss Voigt Hill
#
# Bulk Modulus (GPa) = 52.08746 53.07454 52.58100
# Shear Modulus (GPa) = 26.79393 28.10030 27.44712
#
# Velocity S-wave (km/s) = 3.53631 3.62149 3.57915
# Velocity P-wave (km/s) = 6.40193 6.50064 6.45147
#
# Compressibility (1/GPa) = 0.01919848
#
# Stress axis : x y z
#
# Youngs Moduli (GPa) = 93.17782 73.59638 71.30206
#
# Poissons Ratio (x) = 0.28564 0.09518
# Poissons Ratio (y) = 0.36164 0.31066
# Poissons Ratio (z) = 0.12438 0.32066
#
# Static dielectric constant tensor:
#      x y z
#    x 4.200140 0.000000 0.000000 
#    y 0.000000 3.794950 0.000000 
#    z 0.000000 0.000000 3.974340 
# 
# 
# High freq. dielectric constant tensor:
#      x y z
#    x 1.858230 0.000000 0.000000 
#    y 0.000000 1.835790 0.000000 
#    z 0.000000 0.000000 1.844690 
# 
# From -- ./inp_files/4161.got.cif
#   From: 2010.03.12/outbox.cif.g09.slc.cpg/sg19_3_cif.got.tgz:4161.got - 2010.04.10 18:59:41.
