data_PCOD8157907
_publ_section_title
;
Structure prediction by ZEFSAII (Michael W. Deem and Ramdas Pophale) SiO2 
 PCOD8157907
Probable space group: P 21 21 21
;
_chemical_formula_sum "Si O2"
_cell_formula_units_Z 16
_cell_length_a 9.198163
_cell_length_b 13.260541
_cell_length_c 4.754017
_cell_angle_alpha 90.000000
_cell_angle_beta 90.000000
_cell_angle_gamma 90.000000
_cell_volume 579.859898
_symmetry_space_group_name_H-M "P 21 21 21"
_symmetry_group_IT_number 19
_symmetry_cell_setting 'orthorhombic'
loop_
_space_group_symop_operation_xyz
x,y,z
1/2-x,-y,1/2+z
1/2+x,1/2-y,-z
-x,1/2+y,1/2-z
loop_
_atom_site_type_symbol
_atom_site_label
_atom_site_fract_x
_atom_site_fract_y
_atom_site_fract_z
Si Si1 0.357288 0.387471 0.091146
Si Si2 0.025368 0.193645 0.403857
Si Si3 0.414865 0.611527 0.228406
Si Si4 0.773613 0.439307 0.774309
O O1 0.471010 0.319712 0.914481
O O2 0.196631 0.358332 0.977621
O O3 0.392497 0.353953 0.410680
O O4 0.370835 0.508697 0.065078
O O5 0.070724 0.306191 0.482242
O O6 0.175848 0.132078 0.422789
O O7 0.572800 0.605615 0.375025
O O8 0.811597 0.530778 0.558068
#
# Coordination Sequence:
#
# PCOD8157907 Si02
#       4
#     4   4   4   4
#     4  12  28  50  79 119 161 211 264 336 410 464
#     4  12  27  51  79 121 154 215 268 328 408 480
#     4  12  28  50  84 113 170 203 275 332 402 484
#     4  12  25  49  76 109 155 209 257 326 390 472
#
# _framework density 27.592873999999998
#
# number of rings (size 3 to 8) (size 9 to 14) (size 15 to 20)
#    0.000    0.000    5.000    3.000    0.000   14.000 
#    0.000    0.000    0.000    0.000    0.000    0.000 
#    0.000    0.000    0.000    0.000    0.000    0.000 
#
# Total GULP energy -198418.856305 kJ/mol
# GULP energy per Si atom -12401.178519 kJ/mol
# Density = 2.753007 g / cm^3
# Si number density = 27.592874 Si / 1000 Ang^3
#
#
#
# Elastic Constant Matrix: (Units=GPa)
#
#
# Indices 1 2 3 4 5 6 
#
# 1 154.2374 -3.8596 10.2480 0.0000 0.0000 0.0000
# 2 -3.8596 72.9445 -2.7285 0.0000 0.0000 0.0000
# 3 10.2480 -2.7285 78.7349 0.0000 0.0000 0.0000
# 4 0.0000 0.0000 0.0000 25.2175 0.0000 0.0000
# 5 0.0000 0.0000 0.0000 0.0000 26.2885 0.0000
# 6 0.0000 0.0000 0.0000 0.0000 0.0000 30.6658
#
#
#
# Elastic Compliance Matrix: (Units=1/GPa)
#
#
# Indices 1 2 3 4 5 6 
#
# 1 0.006547 0.000315 -0.000841 0.000000 0.000000 0.000000
# 2 0.000315 0.013742 0.000435 0.000000 0.000000 0.000000
# 3 -0.000841 0.000435 0.012825 0.000000 0.000000 0.000000
# 4 0.000000 0.000000 0.000000 0.039655 0.000000 0.000000
# 5 0.000000 0.000000 0.000000 0.000000 0.038039 0.000000
# 6 0.000000 0.000000 0.000000 0.000000 0.000000 0.032610
#
#
# Mechanical properties :
#
#
# Convention : Reuss Voigt Hill
#
# Bulk Modulus (GPa) = 30.36508 34.80405 32.58457
# Shear Modulus (GPa) = 32.34602 36.58482 34.46542
#
# Velocity S-wave (km/s) = 3.42754 3.64521 3.53805
# Velocity P-wave (km/s) = 5.16649 5.50977 5.34089
#
# Compressibility (1/GPa) = 0.03293256
#
# Stress axis : x y z
#
# Youngs Moduli (GPa) = 152.73496 72.76962 77.97011
#
# Poissons Ratio (x) = -0.02292 0.06559
# Poissons Ratio (y) = -0.04811 -0.03394
# Poissons Ratio (z) = 0.12849 -0.03167
#
# Static dielectric constant tensor:
#      x y z
#    x 5.125910 0.000000 0.000000 
#    y 0.000000 4.974300 0.000000 
#    z 0.000000 0.000000 4.518700 
# 
# 
# High freq. dielectric constant tensor:
#      x y z
#    x 2.133090 0.000000 0.000000 
#    y 0.000000 2.107670 0.000000 
#    z 0.000000 0.000000 2.111350 
# 
# From -- ./inp_files/290.got.cif
#   From: 2010.03.12/outbox.cif.g09.slc.cpg/sg19_1_cif.got.tgz:290.got - 2010.04.10 18:59:41.
