data_PCOD8157480
_publ_section_title
;
Structure prediction by ZEFSAII (Michael W. Deem and Ramdas Pophale) SiO2 
 PCOD8157480
Probable space group: P 21 21 21
;
_chemical_formula_sum "Si O2"
_cell_formula_units_Z 24
_cell_length_a 12.174503
_cell_length_b 8.326369
_cell_length_c 10.832042
_cell_angle_alpha 90.000000
_cell_angle_beta 90.000000
_cell_angle_gamma 90.000000
_cell_volume 1098.037646
_symmetry_space_group_name_H-M "P 21 21 21"
_symmetry_group_IT_number 19
_symmetry_cell_setting 'orthorhombic'
loop_
_space_group_symop_operation_xyz
x,y,z
1/2-x,-y,1/2+z
1/2+x,1/2-y,-z
-x,1/2+y,1/2-z
loop_
_atom_site_type_symbol
_atom_site_label
_atom_site_fract_x
_atom_site_fract_y
_atom_site_fract_z
Si Si1 0.839686 0.769577 0.780355
Si Si2 0.547507 0.286131 0.793231
Si Si3 0.124715 0.865911 0.135961
Si Si4 0.927967 0.216105 0.611688
Si Si5 0.119604 0.358285 0.978495
Si Si6 0.237925 0.629307 0.698133
O O1 0.752174 0.638419 0.825484
O O2 0.874621 0.739391 0.638590
O O3 0.944916 0.755331 0.867730
O O4 0.782325 0.942089 0.783575
O O5 0.442771 0.276667 0.703974
O O6 0.573809 0.471079 0.815110
O O7 0.651507 0.191456 0.731107
O O8 0.524892 0.206211 0.928552
O O9 0.116162 0.843973 0.988318
O O10 0.863065 0.231197 0.742764
O O11 0.909500 0.038309 0.559822
O O12 0.238143 0.344465 0.051240
#
# Coordination Sequence:
#
# PCOD8157480 Si02
#       6
#     4   4   4   4   4   4
#     4  11  24  40  71 103 135 182 236 295 359 412
#     4  10  24  44  70  95 142 188 238 282 352 422
#     4  12  24  43  67 106 137 191 236 293 354 422
#     4  11  24  41  73 101 140 178 242 293 356 420
#     4   9  22  47  65  98 136 189 227 295 345 422
#     4   9  22  47  66  97 140 188 229 290 354 416
#
# _framework density 21.857174000000001
#
# number of rings (size 3 to 8) (size 9 to 14) (size 15 to 20)
#    1.000    0.667    1.667    2.000    2.333    9.333 
#    3.000    0.000    0.000    0.000    0.000    0.000 
#    0.000    0.000    0.000    0.000    0.000    0.000 
#
# Total GULP energy -297369.774071 kJ/mol
# GULP energy per Si atom -12390.407253 kJ/mol
# Density = 2.180743 g / cm^3
# Si number density = 21.857174 Si / 1000 Ang^3
#
#
#
# Elastic Constant Matrix: (Units=GPa)
#
#
# Indices 1 2 3 4 5 6 
#
# 1 105.2569 23.2646 37.6828 0.0000 0.0000 0.0000
# 2 23.2646 68.6651 25.8072 0.0000 0.0000 0.0000
# 3 37.6828 25.8072 109.2339 0.0000 0.0000 0.0000
# 4 0.0000 0.0000 0.0000 25.5626 0.0000 0.0000
# 5 0.0000 0.0000 0.0000 0.0000 37.3398 0.0000
# 6 0.0000 0.0000 0.0000 0.0000 0.0000 24.2888
#
#
#
# Elastic Compliance Matrix: (Units=1/GPa)
#
#
# Indices 1 2 3 4 5 6 
#
# 1 0.011241 -0.002580 -0.003268 0.000000 0.000000 0.000000
# 2 -0.002580 0.016575 -0.003026 0.000000 0.000000 0.000000
# 3 -0.003268 -0.003026 0.010997 0.000000 0.000000 0.000000
# 4 0.000000 0.000000 0.000000 0.039120 0.000000 0.000000
# 5 0.000000 0.000000 0.000000 0.000000 0.026781 0.000000
# 6 0.000000 0.000000 0.000000 0.000000 0.000000 0.041171
#
#
# Mechanical properties :
#
#
# Convention : Reuss Voigt Hill
#
# Bulk Modulus (GPa) = 47.47381 50.74059 49.10720
# Shear Modulus (GPa) = 29.29891 30.53165 29.91528
#
# Velocity S-wave (km/s) = 3.66522 3.74153 3.70357
# Velocity P-wave (km/s) = 6.29912 6.47537 6.38785
#
# Compressibility (1/GPa) = 0.02106425
#
# Stress axis : x y z
#
# Youngs Moduli (GPa) = 88.96074 60.33226 90.93400
#
# Poissons Ratio (x) = 0.15567 0.29719
# Poissons Ratio (y) = 0.22954 0.27515
# Poissons Ratio (z) = 0.29074 0.18255
#
# Static dielectric constant tensor:
#      x y z
#    x 3.907500 0.000000 0.000000 
#    y 0.000000 3.705120 0.000000 
#    z 0.000000 0.000000 4.224820 
# 
# 
# High freq. dielectric constant tensor:
#      x y z
#    x 1.847750 0.000000 0.000000 
#    y 0.000000 1.852700 0.000000 
#    z 0.000000 0.000000 1.861040 
# 
# From -- ./inp_files/4921.got.cif
#   From: 2010.03.12/outbox.cif.g09.slc.cpg/sg19_3_cif.got.tgz:4921.got - 2010.04.10 18:59:41.
