data_PCOD8157501
_publ_section_title
;
Structure prediction by ZEFSAII (Michael W. Deem and Ramdas Pophale) SiO2 
 PCOD8157501
Probable space group: P 21 21 21
;
_chemical_formula_sum "Si O2"
_cell_formula_units_Z 28
_cell_length_a 15.725415
_cell_length_b 5.386872
_cell_length_c 13.977284
_cell_angle_alpha 90.000000
_cell_angle_beta 90.000000
_cell_angle_gamma 90.000000
_cell_volume 1184.026878
_symmetry_space_group_name_H-M "P 21 21 21"
_symmetry_group_IT_number 19
_symmetry_cell_setting 'orthorhombic'
loop_
_space_group_symop_operation_xyz
x,y,z
1/2-x,-y,1/2+z
1/2+x,1/2-y,-z
-x,1/2+y,1/2-z
loop_
_atom_site_type_symbol
_atom_site_label
_atom_site_fract_x
_atom_site_fract_y
_atom_site_fract_z
Si Si1 0.295042 0.479898 0.477772
Si Si2 0.032385 0.219411 0.297278
Si Si3 0.187362 0.629675 0.637907
Si Si4 0.084432 0.131528 0.647761
Si Si5 0.381744 0.851505 0.355276
Si Si6 0.044441 0.784426 0.999189
Si Si7 0.225948 0.207656 0.317781
O O1 0.253934 0.672632 0.551005
O O2 0.352183 0.587307 0.391973
O O3 0.362876 0.309291 0.533457
O O4 0.220713 0.332285 0.422580
O O5 0.130300 0.128621 0.291007
O O6 0.018706 0.468614 0.232847
O O7 0.010325 0.309544 0.404730
O O8 0.141467 0.367845 0.617272
O O9 0.239587 0.606190 0.735988
O O10 0.128478 0.867786 0.634137
O O11 0.059385 0.168393 0.760097
O O12 0.002832 0.111453 0.579337
O O13 0.438330 0.961639 0.441496
O O14 0.293629 0.985612 0.325403
#
# Coordination Sequence:
#
# PCOD8157501 Si02
#       7
#     4   4   4   4   4   4   4
#     4  11  24  44  72 101 141 189 238 294 357 434
#     4  12  30  49  74 107 151 193 244 304 359 429
#     4  11  25  43  73  99 140 185 239 287 356 424
#     4  11  26  47  70 108 139 186 236 304 357 428
#     4  10  25  43  73 101 144 185 239 296 364 428
#     4  11  28  43  72 107 145 190 241 297 374 423
#     4  10  24  47  68 103 138 188 237 290 353 432
#
# _framework density 23.648112000000001
#
# number of rings (size 3 to 8) (size 9 to 14) (size 15 to 20)
#    0.000    1.143    1.429    1.714   16.000    1.143 
#    0.000    0.000    0.000    0.000    0.000    0.000 
#    0.000    0.000    0.000    0.000    0.000    0.000 
#
# Total GULP energy -346934.077577 kJ/mol
# GULP energy per Si atom -12390.502771 kJ/mol
# Density = 2.359429 g / cm^3
# Si number density = 23.648112 Si / 1000 Ang^3
#
#
#
# Elastic Constant Matrix: (Units=GPa)
#
#
# Indices 1 2 3 4 5 6 
#
# 1 79.5059 10.1891 22.4508 0.0000 0.0000 0.0000
# 2 10.1891 84.9323 17.0218 0.0000 0.0000 0.0000
# 3 22.4508 17.0218 97.3615 0.0000 0.0000 0.0000
# 4 0.0000 0.0000 0.0000 30.9669 0.0000 0.0000
# 5 0.0000 0.0000 0.0000 0.0000 35.7087 0.0000
# 6 0.0000 0.0000 0.0000 0.0000 0.0000 19.6706
#
#
#
# Elastic Compliance Matrix: (Units=1/GPa)
#
#
# Indices 1 2 3 4 5 6 
#
# 1 0.013541 -0.001035 -0.002941 0.000000 0.000000 0.000000
# 2 -0.001035 0.012281 -0.001908 0.000000 0.000000 0.000000
# 3 -0.002941 -0.001908 0.011283 0.000000 0.000000 0.000000
# 4 0.000000 0.000000 0.000000 0.032293 0.000000 0.000000
# 5 0.000000 0.000000 0.000000 0.000000 0.028004 0.000000
# 6 0.000000 0.000000 0.000000 0.000000 0.000000 0.050837
#
#
# Mechanical properties :
#
#
# Convention : Reuss Voigt Hill
#
# Bulk Modulus (GPa) = 39.47125 40.12480 39.79802
# Shear Modulus (GPa) = 29.68180 31.41178 30.54679
#
# Velocity S-wave (km/s) = 3.54665 3.64854 3.59795
# Velocity P-wave (km/s) = 5.78782 5.89520 5.84176
#
# Compressibility (1/GPa) = 0.02533490
#
# Stress axis : x y z
#
# Youngs Moduli (GPa) = 73.85018 81.42848 88.62944
#
# Poissons Ratio (x) = 0.08427 0.26070
# Poissons Ratio (y) = 0.07643 0.16914
# Poissons Ratio (z) = 0.21723 0.15540
#
# Static dielectric constant tensor:
#      x y z
#    x 4.275620 0.000000 0.000000 
#    y 0.000000 3.984040 0.000000 
#    z 0.000000 0.000000 4.434500 
# 
# 
# High freq. dielectric constant tensor:
#      x y z
#    x 1.940440 0.000000 0.000000 
#    y 0.000000 1.926880 0.000000 
#    z 0.000000 0.000000 1.950470 
# 
# From -- ./inp_files/1511.got.cif
#   From: 2010.03.12/outbox.cif.g09.slc.cpg/sg19_1_cif.got.tgz:1511.got - 2010.04.10 18:59:41.
