data_PCOD8157096
_publ_section_title
;
Structure prediction by ZEFSAII (Michael W. Deem and Ramdas Pophale) SiO2 
 PCOD8157096
Probable space group: P 21 21 21
;
_chemical_formula_sum "Si O2"
_cell_formula_units_Z 32
_cell_length_a 11.945478
_cell_length_b 11.735443
_cell_length_c 10.629197
_cell_angle_alpha 90.000000
_cell_angle_beta 90.000000
_cell_angle_gamma 90.000000
_cell_volume 1490.059043
_symmetry_space_group_name_H-M "P 21 21 21"
_symmetry_group_IT_number 19
_symmetry_cell_setting 'orthorhombic'
loop_
_space_group_symop_operation_xyz
x,y,z
1/2-x,-y,1/2+z
1/2+x,1/2-y,-z
-x,1/2+y,1/2-z
loop_
_atom_site_type_symbol
_atom_site_label
_atom_site_fract_x
_atom_site_fract_y
_atom_site_fract_z
Si Si1 0.090008 0.809872 0.765400
Si Si2 0.078162 0.462733 0.086250
Si Si3 0.175260 0.926021 0.437539
Si Si4 0.163382 0.289289 0.680856
Si Si5 0.704573 0.850238 0.056301
Si Si6 0.294242 0.311811 0.038712
Si Si7 0.789082 0.530900 0.808700
Si Si8 0.673860 0.958199 0.677897
O O1 0.147409 0.764651 0.892868
O O2 0.128494 0.721874 0.656430
O O3 0.959663 0.826931 0.783746
O O4 0.122736 0.937721 0.734551
O O5 0.172322 0.363793 0.074143
O O6 0.071236 0.509581 0.230593
O O7 0.958662 0.417951 0.039287
O O8 0.108089 0.573913 0.006270
O O9 0.226291 0.799648 0.452260
O O10 0.189668 0.975392 0.295827
O O11 0.238586 0.003599 0.544215
O O12 0.195270 0.315212 0.536901
O O13 0.161636 0.155367 0.704174
O O14 0.248791 0.358456 0.766837
O O15 0.757350 0.924470 0.168079
O O16 0.362420 0.408984 0.958943
#
# Coordination Sequence:
#
# PCOD8157096 Si02
#       8
#     4   4   4   4   4   4   4   4
#     4  11  24  41  69 102 137 175 228 285 349 402
#     4  10  22  43  70  93 140 181 224 285 347 405
#     4  11  24  45  65  97 141 183 220 290 351 404
#     4  11  24  42  68  95 135 183 219 284 346 405
#     4  10  22  42  66 100 134 172 234 274 330 429
#     4  10  22  40  66 101 133 171 230 283 332 418
#     4  11  25  44  65  97 142 174 232 280 345 418
#     4  10  21  43  65  99 134 175 235 281 320 431
#
# _framework density 21.475657999999999
#
# number of rings (size 3 to 8) (size 9 to 14) (size 15 to 20)
#    0.000    1.500    2.500    1.500    8.750    0.000 
#   11.250    0.000    0.000    0.000    0.000    0.000 
#    0.000    0.000    0.000    0.000    0.000    0.000 
#
# Total GULP energy -396487.258686 kJ/mol
# GULP energy per Si atom -12390.226834 kJ/mol
# Density = 2.142678 g / cm^3
# Si number density = 21.475658 Si / 1000 Ang^3
#
#
#
# Elastic Constant Matrix: (Units=GPa)
#
#
# Indices 1 2 3 4 5 6 
#
# 1 63.2634 33.0306 38.8910 0.0000 0.0000 0.0000
# 2 33.0306 124.2328 31.9261 0.0000 0.0000 0.0000
# 3 38.8910 31.9261 93.9034 0.0000 0.0000 0.0000
# 4 0.0000 0.0000 0.0000 35.2279 0.0000 0.0000
# 5 0.0000 0.0000 0.0000 0.0000 15.8857 0.0000
# 6 0.0000 0.0000 0.0000 0.0000 0.0000 19.2182
#
#
#
# Elastic Compliance Matrix: (Units=1/GPa)
#
#
# Indices 1 2 3 4 5 6 
#
# 1 0.022886 -0.003998 -0.008119 0.000000 0.000000 0.000000
# 2 -0.003998 0.009519 -0.001580 0.000000 0.000000 0.000000
# 3 -0.008119 -0.001580 0.014549 0.000000 0.000000 0.000000
# 4 0.000000 0.000000 0.000000 0.028387 0.000000 0.000000
# 5 0.000000 0.000000 0.000000 0.000000 0.062950 0.000000
# 6 0.000000 0.000000 0.000000 0.000000 0.000000 0.052034
#
#
# Mechanical properties :
#
#
# Convention : Reuss Voigt Hill
#
# Bulk Modulus (GPa) = 51.12940 54.34391 52.73665
# Shear Modulus (GPa) = 22.29777 25.90316 24.10047
#
# Velocity S-wave (km/s) = 3.22573 3.47675 3.35359
# Velocity P-wave (km/s) = 6.14276 6.44026 6.29327
#
# Compressibility (1/GPa) = 0.01955822
#
# Stress axis : x y z
#
# Youngs Moduli (GPa) = 43.69573 105.05783 68.73312
#
# Poissons Ratio (x) = 0.42005 0.55804
# Poissons Ratio (y) = 0.17471 0.10862
# Poissons Ratio (z) = 0.35476 0.16602
#
# Static dielectric constant tensor:
#      x y z
#    x 3.388930 0.000000 0.000000 
#    y 0.000000 4.031040 0.000000 
#    z 0.000000 0.000000 4.400080 
# 
# 
# High freq. dielectric constant tensor:
#      x y z
#    x 1.802600 0.000000 0.000000 
#    y 0.000000 1.858650 0.000000 
#    z 0.000000 0.000000 1.865340 
# 
# From -- ./inp_files/5025.got.cif
#   From: 2010.03.12/outbox.cif.g09.slc.cpg/sg19_3_cif.got.tgz:5025.got - 2010.04.10 18:59:41.
