data_PCOD8157542
_publ_section_title
;
Structure prediction by ZEFSAII (Michael W. Deem and Ramdas Pophale) SiO2 
 PCOD8157542
Probable space group: P 21 21 21
;
_chemical_formula_sum "Si O2"
_cell_formula_units_Z 20
_cell_length_a 5.218992
_cell_length_b 5.212203
_cell_length_c 27.744013
_cell_angle_alpha 90.000000
_cell_angle_beta 90.000000
_cell_angle_gamma 90.000000
_cell_volume 754.705009
_symmetry_space_group_name_H-M "P 21 21 21"
_symmetry_group_IT_number 19
_symmetry_cell_setting 'orthorhombic'
loop_
_space_group_symop_operation_xyz
x,y,z
1/2-x,-y,1/2+z
1/2+x,1/2-y,-z
-x,1/2+y,1/2-z
loop_
_atom_site_type_symbol
_atom_site_label
_atom_site_fract_x
_atom_site_fract_y
_atom_site_fract_z
Si Si1 0.961150 0.735362 0.874803
Si Si2 0.139831 0.063518 0.193005
Si Si3 0.239172 0.408629 0.055120
Si Si4 0.188084 0.062601 0.301523
Si Si5 0.740161 0.080979 0.053797
O O1 0.059542 0.944206 0.835235
O O2 0.195684 0.656606 0.910167
O O3 0.856162 0.481845 0.847379
O O4 0.731115 0.857715 0.906775
O O5 0.272234 0.045186 0.245699
O O6 0.004623 0.335245 0.183977
O O7 0.935665 0.837273 0.188385
O O8 0.514436 0.281595 0.062529
O O9 0.012372 0.208923 0.065714
O O10 0.221559 0.522061 0.001039
#
# Coordination Sequence:
#
# PCOD8157542 Si02
#       5
#     4   4   4   4   4
#     4  12  28  44  84 112 160 212 284 316 420 482
#     4  10  26  50  76 114 164 212 269 338 406 481
#     4  10  26  50  76 114 164 212 269 338 406 481
#     4  10  26  50  76 114 164 212 269 338 406 481
#     4  10  26  50  76 114 164 212 269 338 406 481
#
# _framework density 26.500425
#
# number of rings (size 3 to 8) (size 9 to 14) (size 15 to 20)
#    0.000    1.600    0.000    0.000   11.200    9.600 
#    0.000    0.000    0.000    0.000    0.000    0.000 
#    0.000    0.000    0.000    0.000    0.000    0.000 
#
# Total GULP energy -248086.458807 kJ/mol
# GULP energy per Si atom -12404.322940 kJ/mol
# Density = 2.644011 g / cm^3
# Si number density = 26.500425 Si / 1000 Ang^3
#
#
#
# Elastic Constant Matrix: (Units=GPa)
#
#
# Indices 1 2 3 4 5 6 
#
# 1 63.7584 6.5716 28.7963 0.0000 0.0000 0.0000
# 2 6.5716 56.5389 27.2203 0.0000 0.0000 0.0000
# 3 28.7963 27.2203 159.6396 0.0000 0.0000 0.0000
# 4 0.0000 0.0000 0.0000 36.4895 0.0000 0.0000
# 5 0.0000 0.0000 0.0000 0.0000 42.5215 0.0000
# 6 0.0000 0.0000 0.0000 0.0000 0.0000 34.5428
#
#
#
# Elastic Compliance Matrix: (Units=1/GPa)
#
#
# Indices 1 2 3 4 5 6 
#
# 1 0.017091 -0.000547 -0.002990 0.000000 0.000000 0.000000
# 2 -0.000547 0.019286 -0.003190 0.000000 0.000000 0.000000
# 3 -0.002990 -0.003190 0.007347 0.000000 0.000000 0.000000
# 4 0.000000 0.000000 0.000000 0.027405 0.000000 0.000000
# 5 0.000000 0.000000 0.000000 0.000000 0.023517 0.000000
# 6 0.000000 0.000000 0.000000 0.000000 0.000000 0.028950
#
#
# Mechanical properties :
#
#
# Convention : Reuss Voigt Hill
#
# Bulk Modulus (GPa) = 33.03469 45.01258 39.02363
# Shear Modulus (GPa) = 33.98120 37.20068 35.59094
#
# Velocity S-wave (km/s) = 3.58479 3.75077 3.66872
# Velocity P-wave (km/s) = 5.44308 5.98165 5.71871
#
# Compressibility (1/GPa) = 0.03027121
#
# Stress axis : x y z
#
# Youngs Moduli (GPa) = 58.51083 51.85042 136.10477
#
# Poissons Ratio (x) = 0.02837 0.40690
# Poissons Ratio (y) = 0.03202 0.43415
# Poissons Ratio (z) = 0.17492 0.16539
#
# Static dielectric constant tensor:
#      x y z
#    x 4.530110 0.000000 0.000000 
#    y 0.000000 4.527810 0.000000 
#    z 0.000000 0.000000 5.456370 
# 
# 
# High freq. dielectric constant tensor:
#      x y z
#    x 2.053740 0.000000 0.000000 
#    y 0.000000 2.053710 0.000000 
#    z 0.000000 0.000000 2.093400 
# 
# From -- ./inp_files/7436.got.cif
#   From: 2010.03.12/outbox.cif.g09.slc.cpg/sg19_4_cif.got.tgz:7436.got - 2010.04.10 18:59:41.
