data_PCOD8157194
_publ_section_title
;
Structure prediction by ZEFSAII (Michael W. Deem and Ramdas Pophale) SiO2 
 PCOD8157194
Probable space group: P 21 21 21
;
_chemical_formula_sum "Si O2"
_cell_formula_units_Z 24
_cell_length_a 12.316323
_cell_length_b 14.753479
_cell_length_c 5.172256
_cell_angle_alpha 90.000000
_cell_angle_beta 90.000000
_cell_angle_gamma 90.000000
_cell_volume 939.843462
_symmetry_space_group_name_H-M "P 21 21 21"
_symmetry_group_IT_number 19
_symmetry_cell_setting 'orthorhombic'
loop_
_space_group_symop_operation_xyz
x,y,z
1/2-x,-y,1/2+z
1/2+x,1/2-y,-z
-x,1/2+y,1/2-z
loop_
_atom_site_type_symbol
_atom_site_label
_atom_site_fract_x
_atom_site_fract_y
_atom_site_fract_z
Si Si1 0.762927 0.106722 0.352726
Si Si2 0.970832 0.368124 0.247514
Si Si3 0.808367 0.790488 0.355818
Si Si4 0.774123 0.372627 0.573658
Si Si5 0.096358 0.019822 0.661815
Si Si6 0.591046 0.979679 0.488840
O O1 0.755249 0.148106 0.640398
O O2 0.700666 0.009087 0.337432
O O3 0.717062 0.178030 0.144519
O O4 0.884138 0.079415 0.248264
O O5 0.861072 0.325102 0.375035
O O6 0.059355 0.291571 0.165464
O O7 0.034359 0.423738 0.464395
O O8 0.941556 0.439175 0.025070
O O9 0.754665 0.691351 0.317646
O O10 0.656932 0.393316 0.452847
O O11 0.820907 0.471495 0.640832
O O12 0.994013 0.069872 0.800147
#
# Coordination Sequence:
#
# PCOD8157194 Si02
#       6
#     4   4   4   4   4   4
#     4  11  23  42  70 102 142 179 228 291 360 420
#     4  10  22  44  66 100 138 184 234 299 353 421
#     4  11  26  44  67 104 147 180 229 303 367 412
#     4  11  25  43  69  98 139 191 238 296 353 429
#     4  11  22  43  71 100 135 191 251 283 347 438
#     4  10  22  40  71 100 135 185 236 284 352 428
#
# _framework density 25.536166000000001
#
# number of rings (size 3 to 8) (size 9 to 14) (size 15 to 20)
#    0.000    1.333    3.333    2.000    4.667    1.333 
#    0.000    0.000    0.000    0.000    0.000    0.000 
#    0.000    0.000    0.000    0.000    0.000    0.000 
#
# Total GULP energy -297324.324801 kJ/mol
# GULP energy per Si atom -12388.513533 kJ/mol
# Density = 2.547804 g / cm^3
# Si number density = 25.536166 Si / 1000 Ang^3
#
#
#
# Elastic Constant Matrix: (Units=GPa)
#
#
# Indices 1 2 3 4 5 6 
#
# 1 77.7195 7.2885 3.9002 0.0000 0.0000 0.0000
# 2 7.2885 39.6131 -9.7024 0.0000 0.0000 0.0000
# 3 3.9002 -9.7024 57.5446 0.0000 0.0000 0.0000
# 4 0.0000 0.0000 0.0000 29.5676 0.0000 0.0000
# 5 0.0000 0.0000 0.0000 0.0000 32.3394 0.0000
# 6 0.0000 0.0000 0.0000 0.0000 0.0000 35.0352
#
#
#
# Elastic Compliance Matrix: (Units=1/GPa)
#
#
# Indices 1 2 3 4 5 6 
#
# 1 0.013194 -0.002761 -0.001360 0.000000 0.000000 0.000000
# 2 -0.002761 0.026909 0.004724 0.000000 0.000000 0.000000
# 3 -0.001360 0.004724 0.018267 0.000000 0.000000 0.000000
# 4 0.000000 0.000000 0.000000 0.033821 0.000000 0.000000
# 5 0.000000 0.000000 0.000000 0.000000 0.030922 0.000000
# 6 0.000000 0.000000 0.000000 0.000000 0.000000 0.028543
#
#
# Mechanical properties :
#
#
# Convention : Reuss Voigt Hill
#
# Bulk Modulus (GPa) = 16.78491 19.76109 18.27300
# Shear Modulus (GPa) = 29.35883 30.94784 30.15333
#
# Velocity S-wave (km/s) = 3.39440 3.48504 3.44002
# Velocity P-wave (km/s) = 4.68506 4.89380 4.79057
#
# Compressibility (1/GPa) = 0.05957734
#
# Stress axis : x y z
#
# Youngs Moduli (GPa) = 75.79257 37.16205 54.74501
#
# Poissons Ratio (x) = 0.10259 0.07444
# Poissons Ratio (y) = 0.20923 -0.25863
# Poissons Ratio (z) = 0.10306 -0.17556
#
# Static dielectric constant tensor:
#      x y z
#    x 5.452420 0.000000 0.000000 
#    y 0.000000 4.102730 0.000000 
#    z 0.000000 0.000000 4.528810 
# 
# 
# High freq. dielectric constant tensor:
#      x y z
#    x 2.035790 0.000000 0.000000 
#    y 0.000000 1.981290 0.000000 
#    z 0.000000 0.000000 2.022200 
# 
# From -- ./inp_files/958.got.cif
#   From: 2010.03.12/outbox.cif.g09.slc.cpg/sg19_1_cif.got.tgz:958.got - 2010.04.10 18:59:41.
