data_PCOD8157199
_publ_section_title
;
Structure prediction by ZEFSAII (Michael W. Deem and Ramdas Pophale) SiO2 
 PCOD8157199
Probable space group: P 21 21 21
;
_chemical_formula_sum "Si O2"
_cell_formula_units_Z 24
_cell_length_a 11.589528
_cell_length_b 7.426526
_cell_length_c 14.233097
_cell_angle_alpha 90.000000
_cell_angle_beta 90.000000
_cell_angle_gamma 90.000000
_cell_volume 1225.041677
_symmetry_space_group_name_H-M "P 21 21 21"
_symmetry_group_IT_number 19
_symmetry_cell_setting 'orthorhombic'
loop_
_space_group_symop_operation_xyz
x,y,z
1/2-x,-y,1/2+z
1/2+x,1/2-y,-z
-x,1/2+y,1/2-z
loop_
_atom_site_type_symbol
_atom_site_label
_atom_site_fract_x
_atom_site_fract_y
_atom_site_fract_z
Si Si1 0.345976 0.430643 0.102025
Si Si2 0.332246 0.603719 0.756316
Si Si3 0.236774 0.275860 0.460606
Si Si4 0.821476 0.393393 0.024492
Si Si5 0.921174 0.490577 0.533303
Si Si6 0.014708 0.672440 0.351494
O O1 0.281955 0.457773 0.200251
O O2 0.282679 0.547938 0.021860
O O3 0.343283 0.222291 0.069368
O O4 0.479723 0.491042 0.112723
O O5 0.291363 0.688896 0.852812
O O6 0.413649 0.431892 0.772053
O O7 0.399505 0.749804 0.694254
O O8 0.157029 0.106747 0.496004
O O9 0.371322 0.213820 0.468730
O O10 0.904715 0.330716 0.108159
O O11 0.685606 0.372714 0.054851
O O12 0.980081 0.532820 0.433083
#
# Coordination Sequence:
#
# PCOD8157199 Si02
#       6
#     4   4   4   4   4   4
#     4  11  22  43  63  94 127 171 209 262 326 371
#     4  12  23  38  67  97 127 166 220 260 315 385
#     4  10  22  41  62  93 127 166 211 256 319 375
#     4   9  20  43  61  89 131 160 203 267 317 370
#     4   9  21  43  61  86 131 163 211 261 316 380
#     4  11  22  38  66  97 125 162 214 268 311 379
#
# _framework density 19.591170000000002
#
# number of rings (size 3 to 8) (size 9 to 14) (size 15 to 20)
#    1.000    0.667    5.000    1.000    2.333    1.333 
#    6.000    0.000    0.000    0.000    0.000    0.000 
#    0.000    0.000    0.000    0.000    0.000    0.000 
#
# Total GULP energy -297450.214554 kJ/mol
# GULP energy per Si atom -12393.758940 kJ/mol
# Density = 1.954658 g / cm^3
# Si number density = 19.591170 Si / 1000 Ang^3
#
#
#
# Elastic Constant Matrix: (Units=GPa)
#
#
# Indices 1 2 3 4 5 6 
#
# 1 85.7925 -3.6474 16.0887 0.0000 0.0000 0.0000
# 2 -3.6474 50.9252 23.4801 0.0000 0.0000 0.0000
# 3 16.0887 23.4801 67.0126 0.0000 0.0000 0.0000
# 4 0.0000 0.0000 0.0000 18.7170 0.0000 0.0000
# 5 0.0000 0.0000 0.0000 0.0000 30.4251 0.0000
# 6 0.0000 0.0000 0.0000 0.0000 0.0000 36.1472
#
#
#
# Elastic Compliance Matrix: (Units=1/GPa)
#
#
# Indices 1 2 3 4 5 6 
#
# 1 0.012514 0.002721 -0.003958 0.000000 0.000000 0.000000
# 2 0.002721 0.024012 -0.009067 0.000000 0.000000 0.000000
# 3 -0.003958 -0.009067 0.019050 0.000000 0.000000 0.000000
# 4 0.000000 0.000000 0.000000 0.053427 0.000000 0.000000
# 5 0.000000 0.000000 0.000000 0.000000 0.032868 0.000000
# 6 0.000000 0.000000 0.000000 0.000000 0.000000 0.027665
#
#
# Mechanical properties :
#
#
# Convention : Reuss Voigt Hill
#
# Bulk Modulus (GPa) = 28.59702 30.61923 29.60812
# Shear Modulus (GPa) = 24.77723 28.24512 26.51118
#
# Velocity S-wave (km/s) = 3.56014 3.80113 3.68261
# Velocity P-wave (km/s) = 5.61498 5.90997 5.76437
#
# Compressibility (1/GPa) = 0.03496867
#
# Stress axis : x y z
#
# Youngs Moduli (GPa) = 79.91092 41.64597 52.49451
#
# Poissons Ratio (x) = -0.11332 0.20777
# Poissons Ratio (y) = -0.21745 0.47595
# Poissons Ratio (z) = 0.31628 0.37759
#
# Static dielectric constant tensor:
#      x y z
#    x 3.805680 0.000000 0.000000 
#    y 0.000000 3.491970 0.000000 
#    z 0.000000 0.000000 3.328870 
# 
# 
# High freq. dielectric constant tensor:
#      x y z
#    x 1.773140 0.000000 0.000000 
#    y 0.000000 1.758860 0.000000 
#    z 0.000000 0.000000 1.738470 
# 
# From -- ./inp_files/6059.got.cif
#   From: 2010.03.12/outbox.cif.g09.slc.cpg/sg19_4_cif.got.tgz:6059.got - 2010.04.10 18:59:41.
