data_PCOD8157269
_publ_section_title
;
Structure prediction by ZEFSAII (Michael W. Deem and Ramdas Pophale) SiO2 
 PCOD8157269
Probable space group: P 21 21 21
;
_chemical_formula_sum "Si O2"
_cell_formula_units_Z 28
_cell_length_a 8.612261
_cell_length_b 5.306088
_cell_length_c 26.271263
_cell_angle_alpha 90.000000
_cell_angle_beta 90.000000
_cell_angle_gamma 90.000000
_cell_volume 1200.528801
_symmetry_space_group_name_H-M "P 21 21 21"
_symmetry_group_IT_number 19
_symmetry_cell_setting 'orthorhombic'
loop_
_space_group_symop_operation_xyz
x,y,z
1/2-x,-y,1/2+z
1/2+x,1/2-y,-z
-x,1/2+y,1/2-z
loop_
_atom_site_type_symbol
_atom_site_label
_atom_site_fract_x
_atom_site_fract_y
_atom_site_fract_z
Si Si1 0.945507 0.448377 0.961934
Si Si2 0.083515 0.910897 0.733810
Si Si3 0.470109 0.162210 0.383906
Si Si4 0.701865 0.245896 0.684014
Si Si5 0.943150 0.238249 0.144719
Si Si6 0.306748 0.272162 0.134709
Si Si7 0.748405 0.308717 0.053958
O O1 0.951071 0.710514 0.932640
O O2 0.123948 0.370194 0.974663
O O3 0.858839 0.259098 0.923764
O O4 0.845085 0.472978 0.013147
O O5 0.245423 0.812221 0.758693
O O6 0.118804 0.936273 0.672996
O O7 0.958056 0.685697 0.743647
O O8 0.363150 0.327843 0.345802
O O9 0.609450 0.036971 0.350764
O O10 0.345585 0.968883 0.405774
O O11 0.614091 0.489489 0.662837
O O12 0.595768 0.993744 0.682969
O O13 0.872426 0.159359 0.089339
O O14 0.124835 0.273143 0.138877
#
# Coordination Sequence:
#
# PCOD8157269 Si02
#       7
#     4   4   4   4   4   4   4
#     4  11  22  43  67  93 139 177 234 282 351 412
#     4  12  25  42  75 102 134 183 240 284 351 419
#     4  10  22  43  65  94 135 179 231 286 342 417
#     4  11  23  45  69  97 140 183 224 290 351 409
#     4  11  25  44  67 101 144 178 226 291 355 412
#     4  11  26  42  67 103 133 180 239 289 346 427
#     4  10  23  39  64  96 129 180 226 280 346 418
#
# _framework density 23.323056000000001
#
# number of rings (size 3 to 8) (size 9 to 14) (size 15 to 20)
#    0.000    1.143    2.857    2.571    4.000    4.571 
#    2.571    0.000    0.000    0.000    0.000    0.000 
#    0.000    0.000    0.000    0.000    0.000    0.000 
#
# Total GULP energy -346925.020759 kJ/mol
# GULP energy per Si atom -12390.179313 kJ/mol
# Density = 2.326997 g / cm^3
# Si number density = 23.323056 Si / 1000 Ang^3
#
#
#
# Elastic Constant Matrix: (Units=GPa)
#
#
# Indices 1 2 3 4 5 6 
#
# 1 122.0462 16.4976 -3.0281 0.0000 0.0000 0.0000
# 2 16.4976 73.9482 -30.4957 0.0000 0.0000 0.0000
# 3 -3.0281 -30.4957 31.6174 0.0000 0.0000 0.0000
# 4 0.0000 0.0000 0.0000 22.9386 0.0000 0.0000
# 5 0.0000 0.0000 0.0000 0.0000 34.8596 0.0000
# 6 0.0000 0.0000 0.0000 0.0000 0.0000 21.2314
#
#
#
# Elastic Compliance Matrix: (Units=1/GPa)
#
#
# Indices 1 2 3 4 5 6 
#
# 1 0.008502 -0.002592 -0.001686 0.000000 0.000000 0.000000
# 2 -0.002592 0.023245 0.022172 0.000000 0.000000 0.000000
# 3 -0.001686 0.022172 0.052852 0.000000 0.000000 0.000000
# 4 0.000000 0.000000 0.000000 0.043595 0.000000 0.000000
# 5 0.000000 0.000000 0.000000 0.000000 0.028686 0.000000
# 6 0.000000 0.000000 0.000000 0.000000 0.000000 0.047100
#
#
# Mechanical properties :
#
#
# Convention : Reuss Voigt Hill
#
# Bulk Modulus (GPa) = 8.30655 21.50660 14.90658
# Shear Modulus (GPa) = 24.00144 32.11512 28.05828
#
# Velocity S-wave (km/s) = 3.21142 3.71478 3.47223
# Velocity P-wave (km/s) = 4.16175 5.25744 4.74135
#
# Compressibility (1/GPa) = 0.12038696
#
# Stress axis : x y z
#
# Youngs Moduli (GPa) = 117.61702 43.02051 18.92078
#
# Poissons Ratio (x) = 0.11151 0.03190
# Poissons Ratio (y) = 0.30486 -0.41951
# Poissons Ratio (z) = 0.19827 -0.95384
#
# Static dielectric constant tensor:
#      x y z
#    x 4.342430 0.000000 0.000000 
#    y 0.000000 4.015050 0.000000 
#    z 0.000000 0.000000 4.257980 
# 
# 
# High freq. dielectric constant tensor:
#      x y z
#    x 1.929530 0.000000 0.000000 
#    y 0.000000 1.911470 0.000000 
#    z 0.000000 0.000000 1.922080 
# 
# From -- ./inp_files/2438.got.cif
#   From: 2010.03.12/outbox.cif.g09.slc.cpg/sg19_2_cif.got.tgz:2438.got - 2010.04.10 18:59:41.
