data_PCOD8157724
_publ_section_title
;
Structure prediction by ZEFSAII (Michael W. Deem and Ramdas Pophale) SiO2 
 PCOD8157724
Probable space group: P 21 21 21
;
_chemical_formula_sum "Si O2"
_cell_formula_units_Z 16
_cell_length_a 10.954509
_cell_length_b 11.055454
_cell_length_c 5.099022
_cell_angle_alpha 90.000000
_cell_angle_beta 90.000000
_cell_angle_gamma 90.000000
_cell_volume 617.527616
_symmetry_space_group_name_H-M "P 21 21 21"
_symmetry_group_IT_number 19
_symmetry_cell_setting 'orthorhombic'
loop_
_space_group_symop_operation_xyz
x,y,z
1/2-x,-y,1/2+z
1/2+x,1/2-y,-z
-x,1/2+y,1/2-z
loop_
_atom_site_type_symbol
_atom_site_label
_atom_site_fract_x
_atom_site_fract_y
_atom_site_fract_z
Si Si1 0.418966 0.844487 0.743330
Si Si2 0.734465 0.332293 0.253401
Si Si3 0.994446 0.409329 0.362458
Si Si4 0.288528 0.568767 0.191493
O O1 0.314549 0.876191 0.528743
O O2 0.464356 0.706074 0.683075
O O3 0.522531 0.952199 0.740365
O O4 0.371986 0.848957 0.037811
O O5 0.848172 0.407069 0.368792
O O6 0.776490 0.192975 0.226538
O O7 0.065828 0.405014 0.641382
O O8 0.269428 0.468812 0.411879
#
# Coordination Sequence:
#
# PCOD8157724 Si02
#       4
#     4   4   4   4
#     4  11  26  43  68 101 134 178 230 280 340 414
#     4  11  25  44  67 100 136 178 232 281 339 414
#     4  11  25  45  71  97 138 182 222 285 347 398
#     4  11  24  42  66 100 136 174 226 280 338 412
#
# _framework density 25.909773999999999
#
# number of rings (size 3 to 8) (size 9 to 14) (size 15 to 20)
#    0.000    1.000    0.000    6.000    0.000   16.000 
#    0.000    0.000    0.000    0.000    0.000    0.000 
#    0.000    0.000    0.000    0.000    0.000    0.000 
#
# Total GULP energy -198209.472141 kJ/mol
# GULP energy per Si atom -12388.092009 kJ/mol
# Density = 2.585080 g / cm^3
# Si number density = 25.909774 Si / 1000 Ang^3
#
#
#
# Elastic Constant Matrix: (Units=GPa)
#
#
# Indices 1 2 3 4 5 6 
#
# 1 52.5701 43.2621 19.9268 0.0000 0.0000 0.0000
# 2 43.2621 187.3140 21.7096 0.0000 0.0000 0.0000
# 3 19.9268 21.7096 97.8233 0.0000 0.0000 0.0000
# 4 0.0000 0.0000 0.0000 22.9512 0.0000 0.0000
# 5 0.0000 0.0000 0.0000 0.0000 14.1672 0.0000
# 6 0.0000 0.0000 0.0000 0.0000 0.0000 47.4917
#
#
#
# Elastic Compliance Matrix: (Units=1/GPa)
#
#
# Indices 1 2 3 4 5 6 
#
# 1 0.024848 -0.005288 -0.003888 0.000000 0.000000 0.000000
# 2 -0.005288 0.006605 -0.000389 0.000000 0.000000 0.000000
# 3 -0.003888 -0.000389 0.011101 0.000000 0.000000 0.000000
# 4 0.000000 0.000000 0.000000 0.043571 0.000000 0.000000
# 5 0.000000 0.000000 0.000000 0.000000 0.070585 0.000000
# 6 0.000000 0.000000 0.000000 0.000000 0.000000 0.021056
#
#
# Mechanical properties :
#
#
# Convention : Reuss Voigt Hill
#
# Bulk Modulus (GPa) = 42.69126 56.38939 49.54033
# Shear Modulus (GPa) = 24.42554 33.77596 29.10075
#
# Velocity S-wave (km/s) = 3.07370 3.61446 3.35499
# Velocity P-wave (km/s) = 5.39532 6.26339 5.84549
#
# Compressibility (1/GPa) = 0.02342400
#
# Stress axis : x y z
#
# Youngs Moduli (GPa) = 40.24489 151.39936 90.08410
#
# Poissons Ratio (x) = 0.80064 0.35024
# Poissons Ratio (y) = 0.21283 0.03501
# Poissons Ratio (z) = 0.15647 0.05883
#
# Static dielectric constant tensor:
#      x y z
#    x 4.591290 0.000000 0.000000 
#    y 0.000000 5.540520 0.000000 
#    z 0.000000 0.000000 4.185670 
# 
# 
# High freq. dielectric constant tensor:
#      x y z
#    x 2.027790 0.000000 0.000000 
#    y 0.000000 2.078230 0.000000 
#    z 0.000000 0.000000 2.007450 
# 
# From -- ./inp_files/765.got.cif
#   From: 2010.03.12/outbox.cif.g09.slc.cpg/sg19_1_cif.got.tgz:765.got - 2010.04.10 18:59:41.
