data_PCOD8157981
_publ_section_title
;
Structure prediction by ZEFSAII (Michael W. Deem and Ramdas Pophale) SiO2 
 PCOD8157981
Probable space group: C 2 2 21
;
_chemical_formula_sum "Si O2"
_cell_formula_units_Z 56
_cell_length_a 5.270932
_cell_length_b 18.266175
_cell_length_c 27.992099
_cell_angle_alpha 90.000000
_cell_angle_beta 90.000000
_cell_angle_gamma 90.000000
_cell_volume 2695.072751
_symmetry_space_group_name_H-M "C 2 2 21"
_symmetry_group_IT_number 20
_symmetry_cell_setting 'orthorhombic'
loop_
_space_group_symop_operation_xyz
x,y,z
-x,-y,1/2+z
x,-y,-z
-x,y,1/2-z
1/2+x,1/2+y,z
1/2-x,1/2-y,1/2+z
1/2+x,1/2-y,-z
1/2-x,1/2+y,1/2-z
loop_
_atom_site_type_symbol
_atom_site_label
_atom_site_fract_x
_atom_site_fract_y
_atom_site_fract_z
Si Si1 0.999942 0.585933 0.011794
Si Si2 0.499998 0.786877 0.695096
Si Si3 0.000001 0.036488 0.145847
Si Si4 0.999998 0.211398 0.361499
Si Si5 0.499999 0.038940 0.302927
Si Si6 0.999940 0.051834 0.045259
Si Si7 0.499946 0.770119 0.469694
O O1 0.750292 0.603158 0.043869
O O2 0.249545 0.603142 0.043886
O O3 0.999876 0.500000 0.000000
O O4 0.000005 0.640172 0.966394
O O5 0.500000 0.757166 0.750000
O O6 0.751021 0.759522 0.666884
O O7 0.500000 0.874119 0.696923
O O8 0.248977 0.759522 0.666884
O O9 0.999997 0.123732 0.138385
O O10 0.248508 0.007664 0.172378
O O11 0.751490 0.007664 0.172377
O O12 0.000003 0.002143 0.092733
O O13 0.999993 0.239905 0.415919
O O14 0.500000 0.007183 0.250000
O O15 0.999866 0.000000 0.000000
O O16 0.749900 0.749989 0.500010
#
# Coordination Sequence:
#
# PCOD8157981 Si02
#       7
#     8   8   8   8   8   8   8
#     4  10  21  37  54  73 106 145 181 221 263 314
#     4   9  17  30  46  67  99 136 172 211 260 321
#     4  10  17  28  45  66  98 132 164 210 264 313
#     4  10  19  29  46  72 101 137 173 211 266 320
#     4   9  17  27  42  65  95 131 166 202 257 326
#     4  10  20  34  52  73  99 136 183 224 263 318
#     4  12  23  35  53  80 115 151 185 227 277 328
#
# _framework density 20.778661
#
# number of rings (size 3 to 8) (size 9 to 14) (size 15 to 20)
#    0.000    2.000    0.000    5.143    0.000    5.714 
#    0.000    0.000    0.000    0.000    0.000    0.000 
#    0.000   91.429    0.000    5.714    0.000    0.000 
#
# Total GULP energy -346886.008545 kJ/mol
# GULP energy per Si atom -12388.786019 kJ/mol
# Density = 2.073137 g / cm^3
# Si number density = 20.778661 Si / 1000 Ang^3
#
#
#
# Elastic Constant Matrix: (Units=GPa)
#
#
# Indices 1 2 3 4 5 6 
#
# 1 236.7764 2.8646 94.1583 0.0000 0.0000 0.0000
# 2 2.8646 44.4218 9.8547 0.0000 0.0000 0.0000
# 3 94.1583 9.8547 199.2770 0.0000 0.0000 0.0000
# 4 0.0000 0.0000 0.0000 22.6572 0.0000 0.0000
# 5 0.0000 0.0000 0.0000 0.0000 40.8974 0.0000
# 6 0.0000 0.0000 0.0000 0.0000 0.0000 -6.2820
#
#
#
# Elastic Compliance Matrix: (Units=1/GPa)
#
#
# Indices 1 2 3 4 5 6 
#
# 1 0.005203 0.000212 -0.002469 0.000000 0.000000 0.000000
# 2 0.000212 0.022770 -0.001226 0.000000 0.000000 0.000000
# 3 -0.002469 -0.001226 0.006245 0.000000 0.000000 0.000000
# 4 0.000000 0.000000 0.000000 0.044136 0.000000 0.000000
# 5 0.000000 0.000000 0.000000 0.000000 0.024451 0.000000
# 6 0.000000 0.000000 0.000000 0.000000 0.000000 -0.159185
#
#
# Mechanical properties :
#
#
# Convention : Reuss Voigt Hill
#
# Bulk Modulus (GPa) = 36.69452 77.13671 56.91562
# Shear Modulus (GPa) = -123.97697 36.36103 -43.80797
#
# Velocity S-wave (km/s) = -7.73273 4.18774 -4.59662
# Velocity P-wave (km/s) = 7.87583 7.78374 0.84915
#
# Compressibility (1/GPa) = 0.02725203
#
# Stress axis : x y z
#
# Youngs Moduli (GPa) = 192.21356 43.91777 160.12199
#
# Poissons Ratio (x) = -0.00932 0.39529
# Poissons Ratio (y) = -0.04078 0.19635
# Poissons Ratio (z) = 0.47452 0.05386
#
# Static dielectric constant tensor:
#      x y z
#    x 6.175780 0.000000 0.000000 
#    y 0.000000 3.174790 0.000000 
#    z 0.000000 0.000000 3.942580 
# 
# 
# High freq. dielectric constant tensor:
#      x y z
#    x 1.851160 0.000000 0.000000 
#    y 0.000000 1.743200 0.000000 
#    z 0.000000 0.000000 1.818380 
# 
# From -- ./inp_files/28434.got.cif
#   From: 2010.03.12/outbox.cif.g09.slc.cpg/sg20_15_cif.got.tgz:28434.got - 2010.04.14 01:38:04.
