data_PCOD8157786
_publ_section_title
;
Structure prediction by ZEFSAII (Michael W. Deem and Ramdas Pophale) SiO2 
 PCOD8157786
Probable space group: P 21 21 21
;
_chemical_formula_sum "Si O2"
_cell_formula_units_Z 32
_cell_length_a 22.027199
_cell_length_b 4.997369
_cell_length_c 12.165749
_cell_angle_alpha 90.000000
_cell_angle_beta 90.000000
_cell_angle_gamma 90.000000
_cell_volume 1339.181823
_symmetry_space_group_name_H-M "P 21 21 21"
_symmetry_group_IT_number 19
_symmetry_cell_setting 'orthorhombic'
loop_
_space_group_symop_operation_xyz
x,y,z
1/2-x,-y,1/2+z
1/2+x,1/2-y,-z
-x,1/2+y,1/2-z
loop_
_atom_site_type_symbol
_atom_site_label
_atom_site_fract_x
_atom_site_fract_y
_atom_site_fract_z
Si Si1 0.607367 0.720164 0.877283
Si Si2 0.392116 0.449565 0.078306
Si Si3 0.242775 0.033571 0.843555
Si Si4 0.983100 0.657941 0.024031
Si Si5 0.625554 0.642358 0.631850
Si Si6 0.777948 0.033221 0.790085
Si Si7 0.016130 0.885294 0.682549
Si Si8 0.322520 0.716496 0.549247
O O1 0.535762 0.709319 0.904328
O O2 0.615777 0.789236 0.748609
O O3 0.632078 0.423448 0.894406
O O4 0.642595 0.932157 0.954879
O O5 0.339045 0.573354 0.151946
O O6 0.414890 0.196434 0.150976
O O7 0.449365 0.642105 0.060233
O O8 0.366920 0.371904 0.959006
O O9 0.312314 0.967348 0.879033
O O10 0.252750 0.259834 0.750203
O O11 0.211740 0.755169 0.805869
O O12 0.198481 0.172040 0.931790
O O13 0.933807 0.534840 0.107053
O O14 0.014360 0.450418 0.937146
O O15 0.737128 0.185643 0.878131
O O16 0.980010 0.639562 0.736750
#
# Coordination Sequence:
#
# PCOD8157786 Si02
#       8
#     4   4   4   4   4   4   4   4
#     4  12  29  49  75 107 156 193 248 308 381 441
#     4  11  27  47  77 110 145 198 251 307 368 456
#     4  12  27  48  77 112 148 195 250 313 371 441
#     4  11  29  47  77 113 149 202 251 306 376 451
#     4  11  26  46  77 107 148 192 249 308 368 442
#     4  12  26  47  75 108 146 192 251 302 381 436
#     4  11  24  48  74 104 149 192 245 303 366 438
#     4  12  26  50  72 111 149 196 243 311 375 445
#
# _framework density 23.895188999999998
#
# number of rings (size 3 to 8) (size 9 to 14) (size 15 to 20)
#    0.000    0.500    5.000    0.750   12.250    4.000 
#    0.000    0.000    0.000    0.000    0.000    0.000 
#    0.000    0.000    0.000    0.000    0.000    0.000 
#
# Total GULP energy -396704.144316 kJ/mol
# GULP energy per Si atom -12397.004510 kJ/mol
# Density = 2.384080 g / cm^3
# Si number density = 23.895189 Si / 1000 Ang^3
#
#
#
# Elastic Constant Matrix: (Units=GPa)
#
#
# Indices 1 2 3 4 5 6 
#
# 1 114.9579 22.5224 55.8740 0.0000 0.0000 0.0000
# 2 22.5224 92.5661 18.4844 0.0000 0.0000 0.0000
# 3 55.8740 18.4844 83.9300 0.0000 0.0000 0.0000
# 4 0.0000 0.0000 0.0000 36.7066 0.0000 0.0000
# 5 0.0000 0.0000 0.0000 0.0000 40.1162 0.0000
# 6 0.0000 0.0000 0.0000 0.0000 0.0000 31.2901
#
#
#
# Elastic Compliance Matrix: (Units=1/GPa)
#
#
# Indices 1 2 3 4 5 6 
#
# 1 0.013058 -0.001508 -0.008361 0.000000 0.000000 0.000000
# 2 -0.001508 0.011474 -0.001523 0.000000 0.000000 0.000000
# 3 -0.008361 -0.001523 0.017816 0.000000 0.000000 0.000000
# 4 0.000000 0.000000 0.000000 0.027243 0.000000 0.000000
# 5 0.000000 0.000000 0.000000 0.000000 0.024928 0.000000
# 6 0.000000 0.000000 0.000000 0.000000 0.000000 0.031959
#
#
# Mechanical properties :
#
#
# Convention : Reuss Voigt Hill
#
# Bulk Modulus (GPa) = 51.11293 53.91283 52.51288
# Shear Modulus (GPa) = 32.09591 34.59414 33.34502
#
# Velocity S-wave (km/s) = 3.66894 3.80905 3.73965
# Velocity P-wave (km/s) = 6.27575 6.47737 6.37736
#
# Compressibility (1/GPa) = 0.01956452
#
# Stress axis : x y z
#
# Youngs Moduli (GPa) = 76.58190 87.15284 56.12864
#
# Poissons Ratio (x) = 0.13139 0.46929
# Poissons Ratio (y) = 0.11545 0.08551
# Poissons Ratio (z) = 0.64029 0.13277
#
# Static dielectric constant tensor:
#      x y z
#    x 4.192660 0.000000 0.000000 
#    y 0.000000 4.302690 0.000000 
#    z 0.000000 0.000000 4.411090 
# 
# 
# High freq. dielectric constant tensor:
#      x y z
#    x 1.944920 0.000000 0.000000 
#    y 0.000000 1.946820 0.000000 
#    z 0.000000 0.000000 1.956700 
# 
# From -- ./inp_files/5522.got.cif
#   From: 2010.03.12/outbox.cif.g09.slc.cpg/sg19_3_cif.got.tgz:5522.got - 2010.04.10 18:59:41.
