data_PCOD8157532
_publ_section_title
;
Structure prediction by ZEFSAII (Michael W. Deem and Ramdas Pophale) SiO2 
 PCOD8157532
Probable space group: P 21 21 21
;
_chemical_formula_sum "Si O2"
_cell_formula_units_Z 32
_cell_length_a 12.842586
_cell_length_b 11.136439
_cell_length_c 8.937114
_cell_angle_alpha 90.000000
_cell_angle_beta 90.000000
_cell_angle_gamma 90.000000
_cell_volume 1278.192082
_symmetry_space_group_name_H-M "P 21 21 21"
_symmetry_group_IT_number 19
_symmetry_cell_setting 'orthorhombic'
loop_
_space_group_symop_operation_xyz
x,y,z
1/2-x,-y,1/2+z
1/2+x,1/2-y,-z
-x,1/2+y,1/2-z
loop_
_atom_site_type_symbol
_atom_site_label
_atom_site_fract_x
_atom_site_fract_y
_atom_site_fract_z
Si Si1 0.548651 0.427892 0.329390
Si Si2 0.564739 0.771058 0.947274
Si Si3 0.490205 0.510175 0.010596
Si Si4 0.740222 0.966892 0.587131
Si Si5 0.243146 0.665002 0.696259
Si Si6 0.747366 0.268686 0.259048
Si Si7 0.892187 0.334153 0.992041
Si Si8 0.942697 0.694403 0.338338
O O1 0.454813 0.362459 0.417040
O O2 0.492126 0.485230 0.186832
O O3 0.639370 0.334572 0.289766
O O4 0.599999 0.533250 0.426618
O O5 0.686207 0.741270 0.913835
O O6 0.517958 0.832175 0.799958
O O7 0.504223 0.649196 0.982308
O O8 0.384101 0.465359 0.933867
O O9 0.578249 0.430287 0.927052
O O10 0.786003 0.934521 0.423408
O O11 0.777418 0.865723 0.704046
O O12 0.779884 0.095807 0.647889
O O13 0.143203 0.738358 0.635936
O O14 0.333137 0.761371 0.723917
O O15 0.809782 0.338535 0.128337
O O16 0.004807 0.291050 0.049455
#
# Coordination Sequence:
#
# PCOD8157532 Si02
#       8
#     4   4   4   4   4   4   4   4
#     4  12  30  46  78 115 155 199 256 326 379 460
#     4  11  27  47  76 110 147 204 260 307 385 466
#     4  12  25  49  69 113 151 192 255 318 380 461
#     4  11  24  46  73 105 146 197 251 315 379 459
#     4  11  24  45  76 107 145 201 249 319 382 463
#     4  10  25  49  73 110 151 199 257 303 392 452
#     4  10  25  49  71 108 149 202 244 315 391 452
#     4  11  24  47  76 100 150 200 254 307 392 445
#
# _framework density 25.035361999999999
#
# number of rings (size 3 to 8) (size 9 to 14) (size 15 to 20)
#    0.000    1.000    5.000    1.500   12.250    1.000 
#    4.500    0.000    0.000    0.000    0.000    0.000 
#    0.000    0.000    0.000    0.000    0.000    0.000 
#
# Total GULP energy -396836.871438 kJ/mol
# GULP energy per Si atom -12401.152232 kJ/mol
# Density = 2.497838 g / cm^3
# Si number density = 25.035362 Si / 1000 Ang^3
#
#
#
# Elastic Constant Matrix: (Units=GPa)
#
#
# Indices 1 2 3 4 5 6 
#
# 1 57.7711 20.7086 27.3541 0.0000 0.0000 0.0000
# 2 20.7086 109.0692 46.4702 0.0000 0.0000 0.0000
# 3 27.3541 46.4702 92.9082 0.0000 0.0000 0.0000
# 4 0.0000 0.0000 0.0000 44.9819 0.0000 0.0000
# 5 0.0000 0.0000 0.0000 0.0000 34.6854 0.0000
# 6 0.0000 0.0000 0.0000 0.0000 0.0000 14.6826
#
#
#
# Elastic Compliance Matrix: (Units=1/GPa)
#
#
# Indices 1 2 3 4 5 6 
#
# 1 0.020349 -0.001666 -0.005158 0.000000 0.000000 0.000000
# 2 -0.001666 0.011788 -0.005405 0.000000 0.000000 0.000000
# 3 -0.005158 -0.005405 0.014986 0.000000 0.000000 0.000000
# 4 0.000000 0.000000 0.000000 0.022231 0.000000 0.000000
# 5 0.000000 0.000000 0.000000 0.000000 0.028831 0.000000
# 6 0.000000 0.000000 0.000000 0.000000 0.000000 0.068108
#
#
# Mechanical properties :
#
#
# Convention : Reuss Voigt Hill
#
# Bulk Modulus (GPa) = 44.12325 49.86823 46.99574
# Shear Modulus (GPa) = 25.21364 29.88438 27.54901
#
# Velocity S-wave (km/s) = 3.17696 3.45873 3.32083
# Velocity P-wave (km/s) = 5.57854 5.99272 5.78933
#
# Compressibility (1/GPa) = 0.02266379
#
# Stress axis : x y z
#
# Youngs Moduli (GPa) = 49.14216 84.83292 66.73089
#
# Poissons Ratio (x) = 0.14133 0.34419
# Poissons Ratio (y) = 0.08187 0.36071
# Poissons Ratio (z) = 0.25347 0.45856
#
# Static dielectric constant tensor:
#      x y z
#    x 4.281920 0.000000 0.000000 
#    y 0.000000 4.513170 0.000000 
#    z 0.000000 0.000000 4.763990 
# 
# 
# High freq. dielectric constant tensor:
#      x y z
#    x 1.990810 0.000000 0.000000 
#    y 0.000000 1.999870 0.000000 
#    z 0.000000 0.000000 2.006860 
# 
# From -- ./inp_files/3947.got.cif
#   From: 2010.03.12/outbox.cif.g09.slc.cpg/sg19_2_cif.got.tgz:3947.got - 2010.04.10 18:59:41.
