data_PCOD8157985
_publ_section_title
;
Structure prediction by ZEFSAII (Michael W. Deem and Ramdas Pophale) SiO2 
 PCOD8157985
Probable space group: C 2 2 21
;
_chemical_formula_sum "Si O2"
_cell_formula_units_Z 56
_cell_length_a 5.194903
_cell_length_b 30.986722
_cell_length_c 19.207795
_cell_angle_alpha 90.000000
_cell_angle_beta 90.000000
_cell_angle_gamma 90.000000
_cell_volume 3091.936674
_symmetry_space_group_name_H-M "C 2 2 21"
_symmetry_group_IT_number 20
_symmetry_cell_setting 'orthorhombic'
loop_
_space_group_symop_operation_xyz
x,y,z
-x,-y,1/2+z
x,-y,-z
-x,y,1/2-z
1/2+x,1/2+y,z
1/2-x,1/2-y,1/2+z
1/2+x,1/2-y,-z
1/2-x,1/2+y,1/2-z
loop_
_atom_site_type_symbol
_atom_site_label
_atom_site_fract_x
_atom_site_fract_y
_atom_site_fract_z
Si Si1 0.249909 0.606191 0.055577
Si Si2 0.250160 0.672160 0.796869
Si Si3 0.775463 0.294194 0.557862
Si Si4 0.750449 0.589238 0.607747
Si Si5 0.750201 0.039368 0.594461
Si Si6 0.775301 0.743722 0.591187
Si Si7 0.250267 0.556351 0.431095
O O1 0.253829 0.655965 0.076745
O O2 0.498690 0.583668 0.089193
O O3 0.000667 0.583724 0.089179
O O4 0.248922 0.601487 0.972868
O O5 0.500000 0.669235 0.750000
O O6 0.246494 0.632889 0.849825
O O7 0.255960 0.716626 0.838970
O O8 0.000000 0.670416 0.750000
O O9 0.762333 0.288183 0.474780
O O10 0.547250 0.267978 0.594589
O O11 0.047303 0.278400 0.587553
O O12 0.500438 0.561415 0.628107
O O13 0.998545 0.560935 0.628037
O O14 0.750442 0.046224 0.512355
O O15 0.750886 0.988446 0.611575
#
# Coordination Sequence:
#
# PCOD8157985 Si02
#       7
#     8   8   8   8   8   8   8
#     4  10  17  29  48  74 105 133 167 204 252 320
#     4  12  24  38  54  75 106 139 184 222 257 308
#     4  10  19  33  54  74 105 134 174 215 258 339
#     4  10  19  32  48  69 100 139 174 202 254 298
#     4   9  17  29  45  67 102 137 166 195 236 308
#     4  10  21  35  51  75 100 139 175 214 272 307
#     4   9  17  26  44  72 103 135 161 195 244 296
#
# _framework density 18.111626000000001
#
# number of rings (size 3 to 8) (size 9 to 14) (size 15 to 20)
#    0.000    2.000    1.429    3.429    0.000    3.429 
#    0.000    0.000    0.000    0.000    0.000    0.000 
#    0.000   80.000    0.000    0.000    0.000    0.000 
#
# Total GULP energy -347268.402660 kJ/mol
# GULP energy per Si atom -12402.442952 kJ/mol
# Density = 1.807040 g / cm^3
# Si number density = 18.111626 Si / 1000 Ang^3
#
#
#
# Elastic Constant Matrix: (Units=GPa)
#
#
# Indices 1 2 3 4 5 6 
#
# 1 141.6373 37.2264 15.3512 0.0000 0.0000 0.0000
# 2 37.2264 118.5549 10.3170 0.0000 0.0000 0.0000
# 3 15.3512 10.3170 25.7709 0.0000 0.0000 0.0000
# 4 0.0000 0.0000 0.0000 16.2183 0.0000 0.0000
# 5 0.0000 0.0000 0.0000 0.0000 12.4984 0.0000
# 6 0.0000 0.0000 0.0000 0.0000 0.0000 27.5039
#
#
#
# Elastic Compliance Matrix: (Units=1/GPa)
#
#
# Indices 1 2 3 4 5 6 
#
# 1 0.008061 -0.002190 -0.003925 0.000000 0.000000 0.000000
# 2 -0.002190 0.009334 -0.002432 0.000000 0.000000 0.000000
# 3 -0.003925 -0.002432 0.042115 0.000000 0.000000 0.000000
# 4 0.000000 0.000000 0.000000 0.061659 0.000000 0.000000
# 5 0.000000 0.000000 0.000000 0.000000 0.080010 0.000000
# 6 0.000000 0.000000 0.000000 0.000000 0.000000 0.036359
#
#
# Mechanical properties :
#
#
# Convention : Reuss Voigt Hill
#
# Bulk Modulus (GPa) = 23.57602 45.75025 34.66314
# Shear Modulus (GPa) = 18.60314 26.11534 22.35924
#
# Velocity S-wave (km/s) = 3.20838 3.80137 3.51739
# Velocity P-wave (km/s) = 5.17400 6.67699 5.97296
#
# Compressibility (1/GPa) = 0.04241598
#
# Stress axis : x y z
#
# Youngs Moduli (GPa) = 124.05052 107.13358 23.74427
#
# Poissons Ratio (x) = 0.23458 0.09320
# Poissons Ratio (y) = 0.27163 0.05776
# Poissons Ratio (z) = 0.48694 0.26060
#
# Static dielectric constant tensor:
#      x y z
#    x 3.641400 0.000000 0.000000 
#    y 0.000000 3.430810 0.000000 
#    z 0.000000 0.000000 2.867430 
# 
# 
# High freq. dielectric constant tensor:
#      x y z
#    x 1.726140 0.000000 0.000000 
#    y 0.000000 1.715850 0.000000 
#    z 0.000000 0.000000 1.639730 
# 
# From -- ./inp_files/26186.got.cif
#   From: 2010.03.12/outbox.cif.g09.slc.cpg/sg20_14_cif.got.tgz:26186.got - 2010.04.14 01:38:04.
