data_PCOD8157371
_publ_section_title
;
Structure prediction by ZEFSAII (Michael W. Deem and Ramdas Pophale) SiO2 
 PCOD8157371
Probable space group: P 21 21 21
;
_chemical_formula_sum "Si O2"
_cell_formula_units_Z 32
_cell_length_a 8.219965
_cell_length_b 19.847953
_cell_length_c 8.561157
_cell_angle_alpha 90.000000
_cell_angle_beta 90.000000
_cell_angle_gamma 90.000000
_cell_volume 1396.748304
_symmetry_space_group_name_H-M "P 21 21 21"
_symmetry_group_IT_number 19
_symmetry_cell_setting 'orthorhombic'
loop_
_space_group_symop_operation_xyz
x,y,z
1/2-x,-y,1/2+z
1/2+x,1/2-y,-z
-x,1/2+y,1/2-z
loop_
_atom_site_type_symbol
_atom_site_label
_atom_site_fract_x
_atom_site_fract_y
_atom_site_fract_z
Si Si1 0.787087 0.934241 0.895753
Si Si2 0.383486 0.192254 0.828738
Si Si3 0.097402 0.300786 0.478267
Si Si4 0.319854 0.210622 0.303174
Si Si5 0.130596 0.563527 0.424367
Si Si6 0.865106 0.437563 0.758088
Si Si7 0.273762 0.939759 0.433648
Si Si8 0.783696 0.798514 0.488316
O O1 0.644646 0.934132 0.765026
O O2 0.952855 0.936541 0.799513
O O3 0.787788 0.866877 0.002504
O O4 0.775238 0.997743 0.011016
O O5 0.466698 0.188618 0.660227
O O6 0.264245 0.128404 0.840380
O O7 0.521460 0.195227 0.966263
O O8 0.268940 0.258281 0.853906
O O9 0.207090 0.236146 0.444671
O O10 0.006462 0.286221 0.640912
O O11 0.272135 0.133386 0.269331
O O12 0.293032 0.258189 0.156089
O O13 0.212648 0.627139 0.506620
O O14 0.942503 0.563711 0.471514
O O15 0.763468 0.497386 0.680737
O O16 0.870102 0.451411 0.942316
#
# Coordination Sequence:
#
# PCOD8157371 Si02
#       8
#     4   4   4   4   4   4   4   4
#     4  10  25  47  66 100 141 180 236 282 352 418
#     4  11  24  43  70  98 140 178 237 288 354 418
#     4  10  25  43  68  98 136 184 220 297 344 414
#     4  10  23  43  64  97 137 171 240 275 360 406
#     4  11  26  42  72 102 138 187 238 286 358 424
#     4  10  23  44  63  98 130 182 228 290 341 417
#     4  11  24  42  68  99 135 180 234 287 352 420
#     4  11  24  42  69 100 133 182 231 291 349 419
#
# _framework density 22.910357000000001
#
# number of rings (size 3 to 8) (size 9 to 14) (size 15 to 20)
#    0.000    1.500    1.250    1.500   14.000    2.000 
#    2.250    0.000    0.000    0.000    0.000    0.000 
#    0.000    0.000    0.000    0.000    0.000    0.000 
#
# Total GULP energy -396793.095537 kJ/mol
# GULP energy per Si atom -12399.784236 kJ/mol
# Density = 2.285821 g / cm^3
# Si number density = 22.910357 Si / 1000 Ang^3
#
#
#
# Elastic Constant Matrix: (Units=GPa)
#
#
# Indices 1 2 3 4 5 6 
#
# 1 41.6230 32.2638 20.2345 0.0000 0.0000 0.0000
# 2 32.2638 132.5375 33.4518 0.0000 0.0000 0.0000
# 3 20.2345 33.4518 49.8190 0.0000 0.0000 0.0000
# 4 0.0000 0.0000 0.0000 40.8777 0.0000 0.0000
# 5 0.0000 0.0000 0.0000 0.0000 43.8252 0.0000
# 6 0.0000 0.0000 0.0000 0.0000 0.0000 32.3324
#
#
#
# Elastic Compliance Matrix: (Units=1/GPa)
#
#
# Indices 1 2 3 4 5 6 
#
# 1 0.033074 -0.005612 -0.009665 0.000000 0.000000 0.000000
# 2 -0.005612 0.010037 -0.004460 0.000000 0.000000 0.000000
# 3 -0.009665 -0.004460 0.026993 0.000000 0.000000 0.000000
# 4 0.000000 0.000000 0.000000 0.024463 0.000000 0.000000
# 5 0.000000 0.000000 0.000000 0.000000 0.022818 0.000000
# 6 0.000000 0.000000 0.000000 0.000000 0.000000 0.030929
#
#
# Mechanical properties :
#
#
# Convention : Reuss Voigt Hill
#
# Bulk Modulus (GPa) = 32.64816 43.98663 38.31740
# Shear Modulus (GPa) = 25.25288 32.60904 28.93096
#
# Velocity S-wave (km/s) = 3.32361 3.77680 3.55743
# Velocity P-wave (km/s) = 5.38608 6.18547 5.79957
#
# Compressibility (1/GPa) = 0.03062960
#
# Stress axis : x y z
#
# Youngs Moduli (GPa) = 30.23555 99.63319 37.04648
#
# Poissons Ratio (x) = 0.55911 0.35806
# Poissons Ratio (y) = 0.16967 0.16523
# Poissons Ratio (z) = 0.29223 0.44438
#
# Static dielectric constant tensor:
#      x y z
#    x 4.132400 0.000000 0.000000 
#    y 0.000000 4.442650 0.000000 
#    z 0.000000 0.000000 4.182110 
# 
# 
# High freq. dielectric constant tensor:
#      x y z
#    x 1.898000 0.000000 0.000000 
#    y 0.000000 1.917040 0.000000 
#    z 0.000000 0.000000 1.909930 
# 
# From -- ./inp_files/3155.got.cif
#   From: 2010.03.12/outbox.cif.g09.slc.cpg/sg19_2_cif.got.tgz:3155.got - 2010.04.10 18:59:41.
