data_PCOD8157014
_publ_section_title
;
Structure prediction by ZEFSAII (Michael W. Deem and Ramdas Pophale) SiO2 
 PCOD8157014
Probable space group: P 21 21 21
;
_chemical_formula_sum "Si O2"
_cell_formula_units_Z 24
_cell_length_a 9.830678
_cell_length_b 9.339387
_cell_length_c 13.306882
_cell_angle_alpha 90.000000
_cell_angle_beta 90.000000
_cell_angle_gamma 90.000000
_cell_volume 1221.738188
_symmetry_space_group_name_H-M "P 21 21 21"
_symmetry_group_IT_number 19
_symmetry_cell_setting 'orthorhombic'
loop_
_space_group_symop_operation_xyz
x,y,z
1/2-x,-y,1/2+z
1/2+x,1/2-y,-z
-x,1/2+y,1/2-z
loop_
_atom_site_type_symbol
_atom_site_label
_atom_site_fract_x
_atom_site_fract_y
_atom_site_fract_z
Si Si1 0.779157 0.060082 0.988566
Si Si2 0.431944 0.062081 0.490092
Si Si3 0.285097 0.959348 0.831677
Si Si4 0.429578 0.356080 0.601510
Si Si5 0.354509 0.278287 0.817672
Si Si6 0.843156 0.687339 0.372002
O O1 0.756969 0.192140 0.913595
O O2 0.657779 0.946135 0.978371
O O3 0.783617 0.113341 0.104007
O O4 0.918896 0.985830 0.955868
O O5 0.344473 0.099402 0.392228
O O6 0.445747 0.194506 0.564915
O O7 0.352588 0.936354 0.546146
O O8 0.422056 0.925551 0.892516
O O9 0.277390 0.875403 0.727846
O O10 0.273328 0.129514 0.812673
O O11 0.354771 0.356836 0.709813
O O12 0.509330 0.244623 0.850315
#
# Coordination Sequence:
#
# PCOD8157014 Si02
#       6
#     4   4   4   4   4   4
#     4  11  23  41  64  94 128 160 207 268 317 362
#     4  11  23  40  60  97 126 157 209 262 314 365
#     4  11  21  40  67  87 125 169 209 252 310 378
#     4  11  23  41  66  94 122 164 215 257 304 382
#     4  10  21  39  67  91 119 168 212 250 307 378
#     4  10  21  39  64  89 122 166 210 251 304 379
#
# _framework density 19.644141999999999
#
# number of rings (size 3 to 8) (size 9 to 14) (size 15 to 20)
#    0.000    1.333    5.000    1.000    0.000    1.333 
#    3.000    0.000    0.000    0.000    0.000    0.000 
#    0.000    0.000    0.000    0.000    0.000    0.000 
#
# Total GULP energy -297741.594183 kJ/mol
# GULP energy per Si atom -12405.899758 kJ/mol
# Density = 1.959943 g / cm^3
# Si number density = 19.644142 Si / 1000 Ang^3
#
#
#
# Elastic Constant Matrix: (Units=GPa)
#
#
# Indices 1 2 3 4 5 6 
#
# 1 81.9045 40.5013 34.9081 0.0000 0.0000 0.0000
# 2 40.5013 89.8953 30.1488 0.0000 0.0000 0.0000
# 3 34.9081 30.1488 73.4224 0.0000 0.0000 0.0000
# 4 0.0000 0.0000 0.0000 31.2501 0.0000 0.0000
# 5 0.0000 0.0000 0.0000 0.0000 32.1452 0.0000
# 6 0.0000 0.0000 0.0000 0.0000 0.0000 34.9319
#
#
#
# Elastic Compliance Matrix: (Units=1/GPa)
#
#
# Indices 1 2 3 4 5 6 
#
# 1 0.017707 -0.005977 -0.005964 0.000000 0.000000 0.000000
# 2 -0.005977 0.014918 -0.003284 0.000000 0.000000 0.000000
# 3 -0.005964 -0.003284 0.017804 0.000000 0.000000 0.000000
# 4 0.000000 0.000000 0.000000 0.032000 0.000000 0.000000
# 5 0.000000 0.000000 0.000000 0.000000 0.031109 0.000000
# 6 0.000000 0.000000 0.000000 0.000000 0.000000 0.028627
#
#
# Mechanical properties :
#
#
# Convention : Reuss Voigt Hill
#
# Bulk Modulus (GPa) = 50.05432 50.70429 50.37930
# Shear Modulus (GPa) = 27.88993 28.97636 28.43315
#
# Velocity S-wave (km/s) = 3.77206 3.84482 3.80861
# Velocity P-wave (km/s) = 6.67136 6.75112 6.71136
#
# Compressibility (1/GPa) = 0.01997829
#
# Stress axis : x y z
#
# Youngs Moduli (GPa) = 56.47434 67.03095 56.16745
#
# Poissons Ratio (x) = 0.40068 0.33500
# Poissons Ratio (y) = 0.33757 0.18445
# Poissons Ratio (z) = 0.33683 0.22012
#
# Static dielectric constant tensor:
#      x y z
#    x 3.440120 0.000000 0.000000 
#    y 0.000000 3.620350 0.000000 
#    z 0.000000 0.000000 3.572020 
# 
# 
# High freq. dielectric constant tensor:
#      x y z
#    x 1.751240 0.000000 0.000000 
#    y 0.000000 1.779450 0.000000 
#    z 0.000000 0.000000 1.766330 
# 
# From -- ./inp_files/2689.got.cif
#   From: 2010.03.12/outbox.cif.g09.slc.cpg/sg19_2_cif.got.tgz:2689.got - 2010.04.10 18:59:41.
