data_PCOD8157622
_publ_section_title
;
Structure prediction by ZEFSAII (Michael W. Deem and Ramdas Pophale) SiO2 
 PCOD8157622
Probable space group: P 21 21 21
;
_chemical_formula_sum "Si O2"
_cell_formula_units_Z 24
_cell_length_a 9.843936
_cell_length_b 14.836994
_cell_length_c 7.747821
_cell_angle_alpha 90.000000
_cell_angle_beta 90.000000
_cell_angle_gamma 90.000000
_cell_volume 1131.603498
_symmetry_space_group_name_H-M "P 21 21 21"
_symmetry_group_IT_number 19
_symmetry_cell_setting 'orthorhombic'
loop_
_space_group_symop_operation_xyz
x,y,z
1/2-x,-y,1/2+z
1/2+x,1/2-y,-z
-x,1/2+y,1/2-z
loop_
_atom_site_type_symbol
_atom_site_label
_atom_site_fract_x
_atom_site_fract_y
_atom_site_fract_z
Si Si1 0.127595 0.312083 0.111861
Si Si2 0.314574 0.519539 0.378130
Si Si3 0.458576 0.513985 0.024390
Si Si4 0.110957 0.159034 0.844921
Si Si5 0.380764 0.169710 0.656945
Si Si6 0.365013 0.320160 0.382073
O O1 0.229552 0.307118 0.271380
O O2 0.975039 0.304564 0.181879
O O3 0.142147 0.406344 0.015330
O O4 0.161036 0.229315 0.987561
O O5 0.369399 0.545521 0.189044
O O6 0.149673 0.511825 0.374784
O O7 0.380269 0.424564 0.436635
O O8 0.553814 0.429669 0.063768
O O9 0.553345 0.595316 0.966303
O O10 0.238812 0.131279 0.727588
O O11 0.996370 0.207626 0.729392
O O12 0.352900 0.260542 0.551729
#
# Coordination Sequence:
#
# PCOD8157622 Si02
#       6
#     4   4   4   4   4   4
#     4  12  24  43  70 101 131 186 230 278 338 411
#     4  11  22  44  73  96 132 183 237 269 324 420
#     4  11  24  45  70 102 138 181 230 281 340 403
#     4  11  26  42  67 102 143 170 225 287 348 397
#     4  12  26  42  68 102 140 176 225 289 348 396
#     4  11  24  44  68 101 132 184 227 278 338 409
#
# _framework density 21.208841
#
# number of rings (size 3 to 8) (size 9 to 14) (size 15 to 20)
#    0.000    0.667    5.000    3.000    2.333    5.333 
#    0.000    0.000    0.000    0.000    0.000    0.000 
#    0.000    0.000    0.000    0.000    0.000    0.000 
#
# Total GULP energy -297740.138360 kJ/mol
# GULP energy per Si atom -12405.839098 kJ/mol
# Density = 2.116057 g / cm^3
# Si number density = 21.208841 Si / 1000 Ang^3
#
#
#
# Elastic Constant Matrix: (Units=GPa)
#
#
# Indices 1 2 3 4 5 6 
#
# 1 107.6023 24.4624 15.1960 0.0000 0.0000 0.0000
# 2 24.4624 100.8699 28.9435 0.0000 0.0000 0.0000
# 3 15.1960 28.9435 21.9726 0.0000 0.0000 0.0000
# 4 0.0000 0.0000 0.0000 33.1143 0.0000 0.0000
# 5 0.0000 0.0000 0.0000 0.0000 53.1469 0.0000
# 6 0.0000 0.0000 0.0000 0.0000 0.0000 22.9168
#
#
#
# Elastic Compliance Matrix: (Units=1/GPa)
#
#
# Indices 1 2 3 4 5 6 
#
# 1 0.010333 -0.000732 -0.006182 0.000000 0.000000 0.000000
# 2 -0.000732 0.015990 -0.020556 0.000000 0.000000 0.000000
# 3 -0.006182 -0.020556 0.076864 0.000000 0.000000 0.000000
# 4 0.000000 0.000000 0.000000 0.030198 0.000000 0.000000
# 5 0.000000 0.000000 0.000000 0.000000 0.018816 0.000000
# 6 0.000000 0.000000 0.000000 0.000000 0.000000 0.043636
#
#
# Mechanical properties :
#
#
# Convention : Reuss Voigt Hill
#
# Bulk Modulus (GPa) = 20.72680 40.84984 30.78832
# Shear Modulus (GPa) = 18.73647 32.62513 25.68080
#
# Velocity S-wave (km/s) = 2.97547 3.92635 3.48351
# Velocity P-wave (km/s) = 4.64742 6.31328 5.54329
#
# Compressibility (1/GPa) = 0.04824671
#
# Stress axis : x y z
#
# Youngs Moduli (GPa) = 96.77797 62.54049 13.00996
#
# Poissons Ratio (x) = 0.04578 0.08043
# Poissons Ratio (y) = 0.07085 0.26743
# Poissons Ratio (z) = 0.59826 1.28559
#
# Static dielectric constant tensor:
#      x y z
#    x 4.026230 0.000000 0.000000 
#    y 0.000000 3.840710 0.000000 
#    z 0.000000 0.000000 3.919040 
# 
# 
# High freq. dielectric constant tensor:
#      x y z
#    x 1.841170 0.000000 0.000000 
#    y 0.000000 1.836950 0.000000 
#    z 0.000000 0.000000 1.837680 
# 
# From -- ./inp_files/2831.got.cif
#   From: 2010.03.12/outbox.cif.g09.slc.cpg/sg19_2_cif.got.tgz:2831.got - 2010.04.10 18:59:41.
