data_PCOD8157711
_publ_section_title
;
Structure prediction by ZEFSAII (Michael W. Deem and Ramdas Pophale) SiO2 
 PCOD8157711
Probable space group: P 21 21 21
;
_chemical_formula_sum "Si O2"
_cell_formula_units_Z 28
_cell_length_a 12.341350
_cell_length_b 9.244065
_cell_length_c 10.997261
_cell_angle_alpha 90.000000
_cell_angle_beta 90.000000
_cell_angle_gamma 90.000000
_cell_volume 1254.614181
_symmetry_space_group_name_H-M "P 21 21 21"
_symmetry_group_IT_number 19
_symmetry_cell_setting 'orthorhombic'
loop_
_space_group_symop_operation_xyz
x,y,z
1/2-x,-y,1/2+z
1/2+x,1/2-y,-z
-x,1/2+y,1/2-z
loop_
_atom_site_type_symbol
_atom_site_label
_atom_site_fract_x
_atom_site_fract_y
_atom_site_fract_z
Si Si1 0.241219 0.070391 0.878395
Si Si2 0.515510 0.627653 0.552757
Si Si3 0.023413 0.563808 0.386192
Si Si4 0.104559 0.503339 0.650015
Si Si5 0.186579 0.903876 0.121833
Si Si6 0.543681 0.247595 0.185375
Si Si7 0.160585 0.570231 0.162035
O O1 0.361151 0.125223 0.903107
O O2 0.238295 0.028270 0.731943
O O3 0.148855 0.192425 0.887920
O O4 0.216650 0.951484 0.983397
O O5 0.468734 0.777033 0.609117
O O6 0.516686 0.638675 0.406754
O O7 0.441651 0.491213 0.587215
O O8 0.062001 0.509392 0.515164
O O9 0.129048 0.565741 0.302616
O O10 0.934119 0.451614 0.339143
O O11 0.079067 0.342270 0.697333
O O12 0.233473 0.531117 0.650435
O O13 0.039889 0.625926 0.726648
O O14 0.190778 0.730636 0.118508
#
# Coordination Sequence:
#
# PCOD8157711 Si02
#       7
#     4   4   4   4   4   4   4
#     4  12  25  50  72 107 150 197 246 309 370 445
#     4  11  25  44  78  97 144 194 244 305 378 431
#     4  11  23  49  69 109 146 195 242 306 375 444
#     4  11  26  46  73 102 150 191 246 310 374 446
#     4  12  26  47  78 105 158 192 252 306 377 445
#     4  11  26  48  69 107 150 190 248 310 376 440
#     4  12  25  46  73 111 140 193 250 310 360 453
#
# _framework density 22.317618
#
# number of rings (size 3 to 8) (size 9 to 14) (size 15 to 20)
#    0.000    0.571    7.143    0.000    8.000    2.286 
#    2.571    0.000    0.000    0.000    0.000    0.000 
#    0.000    0.000    0.000    0.000    0.000    0.000 
#
# Total GULP energy -346973.783950 kJ/mol
# GULP energy per Si atom -12391.920855 kJ/mol
# Density = 2.226682 g / cm^3
# Si number density = 22.317618 Si / 1000 Ang^3
#
#
#
# Elastic Constant Matrix: (Units=GPa)
#
#
# Indices 1 2 3 4 5 6 
#
# 1 121.6808 55.7094 32.2430 0.0000 0.0000 0.0000
# 2 55.7094 100.8355 54.9990 0.0000 0.0000 0.0000
# 3 32.2430 54.9990 103.1370 0.0000 0.0000 0.0000
# 4 0.0000 0.0000 0.0000 37.3312 0.0000 0.0000
# 5 0.0000 0.0000 0.0000 0.0000 40.4745 0.0000
# 6 0.0000 0.0000 0.0000 0.0000 0.0000 27.6788
#
#
#
# Elastic Compliance Matrix: (Units=1/GPa)
#
#
# Indices 1 2 3 4 5 6 
#
# 1 0.011007 -0.005928 -0.000279 0.000000 0.000000 0.000000
# 2 -0.005928 0.017178 -0.007307 0.000000 0.000000 0.000000
# 3 -0.000279 -0.007307 0.013680 0.000000 0.000000 0.000000
# 4 0.000000 0.000000 0.000000 0.026787 0.000000 0.000000
# 5 0.000000 0.000000 0.000000 0.000000 0.024707 0.000000
# 6 0.000000 0.000000 0.000000 0.000000 0.000000 0.036129
#
#
# Mechanical properties :
#
#
# Convention : Reuss Voigt Hill
#
# Bulk Modulus (GPa) = 67.41076 67.95068 67.68072
# Shear Modulus (GPa) = 30.96710 33.27702 32.12206
#
# Velocity S-wave (km/s) = 3.72904 3.86562 3.79795
# Velocity P-wave (km/s) = 6.98654 7.10192 7.04447
#
# Compressibility (1/GPa) = 0.01483443
#
# Stress axis : x y z
#
# Youngs Moduli (GPa) = 90.85536 58.21418 73.10075
#
# Poissons Ratio (x) = 0.34512 0.02043
# Poissons Ratio (y) = 0.53863 0.53415
# Poissons Ratio (z) = 0.02539 0.42537
#
# Static dielectric constant tensor:
#      x y z
#    x 4.354370 0.000000 0.000000 
#    y 0.000000 4.020890 0.000000 
#    z 0.000000 0.000000 4.229530 
# 
# 
# High freq. dielectric constant tensor:
#      x y z
#    x 1.891450 0.000000 0.000000 
#    y 0.000000 1.863380 0.000000 
#    z 0.000000 0.000000 1.887410 
# 
# From -- ./inp_files/4937.got.cif
#   From: 2010.03.12/outbox.cif.g09.slc.cpg/sg19_3_cif.got.tgz:4937.got - 2010.04.10 18:59:41.
