data_PCOD8157737
_publ_section_title
;
Structure prediction by ZEFSAII (Michael W. Deem and Ramdas Pophale) SiO2 
 PCOD8157737
Probable space group: P 21 21 21
;
_chemical_formula_sum "Si O2"
_cell_formula_units_Z 28
_cell_length_a 9.339614
_cell_length_b 23.434905
_cell_length_c 5.072265
_cell_angle_alpha 90.000000
_cell_angle_beta 90.000000
_cell_angle_gamma 90.000000
_cell_volume 1110.181689
_symmetry_space_group_name_H-M "P 21 21 21"
_symmetry_group_IT_number 19
_symmetry_cell_setting 'orthorhombic'
loop_
_space_group_symop_operation_xyz
x,y,z
1/2-x,-y,1/2+z
1/2+x,1/2-y,-z
-x,1/2+y,1/2-z
loop_
_atom_site_type_symbol
_atom_site_label
_atom_site_fract_x
_atom_site_fract_y
_atom_site_fract_z
Si Si1 0.652605 0.511144 0.178664
Si Si2 0.883468 0.645934 0.492604
Si Si3 0.816569 0.154523 0.764732
Si Si4 0.402604 0.731219 0.477997
Si Si5 0.175137 0.525691 0.757994
Si Si6 0.416549 0.238035 0.521908
Si Si7 0.261259 0.122475 0.501445
O O1 0.739873 0.512501 0.452453
O O2 0.496303 0.481398 0.203539
O O3 0.618624 0.576860 0.085958
O O4 0.811821 0.709666 0.502445
O O5 0.868515 0.616683 0.208944
O O6 0.049532 0.652559 0.541962
O O7 0.804339 0.606429 0.712987
O O8 0.684890 0.175149 0.944602
O O9 0.790149 0.090986 0.655977
O O10 0.842267 0.200739 0.532085
O O11 0.452524 0.725706 0.176129
O O12 0.535851 0.737641 0.676192
O O13 0.267325 0.513339 0.495022
O O14 0.306516 0.187264 0.482280
#
# Coordination Sequence:
#
# PCOD8157737 Si02
#       7
#     4   4   4   4   4   4   4
#     4  12  27  50  79 107 148 210 266 315 372 456
#     4  11  24  44  69 111 138 188 234 300 370 442
#     4  11  26  46  75  98 155 188 240 303 375 449
#     4  11  25  41  67 104 141 180 229 282 372 441
#     4  12  30  51  75 114 154 204 260 320 393 447
#     4  11  26  42  70 106 139 187 229 295 365 436
#     4  12  24  44  73 102 145 175 256 295 359 433
#
# _framework density 25.221094999999998
#
# number of rings (size 3 to 8) (size 9 to 14) (size 15 to 20)
#    0.000    0.571    1.429    6.000    6.000    4.571 
#    0.000    0.000    0.000    0.000    0.000    0.000 
#    0.000    0.000    0.000    0.000    0.000    0.000 
#
# Total GULP energy -347050.925472 kJ/mol
# GULP energy per Si atom -12394.675910 kJ/mol
# Density = 2.516369 g / cm^3
# Si number density = 25.221095 Si / 1000 Ang^3
#
#
#
# Elastic Constant Matrix: (Units=GPa)
#
#
# Indices 1 2 3 4 5 6 
#
# 1 92.7416 37.3388 32.2596 0.0000 0.0000 0.0000
# 2 37.3388 132.9951 27.4410 0.0000 0.0000 0.0000
# 3 32.2596 27.4410 118.5854 0.0000 0.0000 0.0000
# 4 0.0000 0.0000 0.0000 32.4798 0.0000 0.0000
# 5 0.0000 0.0000 0.0000 0.0000 36.5545 0.0000
# 6 0.0000 0.0000 0.0000 0.0000 0.0000 32.2103
#
#
#
# Elastic Compliance Matrix: (Units=1/GPa)
#
#
# Indices 1 2 3 4 5 6 
#
# 1 0.013001 -0.003067 -0.002827 0.000000 0.000000 0.000000
# 2 -0.003067 0.008619 -0.001160 0.000000 0.000000 0.000000
# 3 -0.002827 -0.001160 0.009470 0.000000 0.000000 0.000000
# 4 0.000000 0.000000 0.000000 0.030788 0.000000 0.000000
# 5 0.000000 0.000000 0.000000 0.000000 0.027356 0.000000
# 6 0.000000 0.000000 0.000000 0.000000 0.000000 0.031046
#
#
# Mechanical properties :
#
#
# Convention : Reuss Voigt Hill
#
# Bulk Modulus (GPa) = 58.88449 59.82231 59.35340
# Shear Modulus (GPa) = 35.70153 36.73444 36.21799
#
# Velocity S-wave (km/s) = 3.76645 3.82055 3.79360
# Velocity P-wave (km/s) = 6.50483 6.57516 6.54009
#
# Compressibility (1/GPa) = 0.01698240
#
# Stress axis : x y z
#
# Youngs Moduli (GPa) = 76.91905 116.01655 105.59332
#
# Poissons Ratio (x) = 0.35579 0.29851
# Poissons Ratio (y) = 0.23589 0.12252
# Poissons Ratio (z) = 0.21745 0.13462
#
# Static dielectric constant tensor:
#      x y z
#    x 4.352220 0.000000 0.000000 
#    y 0.000000 5.301580 0.000000 
#    z 0.000000 0.000000 5.036940 
# 
# 
# High freq. dielectric constant tensor:
#      x y z
#    x 1.989540 0.000000 0.000000 
#    y 0.000000 2.024910 0.000000 
#    z 0.000000 0.000000 2.020280 
# 
# From -- ./inp_files/530.got.cif
#   From: 2010.03.12/outbox.cif.g09.slc.cpg/sg19_1_cif.got.tgz:530.got - 2010.04.10 18:59:41.
