data_PCOD8157151
_publ_section_title
;
Structure prediction by ZEFSAII (Michael W. Deem and Ramdas Pophale) SiO2 
 PCOD8157151
Probable space group: P 21 21 21
;
_chemical_formula_sum "Si O2"
_cell_formula_units_Z 28
_cell_length_a 9.427410
_cell_length_b 9.427401
_cell_length_c 15.932842
_cell_angle_alpha 90.000000
_cell_angle_beta 90.000000
_cell_angle_gamma 90.000000
_cell_volume 1416.046859
_symmetry_space_group_name_H-M "P 21 21 21"
_symmetry_group_IT_number 19
_symmetry_cell_setting 'orthorhombic'
loop_
_space_group_symop_operation_xyz
x,y,z
1/2-x,-y,1/2+z
1/2+x,1/2-y,-z
-x,1/2+y,1/2-z
loop_
_atom_site_type_symbol
_atom_site_label
_atom_site_fract_x
_atom_site_fract_y
_atom_site_fract_z
Si Si1 0.649037 0.669809 0.726532
Si Si2 0.677737 0.465969 0.575837
Si Si3 0.304789 0.445212 0.875000
Si Si4 0.981549 0.899704 0.554986
Si Si5 0.284031 0.072263 0.174163
Si Si6 0.919809 0.600963 0.476533
Si Si7 0.850297 0.768451 0.195014
O O1 0.618897 0.554768 0.654942
O O2 0.719845 0.801887 0.678466
O O3 0.744499 0.590339 0.797905
O O4 0.508160 0.733708 0.767814
O O5 0.569782 0.491405 0.500909
O O6 0.840338 0.505501 0.547906
O O7 0.661413 0.301548 0.602105
O O8 0.448113 0.469845 0.928467
O O9 0.296028 0.571288 0.808170
O O10 0.178711 0.453975 0.941830
O O11 0.051548 0.911414 0.647895
O O12 0.983707 0.741841 0.517815
O O13 0.195232 0.131103 0.095058
O O14 0.258595 0.180218 0.249091
#
# Coordination Sequence:
#
# PCOD8157151 Si02
#       7
#     4   4   4   4   4   4   4
#     4  11  19  40  65  90 117 168 212 251 306 376
#     4  10  22  39  65  88 126 161 205 265 306 365
#     4  12  22  36  66  90 120 162 216 250 306 392
#     4  11  22  39  63  92 125 162 213 252 320 368
#     4  10  22  39  65  88 126 161 205 265 306 365
#     4  11  19  40  65  90 117 168 212 251 306 376
#     4  11  22  39  63  92 125 162 213 252 320 368
#
# _framework density 19.773357000000001
#
# number of rings (size 3 to 8) (size 9 to 14) (size 15 to 20)
#    0.000    1.143    5.714    1.714    0.000    2.286 
#    0.000    0.000    0.000    0.000    0.000    0.000 
#    0.000    0.000    0.000    0.000    0.000    0.000 
#
# Total GULP energy -347037.463715 kJ/mol
# GULP energy per Si atom -12394.195133 kJ/mol
# Density = 1.972835 g / cm^3
# Si number density = 19.773357 Si / 1000 Ang^3
#
#
#
# Elastic Constant Matrix: (Units=GPa)
#
#
# Indices 1 2 3 4 5 6 
#
# 1 65.0939 36.4743 31.3693 0.0000 0.0000 0.0000
# 2 36.4743 65.0905 31.3685 0.0000 0.0000 0.0000
# 3 31.3693 31.3685 79.3499 0.0000 0.0000 0.0000
# 4 0.0000 0.0000 0.0000 31.7296 0.0000 0.0000
# 5 0.0000 0.0000 0.0000 0.0000 31.7298 0.0000
# 6 0.0000 0.0000 0.0000 0.0000 0.0000 9.1751
#
#
#
# Elastic Compliance Matrix: (Units=1/GPa)
#
#
# Indices 1 2 3 4 5 6 
#
# 1 0.023984 -0.010958 -0.005150 0.000000 0.000000 0.000000
# 2 -0.010958 0.023986 -0.005150 0.000000 0.000000 0.000000
# 3 -0.005150 -0.005150 0.016674 0.000000 0.000000 0.000000
# 4 0.000000 0.000000 0.000000 0.031516 0.000000 0.000000
# 5 0.000000 0.000000 0.000000 0.000000 0.031516 0.000000
# 6 0.000000 0.000000 0.000000 0.000000 0.000000 0.108990
#
#
# Mechanical properties :
#
#
# Convention : Reuss Voigt Hill
#
# Bulk Modulus (GPa) = 45.19064 45.32874 45.25969
# Shear Modulus (GPa) = 17.44844 21.88173 19.66508
#
# Velocity S-wave (km/s) = 2.97378 3.33021 3.15703
# Velocity P-wave (km/s) = 5.89025 6.14500 6.01897
#
# Compressibility (1/GPa) = 0.02212848
#
# Stress axis : x y z
#
# Youngs Moduli (GPa) = 41.69384 41.69161 59.97329
#
# Poissons Ratio (x) = 0.45686 0.30885
# Poissons Ratio (y) = 0.45689 0.30886
# Poissons Ratio (z) = 0.21471 0.21471
#
# Static dielectric constant tensor:
#      x y z
#    x 3.703790 0.000000 0.000000 
#    y 0.000000 3.703790 0.000000 
#    z 0.000000 0.000000 3.919190 
# 
# 
# High freq. dielectric constant tensor:
#      x y z
#    x 1.763910 0.000000 0.000000 
#    y 0.000000 1.763910 0.000000 
#    z 0.000000 0.000000 1.775410 
# 
# From -- ./inp_files/4138.got.cif
#   From: 2010.03.12/outbox.cif.g09.slc.cpg/sg19_3_cif.got.tgz:4138.got - 2010.04.10 18:59:41.
