data_PCOD8157691
_publ_section_title
;
Structure prediction by ZEFSAII (Michael W. Deem and Ramdas Pophale) SiO2 
 PCOD8157691
Probable space group: P 21 21 21
;
_chemical_formula_sum "Si O2"
_cell_formula_units_Z 28
_cell_length_a 12.193210
_cell_length_b 12.886125
_cell_length_c 8.311527
_cell_angle_alpha 90.000000
_cell_angle_beta 90.000000
_cell_angle_gamma 90.000000
_cell_volume 1305.933954
_symmetry_space_group_name_H-M "P 21 21 21"
_symmetry_group_IT_number 19
_symmetry_cell_setting 'orthorhombic'
loop_
_space_group_symop_operation_xyz
x,y,z
1/2-x,-y,1/2+z
1/2+x,1/2-y,-z
-x,1/2+y,1/2-z
loop_
_atom_site_type_symbol
_atom_site_label
_atom_site_fract_x
_atom_site_fract_y
_atom_site_fract_z
Si Si1 0.624490 0.861924 0.335902
Si Si2 0.536683 0.324843 0.890961
Si Si3 0.128217 0.028001 0.357761
Si Si4 0.652361 0.657009 0.132166
Si Si5 0.011125 0.463491 0.838459
Si Si6 0.144898 0.804499 0.231476
Si Si7 0.807787 0.810963 0.553108
O O1 0.515832 0.861200 0.442653
O O2 0.648052 0.751368 0.256159
O O3 0.728308 0.887116 0.451153
O O4 0.603967 0.952379 0.207724
O O5 0.543624 0.421080 0.768378
O O6 0.467250 0.231342 0.814121
O O7 0.658324 0.284369 0.935958
O O8 0.228565 0.105921 0.382232
O O9 0.172642 0.920894 0.285932
O O10 0.067839 0.010824 0.526469
O O11 0.563101 0.571650 0.187351
O O12 0.624512 0.702832 0.957908
O O13 0.078956 0.365334 0.900565
O O14 0.244969 0.730807 0.288507
#
# Coordination Sequence:
#
# PCOD8157691 Si02
#       7
#     4   4   4   4   4   4   4
#     4  11  25  44  69 100 138 189 238 291 364 418
#     4  11  23  46  69  98 142 180 239 301 348 422
#     4  12  25  42  73 104 137 191 243 288 359 430
#     4  12  25  42  68 107 138 182 247 297 350 435
#     4  12  26  46  72 104 148 188 235 302 367 425
#     4  11  26  42  68 102 136 186 237 286 366 423
#     4  11  24  48  67  97 147 186 231 301 354 429
#
# _framework density 21.440594999999998
#
# number of rings (size 3 to 8) (size 9 to 14) (size 15 to 20)
#    0.000    0.571    4.286    3.429    6.000    4.571 
#    2.571    0.000    0.000    0.000    0.000    0.000 
#    0.000    0.000    0.000    0.000    0.000    0.000 
#
# Total GULP energy -347296.265672 kJ/mol
# GULP energy per Si atom -12403.438060 kJ/mol
# Density = 2.139179 g / cm^3
# Si number density = 21.440595 Si / 1000 Ang^3
#
#
#
# Elastic Constant Matrix: (Units=GPa)
#
#
# Indices 1 2 3 4 5 6 
#
# 1 107.4620 34.9960 53.7957 0.0000 0.0000 0.0000
# 2 34.9960 83.0176 35.0915 0.0000 0.0000 0.0000
# 3 53.7957 35.0915 122.4766 0.0000 0.0000 0.0000
# 4 0.0000 0.0000 0.0000 43.2193 0.0000 0.0000
# 5 0.0000 0.0000 0.0000 0.0000 30.0728 0.0000
# 6 0.0000 0.0000 0.0000 0.0000 0.0000 36.7701
#
#
#
# Elastic Compliance Matrix: (Units=1/GPa)
#
#
# Indices 1 2 3 4 5 6 
#
# 1 0.012726 -0.003416 -0.004611 0.000000 0.000000 0.000000
# 2 -0.003416 0.014622 -0.002689 0.000000 0.000000 0.000000
# 3 -0.004611 -0.002689 0.010961 0.000000 0.000000 0.000000
# 4 0.000000 0.000000 0.000000 0.023138 0.000000 0.000000
# 5 0.000000 0.000000 0.000000 0.000000 0.033253 0.000000
# 6 0.000000 0.000000 0.000000 0.000000 0.000000 0.027196
#
#
# Mechanical properties :
#
#
# Convention : Reuss Voigt Hill
#
# Bulk Modulus (GPa) = 59.25168 62.30251 60.77710
# Shear Modulus (GPa) = 33.56750 34.61730 34.09240
#
# Velocity S-wave (km/s) = 3.96107 4.02253 3.99191
# Velocity P-wave (km/s) = 6.97247 7.12008 7.04666
#
# Compressibility (1/GPa) = 0.01687716
#
# Stress axis : x y z
#
# Youngs Moduli (GPa) = 78.57742 68.38901 91.23487
#
# Poissons Ratio (x) = 0.23359 0.42070
# Poissons Ratio (y) = 0.26839 0.24535
# Poissons Ratio (z) = 0.36233 0.18392
#
# Static dielectric constant tensor:
#      x y z
#    x 3.788830 0.000000 0.000000 
#    y 0.000000 3.770080 0.000000 
#    z 0.000000 0.000000 4.051500 
# 
# 
# High freq. dielectric constant tensor:
#      x y z
#    x 1.848190 0.000000 0.000000 
#    y 0.000000 1.840060 0.000000 
#    z 0.000000 0.000000 1.852470 
# 
# From -- ./inp_files/3430.got.cif
#   From: 2010.03.12/outbox.cif.g09.slc.cpg/sg19_2_cif.got.tgz:3430.got - 2010.04.10 18:59:41.
