data_PCOD8157284
_publ_section_title
;
Structure prediction by ZEFSAII (Michael W. Deem and Ramdas Pophale) SiO2 
 PCOD8157284
Probable space group: P 21 21 21
;
_chemical_formula_sum "Si O2"
_cell_formula_units_Z 20
_cell_length_a 8.939868
_cell_length_b 10.779910
_cell_length_c 8.322980
_cell_angle_alpha 90.000000
_cell_angle_beta 90.000000
_cell_angle_gamma 90.000000
_cell_volume 802.093676
_symmetry_space_group_name_H-M "P 21 21 21"
_symmetry_group_IT_number 19
_symmetry_cell_setting 'orthorhombic'
loop_
_space_group_symop_operation_xyz
x,y,z
1/2-x,-y,1/2+z
1/2+x,1/2-y,-z
-x,1/2+y,1/2-z
loop_
_atom_site_type_symbol
_atom_site_label
_atom_site_fract_x
_atom_site_fract_y
_atom_site_fract_z
Si Si1 0.541569 0.110308 0.794959
Si Si2 0.715994 0.739330 0.149360
Si Si3 0.085172 0.985816 0.997015
Si Si4 0.452626 0.746024 0.392153
Si Si5 0.726804 0.101383 0.357989
O O1 0.618361 0.233019 0.715720
O O2 0.406400 0.057765 0.684640
O O3 0.669495 0.007053 0.795616
O O4 0.487321 0.149311 0.972413
O O5 0.590212 0.779747 0.277384
O O6 0.704745 0.592958 0.107066
O O7 0.683042 0.816223 0.986700
O O8 0.919477 0.955434 0.937524
O O9 0.116266 0.131143 0.975206
O O10 0.315579 0.684722 0.296130
#
# Coordination Sequence:
#
# PCOD8157284 Si02
#       5
#     4   4   4   4   4
#     4  11  23  41  69  97 132 183 224 270 347 396
#     4  10  23  41  63 100 137 173 222 283 330 398
#     4  10  23  40  63  99 131 175 223 277 323 404
#     4  11  23  41  70 101 131 180 230 274 336 403
#     4  10  22  43  69  91 135 179 221 272 342 399
#
# _framework density 24.934746000000001
#
# number of rings (size 3 to 8) (size 9 to 14) (size 15 to 20)
#    0.000    1.600    2.000    2.400    5.600    1.600 
#    0.000    0.000    0.000    0.000    0.000    0.000 
#    0.000    0.000    0.000    0.000    0.000    0.000 
#
# Total GULP energy -248036.967636 kJ/mol
# GULP energy per Si atom -12401.848382 kJ/mol
# Density = 2.487799 g / cm^3
# Si number density = 24.934746 Si / 1000 Ang^3
#
#
#
# Elastic Constant Matrix: (Units=GPa)
#
#
# Indices 1 2 3 4 5 6 
#
# 1 21.2455 8.5564 20.6237 0.0000 0.0000 0.0000
# 2 8.5564 119.9690 61.2000 0.0000 0.0000 0.0000
# 3 20.6237 61.2000 172.0261 0.0000 0.0000 0.0000
# 4 0.0000 0.0000 0.0000 47.4933 0.0000 0.0000
# 5 0.0000 0.0000 0.0000 0.0000 38.2727 0.0000
# 6 0.0000 0.0000 0.0000 0.0000 0.0000 26.0660
#
#
#
# Elastic Compliance Matrix: (Units=1/GPa)
#
#
# Indices 1 2 3 4 5 6 
#
# 1 0.053311 -0.000662 -0.006156 0.000000 0.000000 0.000000
# 2 -0.000662 0.010192 -0.003546 0.000000 0.000000 0.000000
# 3 -0.006156 -0.003546 0.007813 0.000000 0.000000 0.000000
# 4 0.000000 0.000000 0.000000 0.021056 0.000000 0.000000
# 5 0.000000 0.000000 0.000000 0.000000 0.026128 0.000000
# 6 0.000000 0.000000 0.000000 0.000000 0.000000 0.038364
#
#
# Mechanical properties :
#
#
# Convention : Reuss Voigt Hill
#
# Bulk Modulus (GPa) = 19.76791 54.88898 37.32845
# Shear Modulus (GPa) = 25.71296 37.22377 31.46836
#
# Velocity S-wave (km/s) = 3.21473 3.86793 3.55636
# Velocity P-wave (km/s) = 4.66094 6.48141 5.64504
#
# Compressibility (1/GPa) = 0.05058704
#
# Stress axis : x y z
#
# Youngs Moduli (GPa) = 18.75789 98.11735 127.99562
#
# Poissons Ratio (x) = 0.06495 0.78791
# Poissons Ratio (y) = 0.01242 0.45394
# Poissons Ratio (z) = 0.11547 0.34797
#
# Static dielectric constant tensor:
#      x y z
#    x 3.984210 0.000000 0.000000 
#    y 0.000000 4.566810 0.000000 
#    z 0.000000 0.000000 4.879970 
# 
# 
# High freq. dielectric constant tensor:
#      x y z
#    x 1.957690 0.000000 0.000000 
#    y 0.000000 2.000640 0.000000 
#    z 0.000000 0.000000 2.012750 
# 
# From -- ./inp_files/2598.got.cif
#   From: 2010.03.12/outbox.cif.g09.slc.cpg/sg19_2_cif.got.tgz:2598.got - 2010.04.10 18:59:41.
