data_PCOD8157322
_publ_section_title
;
Structure prediction by ZEFSAII (Michael W. Deem and Ramdas Pophale) SiO2 
 PCOD8157322
Probable space group: P 21 21 21
;
_chemical_formula_sum "Si O2"
_cell_formula_units_Z 32
_cell_length_a 18.887522
_cell_length_b 7.101511
_cell_length_c 11.508823
_cell_angle_alpha 90.000000
_cell_angle_beta 90.000000
_cell_angle_gamma 90.000000
_cell_volume 1543.677799
_symmetry_space_group_name_H-M "P 21 21 21"
_symmetry_group_IT_number 19
_symmetry_cell_setting 'orthorhombic'
loop_
_space_group_symop_operation_xyz
x,y,z
1/2-x,-y,1/2+z
1/2+x,1/2-y,-z
-x,1/2+y,1/2-z
loop_
_atom_site_type_symbol
_atom_site_label
_atom_site_fract_x
_atom_site_fract_y
_atom_site_fract_z
Si Si1 0.453105 0.844802 0.130935
Si Si2 0.542654 0.480327 0.106682
Si Si3 0.357570 0.467711 0.654922
Si Si4 0.490631 0.628931 0.548662
Si Si5 0.730103 0.296607 0.752050
Si Si6 0.807623 0.492144 0.934371
Si Si7 0.817281 0.304008 0.533602
Si Si8 0.638585 0.630774 0.666431
O O1 0.481091 0.636463 0.104322
O O2 0.456809 0.880707 0.268336
O O3 0.372615 0.862464 0.082890
O O4 0.502717 0.991084 0.062104
O O5 0.620010 0.565592 0.082237
O O6 0.523309 0.335751 0.003835
O O7 0.431723 0.573354 0.642744
O O8 0.297046 0.617545 0.678774
O O9 0.348091 0.378585 0.528055
O O10 0.353893 0.317610 0.758121
O O11 0.557592 0.612921 0.631922
O O12 0.800196 0.367738 0.819330
O O13 0.761774 0.233391 0.629565
O O14 0.666753 0.448261 0.736283
O O15 0.730637 0.588190 0.939632
O O16 0.817019 0.357341 0.046472
#
# Coordination Sequence:
#
# PCOD8157322 Si02
#       8
#     4   4   4   4   4   4   4   4
#     4  11  23  44  71 102 139 177 234 286 352 405
#     4  12  23  45  72 101 141 181 229 293 343 415
#     4  12  26  43  70 101 136 186 229 285 351 417
#     4  11  26  42  70 102 136 183 228 285 354 419
#     4  11  24  45  70  97 142 179 229 292 342 415
#     4  10  22  47  70  98 138 185 222 293 349 405
#     4  11  24  45  70 102 136 181 237 278 352 419
#     4  10  26  45  67 101 136 180 234 280 349 417
#
# _framework density 20.729714999999999
#
# number of rings (size 3 to 8) (size 9 to 14) (size 15 to 20)
#    0.000    1.000    5.000    0.750    3.500    3.000 
#    6.750    0.000    0.000    0.000    0.000    0.000 
#    0.000    0.000    0.000    0.000    0.000    0.000 
#
# Total GULP energy -396708.149737 kJ/mol
# GULP energy per Si atom -12397.129679 kJ/mol
# Density = 2.068253 g / cm^3
# Si number density = 20.729715 Si / 1000 Ang^3
#
#
#
# Elastic Constant Matrix: (Units=GPa)
#
#
# Indices 1 2 3 4 5 6 
#
# 1 107.6796 52.9263 40.2860 0.0000 0.0000 0.0000
# 2 52.9263 112.0105 44.8942 0.0000 0.0000 0.0000
# 3 40.2860 44.8942 83.4042 0.0000 0.0000 0.0000
# 4 0.0000 0.0000 0.0000 29.1822 0.0000 0.0000
# 5 0.0000 0.0000 0.0000 0.0000 33.9249 0.0000
# 6 0.0000 0.0000 0.0000 0.0000 0.0000 31.0561
#
#
#
# Elastic Compliance Matrix: (Units=1/GPa)
#
#
# Indices 1 2 3 4 5 6 
#
# 1 0.012969 -0.004612 -0.003781 0.000000 0.000000 0.000000
# 2 -0.004612 0.013024 -0.004783 0.000000 0.000000 0.000000
# 3 -0.003781 -0.004783 0.016391 0.000000 0.000000 0.000000
# 4 0.000000 0.000000 0.000000 0.034267 0.000000 0.000000
# 5 0.000000 0.000000 0.000000 0.000000 0.029477 0.000000
# 6 0.000000 0.000000 0.000000 0.000000 0.000000 0.032200
#
#
# Mechanical properties :
#
#
# Convention : Reuss Voigt Hill
#
# Bulk Modulus (GPa) = 62.38073 64.36748 63.37411
# Shear Modulus (GPa) = 29.40773 29.83184 29.61978
#
# Velocity S-wave (km/s) = 3.77055 3.79764 3.78412
# Velocity P-wave (km/s) = 7.00813 7.09561 7.05200
#
# Compressibility (1/GPa) = 0.01603059
#
# Stress axis : x y z
#
# Youngs Moduli (GPa) = 77.10986 76.78173 61.01024
#
# Poissons Ratio (x) = 0.35413 0.23071
# Poissons Ratio (y) = 0.35564 0.29179
# Poissons Ratio (z) = 0.29159 0.36722
#
# Static dielectric constant tensor:
#      x y z
#    x 3.800950 0.000000 0.000000 
#    y 0.000000 3.656660 0.000000 
#    z 0.000000 0.000000 3.900800 
# 
# 
# High freq. dielectric constant tensor:
#      x y z
#    x 1.822760 0.000000 0.000000 
#    y 0.000000 1.797380 0.000000 
#    z 0.000000 0.000000 1.830360 
# 
# From -- ./inp_files/1981.got.cif
#   From: 2010.03.12/outbox.cif.g09.slc.cpg/sg19_1_cif.got.tgz:1981.got - 2010.04.10 18:59:41.
