data_PCOD8157612
_publ_section_title
;
Structure prediction by ZEFSAII (Michael W. Deem and Ramdas Pophale) SiO2 
 PCOD8157612
Probable space group: P 21 21 21
;
_chemical_formula_sum "Si O2"
_cell_formula_units_Z 28
_cell_length_a 5.351707
_cell_length_b 12.952619
_cell_length_c 17.429323
_cell_angle_alpha 90.000000
_cell_angle_beta 90.000000
_cell_angle_gamma 90.000000
_cell_volume 1208.176649
_symmetry_space_group_name_H-M "P 21 21 21"
_symmetry_group_IT_number 19
_symmetry_cell_setting 'orthorhombic'
loop_
_space_group_symop_operation_xyz
x,y,z
1/2-x,-y,1/2+z
1/2+x,1/2-y,-z
-x,1/2+y,1/2-z
loop_
_atom_site_type_symbol
_atom_site_label
_atom_site_fract_x
_atom_site_fract_y
_atom_site_fract_z
Si Si1 0.609686 0.125793 0.243477
Si Si2 0.124186 0.998565 0.441446
Si Si3 0.761336 0.720286 0.042713
Si Si4 0.651326 0.105580 0.067050
Si Si5 0.288025 0.565285 0.681217
Si Si6 0.613328 0.250859 0.714465
Si Si7 0.999549 0.168313 0.949652
O O1 0.659306 0.089611 0.156798
O O2 0.350610 0.187255 0.250635
O O3 0.847455 0.193550 0.270844
O O4 0.583082 0.015884 0.286883
O O5 0.250343 0.888444 0.425285
O O6 0.968073 0.990760 0.521093
O O7 0.974797 0.014135 0.361994
O O8 0.301181 0.098296 0.448809
O O9 0.837330 0.768367 0.124427
O O10 0.504921 0.769471 0.011989
O O11 0.504010 0.209484 0.044198
O O12 0.929276 0.120838 0.032951
O O13 0.403979 0.636468 0.748267
O O14 0.199491 0.643540 0.616064
#
# Coordination Sequence:
#
# PCOD8157612 Si02
#       7
#     4   4   4   4   4   4   4
#     4  12  27  46  72 108 148 189 244 303 364 431
#     4  11  25  46  72 103 147 197 234 303 367 430
#     4  12  29  52  74 102 145 197 248 293 353 436
#     4  11  24  39  70 110 143 186 236 300 360 445
#     4  11  26  45  73 103 145 196 242 302 369 423
#     4  12  27  49  74 106 147 190 246 305 361 429
#     4  11  22  43  71 104 147 185 238 296 376 424
#
# _framework density 23.175422000000001
#
# number of rings (size 3 to 8) (size 9 to 14) (size 15 to 20)
#    0.000    0.571    4.286    2.571   10.000    0.000 
#    0.000    0.000    0.000    0.000    0.000    0.000 
#    0.000    0.000    0.000    0.000    0.000    0.000 
#
# Total GULP energy -346963.514264 kJ/mol
# GULP energy per Si atom -12391.554081 kJ/mol
# Density = 2.312267 g / cm^3
# Si number density = 23.175422 Si / 1000 Ang^3
#
#
#
# Elastic Constant Matrix: (Units=GPa)
#
#
# Indices 1 2 3 4 5 6 
#
# 1 78.4365 7.3138 6.4391 0.0000 0.0000 0.0000
# 2 7.3138 93.4539 10.5728 0.0000 0.0000 0.0000
# 3 6.4391 10.5728 125.9408 0.0000 0.0000 0.0000
# 4 0.0000 0.0000 0.0000 24.3401 0.0000 0.0000
# 5 0.0000 0.0000 0.0000 0.0000 15.7013 0.0000
# 6 0.0000 0.0000 0.0000 0.0000 0.0000 29.5777
#
#
#
# Elastic Compliance Matrix: (Units=1/GPa)
#
#
# Indices 1 2 3 4 5 6 
#
# 1 0.012885 -0.000943 -0.000580 0.000000 0.000000 0.000000
# 2 -0.000943 0.010872 -0.000865 0.000000 0.000000 0.000000
# 3 -0.000580 -0.000865 0.008042 0.000000 0.000000 0.000000
# 4 0.000000 0.000000 0.000000 0.041084 0.000000 0.000000
# 5 0.000000 0.000000 0.000000 0.000000 0.063689 0.000000
# 6 0.000000 0.000000 0.000000 0.000000 0.000000 0.033809
#
#
# Mechanical properties :
#
#
# Convention : Reuss Voigt Hill
#
# Bulk Modulus (GPa) = 37.00236 38.49809 37.75022
# Shear Modulus (GPa) = 27.14968 32.15752 29.65360
#
# Velocity S-wave (km/s) = 3.42641 3.72905 3.58093
# Velocity P-wave (km/s) = 5.62624 5.93201 5.78115
#
# Compressibility (1/GPa) = 0.02702530
#
# Stress axis : x y z
#
# Youngs Moduli (GPa) = 77.61167 91.97899 124.34025
#
# Poissons Ratio (x) = 0.08672 0.07207
# Poissons Ratio (y) = 0.07317 0.10749
# Poissons Ratio (z) = 0.04498 0.07952
#
# Static dielectric constant tensor:
#      x y z
#    x 4.266280 0.000000 0.000000 
#    y 0.000000 4.117580 0.000000 
#    z 0.000000 0.000000 4.410360 
# 
# 
# High freq. dielectric constant tensor:
#      x y z
#    x 1.908850 0.000000 0.000000 
#    y 0.000000 1.919420 0.000000 
#    z 0.000000 0.000000 1.932310 
# 
# From -- ./inp_files/5344.got.cif
#   From: 2010.03.12/outbox.cif.g09.slc.cpg/sg19_3_cif.got.tgz:5344.got - 2010.04.10 18:59:41.
