data_PCOD8157238
_publ_section_title
;
Structure prediction by ZEFSAII (Michael W. Deem and Ramdas Pophale) SiO2 
 PCOD8157238
Probable space group: P 21 21 21
;
_chemical_formula_sum "Si O2"
_cell_formula_units_Z 24
_cell_length_a 8.853777
_cell_length_b 8.475810
_cell_length_c 13.957425
_cell_angle_alpha 90.000000
_cell_angle_beta 90.000000
_cell_angle_gamma 90.000000
_cell_volume 1047.406090
_symmetry_space_group_name_H-M "P 21 21 21"
_symmetry_group_IT_number 19
_symmetry_cell_setting 'orthorhombic'
loop_
_space_group_symop_operation_xyz
x,y,z
1/2-x,-y,1/2+z
1/2+x,1/2-y,-z
-x,1/2+y,1/2-z
loop_
_atom_site_type_symbol
_atom_site_label
_atom_site_fract_x
_atom_site_fract_y
_atom_site_fract_z
Si Si1 0.039837 0.163197 0.463980
Si Si2 0.589705 0.696271 0.777011
Si Si3 0.825438 0.205801 0.623336
Si Si4 0.914175 0.315070 0.974481
Si Si5 0.778775 0.842910 0.623346
Si Si6 0.194281 0.153831 0.199184
O O1 0.928689 0.210120 0.376943
O O2 0.982514 0.224549 0.567384
O O3 0.199382 0.245045 0.452625
O O4 0.057689 0.974395 0.465415
O O5 0.738926 0.757332 0.722746
O O6 0.437488 0.716304 0.713090
O O7 0.610299 0.512035 0.793685
O O8 0.819133 0.317223 0.716915
O O9 0.800740 0.024100 0.650072
O O10 0.775576 0.334758 0.901581
O O11 0.067906 0.265684 0.919919
O O12 0.860827 0.180196 0.048784
#
# Coordination Sequence:
#
# PCOD8157238 Si02
#       6
#     4   4   4   4   4   4
#     4  10  22  42  64  91 128 170 218 271 331 396
#     4  11  22  40  67  93 128 175 220 274 335 396
#     4  10  23  39  61  92 125 165 214 269 330 394
#     4  11  25  43  65  97 134 174 224 275 332 400
#     4  11  24  40  63  95 128 170 217 273 333 393
#     4  11  24  42  66  96 131 174 223 272 333 399
#
# _framework density 22.913748999999999
#
# number of rings (size 3 to 8) (size 9 to 14) (size 15 to 20)
#    0.000    1.333    0.000    6.000    0.000   12.000 
#    0.000    0.000    0.000    0.000    0.000    0.000 
#    0.000    0.000    0.000    0.000    0.000    0.000 
#
# Total GULP energy -297597.065057 kJ/mol
# GULP energy per Si atom -12399.877711 kJ/mol
# Density = 2.286160 g / cm^3
# Si number density = 22.913749 Si / 1000 Ang^3
#
#
#
# Elastic Constant Matrix: (Units=GPa)
#
#
# Indices 1 2 3 4 5 6 
#
# 1 29.8291 5.4099 11.2761 0.0000 0.0000 0.0000
# 2 5.4099 57.3538 44.0864 0.0000 0.0000 0.0000
# 3 11.2761 44.0864 93.2956 0.0000 0.0000 0.0000
# 4 0.0000 0.0000 0.0000 40.7303 0.0000 0.0000
# 5 0.0000 0.0000 0.0000 0.0000 35.7724 0.0000
# 6 0.0000 0.0000 0.0000 0.0000 0.0000 30.4995
#
#
#
# Elastic Compliance Matrix: (Units=1/GPa)
#
#
# Indices 1 2 3 4 5 6 
#
# 1 0.035130 -0.000078 -0.004209 0.000000 0.000000 0.000000
# 2 -0.000078 0.027382 -0.012930 0.000000 0.000000 0.000000
# 3 -0.004209 -0.012930 0.017337 0.000000 0.000000 0.000000
# 4 0.000000 0.000000 0.000000 0.024552 0.000000 0.000000
# 5 0.000000 0.000000 0.000000 0.000000 0.027954 0.000000
# 6 0.000000 0.000000 0.000000 0.000000 0.000000 0.032787
#
#
# Mechanical properties :
#
#
# Convention : Reuss Voigt Hill
#
# Bulk Modulus (GPa) = 22.01928 33.55815 27.78871
# Shear Modulus (GPa) = 23.28679 29.38086 26.33382
#
# Velocity S-wave (km/s) = 3.19137 3.58472 3.39375
# Velocity P-wave (km/s) = 4.81771 5.64011 5.24505
#
# Compressibility (1/GPa) = 0.04541475
#
# Stress axis : x y z
#
# Youngs Moduli (GPa) = 28.46600 36.52077 57.67963
#
# Poissons Ratio (x) = 0.00286 0.24277
# Poissons Ratio (y) = 0.00223 0.74578
# Poissons Ratio (z) = 0.11981 0.47220
#
# Static dielectric constant tensor:
#      x y z
#    x 4.224790 0.000000 0.000000 
#    y 0.000000 3.994100 0.000000 
#    z 0.000000 0.000000 4.275280 
# 
# 
# High freq. dielectric constant tensor:
#      x y z
#    x 1.905250 0.000000 0.000000 
#    y 0.000000 1.896900 0.000000 
#    z 0.000000 0.000000 1.914940 
# 
# From -- ./inp_files/5824.got.cif
#   From: 2010.03.12/outbox.cif.g09.slc.cpg/sg19_3_cif.got.tgz:5824.got - 2010.04.10 18:59:41.
