data_PCOD8157130
_publ_section_title
;
Structure prediction by ZEFSAII (Michael W. Deem and Ramdas Pophale) SiO2 
 PCOD8157130
Probable space group: P 21 21 21
;
_chemical_formula_sum "Si O2"
_cell_formula_units_Z 32
_cell_length_a 18.220629
_cell_length_b 5.202651
_cell_length_c 16.360562
_cell_angle_alpha 90.000000
_cell_angle_beta 90.000000
_cell_angle_gamma 90.000000
_cell_volume 1550.908861
_symmetry_space_group_name_H-M "P 21 21 21"
_symmetry_group_IT_number 19
_symmetry_cell_setting 'orthorhombic'
loop_
_space_group_symop_operation_xyz
x,y,z
1/2-x,-y,1/2+z
1/2+x,1/2-y,-z
-x,1/2+y,1/2-z
loop_
_atom_site_type_symbol
_atom_site_label
_atom_site_fract_x
_atom_site_fract_y
_atom_site_fract_z
Si Si1 0.591180 0.112827 0.718106
Si Si2 0.201850 0.251265 0.771589
Si Si3 0.083962 0.121422 0.959287
Si Si4 0.761445 0.736835 0.151557
Si Si5 0.960083 0.600145 0.368522
Si Si6 0.036455 0.161133 0.782526
Si Si7 0.328834 0.257369 0.664236
Si Si8 0.327703 0.393612 0.487734
O O1 0.652911 0.299514 0.677977
O O2 0.541334 0.196241 0.795267
O O3 0.533397 0.066083 0.645313
O O4 0.635154 0.870915 0.753227
O O5 0.222446 0.543523 0.794322
O O6 0.116632 0.240640 0.750635
O O7 0.247889 0.165589 0.690678
O O8 0.220360 0.035989 0.839872
O O9 0.032247 0.126255 0.880333
O O10 0.146109 0.339906 0.946637
O O11 0.114284 0.833577 0.970196
O O12 0.035770 0.207912 0.039133
O O13 0.749634 0.818884 0.056283
O O14 0.880141 0.472417 0.363759
O O15 0.981988 0.389061 0.758292
O O16 0.319063 0.442838 0.585214
#
# Coordination Sequence:
#
# PCOD8157130 Si02
#       8
#     4   4   4   4   4   4   4   4
#     4  11  21  36  62  93 130 171 209 257 331 380
#     4  11  22  40  63  92 118 158 212 265 308 388
#     4  11  23  40  65  92 122 167 218 261 318 389
#     4  11  21  38  64  90 125 162 212 260 314 376
#     4  11  21  38  61  93 131 166 211 263 319 400
#     4  12  24  43  68  90 124 171 215 268 332 385
#     4  10  22  36  63  89 122 167 212 254 321 382
#     4  11  20  39  64  91 120 166 213 266 307 382
#
# _framework density 20.633063
#
# number of rings (size 3 to 8) (size 9 to 14) (size 15 to 20)
#    0.000    1.000    6.250    1.500    0.000    0.000 
#    2.250    0.000    5.500    0.000    0.000    0.000 
#    0.000    0.000    0.000    0.000    0.000    0.000 
#
# Total GULP energy -396544.364314 kJ/mol
# GULP energy per Si atom -12392.011385 kJ/mol
# Density = 2.058610 g / cm^3
# Si number density = 20.633063 Si / 1000 Ang^3
#
#
#
# Elastic Constant Matrix: (Units=GPa)
#
#
# Indices 1 2 3 4 5 6 
#
# 1 87.2919 8.5111 41.4604 0.0000 0.0000 0.0000
# 2 8.5111 84.2250 12.3144 0.0000 0.0000 0.0000
# 3 41.4604 12.3144 113.8493 0.0000 0.0000 0.0000
# 4 0.0000 0.0000 0.0000 28.2197 0.0000 0.0000
# 5 0.0000 0.0000 0.0000 0.0000 30.9880 0.0000
# 6 0.0000 0.0000 0.0000 0.0000 0.0000 25.6566
#
#
#
# Elastic Compliance Matrix: (Units=1/GPa)
#
#
# Indices 1 2 3 4 5 6 
#
# 1 0.013889 -0.000675 -0.004985 0.000000 0.000000 0.000000
# 2 -0.000675 0.012097 -0.001063 0.000000 0.000000 0.000000
# 3 -0.004985 -0.001063 0.010714 0.000000 0.000000 0.000000
# 4 0.000000 0.000000 0.000000 0.035436 0.000000 0.000000
# 5 0.000000 0.000000 0.000000 0.000000 0.032271 0.000000
# 6 0.000000 0.000000 0.000000 0.000000 0.000000 0.038976
#
#
# Mechanical properties :
#
#
# Convention : Reuss Voigt Hill
#
# Bulk Modulus (GPa) = 43.00190 45.54866 44.27528
# Shear Modulus (GPa) = 30.38047 31.84488 31.11267
#
# Velocity S-wave (km/s) = 3.84137 3.93286 3.88739
# Velocity P-wave (km/s) = 6.36878 6.53810 6.45399
#
# Compressibility (1/GPa) = 0.02325479
#
# Stress axis : x y z
#
# Youngs Moduli (GPa) = 71.99775 82.66849 93.33671
#
# Poissons Ratio (x) = 0.05578 0.46529
# Poissons Ratio (y) = 0.04858 0.09919
# Poissons Ratio (z) = 0.35891 0.08785
#
# Static dielectric constant tensor:
#      x y z
#    x 3.796510 0.000000 0.000000 
#    y 0.000000 3.625190 0.000000 
#    z 0.000000 0.000000 4.234720 
# 
# 
# High freq. dielectric constant tensor:
#      x y z
#    x 1.790700 0.000000 0.000000 
#    y 0.000000 1.807210 0.000000 
#    z 0.000000 0.000000 1.809570 
# 
# From -- ./inp_files/1610.got.cif
#   From: 2010.03.12/outbox.cif.g09.slc.cpg/sg19_1_cif.got.tgz:1610.got - 2010.04.10 18:59:41.
