data_PCOD8157541
_publ_section_title
;
Structure prediction by ZEFSAII (Michael W. Deem and Ramdas Pophale) SiO2 
 PCOD8157541
Probable space group: P 21 21 21
;
_chemical_formula_sum "Si O2"
_cell_formula_units_Z 20
_cell_length_a 8.042700
_cell_length_b 11.043054
_cell_length_c 9.608806
_cell_angle_alpha 90.000000
_cell_angle_beta 90.000000
_cell_angle_gamma 90.000000
_cell_volume 853.415429
_symmetry_space_group_name_H-M "P 21 21 21"
_symmetry_group_IT_number 19
_symmetry_cell_setting 'orthorhombic'
loop_
_space_group_symop_operation_xyz
x,y,z
1/2-x,-y,1/2+z
1/2+x,1/2-y,-z
-x,1/2+y,1/2-z
loop_
_atom_site_type_symbol
_atom_site_label
_atom_site_fract_x
_atom_site_fract_y
_atom_site_fract_z
Si Si1 0.596421 0.500000 0.000000
Si Si2 0.941992 0.164385 0.211832
Si Si3 0.915028 0.367801 0.999666
Si Si4 0.058007 0.335615 0.711832
Si Si5 0.915028 0.632199 0.000334
O O1 0.485247 0.461902 0.867554
O O2 0.718391 0.386035 0.035259
O O3 0.485246 0.538099 0.132445
O O4 0.718391 0.613965 0.964742
O O5 0.750000 0.158820 0.249999
O O6 0.058978 0.184848 0.345157
O O7 0.988193 0.276694 0.112247
O O8 0.941020 0.315152 0.845156
O O9 0.006630 0.500000 0.000000
O O10 0.011807 0.223305 0.612248
#
# Coordination Sequence:
#
# PCOD8157541 Si02
#       5
#     4   4   4   4   4
#     4  10  26  48  74 104 156 194 234 310 372 422
#     4  12  26  46  77 112 144 197 255 298 364 446
#     4  10  27  47  77 107 152 196 239 304 377 429
#     4  12  26  46  77 112 144 197 255 298 364 446
#     4  10  27  47  77 107 152 196 239 304 377 429
#
# _framework density 23.435243
#
# number of rings (size 3 to 8) (size 9 to 14) (size 15 to 20)
#    1.200    0.000    0.000    3.600   14.000    0.000 
#    0.000    0.000    0.000    0.000    0.000    0.000 
#    0.000    0.000    0.000    0.000    0.000    0.000 
#
# Total GULP energy -247866.137993 kJ/mol
# GULP energy per Si atom -12393.306900 kJ/mol
# Density = 2.338190 g / cm^3
# Si number density = 23.435243 Si / 1000 Ang^3
#
#
#
# Elastic Constant Matrix: (Units=GPa)
#
#
# Indices 1 2 3 4 5 6 
#
# 1 71.8326 60.3559 48.6027 0.0000 0.0000 0.0000
# 2 60.3559 124.7298 108.6649 0.0000 0.0000 0.0000
# 3 48.6027 108.6649 201.6831 0.0000 0.0000 0.0000
# 4 0.0000 0.0000 0.0000 61.7258 0.0000 0.0000
# 5 0.0000 0.0000 0.0000 0.0000 38.3094 0.0000
# 6 0.0000 0.0000 0.0000 0.0000 0.0000 32.4848
#
#
#
# Elastic Compliance Matrix: (Units=1/GPa)
#
#
# Indices 1 2 3 4 5 6 
#
# 1 0.023541 -0.012154 0.000875 0.000000 0.000000 0.000000
# 2 -0.012154 0.021385 -0.008593 0.000000 0.000000 0.000000
# 3 0.000875 -0.008593 0.009377 0.000000 0.000000 0.000000
# 4 0.000000 0.000000 0.000000 0.016201 0.000000 0.000000
# 5 0.000000 0.000000 0.000000 0.000000 0.026103 0.000000
# 6 0.000000 0.000000 0.000000 0.000000 0.000000 0.030784
#
#
# Mechanical properties :
#
#
# Convention : Reuss Voigt Hill
#
# Bulk Modulus (GPa) = 68.68208 92.61029 80.64618
# Shear Modulus (GPa) = 29.07191 38.54546 33.80868
#
# Velocity S-wave (km/s) = 3.52592 4.05997 3.80233
# Velocity P-wave (km/s) = 6.77842 7.84736 7.33240
#
# Compressibility (1/GPa) = 0.01455984
#
# Stress axis : x y z
#
# Youngs Moduli (GPa) = 42.47874 46.76209 106.64255
#
# Poissons Ratio (x) = 0.56835 -0.09336
# Poissons Ratio (y) = 0.51629 0.91638
# Poissons Ratio (z) = -0.03719 0.40183
#
# Static dielectric constant tensor:
#      x y z
#    x 3.957570 0.000000 0.000000 
#    y 0.000000 4.199010 0.000000 
#    z 0.000000 0.000000 4.225430 
# 
# 
# High freq. dielectric constant tensor:
#      x y z
#    x 1.909410 0.000000 0.000000 
#    y 0.000000 1.926110 0.000000 
#    z 0.000000 0.000000 1.934820 
# 
# From -- ./inp_files/2636.got.cif
#   From: 2010.03.12/outbox.cif.g09.slc.cpg/sg19_2_cif.got.tgz:2636.got - 2010.04.10 18:59:41.
