data_PCOD8157181
_publ_section_title
;
Structure prediction by ZEFSAII (Michael W. Deem and Ramdas Pophale) SiO2 
 PCOD8157181
Probable space group: P 21 21 21
;
_chemical_formula_sum "Si O2"
_cell_formula_units_Z 32
_cell_length_a 10.671164
_cell_length_b 15.419627
_cell_length_c 9.310025
_cell_angle_alpha 90.000000
_cell_angle_beta 90.000000
_cell_angle_gamma 90.000000
_cell_volume 1531.921495
_symmetry_space_group_name_H-M "P 21 21 21"
_symmetry_group_IT_number 19
_symmetry_cell_setting 'orthorhombic'
loop_
_space_group_symop_operation_xyz
x,y,z
1/2-x,-y,1/2+z
1/2+x,1/2-y,-z
-x,1/2+y,1/2-z
loop_
_atom_site_type_symbol
_atom_site_label
_atom_site_fract_x
_atom_site_fract_y
_atom_site_fract_z
Si Si1 0.779591 0.346080 0.052976
Si Si2 0.540257 0.585637 0.321985
Si Si3 0.534999 0.391961 0.211639
Si Si4 0.765667 0.904424 0.716954
Si Si5 0.910268 0.258607 0.627614
Si Si6 0.790055 0.056095 0.920647
Si Si7 0.312938 0.717266 0.684872
Si Si8 0.083377 0.750416 0.210758
O O1 0.652993 0.391747 0.105242
O O2 0.852566 0.326970 0.200371
O O3 0.870212 0.407490 0.960216
O O4 0.747558 0.262996 0.955380
O O5 0.534925 0.482663 0.296650
O O6 0.400992 0.626735 0.344462
O O7 0.589255 0.643428 0.189642
O O8 0.521771 0.307147 0.316670
O O9 0.413937 0.388365 0.111272
O O10 0.708646 0.962051 0.589897
O O11 0.668739 0.832257 0.762213
O O12 0.788678 0.961125 0.856672
O O13 0.775982 0.220553 0.674541
O O14 0.921377 0.270212 0.457486
O O15 0.674838 0.115988 0.862113
O O16 0.443717 0.761697 0.726983
#
# Coordination Sequence:
#
# PCOD8157181 Si02
#       8
#     4   4   4   4   4   4   4   4
#     4  11  23  42  70  93 128 180 218 269 338 403
#     4  10  24  45  67  95 141 171 222 286 330 398
#     4  10  23  44  69  94 138 174 222 280 336 393
#     4  11  23  39  66  98 129 175 220 276 338 394
#     4  10  25  43  66  96 133 175 221 282 330 396
#     4  10  22  40  65  93 134 169 222 281 329 393
#     4  10  23  42  62  95 130 168 225 266 331 404
#     4  12  25  39  69  94 129 180 220 270 336 407
#
# _framework density 20.8888
#
# number of rings (size 3 to 8) (size 9 to 14) (size 15 to 20)
#    0.000    1.500    1.250    2.250   12.250    2.000 
#    2.250    1.250    0.000    0.000    0.000    0.000 
#    0.000    0.000    0.000    0.000    0.000    0.000 
#
# Total GULP energy -396541.376106 kJ/mol
# GULP energy per Si atom -12391.918003 kJ/mol
# Density = 2.084126 g / cm^3
# Si number density = 20.888800 Si / 1000 Ang^3
#
#
#
# Elastic Constant Matrix: (Units=GPa)
#
#
# Indices 1 2 3 4 5 6 
#
# 1 115.4466 32.4466 41.2126 0.0000 0.0000 0.0000
# 2 32.4466 70.3200 25.3093 0.0000 0.0000 0.0000
# 3 41.2126 25.3093 133.8984 0.0000 0.0000 0.0000
# 4 0.0000 0.0000 0.0000 20.0353 0.0000 0.0000
# 5 0.0000 0.0000 0.0000 0.0000 33.6712 0.0000
# 6 0.0000 0.0000 0.0000 0.0000 0.0000 30.4664
#
#
#
# Elastic Compliance Matrix: (Units=1/GPa)
#
#
# Indices 1 2 3 4 5 6 
#
# 1 0.010697 -0.004024 -0.002532 0.000000 0.000000 0.000000
# 2 -0.004024 0.016773 -0.001932 0.000000 0.000000 0.000000
# 3 -0.002532 -0.001932 0.008613 0.000000 0.000000 0.000000
# 4 0.000000 0.000000 0.000000 0.049912 0.000000 0.000000
# 5 0.000000 0.000000 0.000000 0.000000 0.029699 0.000000
# 6 0.000000 0.000000 0.000000 0.000000 0.000000 0.032823
#
#
# Mechanical properties :
#
#
# Convention : Reuss Voigt Hill
#
# Bulk Modulus (GPa) = 52.33756 57.51133 54.92445
# Shear Modulus (GPa) = 29.09328 31.54768 30.32048
#
# Velocity S-wave (km/s) = 3.73603 3.89043 3.81401
# Velocity P-wave (km/s) = 6.61213 6.91177 6.76361
#
# Compressibility (1/GPa) = 0.01910674
#
# Stress axis : x y z
#
# Youngs Moduli (GPa) = 93.48518 59.61998 116.10755
#
# Poissons Ratio (x) = 0.23994 0.29395
# Poissons Ratio (y) = 0.37623 0.22428
# Poissons Ratio (z) = 0.23668 0.11517
#
# Static dielectric constant tensor:
#      x y z
#    x 4.056520 0.000000 0.000000 
#    y 0.000000 3.595570 0.000000 
#    z 0.000000 0.000000 3.833120 
# 
# 
# High freq. dielectric constant tensor:
#      x y z
#    x 1.825670 0.000000 0.000000 
#    y 0.000000 1.806310 0.000000 
#    z 0.000000 0.000000 1.824360 
# 
# From -- ./inp_files/3646.got.cif
#   From: 2010.03.12/outbox.cif.g09.slc.cpg/sg19_2_cif.got.tgz:3646.got - 2010.04.10 18:59:41.
