data_PCOD8157764
_publ_section_title
;
Structure prediction by ZEFSAII (Michael W. Deem and Ramdas Pophale) SiO2 
 PCOD8157764
Probable space group: P 21 21 21
;
_chemical_formula_sum "Si O2"
_cell_formula_units_Z 32
_cell_length_a 11.186736
_cell_length_b 8.260163
_cell_length_c 14.638356
_cell_angle_alpha 90.000000
_cell_angle_beta 90.000000
_cell_angle_gamma 90.000000
_cell_volume 1352.646495
_symmetry_space_group_name_H-M "P 21 21 21"
_symmetry_group_IT_number 19
_symmetry_cell_setting 'orthorhombic'
loop_
_space_group_symop_operation_xyz
x,y,z
1/2-x,-y,1/2+z
1/2+x,1/2-y,-z
-x,1/2+y,1/2-z
loop_
_atom_site_type_symbol
_atom_site_label
_atom_site_fract_x
_atom_site_fract_y
_atom_site_fract_z
Si Si1 0.234788 0.925001 0.636309
Si Si2 0.221853 0.376717 0.376194
Si Si3 0.335654 0.965467 0.950261
Si Si4 0.191764 0.138101 0.802578
Si Si5 0.473398 0.011578 0.569366
Si Si6 0.237239 0.451205 0.699274
Si Si7 0.948554 0.137241 0.887731
Si Si8 0.596214 0.883935 0.963301
O O1 0.161658 0.764451 0.607757
O O2 0.217398 0.052297 0.552265
O O3 0.188070 0.986324 0.733474
O O4 0.380519 0.918156 0.637611
O O5 0.189561 0.192097 0.391000
O O6 0.260795 0.398133 0.270760
O O7 0.326165 0.428875 0.446756
O O8 0.103671 0.485885 0.385555
O O9 0.476328 0.991603 0.965682
O O10 0.269892 0.107418 0.893752
O O11 0.254104 0.285642 0.752621
O O12 0.055471 0.191370 0.821512
O O13 0.431507 0.192646 0.540707
O O14 0.485433 0.896783 0.482023
O O15 0.110509 0.468276 0.646685
O O16 0.341988 0.454569 0.626285
#
# Coordination Sequence:
#
# PCOD8157764 Si02
#       8
#     4   4   4   4   4   4   4   4
#     4  12  26  49  75 105 152 198 241 315 373 440
#     4  11  24  46  74 105 148 195 245 312 369 447
#     4  11  26  45  74 106 144 197 244 302 376 443
#     4  12  26  48  70 109 149 195 248 304 377 446
#     4  11  24  48  75 102 150 191 249 303 373 449
#     4  12  27  45  72 108 145 194 248 305 375 440
#     4  12  27  45  75 108 148 191 251 307 365 456
#     4  11  24  46  75 105 144 195 242 300 376 445
#
# _framework density 23.657328
#
# number of rings (size 3 to 8) (size 9 to 14) (size 15 to 20)
#    0.000    0.500    5.000    1.500    8.750    1.000 
#    0.000    0.000    0.000    0.000    0.000    0.000 
#    0.000    0.000    0.000    0.000    0.000    0.000 
#
# Total GULP energy -396712.778520 kJ/mol
# GULP energy per Si atom -12397.274329 kJ/mol
# Density = 2.360348 g / cm^3
# Si number density = 23.657328 Si / 1000 Ang^3
#
#
#
# Elastic Constant Matrix: (Units=GPa)
#
#
# Indices 1 2 3 4 5 6 
#
# 1 151.4861 26.2694 29.2059 0.0000 0.0000 0.0000
# 2 26.2694 46.9169 2.3371 0.0000 0.0000 0.0000
# 3 29.2059 2.3371 83.0198 0.0000 0.0000 0.0000
# 4 0.0000 0.0000 0.0000 34.6993 0.0000 0.0000
# 5 0.0000 0.0000 0.0000 0.0000 36.6043 0.0000
# 6 0.0000 0.0000 0.0000 0.0000 0.0000 35.9109
#
#
#
# Elastic Compliance Matrix: (Units=1/GPa)
#
#
# Indices 1 2 3 4 5 6 
#
# 1 0.007850 -0.004264 -0.002642 0.000000 0.000000 0.000000
# 2 -0.004264 0.023660 0.000834 0.000000 0.000000 0.000000
# 3 -0.002642 0.000834 0.012951 0.000000 0.000000 0.000000
# 4 0.000000 0.000000 0.000000 0.028819 0.000000 0.000000
# 5 0.000000 0.000000 0.000000 0.000000 0.027319 0.000000
# 6 0.000000 0.000000 0.000000 0.000000 0.000000 0.027847
#
#
# Mechanical properties :
#
#
# Convention : Reuss Voigt Hill
#
# Bulk Modulus (GPa) = 30.94210 44.11640 37.52925
# Shear Modulus (GPa) = 33.03349 36.35025 34.69187
#
# Velocity S-wave (km/s) = 3.74081 3.92412 3.83356
# Velocity P-wave (km/s) = 5.63612 6.26260 5.95760
#
# Compressibility (1/GPa) = 0.03231843
#
# Stress axis : x y z
#
# Youngs Moduli (GPa) = 127.38992 42.26531 77.21344
#
# Poissons Ratio (x) = 0.18021 0.20396
# Poissons Ratio (y) = 0.54315 -0.06439
# Poissons Ratio (z) = 0.33650 -0.03524
#
# Static dielectric constant tensor:
#      x y z
#    x 4.633510 0.000000 0.000000 
#    y 0.000000 4.023490 0.000000 
#    z 0.000000 0.000000 4.387370 
# 
# 
# High freq. dielectric constant tensor:
#      x y z
#    x 1.956110 0.000000 0.000000 
#    y 0.000000 1.921390 0.000000 
#    z 0.000000 0.000000 1.944320 
# 
# From -- ./inp_files/6120.got.cif
#   From: 2010.03.12/outbox.cif.g09.slc.cpg/sg19_4_cif.got.tgz:6120.got - 2010.04.10 18:59:41.
