data_PCOD8157683
_publ_section_title
;
Structure prediction by ZEFSAII (Michael W. Deem and Ramdas Pophale) SiO2 
 PCOD8157683
Probable space group: P 21 21 21
;
_chemical_formula_sum "Si O2"
_cell_formula_units_Z 32
_cell_length_a 14.649683
_cell_length_b 12.426889
_cell_length_c 7.997728
_cell_angle_alpha 90.000000
_cell_angle_beta 90.000000
_cell_angle_gamma 90.000000
_cell_volume 1455.986259
_symmetry_space_group_name_H-M "P 21 21 21"
_symmetry_group_IT_number 19
_symmetry_cell_setting 'orthorhombic'
loop_
_space_group_symop_operation_xyz
x,y,z
1/2-x,-y,1/2+z
1/2+x,1/2-y,-z
-x,1/2+y,1/2-z
loop_
_atom_site_type_symbol
_atom_site_label
_atom_site_fract_x
_atom_site_fract_y
_atom_site_fract_z
Si Si1 0.849478 0.543160 0.672340
Si Si2 0.572946 0.831477 0.865080
Si Si3 0.030097 0.017528 0.125546
Si Si4 0.947295 0.726612 0.852013
Si Si5 0.126527 0.805991 0.698145
Si Si6 0.363946 0.566986 0.067444
Si Si7 0.849286 0.361131 0.181432
Si Si8 0.804423 0.097739 0.649493
O O1 0.885147 0.564861 0.483085
O O2 0.910559 0.609559 0.802528
O O3 0.856585 0.417026 0.706922
O O4 0.746178 0.578908 0.697647
O O5 0.643994 0.739619 0.807275
O O6 0.532845 0.890222 0.703524
O O7 0.487925 0.779258 0.961684
O O8 0.627503 0.910668 0.990250
O O9 0.069349 0.943850 0.274430
O O10 0.966574 0.953223 0.995864
O O11 0.865244 0.813693 0.850910
O O12 0.024194 0.762672 0.720799
O O13 0.140968 0.817063 0.503278
O O14 0.196469 0.718551 0.775862
O O15 0.336625 0.482999 0.208280
O O16 0.295812 0.563053 0.910066
#
# Coordination Sequence:
#
# PCOD8157683 Si02
#       8
#     4   4   4   4   4   4   4   4
#     4  12  25  46  69 105 142 192 237 303 371 432
#     4  11  23  45  67 103 140 184 242 295 358 434
#     4  12  24  44  70 103 144 185 246 298 360 441
#     4  11  24  43  72  96 144 186 234 296 360 440
#     4  11  25  46  71 102 145 186 241 296 364 432
#     4  12  24  46  70 106 144 191 243 290 375 433
#     4  12  25  43  69 105 139 187 242 305 362 441
#     4  11  26  45  72 102 146 191 231 309 352 445
#
# _framework density 21.97823
#
# number of rings (size 3 to 8) (size 9 to 14) (size 15 to 20)
#    0.000    0.500    2.500    6.750    1.750    4.000 
#    2.250    0.000    0.000    0.000    0.000    0.000 
#    0.000    0.000    0.000    0.000    0.000    0.000 
#
# Total GULP energy -396951.651291 kJ/mol
# GULP energy per Si atom -12404.739103 kJ/mol
# Density = 2.192821 g / cm^3
# Si number density = 21.978230 Si / 1000 Ang^3
#
#
#
# Elastic Constant Matrix: (Units=GPa)
#
#
# Indices 1 2 3 4 5 6 
#
# 1 104.7096 39.8791 37.1274 0.0000 0.0000 0.0000
# 2 39.8791 118.0851 38.4196 0.0000 0.0000 0.0000
# 3 37.1274 38.4196 104.6060 0.0000 0.0000 0.0000
# 4 0.0000 0.0000 0.0000 43.7738 0.0000 0.0000
# 5 0.0000 0.0000 0.0000 0.0000 30.0529 0.0000
# 6 0.0000 0.0000 0.0000 0.0000 0.0000 33.9860
#
#
#
# Elastic Compliance Matrix: (Units=1/GPa)
#
#
# Indices 1 2 3 4 5 6 
#
# 1 0.011777 -0.002973 -0.003088 0.000000 0.000000 0.000000
# 2 -0.002973 0.010368 -0.002753 0.000000 0.000000 0.000000
# 3 -0.003088 -0.002753 0.011667 0.000000 0.000000 0.000000
# 4 0.000000 0.000000 0.000000 0.022845 0.000000 0.000000
# 5 0.000000 0.000000 0.000000 0.000000 0.033275 0.000000
# 6 0.000000 0.000000 0.000000 0.000000 0.000000 0.029424
#
#
# Mechanical properties :
#
#
# Convention : Reuss Voigt Hill
#
# Bulk Modulus (GPa) = 61.78696 62.02811 61.90754
# Shear Modulus (GPa) = 35.11776 35.69419 35.40597
#
# Velocity S-wave (km/s) = 4.00164 4.03435 4.01803
# Velocity P-wave (km/s) = 7.03738 7.07001 7.05371
#
# Compressibility (1/GPa) = 0.01618464
#
# Stress axis : x y z
#
# Youngs Moduli (GPa) = 84.90843 96.45035 85.71259
#
# Poissons Ratio (x) = 0.28671 0.26471
# Poissons Ratio (y) = 0.25240 0.23596
# Poissons Ratio (z) = 0.26223 0.26552
#
# Static dielectric constant tensor:
#      x y z
#    x 4.103310 0.000000 0.000000 
#    y 0.000000 4.167920 0.000000 
#    z 0.000000 0.000000 3.958020 
# 
# 
# High freq. dielectric constant tensor:
#      x y z
#    x 1.866130 0.000000 0.000000 
#    y 0.000000 1.873220 0.000000 
#    z 0.000000 0.000000 1.872550 
# 
# From -- ./inp_files/3926.got.cif
#   From: 2010.03.12/outbox.cif.g09.slc.cpg/sg19_2_cif.got.tgz:3926.got - 2010.04.10 18:59:41.
