data_PCOD8157091
_publ_section_title
;
Structure prediction by ZEFSAII (Michael W. Deem and Ramdas Pophale) SiO2 
 PCOD8157091
Probable space group: P 21 21 21
;
_chemical_formula_sum "Si O2"
_cell_formula_units_Z 28
_cell_length_a 10.879222
_cell_length_b 12.232489
_cell_length_c 9.835414
_cell_angle_alpha 90.000000
_cell_angle_beta 90.000000
_cell_angle_gamma 90.000000
_cell_volume 1308.896536
_symmetry_space_group_name_H-M "P 21 21 21"
_symmetry_group_IT_number 19
_symmetry_cell_setting 'orthorhombic'
loop_
_space_group_symop_operation_xyz
x,y,z
1/2-x,-y,1/2+z
1/2+x,1/2-y,-z
-x,1/2+y,1/2-z
loop_
_atom_site_type_symbol
_atom_site_label
_atom_site_fract_x
_atom_site_fract_y
_atom_site_fract_z
Si Si1 0.351441 0.415352 0.486705
Si Si2 0.184024 0.819437 0.107763
Si Si3 0.943783 0.529507 0.333131
Si Si4 0.086695 0.261889 0.069668
Si Si5 0.812085 0.306880 0.070697
Si Si6 0.873642 0.537973 0.030661
Si Si7 0.685616 0.049122 0.764988
O O1 0.361969 0.289040 0.531513
O O2 0.485573 0.470550 0.479404
O O3 0.297434 0.423946 0.334955
O O4 0.271527 0.485559 0.597022
O O5 0.194174 0.799374 0.267367
O O6 0.088873 0.918804 0.084693
O O7 0.313586 0.857329 0.042745
O O8 0.903616 0.633507 0.414984
O O9 0.871242 0.545046 0.192626
O O10 0.090368 0.531393 0.309866
O O11 0.110593 0.338866 0.200442
O O12 0.949272 0.279848 0.014142
O O13 0.206217 0.280085 0.972529
O O14 0.795002 0.427558 0.003069
#
# Coordination Sequence:
#
# PCOD8157091 Si02
#       7
#     4   4   4   4   4   4   4
#     4  11  25  42  68  96 139 174 226 287 339 413
#     4  11  22  41  66  95 130 174 227 279 339 396
#     4  10  22  40  68  91 124 181 223 272 333 419
#     4  12  23  43  69  97 135 178 234 269 352 398
#     4  11  24  40  69  99 136 183 224 287 331 414
#     4  10  21  43  62  96 130 171 226 276 336 394
#     4  11  25  43  68  98 132 179 224 280 348 400
#
# _framework density 21.392064000000001
#
# number of rings (size 3 to 8) (size 9 to 14) (size 15 to 20)
#    0.000    1.143    5.714    2.571    6.000    1.143 
#    0.000    0.000    0.000    0.000    0.000    0.000 
#    0.000    0.000    0.000    0.000    0.000    0.000 
#
# Total GULP energy -346883.431710 kJ/mol
# GULP energy per Si atom -12388.693990 kJ/mol
# Density = 2.134337 g / cm^3
# Si number density = 21.392064 Si / 1000 Ang^3
#
#
#
# Elastic Constant Matrix: (Units=GPa)
#
#
# Indices 1 2 3 4 5 6 
#
# 1 78.1147 8.3020 25.2763 0.0000 0.0000 0.0000
# 2 8.3020 87.2949 23.8020 0.0000 0.0000 0.0000
# 3 25.2763 23.8020 40.1693 0.0000 0.0000 0.0000
# 4 0.0000 0.0000 0.0000 23.9541 0.0000 0.0000
# 5 0.0000 0.0000 0.0000 0.0000 2.6398 0.0000
# 6 0.0000 0.0000 0.0000 0.0000 0.0000 38.4634
#
#
#
# Elastic Compliance Matrix: (Units=1/GPa)
#
#
# Indices 1 2 3 4 5 6 
#
# 1 0.016234 0.001481 -0.011092 0.000000 0.000000 0.000000
# 2 0.001481 0.013798 -0.009107 0.000000 0.000000 0.000000
# 3 -0.011092 -0.009107 0.037271 0.000000 0.000000 0.000000
# 4 0.000000 0.000000 0.000000 0.041747 0.000000 0.000000
# 5 0.000000 0.000000 0.000000 0.000000 0.378822 0.000000
# 6 0.000000 0.000000 0.000000 0.000000 0.000000 0.025999
#
#
# Mechanical properties :
#
#
# Convention : Reuss Voigt Hill
#
# Bulk Modulus (GPa) = 33.48492 35.59326 34.53909
# Shear Modulus (GPa) = 8.90850 22.89136 15.89993
#
# Velocity S-wave (km/s) = 2.04290 3.27477 2.72924
# Velocity P-wave (km/s) = 4.60994 5.56538 5.11004
#
# Compressibility (1/GPa) = 0.02986419
#
# Stress axis : x y z
#
# Youngs Moduli (GPa) = 61.60091 72.47497 26.83061
#
# Poissons Ratio (x) = -0.10730 0.29761
# Poissons Ratio (y) = -0.09120 0.24436
# Poissons Ratio (z) = 0.68329 0.66006
#
# Static dielectric constant tensor:
#      x y z
#    x 3.854020 0.000000 0.000000 
#    y 0.000000 5.082880 0.000000 
#    z 0.000000 0.000000 3.621810 
# 
# 
# High freq. dielectric constant tensor:
#      x y z
#    x 1.836660 0.000000 0.000000 
#    y 0.000000 1.859930 0.000000 
#    z 0.000000 0.000000 1.811340 
# 
# From -- ./inp_files/3471.got.cif
#   From: 2010.03.12/outbox.cif.g09.slc.cpg/sg19_2_cif.got.tgz:3471.got - 2010.04.10 18:59:41.
