data_PCOD8157733
_publ_section_title
;
Structure prediction by ZEFSAII (Michael W. Deem and Ramdas Pophale) SiO2 
 PCOD8157733
Probable space group: P 21 21 21
;
_chemical_formula_sum "Si O2"
_cell_formula_units_Z 20
_cell_length_a 7.808194
_cell_length_b 5.402482
_cell_length_c 16.084383
_cell_angle_alpha 90.000000
_cell_angle_beta 90.000000
_cell_angle_gamma 90.000000
_cell_volume 678.497622
_symmetry_space_group_name_H-M "P 21 21 21"
_symmetry_group_IT_number 19
_symmetry_cell_setting 'orthorhombic'
loop_
_space_group_symop_operation_xyz
x,y,z
1/2-x,-y,1/2+z
1/2+x,1/2-y,-z
-x,1/2+y,1/2-z
loop_
_atom_site_type_symbol
_atom_site_label
_atom_site_fract_x
_atom_site_fract_y
_atom_site_fract_z
Si Si1 0.129372 0.896124 0.800793
Si Si2 0.929381 0.249710 0.884633
Si Si3 0.125622 0.958743 0.058371
Si Si4 0.737184 0.944737 0.068755
Si Si5 0.596058 0.690151 0.765663
O O1 0.067838 0.875570 0.706322
O O2 0.247231 0.146206 0.798536
O O3 0.970045 0.960040 0.863783
O O4 0.235137 0.659264 0.835175
O O5 0.746032 0.295157 0.928576
O O6 0.086180 0.352913 0.942034
O O7 0.143818 0.774635 0.137586
O O8 0.926678 0.045269 0.043031
O O9 0.197724 0.803028 0.982559
O O10 0.505957 0.419084 0.769304
#
# Coordination Sequence:
#
# PCOD8157733 Si02
#       5
#     4   4   4   4   4
#     4  11  24  43  78 104 150 200 260 325 390 474
#     4  11  24  46  72 107 142 197 258 322 387 474
#     4  11  25  46  74 107 151 205 254 328 390 470
#     4  12  23  50  68 108 155 199 259 324 401 467
#     4  11  24  47  78 116 154 203 267 321 398 471
#
# _framework density 29.476889
#
# number of rings (size 3 to 8) (size 9 to 14) (size 15 to 20)
#    0.000    0.800    6.000    1.200    0.000    0.000 
#   10.800    0.000    0.000    0.000    0.000    0.000 
#    0.000    0.000    0.000    0.000    0.000    0.000 
#
# Total GULP energy -247883.423049 kJ/mol
# GULP energy per Si atom -12394.171152 kJ/mol
# Density = 2.940980 g / cm^3
# Si number density = 29.476889 Si / 1000 Ang^3
#
#
#
# Elastic Constant Matrix: (Units=GPa)
#
#
# Indices 1 2 3 4 5 6 
#
# 1 218.0368 39.2414 38.8383 0.0000 0.0000 0.0000
# 2 39.2414 54.1357 -20.8433 0.0000 0.0000 0.0000
# 3 38.8383 -20.8433 56.4954 0.0000 0.0000 0.0000
# 4 0.0000 0.0000 0.0000 21.2954 0.0000 0.0000
# 5 0.0000 0.0000 0.0000 0.0000 53.1569 0.0000
# 6 0.0000 0.0000 0.0000 0.0000 0.0000 62.8266
#
#
#
# Elastic Compliance Matrix: (Units=1/GPa)
#
#
# Indices 1 2 3 4 5 6 
#
# 1 0.007719 -0.008903 -0.008591 0.000000 0.000000 0.000000
# 2 -0.008903 0.031799 0.017852 0.000000 0.000000 0.000000
# 3 -0.008591 0.017852 0.030193 0.000000 0.000000 0.000000
# 4 0.000000 0.000000 0.000000 0.046959 0.000000 0.000000
# 5 0.000000 0.000000 0.000000 0.000000 0.018812 0.000000
# 6 0.000000 0.000000 0.000000 0.000000 0.000000 0.015917
#
#
# Mechanical properties :
#
#
# Convention : Reuss Voigt Hill
#
# Bulk Modulus (GPa) = 14.19896 49.23785 31.71840
# Shear Modulus (GPa) = 28.70945 45.55121 37.13033
#
# Velocity S-wave (km/s) = 3.12423 3.93532 3.55299
# Velocity P-wave (km/s) = 4.22396 6.11467 5.25504
#
# Compressibility (1/GPa) = 0.07042771
#
# Stress axis : x y z
#
# Youngs Moduli (GPa) = 129.54947 31.44729 33.12011
#
# Poissons Ratio (x) = 0.27998 0.28454
# Poissons Ratio (y) = 1.15339 -0.59128
# Poissons Ratio (z) = 1.11299 -0.56141
#
# Static dielectric constant tensor:
#      x y z
#    x 6.140350 0.000000 0.000000 
#    y 0.000000 4.925220 0.000000 
#    z 0.000000 0.000000 5.900060 
# 
# 
# High freq. dielectric constant tensor:
#      x y z
#    x 2.213170 0.000000 0.000000 
#    y 0.000000 2.186150 0.000000 
#    z 0.000000 0.000000 2.230660 
# 
# From -- ./inp_files/391.got.cif
#   From: 2010.03.12/outbox.cif.g09.slc.cpg/sg19_1_cif.got.tgz:391.got - 2010.04.10 18:59:41.
