data_PCOD8157344
_publ_section_title
;
Structure prediction by ZEFSAII (Michael W. Deem and Ramdas Pophale) SiO2 
 PCOD8157344
Probable space group: P 21 21 21
;
_chemical_formula_sum "Si O2"
_cell_formula_units_Z 32
_cell_length_a 5.454601
_cell_length_b 17.238276
_cell_length_c 15.244600
_cell_angle_alpha 90.000000
_cell_angle_beta 90.000000
_cell_angle_gamma 90.000000
_cell_volume 1433.417991
_symmetry_space_group_name_H-M "P 21 21 21"
_symmetry_group_IT_number 19
_symmetry_cell_setting 'orthorhombic'
loop_
_space_group_symop_operation_xyz
x,y,z
1/2-x,-y,1/2+z
1/2+x,1/2-y,-z
-x,1/2+y,1/2-z
loop_
_atom_site_type_symbol
_atom_site_label
_atom_site_fract_x
_atom_site_fract_y
_atom_site_fract_z
Si Si1 0.280770 0.869340 0.251454
Si Si2 0.257888 0.436490 0.814967
Si Si3 0.801992 0.669641 0.557721
Si Si4 0.465719 0.213022 0.591528
Si Si5 0.361500 0.869560 0.953893
Si Si6 0.199941 0.344080 0.982631
Si Si7 0.741883 0.457551 0.715666
Si Si8 0.653031 0.907882 0.109957
O O1 0.316998 0.817787 0.337747
O O2 0.114139 0.821264 0.185230
O O3 0.532026 0.887442 0.202541
O O4 0.169868 0.951693 0.283667
O O5 0.505769 0.416364 0.761250
O O6 0.312496 0.515226 0.871439
O O7 0.006703 0.442751 0.759158
O O8 0.206342 0.366916 0.881180
O O9 0.550702 0.624624 0.529206
O O10 0.801392 0.751476 0.508332
O O11 0.050781 0.623578 0.529206
O O12 0.311430 0.188546 0.507333
O O13 0.469413 0.306686 0.598034
O O14 0.722248 0.170436 0.576192
O O15 0.231671 0.925015 0.883213
O O16 0.479031 0.927040 0.026564
#
# Coordination Sequence:
#
# PCOD8157344 Si02
#       8
#     4   4   4   4   4   4   4   4
#     4  10  24  42  64  95 129 175 213 273 329 392
#     4  11  24  45  65  95 134 172 212 278 328 381
#     4  10  23  41  66  94 125 164 219 259 320 392
#     4  11  22  43  64  94 136 169 221 274 334 391
#     4  11  25  40  68  99 130 180 223 275 335 408
#     4  10  23  42  64  95 125 165 216 264 320 385
#     4  11  26  42  66  99 131 169 229 261 328 404
#     4  10  23  43  65  91 136 168 217 268 332 389
#
# _framework density 22.324262000000001
#
# number of rings (size 3 to 8) (size 9 to 14) (size 15 to 20)
#    0.000    1.500    2.500    0.750    7.000    2.000 
#    0.000    0.000    0.000    0.000    0.000    0.000 
#    0.000    0.000    0.000    0.000    0.000    0.000 
#
# Total GULP energy -396467.439947 kJ/mol
# GULP energy per Si atom -12389.607498 kJ/mol
# Density = 2.227345 g / cm^3
# Si number density = 22.324262 Si / 1000 Ang^3
#
#
#
# Elastic Constant Matrix: (Units=GPa)
#
#
# Indices 1 2 3 4 5 6 
#
# 1 122.1239 10.0476 34.5300 0.0000 0.0000 0.0000
# 2 10.0476 41.7106 21.6744 0.0000 0.0000 0.0000
# 3 34.5300 21.6744 120.2201 0.0000 0.0000 0.0000
# 4 0.0000 0.0000 0.0000 32.0176 0.0000 0.0000
# 5 0.0000 0.0000 0.0000 0.0000 5.0537 0.0000
# 6 0.0000 0.0000 0.0000 0.0000 0.0000 20.8746
#
#
#
# Elastic Compliance Matrix: (Units=1/GPa)
#
#
# Indices 1 2 3 4 5 6 
#
# 1 0.008943 -0.000904 -0.002406 0.000000 0.000000 0.000000
# 2 -0.000904 0.026544 -0.004526 0.000000 0.000000 0.000000
# 3 -0.002406 -0.004526 0.009825 0.000000 0.000000 0.000000
# 4 0.000000 0.000000 0.000000 0.031233 0.000000 0.000000
# 5 0.000000 0.000000 0.000000 0.000000 0.197877 0.000000
# 6 0.000000 0.000000 0.000000 0.000000 0.000000 0.047905
#
#
# Mechanical properties :
#
#
# Convention : Reuss Voigt Hill
#
# Bulk Modulus (GPa) = 33.73728 46.28430 40.01079
# Shear Modulus (GPa) = 14.37282 26.10934 20.24108
#
# Velocity S-wave (km/s) = 2.54011 3.42358 3.01439
# Velocity P-wave (km/s) = 4.87320 6.03371 5.48424
#
# Compressibility (1/GPa) = 0.02964080
#
# Stress axis : x y z
#
# Youngs Moduli (GPa) = 111.81963 37.67275 101.78109
#
# Poissons Ratio (x) = 0.03406 0.24485
# Poissons Ratio (y) = 0.10111 0.46066
# Poissons Ratio (z) = 0.26899 0.17051
#
# Static dielectric constant tensor:
#      x y z
#    x 4.228850 0.000000 0.000000 
#    y 0.000000 4.104420 0.000000 
#    z 0.000000 0.000000 3.956670 
# 
# 
# High freq. dielectric constant tensor:
#      x y z
#    x 1.879860 0.000000 0.000000 
#    y 0.000000 1.865340 0.000000 
#    z 0.000000 0.000000 1.885350 
# 
# From -- ./inp_files/1803.got.cif
#   From: 2010.03.12/outbox.cif.g09.slc.cpg/sg19_1_cif.got.tgz:1803.got - 2010.04.10 18:59:41.
