data_PCOD8157330
_publ_section_title
;
Structure prediction by ZEFSAII (Michael W. Deem and Ramdas Pophale) SiO2 
 PCOD8157330
Probable space group: P 21 21 21
;
_chemical_formula_sum "Si O2"
_cell_formula_units_Z 28
_cell_length_a 12.518254
_cell_length_b 4.950781
_cell_length_c 20.760399
_cell_angle_alpha 90.000000
_cell_angle_beta 90.000000
_cell_angle_gamma 90.000000
_cell_volume 1286.628511
_symmetry_space_group_name_H-M "P 21 21 21"
_symmetry_group_IT_number 19
_symmetry_cell_setting 'orthorhombic'
loop_
_space_group_symop_operation_xyz
x,y,z
1/2-x,-y,1/2+z
1/2+x,1/2-y,-z
-x,1/2+y,1/2-z
loop_
_atom_site_type_symbol
_atom_site_label
_atom_site_fract_x
_atom_site_fract_y
_atom_site_fract_z
Si Si1 0.307895 0.441491 0.807687
Si Si2 0.645923 0.236088 0.508842
Si Si3 0.712314 0.439385 0.919161
Si Si4 0.948913 0.579768 0.532977
Si Si5 0.154909 0.581407 0.914227
Si Si6 0.669773 0.945944 0.839197
Si Si7 0.072978 0.066750 0.358351
O O1 0.196714 0.517093 0.842869
O O2 0.283724 0.463341 0.732344
O O3 0.403049 0.644060 0.826680
O O4 0.342646 0.143711 0.829304
O O5 0.683214 0.458603 0.457015
O O6 0.745258 0.061761 0.536195
O O7 0.586289 0.408211 0.564430
O O8 0.570403 0.011871 0.476470
O O9 0.684672 0.641050 0.861430
O O10 0.734022 0.147135 0.887033
O O11 0.608806 0.431607 0.964358
O O12 0.891410 0.382389 0.584231
O O13 0.938870 0.879222 0.562691
O O14 0.545285 0.028246 0.840346
#
# Coordination Sequence:
#
# PCOD8157330 Si02
#       7
#     4   4   4   4   4   4   4
#     4  11  22  39  60  87 127 166 209 256 310 378
#     4  10  23  41  64  92 131 165 207 268 317 383
#     4  11  23  38  57  93 123 162 205 250 323 367
#     4  11  22  40  63  88 127 162 208 260 313 378
#     4  10  23  38  60  92 118 163 210 250 315 376
#     4  12  23  38  59  90 128 162 206 256 310 381
#     4  11  22  38  61  90 122 168 205 254 322 383
#
# _framework density 21.762304
#
# number of rings (size 3 to 8) (size 9 to 14) (size 15 to 20)
#    0.000    1.143    1.429    6.857    2.000    4.571 
#    0.000    0.000    0.000    3.429    0.000    0.000 
#    0.000    0.000    0.000    0.000    0.000    0.000 
#
# Total GULP energy -347363.832200 kJ/mol
# GULP energy per Si atom -12405.851150 kJ/mol
# Density = 2.171277 g / cm^3
# Si number density = 21.762304 Si / 1000 Ang^3
#
#
#
# Elastic Constant Matrix: (Units=GPa)
#
#
# Indices 1 2 3 4 5 6 
#
# 1 35.6826 0.8331 2.1168 0.0000 0.0000 0.0000
# 2 0.8331 80.0981 9.2947 0.0000 0.0000 0.0000
# 3 2.1168 9.2947 97.7510 0.0000 0.0000 0.0000
# 4 0.0000 0.0000 0.0000 27.4200 0.0000 0.0000
# 5 0.0000 0.0000 0.0000 0.0000 20.4037 0.0000
# 6 0.0000 0.0000 0.0000 0.0000 0.0000 30.6607
#
#
#
# Elastic Compliance Matrix: (Units=1/GPa)
#
#
# Indices 1 2 3 4 5 6 
#
# 1 0.028065 -0.000224 -0.000586 0.000000 0.000000 0.000000
# 2 -0.000224 0.012626 -0.001196 0.000000 0.000000 0.000000
# 3 -0.000586 -0.001196 0.010356 0.000000 0.000000 0.000000
# 4 0.000000 0.000000 0.000000 0.036470 0.000000 0.000000
# 5 0.000000 0.000000 0.000000 0.000000 0.049011 0.000000
# 6 0.000000 0.000000 0.000000 0.000000 0.000000 0.032615
#
#
# Mechanical properties :
#
#
# Convention : Reuss Voigt Hill
#
# Bulk Modulus (GPa) = 21.26070 26.44677 23.85373
# Shear Modulus (GPa) = 26.47842 29.11602 27.79722
#
# Velocity S-wave (km/s) = 3.49192 3.66171 3.57783
# Velocity P-wave (km/s) = 5.10380 5.48238 5.29647
#
# Compressibility (1/GPa) = 0.04703514
#
# Stress axis : x y z
#
# Youngs Moduli (GPa) = 35.63172 79.20309 96.55808
#
# Poissons Ratio (x) = 0.01773 0.05663
# Poissons Ratio (y) = 0.00798 0.11545
# Poissons Ratio (z) = 0.02090 0.09470
#
# Static dielectric constant tensor:
#      x y z
#    x 3.665830 0.000000 0.000000 
#    y 0.000000 4.018140 0.000000 
#    z 0.000000 0.000000 3.858460 
# 
# 
# High freq. dielectric constant tensor:
#      x y z
#    x 1.830660 0.000000 0.000000 
#    y 0.000000 1.873770 0.000000 
#    z 0.000000 0.000000 1.841910 
# 
# From -- ./inp_files/7130.got.cif
#   From: 2010.03.12/outbox.cif.g09.slc.cpg/sg19_4_cif.got.tgz:7130.got - 2010.04.10 18:59:41.
