data_PCOD8157963
_publ_section_title
;
Structure prediction by ZEFSAII (Michael W. Deem and Ramdas Pophale) SiO2 
 PCOD8157963
Probable space group: C 2 2 21
;
_chemical_formula_sum "Si O2"
_cell_formula_units_Z 52
_cell_length_a 12.839786
_cell_length_b 23.419392
_cell_length_c 9.411914
_cell_angle_alpha 90.000000
_cell_angle_beta 90.000000
_cell_angle_gamma 90.000000
_cell_volume 2830.162366
_symmetry_space_group_name_H-M "C 2 2 21"
_symmetry_group_IT_number 20
_symmetry_cell_setting 'orthorhombic'
loop_
_space_group_symop_operation_xyz
x,y,z
-x,-y,1/2+z
x,-y,-z
-x,y,1/2-z
1/2+x,1/2+y,z
1/2-x,1/2-y,1/2+z
1/2+x,1/2-y,-z
1/2-x,1/2+y,1/2-z
loop_
_atom_site_type_symbol
_atom_site_label
_atom_site_fract_x
_atom_site_fract_y
_atom_site_fract_z
Si Si1 0.318953 0.627000 0.385297
Si Si2 0.793502 0.110011 0.700504
Si Si3 0.680142 0.804611 0.136343
Si Si4 0.216540 0.789307 0.663733
Si Si5 0.894842 0.005596 0.335242
Si Si6 0.000000 0.182387 0.750000
Si Si7 0.488211 0.720707 0.443470
O O1 0.260228 0.620691 0.536139
O O2 0.248363 0.659502 0.268923
O O3 0.345244 0.567303 0.310610
O O4 0.420892 0.664595 0.413722
O O5 0.697837 0.130610 0.805272
O O6 0.899305 0.141680 0.746066
O O7 0.812291 0.042196 0.717361
O O8 0.746125 0.769247 0.255332
O O9 0.563460 0.779880 0.116771
O O10 0.727319 0.794593 0.983095
O O11 0.092676 0.788898 0.643531
O O12 0.000000 0.998148 0.250000
O O13 0.923755 0.000000 0.500000
O O14 0.007147 0.223988 0.613015
#
# Coordination Sequence:
#
# PCOD8157963 Si02
#       7
#     8   8   8   8   8   4   8
#     4   9  19  32  48  71 102 140 170 204 255 310
#     4  10  19  32  47  70 102 136 178 205 245 309
#     4  11  21  32  50  73  97 141 173 204 262 301
#     4  11  20  34  51  73 104 135 168 217 252 310
#     4  10  19  30  48  72 103 140 178 208 253 313
#     4  10  16  32  46  68  96 136 160 212 244 288
#     4  10  20  32  51  71 105 133 173 210 255 304
#
# _framework density 18.373502999999999
#
# number of rings (size 3 to 8) (size 9 to 14) (size 15 to 20)
#    0.000    1.846    2.308    5.538    0.000    1.231 
#    0.000    0.000    0.000    0.000    0.000    0.000 
#    0.000   49.231    0.000    0.000    0.000    0.000 
#
# Total GULP energy -322151.148409 kJ/mol
# GULP energy per Si atom -12390.428785 kJ/mol
# Density = 1.833168 g / cm^3
# Si number density = 18.373503 Si / 1000 Ang^3
#
#
#
# Elastic Constant Matrix: (Units=GPa)
#
#
# Indices 1 2 3 4 5 6 
#
# 1 13.4867 3.5372 1.8623 0.0000 0.0000 0.0000
# 2 3.5372 73.6591 27.6248 0.0000 0.0000 0.0000
# 3 1.8623 27.6248 108.5646 0.0000 0.0000 0.0000
# 4 0.0000 0.0000 0.0000 30.1848 0.0000 0.0000
# 5 0.0000 0.0000 0.0000 0.0000 24.8497 0.0000
# 6 0.0000 0.0000 0.0000 0.0000 0.0000 13.0944
#
#
#
# Elastic Compliance Matrix: (Units=1/GPa)
#
#
# Indices 1 2 3 4 5 6 
#
# 1 0.075109 -0.003453 -0.000410 0.000000 0.000000 0.000000
# 2 -0.003453 0.015167 -0.003800 0.000000 0.000000 0.000000
# 3 -0.000410 -0.003800 0.010185 0.000000 0.000000 0.000000
# 4 0.000000 0.000000 0.000000 0.033129 0.000000 0.000000
# 5 0.000000 0.000000 0.000000 0.000000 0.040242 0.000000
# 6 0.000000 0.000000 0.000000 0.000000 0.000000 0.076368
#
#
# Mechanical properties :
#
#
# Convention : Reuss Voigt Hill
#
# Bulk Modulus (GPa) = 11.74600 29.08434 20.41517
# Shear Modulus (GPa) = 17.01227 24.47153 20.74190
#
# Velocity S-wave (km/s) = 3.04618 3.65347 3.36356
# Velocity P-wave (km/s) = 4.33348 5.80181 5.12055
#
# Compressibility (1/GPa) = 0.08513538
#
# Stress axis : x y z
#
# Youngs Moduli (GPa) = 13.31393 65.93232 98.18270
#
# Poissons Ratio (x) = 0.22768 0.04023
# Poissons Ratio (y) = 0.04598 0.37310
# Poissons Ratio (z) = 0.00545 0.25055
#
# Static dielectric constant tensor:
#      x y z
#    x 3.102790 0.000000 0.000000 
#    y 0.000000 3.541870 0.000000 
#    z 0.000000 0.000000 3.913880 
# 
# 
# High freq. dielectric constant tensor:
#      x y z
#    x 1.661000 0.000000 0.000000 
#    y 0.000000 1.697010 0.000000 
#    z 0.000000 0.000000 1.744160 
# 
# From -- ./inp_files/8860.got.cif
#   From: 2010.03.12/outbox.cif.g09.slc.cpg/sg20_5_cif.got.tgz:8860.got - 2010.04.14 01:38:04.
