data_PCOD8157473
_publ_section_title
;
Structure prediction by ZEFSAII (Michael W. Deem and Ramdas Pophale) SiO2 
 PCOD8157473
Probable space group: P 21 21 21
;
_chemical_formula_sum "Si O2"
_cell_formula_units_Z 32
_cell_length_a 15.379440
_cell_length_b 8.178199
_cell_length_c 12.373142
_cell_angle_alpha 90.000000
_cell_angle_beta 90.000000
_cell_angle_gamma 90.000000
_cell_volume 1556.245803
_symmetry_space_group_name_H-M "P 21 21 21"
_symmetry_group_IT_number 19
_symmetry_cell_setting 'orthorhombic'
loop_
_space_group_symop_operation_xyz
x,y,z
1/2-x,-y,1/2+z
1/2+x,1/2-y,-z
-x,1/2+y,1/2-z
loop_
_atom_site_type_symbol
_atom_site_label
_atom_site_fract_x
_atom_site_fract_y
_atom_site_fract_z
Si Si1 0.867739 0.587087 0.030550
Si Si2 0.741862 0.372052 0.154516
Si Si3 0.524962 0.056620 0.861208
Si Si4 0.095787 0.654922 0.322260
Si Si5 0.086418 0.590744 0.746701
Si Si6 0.101711 0.968073 0.700476
Si Si7 0.661174 0.077054 0.045639
Si Si8 0.343108 0.538724 0.024130
O O1 0.779070 0.522191 0.084243
O O2 0.859792 0.772798 0.997829
O O3 0.945901 0.567452 0.115918
O O4 0.890548 0.472727 0.928524
O O5 0.818770 0.261209 0.204770
O O6 0.685883 0.441337 0.252600
O O7 0.681722 0.263647 0.076516
O O8 0.489294 0.231816 0.822977
O O9 0.586210 0.983596 0.768228
O O10 0.578185 0.081567 0.970052
O O11 0.104743 0.571221 0.438821
O O12 0.101330 0.782678 0.738813
O O13 0.140995 0.528072 0.848318
O O14 0.122138 0.497791 0.642644
O O15 0.984278 0.558834 0.758536
O O16 0.740877 0.995722 0.982079
#
# Coordination Sequence:
#
# PCOD8157473 Si02
#       8
#     4   4   4   4   4   4   4   4
#     4  11  23  46  65  98 134 173 219 274 330 395
#     4  10  24  44  65  98 132 174 221 271 330 396
#     4  11  23  44  68  95 133 175 219 274 324 403
#     4  10  24  45  66  97 133 174 224 271 335 390
#     4  12  25  43  70 100 134 177 222 277 334 393
#     4  12  24  43  66 100 134 174 224 275 332 396
#     4  11  24  42  68  98 132 176 218 273 333 394
#     4  11  25  43  70  96 134 173 221 273 330 397
#
# _framework density 20.562304000000001
#
# number of rings (size 3 to 8) (size 9 to 14) (size 15 to 20)
#    0.000    1.000    1.250    6.000    7.000    0.000 
#   11.250    0.000    0.000    0.000    0.000    0.000 
#    0.000    0.000    0.000    0.000    0.000    0.000 
#
# Total GULP energy -397012.262863 kJ/mol
# GULP energy per Si atom -12406.633214 kJ/mol
# Density = 2.051550 g / cm^3
# Si number density = 20.562304 Si / 1000 Ang^3
#
#
#
# Elastic Constant Matrix: (Units=GPa)
#
#
# Indices 1 2 3 4 5 6 
#
# 1 79.9500 29.0848 35.3789 0.0000 0.0000 0.0000
# 2 29.0848 89.3925 11.5287 0.0000 0.0000 0.0000
# 3 35.3789 11.5287 84.8008 0.0000 0.0000 0.0000
# 4 0.0000 0.0000 0.0000 32.1722 0.0000 0.0000
# 5 0.0000 0.0000 0.0000 0.0000 23.5799 0.0000
# 6 0.0000 0.0000 0.0000 0.0000 0.0000 33.5016
#
#
#
# Elastic Compliance Matrix: (Units=1/GPa)
#
#
# Indices 1 2 3 4 5 6 
#
# 1 0.017100 -0.004726 -0.006491 0.000000 0.000000 0.000000
# 2 -0.004726 0.012693 0.000246 0.000000 0.000000 0.000000
# 3 -0.006491 0.000246 0.014467 0.000000 0.000000 0.000000
# 4 0.000000 0.000000 0.000000 0.031083 0.000000 0.000000
# 5 0.000000 0.000000 0.000000 0.000000 0.042409 0.000000
# 6 0.000000 0.000000 0.000000 0.000000 0.000000 0.029849
#
#
# Mechanical properties :
#
#
# Convention : Reuss Voigt Hill
#
# Bulk Modulus (GPa) = 44.81019 45.12532 44.96776
# Shear Modulus (GPa) = 28.25137 29.72746 28.98941
#
# Velocity S-wave (km/s) = 3.71069 3.80640 3.75885
# Velocity P-wave (km/s) = 6.34024 6.42740 6.38397
#
# Compressibility (1/GPa) = 0.02231635
#
# Stress axis : x y z
#
# Youngs Moduli (GPa) = 58.48026 78.78575 69.12234
#
# Poissons Ratio (x) = 0.37237 0.44871
# Poissons Ratio (y) = 0.27640 -0.01702
# Poissons Ratio (z) = 0.37962 -0.01940
#
# Static dielectric constant tensor:
#      x y z
#    x 3.841120 0.000000 0.000000 
#    y 0.000000 3.792350 0.000000 
#    z 0.000000 0.000000 3.805590 
# 
# 
# High freq. dielectric constant tensor:
#      x y z
#    x 1.814870 0.000000 0.000000 
#    y 0.000000 1.816060 0.000000 
#    z 0.000000 0.000000 1.810410 
# 
# From -- ./inp_files/5259.got.cif
#   From: 2010.03.12/outbox.cif.g09.slc.cpg/sg19_3_cif.got.tgz:5259.got - 2010.04.10 18:59:41.
