data_PCOD8157747
_publ_section_title
;
Structure prediction by ZEFSAII (Michael W. Deem and Ramdas Pophale) SiO2 
 PCOD8157747
Probable space group: P 21 21 21
;
_chemical_formula_sum "Si O2"
_cell_formula_units_Z 32
_cell_length_a 11.207191
_cell_length_b 23.593752
_cell_length_c 5.165981
_cell_angle_alpha 90.000000
_cell_angle_beta 90.000000
_cell_angle_gamma 90.000000
_cell_volume 1365.987069
_symmetry_space_group_name_H-M "P 21 21 21"
_symmetry_group_IT_number 19
_symmetry_cell_setting 'orthorhombic'
loop_
_space_group_symop_operation_xyz
x,y,z
1/2-x,-y,1/2+z
1/2+x,1/2-y,-z
-x,1/2+y,1/2-z
loop_
_atom_site_type_symbol
_atom_site_label
_atom_site_fract_x
_atom_site_fract_y
_atom_site_fract_z
Si Si1 0.593984 0.398994 0.313349
Si Si2 0.898186 0.294929 0.412852
Si Si3 0.445205 0.799098 0.825378
Si Si4 0.544214 0.525720 0.319784
Si Si5 0.871328 0.141865 0.024009
Si Si6 0.138039 0.918507 0.174908
Si Si7 0.721768 0.033131 0.171630
Si Si8 0.229382 0.755005 0.597717
O O1 0.617455 0.350508 0.525546
O O2 0.549114 0.460124 0.409658
O O3 0.493257 0.377811 0.115658
O O4 0.728331 0.409062 0.212523
O O5 0.926856 0.361428 0.422563
O O6 0.798840 0.280809 0.622177
O O7 0.018941 0.258857 0.479854
O O8 0.849673 0.281943 0.125145
O O9 0.577391 0.822893 0.763287
O O10 0.366944 0.777343 0.576661
O O11 0.631695 0.538561 0.073608
O O12 0.411923 0.543223 0.226926
O O13 0.568075 0.560223 0.577534
O O14 0.791902 0.090715 0.120671
O O15 0.786325 0.186660 0.873799
O O16 0.711132 0.998890 0.903251
#
# Coordination Sequence:
#
# PCOD8157747 Si02
#       8
#     4   4   4   4   4   4   4   4
#     4  12  24  46  75 101 146 193 250 298 364 450
#     4  11  24  46  68 103 142 181 243 289 369 429
#     4  11  25  44  74 104 143 190 238 304 362 444
#     4  12  28  47  70 109 145 192 248 303 366 435
#     4  11  26  45  75 109 142 200 245 303 373 449
#     4  12  27  47  71 106 147 192 239 309 371 432
#     4  12  26  50  76 107 151 195 251 307 368 446
#     4  11  24  45  69 107 138 185 242 299 363 435
#
# _framework density 23.426282
#
# number of rings (size 3 to 8) (size 9 to 14) (size 15 to 20)
#    0.000    0.500    3.750    3.750    5.250    0.000 
#    4.500    0.000    0.000    0.000    0.000    0.000 
#    0.000    0.000    0.000    0.000    0.000    0.000 
#
# Total GULP energy -396501.819064 kJ/mol
# GULP energy per Si atom -12390.681846 kJ/mol
# Density = 2.337296 g / cm^3
# Si number density = 23.426282 Si / 1000 Ang^3
#
#
#
# Elastic Constant Matrix: (Units=GPa)
#
#
# Indices 1 2 3 4 5 6 
#
# 1 87.3497 40.0923 9.0809 0.0000 0.0000 0.0000
# 2 40.0923 125.4317 20.1890 0.0000 0.0000 0.0000
# 3 9.0809 20.1890 71.6028 0.0000 0.0000 0.0000
# 4 0.0000 0.0000 0.0000 27.6224 0.0000 0.0000
# 5 0.0000 0.0000 0.0000 0.0000 33.2170 0.0000
# 6 0.0000 0.0000 0.0000 0.0000 0.0000 39.0513
#
#
#
# Elastic Compliance Matrix: (Units=1/GPa)
#
#
# Indices 1 2 3 4 5 6 
#
# 1 0.013435 -0.004211 -0.000516 0.000000 0.000000 0.000000
# 2 -0.004211 0.009671 -0.002193 0.000000 0.000000 0.000000
# 3 -0.000516 -0.002193 0.014650 0.000000 0.000000 0.000000
# 4 0.000000 0.000000 0.000000 0.036203 0.000000 0.000000
# 5 0.000000 0.000000 0.000000 0.000000 0.030105 0.000000
# 6 0.000000 0.000000 0.000000 0.000000 0.000000 0.025607
#
#
# Mechanical properties :
#
#
# Convention : Reuss Voigt Hill
#
# Bulk Modulus (GPa) = 41.81473 47.01208 44.41340
# Shear Modulus (GPa) = 33.00691 34.31294 33.65992
#
# Velocity S-wave (km/s) = 3.75770 3.83132 3.79469
# Velocity P-wave (km/s) = 6.05931 6.29950 6.18057
#
# Compressibility (1/GPa) = 0.02391502
#
# Stress axis : x y z
#
# Youngs Moduli (GPa) = 74.43384 103.39741 68.26066
#
# Poissons Ratio (x) = 0.43541 0.03526
# Poissons Ratio (y) = 0.31345 0.14969
# Poissons Ratio (z) = 0.03844 0.22674
#
# Static dielectric constant tensor:
#      x y z
#    x 4.436050 0.000000 0.000000 
#    y 0.000000 4.785780 0.000000 
#    z 0.000000 0.000000 4.003940 
# 
# 
# High freq. dielectric constant tensor:
#      x y z
#    x 1.933100 0.000000 0.000000 
#    y 0.000000 1.951650 0.000000 
#    z 0.000000 0.000000 1.911070 
# 
# From -- ./inp_files/1249.got.cif
#   From: 2010.03.12/outbox.cif.g09.slc.cpg/sg19_1_cif.got.tgz:1249.got - 2010.04.10 18:59:41.
