data_PCOD8157789
_publ_section_title
;
Structure prediction by ZEFSAII (Michael W. Deem and Ramdas Pophale) SiO2 
 PCOD8157789
Probable space group: P 21 21 21
;
_chemical_formula_sum "Si O2"
_cell_formula_units_Z 24
_cell_length_a 7.180671
_cell_length_b 8.894575
_cell_length_c 14.063940
_cell_angle_alpha 90.000000
_cell_angle_beta 90.000000
_cell_angle_gamma 90.000000
_cell_volume 898.250020
_symmetry_space_group_name_H-M "P 21 21 21"
_symmetry_group_IT_number 19
_symmetry_cell_setting 'orthorhombic'
loop_
_space_group_symop_operation_xyz
x,y,z
1/2-x,-y,1/2+z
1/2+x,1/2-y,-z
-x,1/2+y,1/2-z
loop_
_atom_site_type_symbol
_atom_site_label
_atom_site_fract_x
_atom_site_fract_y
_atom_site_fract_z
Si Si1 0.514451 0.125517 0.638624
Si Si2 0.399872 0.291605 0.827297
Si Si3 0.360271 0.066527 0.980759
Si Si4 0.978889 0.473307 0.648180
Si Si5 0.317085 0.754947 0.020757
Si Si6 0.543779 0.704635 0.325790
O O1 0.471347 0.225089 0.728897
O O2 0.372214 0.162495 0.551613
O O3 0.706137 0.171099 0.582599
O O4 0.500272 0.950813 0.661176
O O5 0.472079 0.177830 0.909785
O O6 0.179103 0.317820 0.830903
O O7 0.161345 0.038910 0.929640
O O8 0.345697 0.149712 0.081624
O O9 0.454174 0.901735 0.998537
O O10 0.092117 0.618463 0.688612
O O11 0.121299 0.353217 0.605293
O O12 0.876726 0.392259 0.737199
#
# Coordination Sequence:
#
# PCOD8157789 Si02
#       6
#     4   4   4   4   4   4
#     4  12  27  52  79 118 163 209 282 329 413 483
#     4  11  27  52  80 117 161 221 268 345 399 492
#     4  11  26  46  79 116 159 210 269 331 402 483
#     4  11  24  48  80 115 157 222 267 333 408 479
#     4  12  25  48  79 114 161 214 264 338 400 479
#     4  11  25  48  79 114 163 212 274 332 414 484
#
# _framework density 26.718617999999999
#
# number of rings (size 3 to 8) (size 9 to 14) (size 15 to 20)
#    0.000    0.667    3.333    3.000    7.000    1.333 
#    3.000    0.000    0.000    0.000    0.000    0.000 
#    0.000    0.000    0.000    0.000    0.000    0.000 
#
# Total GULP energy -297410.502917 kJ/mol
# GULP energy per Si atom -12392.104288 kJ/mol
# Density = 2.665781 g / cm^3
# Si number density = 26.718618 Si / 1000 Ang^3
#
#
#
# Elastic Constant Matrix: (Units=GPa)
#
#
# Indices 1 2 3 4 5 6 
#
# 1 55.3282 12.7176 2.1705 0.0000 0.0000 0.0000
# 2 12.7176 245.4631 79.7961 0.0000 0.0000 0.0000
# 3 2.1705 79.7961 133.9932 0.0000 0.0000 0.0000
# 4 0.0000 0.0000 0.0000 76.5088 0.0000 0.0000
# 5 0.0000 0.0000 0.0000 0.0000 32.0137 0.0000
# 6 0.0000 0.0000 0.0000 0.0000 0.0000 30.6303
#
#
#
# Elastic Compliance Matrix: (Units=1/GPa)
#
#
# Indices 1 2 3 4 5 6 
#
# 1 0.018304 -0.001056 0.000333 0.000000 0.000000 0.000000
# 2 -0.001056 0.005113 -0.003028 0.000000 0.000000 0.000000
# 3 0.000333 -0.003028 0.009261 0.000000 0.000000 0.000000
# 4 0.000000 0.000000 0.000000 0.013070 0.000000 0.000000
# 5 0.000000 0.000000 0.000000 0.000000 0.031237 0.000000
# 6 0.000000 0.000000 0.000000 0.000000 0.000000 0.032647
#
#
# Mechanical properties :
#
#
# Convention : Reuss Voigt Hill
#
# Bulk Modulus (GPa) = 39.72303 69.35032 54.53668
# Shear Modulus (GPa) = 39.83223 50.50392 45.16808
#
# Velocity S-wave (km/s) = 3.86528 4.35238 4.11604
# Velocity P-wave (km/s) = 5.90085 7.16029 6.56086
#
# Compressibility (1/GPa) = 0.02517431
#
# Stress axis : x y z
#
# Youngs Moduli (GPa) = 54.63364 195.58201 107.98231
#
# Poissons Ratio (x) = 0.20663 -0.03592
# Poissons Ratio (y) = 0.05772 0.32694
# Poissons Ratio (z) = -0.01817 0.59218
#
# Static dielectric constant tensor:
#      x y z
#    x 4.498100 0.000000 0.000000 
#    y 0.000000 5.845170 0.000000 
#    z 0.000000 0.000000 5.208420 
# 
# 
# High freq. dielectric constant tensor:
#      x y z
#    x 2.041460 0.000000 0.000000 
#    y 0.000000 2.109180 0.000000 
#    z 0.000000 0.000000 2.095510 
# 
# From -- ./inp_files/5836.got.cif
#   From: 2010.03.12/outbox.cif.g09.slc.cpg/sg19_3_cif.got.tgz:5836.got - 2010.04.10 18:59:41.
