data_PCOD8157898
_publ_section_title
;
Structure prediction by ZEFSAII (Michael W. Deem and Ramdas Pophale) SiO2 
 PCOD8157898
Probable space group: P 21 21 21
;
_chemical_formula_sum "Si O2"
_cell_formula_units_Z 24
_cell_length_a 8.545037
_cell_length_b 13.936579
_cell_length_c 8.968380
_cell_angle_alpha 90.000000
_cell_angle_beta 90.000000
_cell_angle_gamma 90.000000
_cell_volume 1068.031668
_symmetry_space_group_name_H-M "P 21 21 21"
_symmetry_group_IT_number 19
_symmetry_cell_setting 'orthorhombic'
loop_
_space_group_symop_operation_xyz
x,y,z
1/2-x,-y,1/2+z
1/2+x,1/2-y,-z
-x,1/2+y,1/2-z
loop_
_atom_site_type_symbol
_atom_site_label
_atom_site_fract_x
_atom_site_fract_y
_atom_site_fract_z
Si Si1 0.419051 0.254034 0.326868
Si Si2 0.050604 0.917081 0.298969
Si Si3 0.888423 0.626111 0.615647
Si Si4 0.904628 0.723553 0.315320
Si Si5 0.414885 0.396631 0.588497
Si Si6 0.944340 0.935540 0.961261
O O1 0.517646 0.283148 0.181752
O O2 0.234517 0.247730 0.298404
O O3 0.460548 0.337437 0.443073
O O4 0.462975 0.151111 0.388530
O O5 0.236477 0.900488 0.287298
O O6 0.973123 0.823888 0.374339
O O7 0.018739 0.007009 0.407015
O O8 0.975103 0.936726 0.137696
O O9 0.838925 0.658594 0.449438
O O10 0.000521 0.534391 0.611837
O O11 0.045868 0.668197 0.232500
O O12 0.234939 0.425427 0.584166
#
# Coordination Sequence:
#
# PCOD8157898 Si02
#       6
#     4   4   4   4   4   4
#     4  12  26  47  77 109 147 199 250 304 385 445
#     4  12  26  47  75 105 152 193 248 309 375 450
#     4  12  29  45  75 111 151 193 250 315 373 452
#     4  12  25  50  72 112 147 194 250 310 376 446
#     4  12  25  46  76 104 147 194 252 308 365 455
#     4  12  27  47  73 107 146 197 248 304 382 444
#
# _framework density 22.471242
#
# number of rings (size 3 to 8) (size 9 to 14) (size 15 to 20)
#    0.000    0.000    5.000    4.000    4.667    1.333 
#    0.000    0.000    0.000    0.000    0.000    0.000 
#    0.000    0.000    0.000    0.000    0.000    0.000 
#
# Total GULP energy -297756.758282 kJ/mol
# GULP energy per Si atom -12406.531595 kJ/mol
# Density = 2.242010 g / cm^3
# Si number density = 22.471242 Si / 1000 Ang^3
#
#
#
# Elastic Constant Matrix: (Units=GPa)
#
#
# Indices 1 2 3 4 5 6 
#
# 1 83.6015 7.6683 35.1399 0.0000 0.0000 0.0000
# 2 7.6683 127.0888 42.5860 0.0000 0.0000 0.0000
# 3 35.1399 42.5860 89.1763 0.0000 0.0000 0.0000
# 4 0.0000 0.0000 0.0000 37.1919 0.0000 0.0000
# 5 0.0000 0.0000 0.0000 0.0000 35.0783 0.0000
# 6 0.0000 0.0000 0.0000 0.0000 0.0000 44.5445
#
#
#
# Elastic Compliance Matrix: (Units=1/GPa)
#
#
# Indices 1 2 3 4 5 6 
#
# 1 0.014498 0.001238 -0.006304 0.000000 0.000000 0.000000
# 2 0.001238 0.009473 -0.005012 0.000000 0.000000 0.000000
# 3 -0.006304 -0.005012 0.016091 0.000000 0.000000 0.000000
# 4 0.000000 0.000000 0.000000 0.026888 0.000000 0.000000
# 5 0.000000 0.000000 0.000000 0.000000 0.028508 0.000000
# 6 0.000000 0.000000 0.000000 0.000000 0.000000 0.022449
#
#
# Mechanical properties :
#
#
# Convention : Reuss Voigt Hill
#
# Bulk Modulus (GPa) = 50.23548 52.29500 51.26524
# Shear Modulus (GPa) = 34.55483 37.66107 36.10795
#
# Velocity S-wave (km/s) = 3.92565 4.09830 4.01290
# Velocity P-wave (km/s) = 6.55375 6.76145 6.65841
#
# Compressibility (1/GPa) = 0.01990625
#
# Stress axis : x y z
#
# Youngs Moduli (GPa) = 68.97674 105.56138 62.14645
#
# Poissons Ratio (x) = -0.13064 0.39176
# Poissons Ratio (y) = -0.08536 0.31145
# Poissons Ratio (z) = 0.43482 0.52903
#
# Static dielectric constant tensor:
#      x y z
#    x 4.103520 0.000000 0.000000 
#    y 0.000000 4.389730 0.000000 
#    z 0.000000 0.000000 4.017710 
# 
# 
# High freq. dielectric constant tensor:
#      x y z
#    x 1.893110 0.000000 0.000000 
#    y 0.000000 1.910250 0.000000 
#    z 0.000000 0.000000 1.881330 
# 
# From -- ./inp_files/2782.got.cif
#   From: 2010.03.12/outbox.cif.g09.slc.cpg/sg19_2_cif.got.tgz:2782.got - 2010.04.10 18:59:41.
