data_PCOD8157293
_publ_section_title
;
Structure prediction by ZEFSAII (Michael W. Deem and Ramdas Pophale) SiO2 
 PCOD8157293
Probable space group: P 21 21 21
;
_chemical_formula_sum "Si O2"
_cell_formula_units_Z 24
_cell_length_a 11.736330
_cell_length_b 7.527001
_cell_length_c 11.342806
_cell_angle_alpha 90.000000
_cell_angle_beta 90.000000
_cell_angle_gamma 90.000000
_cell_volume 1002.016309
_symmetry_space_group_name_H-M "P 21 21 21"
_symmetry_group_IT_number 19
_symmetry_cell_setting 'orthorhombic'
loop_
_space_group_symop_operation_xyz
x,y,z
1/2-x,-y,1/2+z
1/2+x,1/2-y,-z
-x,1/2+y,1/2-z
loop_
_atom_site_type_symbol
_atom_site_label
_atom_site_fract_x
_atom_site_fract_y
_atom_site_fract_z
Si Si1 0.090047 0.439583 0.136641
Si Si2 0.682497 0.763485 0.430056
Si Si3 0.536108 0.916145 0.609097
Si Si4 0.549976 0.219217 0.206838
Si Si5 0.835524 0.495052 0.546938
Si Si6 0.915903 0.143323 0.599021
O O1 0.216042 0.356921 0.141345
O O2 0.063504 0.523407 0.261150
O O3 0.000877 0.288225 0.107413
O O4 0.068457 0.584559 0.035417
O O5 0.650073 0.910067 0.529698
O O6 0.577067 0.718013 0.347096
O O7 0.723543 0.575360 0.486215
O O8 0.436547 0.032233 0.549491
O O9 0.627554 0.371046 0.150672
O O10 0.530096 0.259295 0.346194
O O11 0.610078 0.027947 0.183291
O O12 0.816019 0.296221 0.600142
#
# Coordination Sequence:
#
# PCOD8157293 Si02
#       6
#     4   4   4   4   4   4
#     4  11  23  42  71  97 142 184 226 278 351 394
#     4  10  22  44  64  99 136 172 232 285 326 412
#     4  10  22  45  67  99 141 176 227 287 331 416
#     4  11  23  43  67  96 137 172 225 283 334 394
#     4  10  22  44  68  94 139 177 221 274 346 400
#     4  12  22  44  67  95 131 185 215 279 340 396
#
# _framework density 23.951703999999999
#
# number of rings (size 3 to 8) (size 9 to 14) (size 15 to 20)
#    0.000    1.333    6.667    1.000    2.333    0.000 
#   15.000    0.000    0.000    0.000    0.000    0.000 
#    0.000    0.000    0.000    0.000    0.000    0.000 
#
# Total GULP energy -297426.364561 kJ/mol
# GULP energy per Si atom -12392.765190 kJ/mol
# Density = 2.389719 g / cm^3
# Si number density = 23.951704 Si / 1000 Ang^3
#
#
#
# Elastic Constant Matrix: (Units=GPa)
#
#
# Indices 1 2 3 4 5 6 
#
# 1 67.6454 12.1185 8.5219 0.0000 0.0000 0.0000
# 2 12.1185 138.1847 12.8334 0.0000 0.0000 0.0000
# 3 8.5219 12.8334 67.9926 0.0000 0.0000 0.0000
# 4 0.0000 0.0000 0.0000 42.5223 0.0000 0.0000
# 5 0.0000 0.0000 0.0000 0.0000 18.3339 0.0000
# 6 0.0000 0.0000 0.0000 0.0000 0.0000 18.3972
#
#
#
# Elastic Compliance Matrix: (Units=1/GPa)
#
#
# Indices 1 2 3 4 5 6 
#
# 1 0.015206 -0.001177 -0.001684 0.000000 0.000000 0.000000
# 2 -0.001177 0.007457 -0.001260 0.000000 0.000000 0.000000
# 3 -0.001684 -0.001260 0.015156 0.000000 0.000000 0.000000
# 4 0.000000 0.000000 0.000000 0.023517 0.000000 0.000000
# 5 0.000000 0.000000 0.000000 0.000000 0.054544 0.000000
# 6 0.000000 0.000000 0.000000 0.000000 0.000000 0.054356
#
#
# Mechanical properties :
#
#
# Convention : Reuss Voigt Hill
#
# Bulk Modulus (GPa) = 33.80929 37.86339 35.83634
# Shear Modulus (GPa) = 26.54815 31.87392 29.21103
#
# Velocity S-wave (km/s) = 3.33288 3.65191 3.49604
# Velocity P-wave (km/s) = 5.38118 5.79866 5.59382
#
# Compressibility (1/GPa) = 0.02957767
#
# Stress axis : x y z
#
# Youngs Moduli (GPa) = 65.76362 134.10329 65.97913
#
# Poissons Ratio (x) = 0.15786 0.11109
# Poissons Ratio (y) = 0.07741 0.08313
# Poissons Ratio (z) = 0.11072 0.16896
#
# Static dielectric constant tensor:
#      x y z
#    x 4.078070 0.000000 0.000000 
#    y 0.000000 4.602410 0.000000 
#    z 0.000000 0.000000 3.232890 
# 
# 
# High freq. dielectric constant tensor:
#      x y z
#    x 1.918550 0.000000 0.000000 
#    y 0.000000 1.961950 0.000000 
#    z 0.000000 0.000000 1.958500 
# 
# From -- ./inp_files/4910.got.cif
#   From: 2010.03.12/outbox.cif.g09.slc.cpg/sg19_3_cif.got.tgz:4910.got - 2010.04.10 18:59:41.
