data_PCOD8157027
_publ_section_title
;
Structure prediction by ZEFSAII (Michael W. Deem and Ramdas Pophale) SiO2 
 PCOD8157027
Probable space group: P 21 21 21
;
_chemical_formula_sum "Si O2"
_cell_formula_units_Z 24
_cell_length_a 11.411757
_cell_length_b 8.058935
_cell_length_c 11.535953
_cell_angle_alpha 90.000000
_cell_angle_beta 90.000000
_cell_angle_gamma 90.000000
_cell_volume 1060.922466
_symmetry_space_group_name_H-M "P 21 21 21"
_symmetry_group_IT_number 19
_symmetry_cell_setting 'orthorhombic'
loop_
_space_group_symop_operation_xyz
x,y,z
1/2-x,-y,1/2+z
1/2+x,1/2-y,-z
-x,1/2+y,1/2-z
loop_
_atom_site_type_symbol
_atom_site_label
_atom_site_fract_x
_atom_site_fract_y
_atom_site_fract_z
Si Si1 0.036318 0.850450 0.044721
Si Si2 0.360411 0.515610 0.803990
Si Si3 0.051827 0.006940 0.381135
Si Si4 0.127221 0.696919 0.814596
Si Si5 0.936411 0.462186 0.855884
Si Si6 0.775370 0.340278 0.274575
O O1 0.161447 0.871198 0.103440
O O2 0.945210 0.999781 0.080001
O O3 0.967280 0.701380 0.107175
O O4 0.065854 0.817392 0.910997
O O5 0.443735 0.568607 0.695005
O O6 0.264679 0.659301 0.828628
O O7 0.293804 0.343783 0.776735
O O8 0.060463 0.927244 0.507643
O O9 0.175461 0.971987 0.318586
O O10 0.066022 0.516638 0.816614
O O11 0.105543 0.787276 0.693585
O O12 0.857619 0.615475 0.806695
#
# Coordination Sequence:
#
# PCOD8157027 Si02
#       6
#     4   4   4   4   4   4
#     4   9  21  39  68  89 124 170 216 262 327 390
#     4  10  21  43  67  93 125 175 220 261 327 396
#     4   9  21  43  63  92 127 171 220 261 322 394
#     4  11  24  41  64  93 133 173 208 273 328 389
#     4  11  24  41  61  97 135 164 218 269 327 388
#     4  10  21  39  67  94 126 167 218 266 321 399
#
# _framework density 22.621822999999999
#
# number of rings (size 3 to 8) (size 9 to 14) (size 15 to 20)
#    0.000    2.000    0.000    2.000    7.000    2.667 
#   15.000    0.000    0.000    0.000    0.000    0.000 
#    0.000    0.000    0.000    0.000    0.000    0.000 
#
# Total GULP energy -297359.737720 kJ/mol
# GULP energy per Si atom -12389.989072 kJ/mol
# Density = 2.257033 g / cm^3
# Si number density = 22.621823 Si / 1000 Ang^3
#
#
#
# Elastic Constant Matrix: (Units=GPa)
#
#
# Indices 1 2 3 4 5 6 
#
# 1 99.4334 1.1611 47.8206 0.0000 0.0000 0.0000
# 2 1.1611 22.6272 29.9117 0.0000 0.0000 0.0000
# 3 47.8206 29.9117 94.1364 0.0000 0.0000 0.0000
# 4 0.0000 0.0000 0.0000 30.0879 0.0000 0.0000
# 5 0.0000 0.0000 0.0000 0.0000 22.1137 0.0000
# 6 0.0000 0.0000 0.0000 0.0000 0.0000 27.0069
#
#
#
# Elastic Compliance Matrix: (Units=1/GPa)
#
#
# Indices 1 2 3 4 5 6 
#
# 1 0.016630 0.017784 -0.014099 0.000000 0.000000 0.000000
# 2 0.017784 0.095222 -0.039291 0.000000 0.000000 0.000000
# 3 -0.014099 -0.039291 0.030270 0.000000 0.000000 0.000000
# 4 0.000000 0.000000 0.000000 0.033236 0.000000 0.000000
# 5 0.000000 0.000000 0.000000 0.000000 0.045221 0.000000
# 6 0.000000 0.000000 0.000000 0.000000 0.000000 0.037028
#
#
# Mechanical properties :
#
#
# Convention : Reuss Voigt Hill
#
# Bulk Modulus (GPa) = 14.10222 41.55375 27.82798
# Shear Modulus (GPa) = 14.18626 24.99529 19.59077
#
# Velocity S-wave (km/s) = 2.50692 3.32764 2.94600
# Velocity P-wave (km/s) = 3.82452 5.75960 4.88876
#
# Compressibility (1/GPa) = 0.07091083
#
# Stress axis : x y z
#
# Youngs Moduli (GPa) = 60.13287 10.50175 33.03647
#
# Poissons Ratio (x) = -0.18677 0.46577
# Poissons Ratio (y) = -1.06942 1.29804
# Poissons Ratio (z) = 0.84780 0.41262
#
# Static dielectric constant tensor:
#      x y z
#    x 4.108630 0.000000 0.000000 
#    y 0.000000 3.784390 0.000000 
#    z 0.000000 0.000000 4.087560 
# 
# 
# High freq. dielectric constant tensor:
#      x y z
#    x 1.905640 0.000000 0.000000 
#    y 0.000000 1.872410 0.000000 
#    z 0.000000 0.000000 1.887200 
# 
# From -- ./inp_files/3412.got.cif
#   From: 2010.03.12/outbox.cif.g09.slc.cpg/sg19_2_cif.got.tgz:3412.got - 2010.04.10 18:59:41.
