data_PCOD8157555
_publ_section_title
;
Structure prediction by ZEFSAII (Michael W. Deem and Ramdas Pophale) SiO2 
 PCOD8157555
Probable space group: P 21 21 21
;
_chemical_formula_sum "Si O2"
_cell_formula_units_Z 28
_cell_length_a 12.528124
_cell_length_b 17.718337
_cell_length_c 5.292142
_cell_angle_alpha 90.000000
_cell_angle_beta 90.000000
_cell_angle_gamma 90.000000
_cell_volume 1174.736573
_symmetry_space_group_name_H-M "P 21 21 21"
_symmetry_group_IT_number 19
_symmetry_cell_setting 'orthorhombic'
loop_
_space_group_symop_operation_xyz
x,y,z
1/2-x,-y,1/2+z
1/2+x,1/2-y,-z
-x,1/2+y,1/2-z
loop_
_atom_site_type_symbol
_atom_site_label
_atom_site_fract_x
_atom_site_fract_y
_atom_site_fract_z
Si Si1 0.244787 0.795486 0.823432
Si Si2 0.501109 0.488973 0.079288
Si Si3 0.519414 0.642940 0.318581
Si Si4 0.145130 0.935631 0.302333
Si Si5 0.146509 0.082298 0.576166
Si Si6 0.285672 0.458759 0.845050
Si Si7 0.201477 0.292102 0.820075
O O1 0.125796 0.833589 0.840985
O O2 0.257589 0.757866 0.551840
O O3 0.342449 0.857869 0.846404
O O4 0.255626 0.735646 0.050005
O O5 0.462506 0.566105 0.215100
O O6 0.534064 0.420061 0.271981
O O7 0.605756 0.511434 0.923639
O O8 0.412419 0.457303 0.891647
O O9 0.556357 0.624896 0.606219
O O10 0.428836 0.707410 0.316967
O O11 0.252965 0.889231 0.246570
O O12 0.170170 0.994069 0.527581
O O13 0.268827 0.491585 0.565154
O O14 0.243994 0.375011 0.868892
#
# Coordination Sequence:
#
# PCOD8157555 Si02
#       7
#     4   4   4   4   4   4   4
#     4  12  28  48  74 105 158 195 239 297 366 467
#     4  11  24  41  80 108 141 192 245 320 360 424
#     4  11  25  48  73 104 144 204 241 298 384 421
#     4  11  20  40  74 107 144 188 247 304 361 432
#     4  11  22  40  67 113 147 186 241 301 367 425
#     4  12  26  51  79 109 139 190 260 313 357 433
#     4  12  29  50  75 108 147 201 245 297 369 458
#
# _framework density 23.835131000000001
#
# number of rings (size 3 to 8) (size 9 to 14) (size 15 to 20)
#    0.000    0.571    4.286    3.429    6.000    1.143 
#    2.571    0.000    0.000    0.000    0.000    0.000 
#    0.000    0.000    0.000    0.000    0.000    0.000 
#
# Total GULP energy -347000.706886 kJ/mol
# GULP energy per Si atom -12392.882389 kJ/mol
# Density = 2.378088 g / cm^3
# Si number density = 23.835131 Si / 1000 Ang^3
#
#
#
# Elastic Constant Matrix: (Units=GPa)
#
#
# Indices 1 2 3 4 5 6 
#
# 1 75.6972 25.6255 9.0811 0.0000 0.0000 0.0000
# 2 25.6255 82.5590 20.2284 0.0000 0.0000 0.0000
# 3 9.0811 20.2284 86.6246 0.0000 0.0000 0.0000
# 4 0.0000 0.0000 0.0000 36.8794 0.0000 0.0000
# 5 0.0000 0.0000 0.0000 0.0000 36.2640 0.0000
# 6 0.0000 0.0000 0.0000 0.0000 0.0000 35.8976
#
#
#
# Elastic Compliance Matrix: (Units=1/GPa)
#
#
# Indices 1 2 3 4 5 6 
#
# 1 0.014783 -0.004464 -0.000507 0.000000 0.000000 0.000000
# 2 -0.004464 0.014196 -0.002847 0.000000 0.000000 0.000000
# 3 -0.000507 -0.002847 0.012262 0.000000 0.000000 0.000000
# 4 0.000000 0.000000 0.000000 0.027115 0.000000 0.000000
# 5 0.000000 0.000000 0.000000 0.000000 0.027576 0.000000
# 6 0.000000 0.000000 0.000000 0.000000 0.000000 0.027857
#
#
# Mechanical properties :
#
#
# Convention : Reuss Voigt Hill
#
# Bulk Modulus (GPa) = 39.05678 39.41675 39.23677
# Shear Modulus (GPa) = 33.79302 34.47126 34.13214
#
# Velocity S-wave (km/s) = 3.76943 3.80707 3.78830
# Velocity P-wave (km/s) = 5.94698 5.99151 5.96929
#
# Compressibility (1/GPa) = 0.02560375
#
# Stress axis : x y z
#
# Youngs Moduli (GPa) = 67.64711 70.44381 81.55239
#
# Poissons Ratio (x) = 0.31447 0.04137
# Poissons Ratio (y) = 0.30198 0.23218
# Poissons Ratio (z) = 0.03431 0.20055
#
# Static dielectric constant tensor:
#      x y z
#    x 4.256780 0.000000 0.000000 
#    y 0.000000 4.358420 0.000000 
#    z 0.000000 0.000000 4.393110 
# 
# 
# High freq. dielectric constant tensor:
#      x y z
#    x 1.942000 0.000000 0.000000 
#    y 0.000000 1.935970 0.000000 
#    z 0.000000 0.000000 1.957230 
# 
# From -- ./inp_files/1070.got.cif
#   From: 2010.03.12/outbox.cif.g09.slc.cpg/sg19_1_cif.got.tgz:1070.got - 2010.04.10 18:59:41.
