data_PCOD8157063
_publ_section_title
;
Structure prediction by ZEFSAII (Michael W. Deem and Ramdas Pophale) SiO2 
 PCOD8157063
Probable space group: P 21 21 21
;
_chemical_formula_sum "Si O2"
_cell_formula_units_Z 32
_cell_length_a 8.469678
_cell_length_b 8.587123
_cell_length_c 19.192869
_cell_angle_alpha 90.000000
_cell_angle_beta 90.000000
_cell_angle_gamma 90.000000
_cell_volume 1395.900563
_symmetry_space_group_name_H-M "P 21 21 21"
_symmetry_group_IT_number 19
_symmetry_cell_setting 'orthorhombic'
loop_
_space_group_symop_operation_xyz
x,y,z
1/2-x,-y,1/2+z
1/2+x,1/2-y,-z
-x,1/2+y,1/2-z
loop_
_atom_site_type_symbol
_atom_site_label
_atom_site_fract_x
_atom_site_fract_y
_atom_site_fract_z
Si Si1 0.906314 0.837646 0.351794
Si Si2 0.420283 0.477181 0.102937
Si Si3 0.392135 0.025266 0.021835
Si Si4 0.783667 0.701065 0.863988
Si Si5 0.223251 0.741186 0.776273
Si Si6 0.919194 0.696855 0.489684
Si Si7 0.939464 0.555157 0.742847
Si Si8 0.049305 0.148511 0.386028
O O1 0.745741 0.895274 0.387189
O O2 0.874722 0.770888 0.275214
O O3 0.967387 0.707983 0.407126
O O4 0.023895 0.984576 0.345754
O O5 0.400995 0.661560 0.113121
O O6 0.546707 0.411114 0.159844
O O7 0.478879 0.440420 0.025362
O O8 0.261180 0.149744 0.997410
O O9 0.340515 0.952985 0.095239
O O10 0.549228 0.133198 0.025991
O O11 0.415085 0.884417 0.966982
O O12 0.810448 0.664800 0.781698
O O13 0.601539 0.738432 0.878983
O O14 0.295725 0.772070 0.852523
O O15 0.114968 0.585330 0.776543
O O16 0.108568 0.875939 0.747210
#
# Coordination Sequence:
#
# PCOD8157063 Si02
#       8
#     4   4   4   4   4   4   4   4
#     4   9  21  42  64  94 133 172 217 275 330 394
#     4  10  21  41  65  91 135 168 221 279 327 394
#     4  11  25  42  71  95 135 178 222 275 339 397
#     4  11  25  44  67 100 135 174 223 282 332 396
#     4  11  23  44  69  96 132 177 223 270 338 397
#     4  11  21  43  67  97 129 180 221 272 337 401
#     4  11  23  41  69  98 132 176 219 275 336 395
#     4  10  25  45  66 101 137 173 220 282 335 390
#
# _framework density 22.924267
#
# number of rings (size 3 to 8) (size 9 to 14) (size 15 to 20)
#    0.000    1.500    2.500    1.500    5.250    0.000 
#    0.000    1.250    0.000    0.000    0.000    0.000 
#    0.000    0.000    0.000    0.000    0.000    0.000 
#
# Total GULP energy -396669.756413 kJ/mol
# GULP energy per Si atom -12395.929888 kJ/mol
# Density = 2.287209 g / cm^3
# Si number density = 22.924267 Si / 1000 Ang^3
#
#
#
# Elastic Constant Matrix: (Units=GPa)
#
#
# Indices 1 2 3 4 5 6 
#
# 1 72.7330 33.4195 31.9166 0.0000 0.0000 0.0000
# 2 33.4195 81.2394 33.0768 0.0000 0.0000 0.0000
# 3 31.9166 33.0768 63.1251 0.0000 0.0000 0.0000
# 4 0.0000 0.0000 0.0000 38.9340 0.0000 0.0000
# 5 0.0000 0.0000 0.0000 0.0000 35.9305 0.0000
# 6 0.0000 0.0000 0.0000 0.0000 0.0000 48.1856
#
#
#
# Elastic Compliance Matrix: (Units=1/GPa)
#
#
# Indices 1 2 3 4 5 6 
#
# 1 0.019145 -0.005001 -0.007059 0.000000 0.000000 0.000000
# 2 -0.005001 0.016954 -0.006355 0.000000 0.000000 0.000000
# 3 -0.007059 -0.006355 0.022741 0.000000 0.000000 0.000000
# 4 0.000000 0.000000 0.000000 0.025684 0.000000 0.000000
# 5 0.000000 0.000000 0.000000 0.000000 0.027831 0.000000
# 6 0.000000 0.000000 0.000000 0.000000 0.000000 0.020753
#
#
# Mechanical properties :
#
#
# Convention : Reuss Voigt Hill
#
# Bulk Modulus (GPa) = 45.43699 45.99148 45.71424
# Shear Modulus (GPa) = 28.20465 32.52233 30.36349
#
# Velocity S-wave (km/s) = 3.51143 3.77063 3.64333
# Velocity P-wave (km/s) = 6.02525 6.25002 6.13867
#
# Compressibility (1/GPa) = 0.02200850
#
# Stress axis : x y z
#
# Youngs Moduli (GPa) = 52.23398 58.98238 43.97411
#
# Poissons Ratio (x) = 0.29500 0.31041
# Poissons Ratio (y) = 0.26124 0.27946
# Poissons Ratio (z) = 0.36872 0.37484
#
# Static dielectric constant tensor:
#      x y z
#    x 4.097740 0.000000 0.000000 
#    y 0.000000 4.104150 0.000000 
#    z 0.000000 0.000000 4.058490 
# 
# 
# High freq. dielectric constant tensor:
#      x y z
#    x 1.897470 0.000000 0.000000 
#    y 0.000000 1.896150 0.000000 
#    z 0.000000 0.000000 1.896560 
# 
# From -- ./inp_files/7038.got.cif
#   From: 2010.03.12/outbox.cif.g09.slc.cpg/sg19_4_cif.got.tgz:7038.got - 2010.04.10 18:59:41.
