data_PCOD8157215
_publ_section_title
;
Structure prediction by ZEFSAII (Michael W. Deem and Ramdas Pophale) SiO2 
 PCOD8157215
Probable space group: P 21 21 21
;
_chemical_formula_sum "Si O2"
_cell_formula_units_Z 32
_cell_length_a 5.440909
_cell_length_b 13.404787
_cell_length_c 19.160523
_cell_angle_alpha 90.000000
_cell_angle_beta 90.000000
_cell_angle_gamma 90.000000
_cell_volume 1397.457919
_symmetry_space_group_name_H-M "P 21 21 21"
_symmetry_group_IT_number 19
_symmetry_cell_setting 'orthorhombic'
loop_
_space_group_symop_operation_xyz
x,y,z
1/2-x,-y,1/2+z
1/2+x,1/2-y,-z
-x,1/2+y,1/2-z
loop_
_atom_site_type_symbol
_atom_site_label
_atom_site_fract_x
_atom_site_fract_y
_atom_site_fract_z
Si Si1 0.477068 0.099021 0.062146
Si Si2 0.959144 0.547593 0.261112
Si Si3 0.494896 0.159927 0.916860
Si Si4 0.856584 0.810093 0.997495
Si Si5 0.624890 0.400704 0.186150
Si Si6 0.332334 0.220932 0.178565
Si Si7 0.247551 0.462244 0.624058
Si Si8 0.039435 0.492182 0.413803
O O1 0.525469 0.150717 0.137447
O O2 0.733505 0.043048 0.044825
O O3 0.232714 0.029800 0.065042
O O4 0.438725 0.177380 0.998362
O O5 0.787396 0.451625 0.245312
O O6 0.815175 0.652411 0.267501
O O7 0.150660 0.571139 0.199897
O O8 0.089563 0.511740 0.331961
O O9 0.260112 0.172857 0.867561
O O10 0.677715 0.243437 0.888964
O O11 0.572507 0.044021 0.908547
O O12 0.795694 0.870061 0.926701
O O13 0.600315 0.755990 0.018004
O O14 0.938857 0.877123 0.063596
O O15 0.431371 0.319968 0.219243
O O16 0.513522 0.488378 0.139466
#
# Coordination Sequence:
#
# PCOD8157215 Si02
#       8
#     4   4   4   4   4   4   4   4
#     4  11  24  41  75 100 148 178 226 307 368 426
#     4  10  25  46  71 102 147 196 234 314 366 430
#     4  10  22  41  68 102 135 182 231 293 359 436
#     4  12  27  49  76 109 144 198 255 305 364 447
#     4  10  23  44  71  98 142 189 242 289 370 436
#     4  10  25  40  68 108 138 184 243 291 364 447
#     4  10  23  47  71  96 146 191 235 300 374 428
#     4  11  25  48  72 105 146 188 244 299 375 428
#
# _framework density 22.898720999999998
#
# number of rings (size 3 to 8) (size 9 to 14) (size 15 to 20)
#    0.000    1.500    1.250    1.500   14.000    0.000 
#    9.000    0.000    0.000    0.000    0.000    0.000 
#    0.000    0.000    0.000    0.000    0.000    0.000 
#
# Total GULP energy -396464.304101 kJ/mol
# GULP energy per Si atom -12389.509503 kJ/mol
# Density = 2.284660 g / cm^3
# Si number density = 22.898721 Si / 1000 Ang^3
#
#
#
# Elastic Constant Matrix: (Units=GPa)
#
#
# Indices 1 2 3 4 5 6 
#
# 1 112.4861 34.7423 19.5905 0.0000 0.0000 0.0000
# 2 34.7423 90.5309 25.8020 0.0000 0.0000 0.0000
# 3 19.5905 25.8020 95.5640 0.0000 0.0000 0.0000
# 4 0.0000 0.0000 0.0000 28.8799 0.0000 0.0000
# 5 0.0000 0.0000 0.0000 0.0000 21.4560 0.0000
# 6 0.0000 0.0000 0.0000 0.0000 0.0000 33.8091
#
#
#
# Elastic Compliance Matrix: (Units=1/GPa)
#
#
# Indices 1 2 3 4 5 6 
#
# 1 0.010195 -0.003593 -0.001120 0.000000 0.000000 0.000000
# 2 -0.003593 0.013233 -0.002836 0.000000 0.000000 0.000000
# 3 -0.001120 -0.002836 0.011460 0.000000 0.000000 0.000000
# 4 0.000000 0.000000 0.000000 0.034626 0.000000 0.000000
# 5 0.000000 0.000000 0.000000 0.000000 0.046607 0.000000
# 6 0.000000 0.000000 0.000000 0.000000 0.000000 0.029578
#
#
# Mechanical properties :
#
#
# Convention : Reuss Voigt Hill
#
# Bulk Modulus (GPa) = 50.53319 50.98336 50.75828
# Shear Modulus (GPa) = 29.86973 31.39209 30.63091
#
# Velocity S-wave (km/s) = 3.61560 3.70660 3.66138
# Velocity P-wave (km/s) = 6.28857 6.37429 6.33158
#
# Compressibility (1/GPa) = 0.01978897
#
# Stress axis : x y z
#
# Youngs Moduli (GPa) = 98.08915 75.56705 87.26348
#
# Poissons Ratio (x) = 0.27153 0.09771
# Poissons Ratio (y) = 0.35246 0.24751
# Poissons Ratio (z) = 0.10984 0.21433
#
# Static dielectric constant tensor:
#      x y z
#    x 4.300240 0.000000 0.000000 
#    y 0.000000 4.072380 0.000000 
#    z 0.000000 0.000000 3.963620 
# 
# 
# High freq. dielectric constant tensor:
#      x y z
#    x 1.915430 0.000000 0.000000 
#    y 0.000000 1.903980 0.000000 
#    z 0.000000 0.000000 1.896450 
# 
# From -- ./inp_files/6938.got.cif
#   From: 2010.03.12/outbox.cif.g09.slc.cpg/sg19_4_cif.got.tgz:6938.got - 2010.04.10 18:59:41.
