data_PCOD8157912
_publ_section_title
;
Structure prediction by ZEFSAII (Michael W. Deem and Ramdas Pophale) SiO2 
 PCOD8157912
Probable space group: P 21 21 21
;
_chemical_formula_sum "Si O2"
_cell_formula_units_Z 28
_cell_length_a 10.837630
_cell_length_b 10.400124
_cell_length_c 10.965515
_cell_angle_alpha 90.000000
_cell_angle_beta 90.000000
_cell_angle_gamma 90.000000
_cell_volume 1235.952757
_symmetry_space_group_name_H-M "P 21 21 21"
_symmetry_group_IT_number 19
_symmetry_cell_setting 'orthorhombic'
loop_
_space_group_symop_operation_xyz
x,y,z
1/2-x,-y,1/2+z
1/2+x,1/2-y,-z
-x,1/2+y,1/2-z
loop_
_atom_site_type_symbol
_atom_site_label
_atom_site_fract_x
_atom_site_fract_y
_atom_site_fract_z
Si Si1 0.686641 0.436181 0.305334
Si Si2 0.595868 0.926823 0.241291
Si Si3 0.423875 0.552449 0.644619
Si Si4 0.721091 0.839231 0.744310
Si Si5 0.186220 0.583218 0.508045
Si Si6 0.176339 0.325280 0.377406
Si Si7 0.680458 0.463175 0.572989
O O1 0.539349 0.429822 0.313801
O O2 0.744346 0.295594 0.300402
O O3 0.731828 0.497222 0.435948
O O4 0.723984 0.515999 0.184673
O O5 0.594861 0.877541 0.381905
O O6 0.679924 0.828066 0.164372
O O7 0.660289 0.066753 0.235380
O O8 0.383611 0.405498 0.673813
O O9 0.329874 0.605066 0.543313
O O10 0.414620 0.641642 0.764701
O O11 0.562798 0.553304 0.597036
O O12 0.664049 0.824450 0.607774
O O13 0.157566 0.432947 0.480948
O O14 0.142848 0.186579 0.430400
#
# Coordination Sequence:
#
# PCOD8157912 Si02
#       7
#     4   4   4   4   4   4   4
#     4  12  28  42  62 101 135 169 215 270 320 378
#     4   9  20  41  66  93 124 167 215 266 320 384
#     4   9  20  40  66  90 125 168 214 263 322 386
#     4   9  20  41  65  91 124 171 214 260 325 387
#     4   8  16  40  66  91 117 172 216 257 319 389
#     4   9  20  40  68  91 123 170 214 261 325 386
#     4  12  26  42  63  99 134 169 216 267 321 380
#
# _framework density 22.654588
#
# number of rings (size 3 to 8) (size 9 to 14) (size 15 to 20)
#    0.000    2.857    0.000    3.429    4.000    4.571 
#    5.143    0.000    0.000    0.000    0.000    0.000 
#    0.000    0.000    0.000    0.000    0.000    0.000 
#
# Total GULP energy -347015.189014 kJ/mol
# GULP energy per Si atom -12393.399608 kJ/mol
# Density = 2.260302 g / cm^3
# Si number density = 22.654588 Si / 1000 Ang^3
#
#
#
# Elastic Constant Matrix: (Units=GPa)
#
#
# Indices 1 2 3 4 5 6 
#
# 1 49.0173 7.6803 23.8636 0.0000 0.0000 0.0000
# 2 7.6803 34.5577 6.0939 0.0000 0.0000 0.0000
# 3 23.8636 6.0939 146.4512 0.0000 0.0000 0.0000
# 4 0.0000 0.0000 0.0000 18.6608 0.0000 0.0000
# 5 0.0000 0.0000 0.0000 0.0000 26.9366 0.0000
# 6 0.0000 0.0000 0.0000 0.0000 0.0000 19.4833
#
#
#
# Elastic Compliance Matrix: (Units=1/GPa)
#
#
# Indices 1 2 3 4 5 6 
#
# 1 0.022818 -0.004448 -0.003533 0.000000 0.000000 0.000000
# 2 -0.004448 0.030018 -0.000524 0.000000 0.000000 0.000000
# 3 -0.003533 -0.000524 0.007426 0.000000 0.000000 0.000000
# 4 0.000000 0.000000 0.000000 0.053588 0.000000 0.000000
# 5 0.000000 0.000000 0.000000 0.000000 0.037124 0.000000
# 6 0.000000 0.000000 0.000000 0.000000 0.000000 0.051326
#
#
# Mechanical properties :
#
#
# Convention : Reuss Voigt Hill
#
# Bulk Modulus (GPa) = 23.12090 33.92243 28.52166
# Shear Modulus (GPa) = 21.39237 25.84202 23.61720
#
# Velocity S-wave (km/s) = 3.07625 3.38108 3.23227
# Velocity P-wave (km/s) = 4.77973 5.49987 5.15240
#
# Compressibility (1/GPa) = 0.04325092
#
# Stress axis : x y z
#
# Youngs Moduli (GPa) = 43.82517 33.31321 134.66713
#
# Poissons Ratio (x) = 0.14818 0.47578
# Poissons Ratio (y) = 0.19494 0.07060
# Poissons Ratio (z) = 0.15483 0.01746
#
# Static dielectric constant tensor:
#      x y z
#    x 3.774290 0.000000 0.000000 
#    y 0.000000 3.705110 0.000000 
#    z 0.000000 0.000000 4.641790 
# 
# 
# High freq. dielectric constant tensor:
#      x y z
#    x 1.864220 0.000000 0.000000 
#    y 0.000000 1.866540 0.000000 
#    z 0.000000 0.000000 1.919530 
# 
# From -- ./inp_files/4997.got.cif
#   From: 2010.03.12/outbox.cif.g09.slc.cpg/sg19_3_cif.got.tgz:4997.got - 2010.04.10 18:59:41.
