data_PCOD8157317
_publ_section_title
;
Structure prediction by ZEFSAII (Michael W. Deem and Ramdas Pophale) SiO2 
 PCOD8157317
Probable space group: P 21 21 21
;
_chemical_formula_sum "Si O2"
_cell_formula_units_Z 28
_cell_length_a 8.910278
_cell_length_b 11.020862
_cell_length_c 11.956084
_cell_angle_alpha 90.000000
_cell_angle_beta 90.000000
_cell_angle_gamma 90.000000
_cell_volume 1174.074826
_symmetry_space_group_name_H-M "P 21 21 21"
_symmetry_group_IT_number 19
_symmetry_cell_setting 'orthorhombic'
loop_
_space_group_symop_operation_xyz
x,y,z
1/2-x,-y,1/2+z
1/2+x,1/2-y,-z
-x,1/2+y,1/2-z
loop_
_atom_site_type_symbol
_atom_site_label
_atom_site_fract_x
_atom_site_fract_y
_atom_site_fract_z
Si Si1 0.336627 0.493244 0.229352
Si Si2 0.806177 0.743084 0.266344
Si Si3 0.474896 0.009624 0.487323
Si Si4 0.808452 0.364880 0.989711
Si Si5 0.225152 0.773771 0.986093
Si Si6 0.886876 0.154405 0.156056
Si Si7 0.498846 0.412392 0.443146
O O1 0.216152 0.385920 0.209701
O O2 0.416568 0.529569 0.115875
O O3 0.256165 0.617996 0.269351
O O4 0.462789 0.446482 0.315802
O O5 0.714260 0.666454 0.359066
O O6 0.746919 0.702360 0.146014
O O7 0.982721 0.711730 0.268428
O O8 0.346945 0.911501 0.457463
O O9 0.566812 0.970493 0.596464
O O10 0.401863 0.134441 0.527966
O O11 0.937244 0.467887 0.004560
O O12 0.850726 0.246289 0.056666
O O13 0.155434 0.637473 0.002923
O O14 0.377779 0.802536 0.054045
#
# Coordination Sequence:
#
# PCOD8157317 Si02
#       7
#     4   4   4   4   4   4   4
#     4  11  24  43  70 106 137 189 240 296 369 425
#     4  10  23  44  65 100 144 176 242 292 355 431
#     4  10  23  42  68 100 139 181 239 287 358 429
#     4  10  22  45  71  99 141 186 235 299 351 436
#     4  10  23  45  64 102 143 187 236 298 356 424
#     4  11  25  41  72 105 140 188 238 298 358 431
#     4  10  24  42  72 100 146 191 236 296 363 422
#
# _framework density 23.848562999999999
#
# number of rings (size 3 to 8) (size 9 to 14) (size 15 to 20)
#    0.000    1.714    1.429    0.857    8.000    5.714 
#    2.571    0.000    0.000    0.000    0.000    0.000 
#    0.000    0.000    0.000    0.000    0.000    0.000 
#
# Total GULP energy -347183.020756 kJ/mol
# GULP energy per Si atom -12399.393598 kJ/mol
# Density = 2.379428 g / cm^3
# Si number density = 23.848563 Si / 1000 Ang^3
#
#
#
# Elastic Constant Matrix: (Units=GPa)
#
#
# Indices 1 2 3 4 5 6 
#
# 1 114.0451 45.3653 42.9273 0.0000 0.0000 0.0000
# 2 45.3653 79.8669 17.3965 0.0000 0.0000 0.0000
# 3 42.9273 17.3965 52.6021 0.0000 0.0000 0.0000
# 4 0.0000 0.0000 0.0000 30.4651 0.0000 0.0000
# 5 0.0000 0.0000 0.0000 0.0000 40.2417 0.0000
# 6 0.0000 0.0000 0.0000 0.0000 0.0000 53.4165
#
#
#
# Elastic Compliance Matrix: (Units=1/GPa)
#
#
# Indices 1 2 3 4 5 6 
#
# 1 0.015173 -0.006381 -0.010272 0.000000 0.000000 0.000000
# 2 -0.006381 0.016176 -0.000142 0.000000 0.000000 0.000000
# 3 -0.010272 -0.000142 0.027441 0.000000 0.000000 0.000000
# 4 0.000000 0.000000 0.000000 0.032824 0.000000 0.000000
# 5 0.000000 0.000000 0.000000 0.000000 0.024850 0.000000
# 6 0.000000 0.000000 0.000000 0.000000 0.000000 0.018721
#
#
# Mechanical properties :
#
#
# Convention : Reuss Voigt Hill
#
# Bulk Modulus (GPa) = 39.68420 50.87692 45.28056
# Shear Modulus (GPa) = 28.22049 34.21300 31.21674
#
# Velocity S-wave (km/s) = 3.44367 3.79171 3.62188
# Velocity P-wave (km/s) = 5.69983 6.36782 6.04306
#
# Compressibility (1/GPa) = 0.02519895
#
# Stress axis : x y z
#
# Youngs Moduli (GPa) = 65.90536 61.81853 36.44236
#
# Poissons Ratio (x) = 0.39447 0.37434
# Poissons Ratio (y) = 0.42055 0.00519
# Poissons Ratio (z) = 0.67699 0.00880
#
# Static dielectric constant tensor:
#      x y z
#    x 4.563610 0.000000 0.000000 
#    y 0.000000 4.323840 0.000000 
#    z 0.000000 0.000000 4.006370 
# 
# 
# High freq. dielectric constant tensor:
#      x y z
#    x 1.956120 0.000000 0.000000 
#    y 0.000000 1.953420 0.000000 
#    z 0.000000 0.000000 1.930930 
# 
# From -- ./inp_files/4624.got.cif
#   From: 2010.03.12/outbox.cif.g09.slc.cpg/sg19_3_cif.got.tgz:4624.got - 2010.04.10 18:59:41.
