data_PCOD8157696
_publ_section_title
;
Structure prediction by ZEFSAII (Michael W. Deem and Ramdas Pophale) SiO2 
 PCOD8157696
Probable space group: P 21 21 21
;
_chemical_formula_sum "Si O2"
_cell_formula_units_Z 28
_cell_length_a 9.312473
_cell_length_b 11.886512
_cell_length_c 10.635741
_cell_angle_alpha 90.000000
_cell_angle_beta 90.000000
_cell_angle_gamma 90.000000
_cell_volume 1177.300186
_symmetry_space_group_name_H-M "P 21 21 21"
_symmetry_group_IT_number 19
_symmetry_cell_setting 'orthorhombic'
loop_
_space_group_symop_operation_xyz
x,y,z
1/2-x,-y,1/2+z
1/2+x,1/2-y,-z
-x,1/2+y,1/2-z
loop_
_atom_site_type_symbol
_atom_site_label
_atom_site_fract_x
_atom_site_fract_y
_atom_site_fract_z
Si Si1 0.677229 0.616829 0.541856
Si Si2 0.971461 0.986193 0.268812
Si Si3 0.658657 0.826705 0.944591
Si Si4 0.364811 0.066153 0.540443
Si Si5 0.520428 0.278474 0.116350
Si Si6 0.559191 0.115939 0.325018
Si Si7 0.833688 0.089188 0.718502
O O1 0.603107 0.582709 0.671518
O O2 0.713848 0.502073 0.463880
O O3 0.558446 0.690063 0.472280
O O4 0.825518 0.685017 0.562498
O O5 0.029539 0.009985 0.127805
O O6 0.834755 0.904691 0.251477
O O7 0.939528 0.100633 0.347508
O O8 0.645726 0.694728 0.910585
O O9 0.821935 0.866345 0.932734
O O10 0.620175 0.846823 0.090926
O O11 0.419414 0.067779 0.395794
O O12 0.531696 0.233256 0.258396
O O13 0.411984 0.379401 0.148881
O O14 0.617195 0.040616 0.207756
#
# Coordination Sequence:
#
# PCOD8157696 Si02
#       7
#     4   4   4   4   4   4   4
#     4  12  29  47  74 108 150 199 255 311 383 454
#     4  11  27  46  72 108 149 191 254 312 376 459
#     4  11  25  45  77 107 149 200 246 312 389 443
#     4  12  26  45  73 110 147 193 255 306 375 458
#     4  12  26  47  75 104 153 196 248 315 381 444
#     4  11  24  44  71 106 144 195 244 306 372 453
#     4  11  23  46  74 105 146 192 250 310 378 451
#
# _framework density 23.783228999999999
#
# number of rings (size 3 to 8) (size 9 to 14) (size 15 to 20)
#    0.000    0.571    4.286    2.571    4.000    8.000 
#    0.000    0.000    0.000    0.000    0.000    0.000 
#    0.000    0.000    0.000    0.000    0.000    0.000 
#
# Total GULP energy -346961.930994 kJ/mol
# GULP energy per Si atom -12391.497535 kJ/mol
# Density = 2.372910 g / cm^3
# Si number density = 23.783229 Si / 1000 Ang^3
#
#
#
# Elastic Constant Matrix: (Units=GPa)
#
#
# Indices 1 2 3 4 5 6 
#
# 1 109.2855 41.2478 27.4893 0.0000 0.0000 0.0000
# 2 41.2478 102.7089 47.5629 0.0000 0.0000 0.0000
# 3 27.4893 47.5629 86.5543 0.0000 0.0000 0.0000
# 4 0.0000 0.0000 0.0000 29.8350 0.0000 0.0000
# 5 0.0000 0.0000 0.0000 0.0000 42.9860 0.0000
# 6 0.0000 0.0000 0.0000 0.0000 0.0000 39.0202
#
#
#
# Elastic Compliance Matrix: (Units=1/GPa)
#
#
# Indices 1 2 3 4 5 6 
#
# 1 0.010913 -0.003726 -0.001419 0.000000 0.000000 0.000000
# 2 -0.003726 0.014332 -0.006692 0.000000 0.000000 0.000000
# 3 -0.001419 -0.006692 0.015681 0.000000 0.000000 0.000000
# 4 0.000000 0.000000 0.000000 0.033518 0.000000 0.000000
# 5 0.000000 0.000000 0.000000 0.000000 0.023263 0.000000
# 6 0.000000 0.000000 0.000000 0.000000 0.000000 0.025628
#
#
# Mechanical properties :
#
#
# Convention : Reuss Voigt Hill
#
# Bulk Modulus (GPa) = 57.96027 59.01653 58.48840
# Shear Modulus (GPa) = 32.73118 34.51815 33.62467
#
# Velocity S-wave (km/s) = 3.71378 3.81381 3.76413
# Velocity P-wave (km/s) = 6.54314 6.65295 6.59827
#
# Compressibility (1/GPa) = 0.01725320
#
# Stress axis : x y z
#
# Youngs Moduli (GPa) = 91.63003 69.77599 63.76983
#
# Poissons Ratio (x) = 0.25998 0.09047
# Poissons Ratio (y) = 0.34140 0.42675
# Poissons Ratio (z) = 0.12999 0.46695
#
# Static dielectric constant tensor:
#      x y z
#    x 4.247600 0.000000 0.000000 
#    y 0.000000 4.330890 0.000000 
#    z 0.000000 0.000000 4.038830 
# 
# 
# High freq. dielectric constant tensor:
#      x y z
#    x 1.947920 0.000000 0.000000 
#    y 0.000000 1.947680 0.000000 
#    z 0.000000 0.000000 1.945370 
# 
# From -- ./inp_files/4622.got.cif
#   From: 2010.03.12/outbox.cif.g09.slc.cpg/sg19_3_cif.got.tgz:4622.got - 2010.04.10 18:59:41.
