data_PCOD8157669
_publ_section_title
;
Structure prediction by ZEFSAII (Michael W. Deem and Ramdas Pophale) SiO2 
 PCOD8157669
Probable space group: P 21 21 21
;
_chemical_formula_sum "Si O2"
_cell_formula_units_Z 32
_cell_length_a 12.034961
_cell_length_b 8.093647
_cell_length_c 13.969343
_cell_angle_alpha 90.000000
_cell_angle_beta 90.000000
_cell_angle_gamma 90.000000
_cell_volume 1360.707966
_symmetry_space_group_name_H-M "P 21 21 21"
_symmetry_group_IT_number 19
_symmetry_cell_setting 'orthorhombic'
loop_
_space_group_symop_operation_xyz
x,y,z
1/2-x,-y,1/2+z
1/2+x,1/2-y,-z
-x,1/2+y,1/2-z
loop_
_atom_site_type_symbol
_atom_site_label
_atom_site_fract_x
_atom_site_fract_y
_atom_site_fract_z
Si Si1 0.462324 0.812265 0.808443
Si Si2 0.346223 0.484684 0.764409
Si Si3 0.269361 0.644256 0.578235
Si Si4 0.790688 0.513372 0.318946
Si Si5 0.955608 0.983593 0.886701
Si Si6 0.443092 0.869657 0.209757
Si Si7 0.855567 0.005252 0.596621
Si Si8 0.905675 0.288281 0.470217
O O1 0.417207 0.628870 0.810492
O O2 0.369458 0.942115 0.771876
O O3 0.500695 0.832220 0.920082
O O4 0.570979 0.826448 0.737139
O O5 0.326352 0.523657 0.653824
O O6 0.229430 0.465276 0.817584
O O7 0.268052 0.829333 0.615092
O O8 0.147753 0.567809 0.559386
O O9 0.340863 0.642065 0.479954
O O10 0.674438 0.456691 0.276013
O O11 0.835691 0.365366 0.383663
O O12 0.928071 0.818140 0.825206
O O13 0.001929 0.124659 0.814980
O O14 0.042032 0.937828 0.969379
O O15 0.519943 0.975542 0.136703
O O16 0.827934 0.177556 0.540282
#
# Coordination Sequence:
#
# PCOD8157669 Si02
#       8
#     4   4   4   4   4   4   4   4
#     4  11  23  44  70 100 141 181 244 293 358 421
#     4  11  23  44  70 102 139 187 235 300 357 426
#     4  11  23  43  70  99 143 181 238 302 355 437
#     4  11  26  44  68 106 144 184 246 299 361 437
#     4  11  24  45  74 100 148 188 244 299 367 439
#     4  11  25  45  69 104 140 191 238 299 367 435
#     4  11  24  45  74  98 142 190 239 298 371 426
#     4  11  24  46  71 107 137 194 246 296 362 443
#
# _framework density 23.517168000000002
#
# number of rings (size 3 to 8) (size 9 to 14) (size 15 to 20)
#    0.000    1.000    3.750    2.250    5.250    3.000 
#    2.250    0.000    0.000    0.000    0.000    0.000 
#    0.000    0.000    0.000    0.000    0.000    0.000 
#
# Total GULP energy -396588.585687 kJ/mol
# GULP energy per Si atom -12393.393303 kJ/mol
# Density = 2.346364 g / cm^3
# Si number density = 23.517168 Si / 1000 Ang^3
#
#
#
# Elastic Constant Matrix: (Units=GPa)
#
#
# Indices 1 2 3 4 5 6 
#
# 1 91.9433 12.9236 25.7314 0.0000 0.0000 0.0000
# 2 12.9236 42.9907 -1.1443 0.0000 0.0000 0.0000
# 3 25.7314 -1.1443 94.0729 0.0000 0.0000 0.0000
# 4 0.0000 0.0000 0.0000 39.0521 0.0000 0.0000
# 5 0.0000 0.0000 0.0000 0.0000 25.3950 0.0000
# 6 0.0000 0.0000 0.0000 0.0000 0.0000 31.5823
#
#
#
# Elastic Compliance Matrix: (Units=1/GPa)
#
#
# Indices 1 2 3 4 5 6 
#
# 1 0.012372 -0.003810 -0.003430 0.000000 0.000000 0.000000
# 2 -0.003810 0.024442 0.001340 0.000000 0.000000 0.000000
# 3 -0.003430 0.001340 0.011585 0.000000 0.000000 0.000000
# 4 0.000000 0.000000 0.000000 0.025607 0.000000 0.000000
# 5 0.000000 0.000000 0.000000 0.000000 0.039378 0.000000
# 6 0.000000 0.000000 0.000000 0.000000 0.000000 0.031663
#
#
# Mechanical properties :
#
#
# Convention : Reuss Voigt Hill
#
# Bulk Modulus (GPa) = 27.32543 33.78092 30.55317
# Shear Modulus (GPa) = 29.57745 31.97229 30.77487
#
# Velocity S-wave (km/s) = 3.55025 3.69118 3.62140
# Velocity P-wave (km/s) = 5.33388 5.70631 5.52323
#
# Compressibility (1/GPa) = 0.03659595
#
# Stress axis : x y z
#
# Youngs Moduli (GPa) = 80.82833 40.91328 86.32114
#
# Poissons Ratio (x) = 0.15590 0.29612
# Poissons Ratio (y) = 0.30799 -0.11563
# Poissons Ratio (z) = 0.27727 -0.05481
#
# Static dielectric constant tensor:
#      x y z
#    x 4.450980 0.000000 0.000000 
#    y 0.000000 4.201370 0.000000 
#    z 0.000000 0.000000 4.359720 
# 
# 
# High freq. dielectric constant tensor:
#      x y z
#    x 1.934400 0.000000 0.000000 
#    y 0.000000 1.923920 0.000000 
#    z 0.000000 0.000000 1.933300 
# 
# From -- ./inp_files/6155.got.cif
#   From: 2010.03.12/outbox.cif.g09.slc.cpg/sg19_4_cif.got.tgz:6155.got - 2010.04.10 18:59:41.
