data_PCOD8157065
_publ_section_title
;
Structure prediction by ZEFSAII (Michael W. Deem and Ramdas Pophale) SiO2 
 PCOD8157065
Probable space group: P 21 21 21
;
_chemical_formula_sum "Si O2"
_cell_formula_units_Z 28
_cell_length_a 8.911758
_cell_length_b 12.741692
_cell_length_c 11.868641
_cell_angle_alpha 90.000000
_cell_angle_beta 90.000000
_cell_angle_gamma 90.000000
_cell_volume 1347.694578
_symmetry_space_group_name_H-M "P 21 21 21"
_symmetry_group_IT_number 19
_symmetry_cell_setting 'orthorhombic'
loop_
_space_group_symop_operation_xyz
x,y,z
1/2-x,-y,1/2+z
1/2+x,1/2-y,-z
-x,1/2+y,1/2-z
loop_
_atom_site_type_symbol
_atom_site_label
_atom_site_fract_x
_atom_site_fract_y
_atom_site_fract_z
Si Si1 0.433079 0.848066 0.339761
Si Si2 0.044317 0.516880 0.325511
Si Si3 0.319795 0.629352 0.417958
Si Si4 0.718493 0.145069 0.827218
Si Si5 0.669754 0.532154 0.020510
Si Si6 0.770263 0.633285 0.234607
Si Si7 0.578794 0.488667 0.368628
O O1 0.380694 0.727501 0.345209
O O2 0.607968 0.869432 0.354490
O O3 0.347565 0.912892 0.436104
O O4 0.392502 0.894615 0.218246
O O5 0.146343 0.605515 0.387625
O O6 0.149194 0.448295 0.245215
O O7 0.955387 0.449137 0.422241
O O8 0.926550 0.569921 0.239814
O O9 0.355005 0.653784 0.548949
O O10 0.406607 0.521222 0.386196
O O11 0.690860 0.245812 0.749686
O O12 0.664681 0.614311 0.124114
O O13 0.840864 0.550422 0.981413
O O14 0.668166 0.595180 0.337737
#
# Coordination Sequence:
#
# PCOD8157065 Si02
#       7
#     4   4   4   4   4   4   4
#     4  11  23  40  68  97 132 174 218 272 332 397
#     4  11  24  42  68 100 131 170 226 277 329 401
#     4  12  23  39  69  97 131 171 221 279 326 391
#     4  12  24  42  67  99 131 171 228 271 332 404
#     4  10  22  44  62  93 133 176 213 273 333 390
#     4  10  23  42  65  93 132 170 217 274 329 393
#     4  10  21  41  65  93 132 170 213 268 335 388
#
# _framework density 20.776221
#
# number of rings (size 3 to 8) (size 9 to 14) (size 15 to 20)
#    0.000    1.143    4.286    2.571    0.000    3.429 
#    2.571    0.000    0.000    0.000    0.000    0.000 
#    0.000    0.000    0.000    0.000    0.000    0.000 
#
# Total GULP energy -347022.662302 kJ/mol
# GULP energy per Si atom -12393.666511 kJ/mol
# Density = 2.072893 g / cm^3
# Si number density = 20.776221 Si / 1000 Ang^3
#
#
#
# Elastic Constant Matrix: (Units=GPa)
#
#
# Indices 1 2 3 4 5 6 
#
# 1 99.0614 26.2387 38.5356 0.0000 0.0000 0.0000
# 2 26.2387 84.3194 46.0774 0.0000 0.0000 0.0000
# 3 38.5356 46.0774 104.2627 0.0000 0.0000 0.0000
# 4 0.0000 0.0000 0.0000 20.3574 0.0000 0.0000
# 5 0.0000 0.0000 0.0000 0.0000 38.2920 0.0000
# 6 0.0000 0.0000 0.0000 0.0000 0.0000 31.2046
#
#
#
# Elastic Compliance Matrix: (Units=1/GPa)
#
#
# Indices 1 2 3 4 5 6 
#
# 1 0.011977 -0.001724 -0.003665 0.000000 0.000000 0.000000
# 2 -0.001724 0.015884 -0.006382 0.000000 0.000000 0.000000
# 3 -0.003665 -0.006382 0.013766 0.000000 0.000000 0.000000
# 4 0.000000 0.000000 0.000000 0.049122 0.000000 0.000000
# 5 0.000000 0.000000 0.000000 0.000000 0.026115 0.000000
# 6 0.000000 0.000000 0.000000 0.000000 0.000000 0.032047
#
#
# Mechanical properties :
#
#
# Convention : Reuss Voigt Hill
#
# Bulk Modulus (GPa) = 55.29632 56.59410 55.94521
# Shear Modulus (GPa) = 28.01401 29.75692 28.88546
#
# Velocity S-wave (km/s) = 3.67600 3.78862 3.73274
# Velocity P-wave (km/s) = 6.68508 6.81449 6.75009
#
# Compressibility (1/GPa) = 0.01808439
#
# Stress axis : x y z
#
# Youngs Moduli (GPa) = 83.49278 62.95639 72.64167
#
# Poissons Ratio (x) = 0.10857 0.26621
# Poissons Ratio (y) = 0.14398 0.46362
# Poissons Ratio (z) = 0.30597 0.40181
#
# Static dielectric constant tensor:
#      x y z
#    x 3.871090 0.000000 0.000000 
#    y 0.000000 3.469240 0.000000 
#    z 0.000000 0.000000 3.846870 
# 
# 
# High freq. dielectric constant tensor:
#      x y z
#    x 1.822890 0.000000 0.000000 
#    y 0.000000 1.788820 0.000000 
#    z 0.000000 0.000000 1.821400 
# 
# From -- ./inp_files/3414.got.cif
#   From: 2010.03.12/outbox.cif.g09.slc.cpg/sg19_2_cif.got.tgz:3414.got - 2010.04.10 18:59:41.
