data_PCOD8157099
_publ_section_title
;
Structure prediction by ZEFSAII (Michael W. Deem and Ramdas Pophale) SiO2 
 PCOD8157099
Probable space group: P 21 21 21
;
_chemical_formula_sum "Si O2"
_cell_formula_units_Z 28
_cell_length_a 11.945528
_cell_length_b 11.484920
_cell_length_c 8.737010
_cell_angle_alpha 90.000000
_cell_angle_beta 90.000000
_cell_angle_gamma 90.000000
_cell_volume 1198.660400
_symmetry_space_group_name_H-M "P 21 21 21"
_symmetry_group_IT_number 19
_symmetry_cell_setting 'orthorhombic'
loop_
_space_group_symop_operation_xyz
x,y,z
1/2-x,-y,1/2+z
1/2+x,1/2-y,-z
-x,1/2+y,1/2-z
loop_
_atom_site_type_symbol
_atom_site_label
_atom_site_fract_x
_atom_site_fract_y
_atom_site_fract_z
Si Si1 0.408192 0.072088 0.490597
Si Si2 0.311714 0.458809 0.597296
Si Si3 0.308366 0.385470 0.282549
Si Si4 0.190861 0.182052 0.434131
Si Si5 0.994088 0.679287 0.553171
Si Si6 0.095247 0.319830 0.692441
Si Si7 0.475471 0.268677 0.725495
O O1 0.273182 0.071957 0.459041
O O2 0.474234 0.124957 0.345493
O O3 0.445082 0.147223 0.641108
O O4 0.436798 0.937025 0.512764
O O5 0.333611 0.483058 0.416174
O O6 0.305182 0.583719 0.685248
O O7 0.185630 0.418530 0.650763
O O8 0.399740 0.373083 0.668121
O O9 0.281977 0.282153 0.400961
O O10 0.411568 0.353871 0.176086
O O11 0.120689 0.206986 0.587376
O O12 0.101982 0.181472 0.296701
O O13 0.907062 0.767697 0.635713
O O14 0.044600 0.748022 0.407073
#
# Coordination Sequence:
#
# PCOD8157099 Si02
#       7
#     4   4   4   4   4   4   4
#     4  11  22  47  68  92 143 179 222 290 346 401
#     4  11  22  41  70 101 137 177 225 291 339 403
#     4  11  21  41  70 102 129 182 233 279 341 405
#     4  10  22  45  67  91 143 179 222 286 343 409
#     4  12  25  41  70 105 135 185 236 277 355 416
#     4  10  21  43  66  96 132 177 222 286 336 405
#     4  11  25  42  65 103 137 179 232 287 338 409
#
# _framework density 23.359408999999999
#
# number of rings (size 3 to 8) (size 9 to 14) (size 15 to 20)
#    0.000    1.143    5.714    1.714    4.000    3.429 
#    0.000    0.000    0.000    0.000    0.000    0.000 
#    0.000    0.000    0.000    0.000    0.000    0.000 
#
# Total GULP energy -346909.294825 kJ/mol
# GULP energy per Si atom -12389.617672 kJ/mol
# Density = 2.330624 g / cm^3
# Si number density = 23.359409 Si / 1000 Ang^3
#
#
#
# Elastic Constant Matrix: (Units=GPa)
#
#
# Indices 1 2 3 4 5 6 
#
# 1 81.5081 -9.0850 21.0756 0.0000 0.0000 0.0000
# 2 -9.0850 38.4108 15.7212 0.0000 0.0000 0.0000
# 3 21.0756 15.7212 157.9447 0.0000 0.0000 0.0000
# 4 0.0000 0.0000 0.0000 33.0008 0.0000 0.0000
# 5 0.0000 0.0000 0.0000 0.0000 33.4065 0.0000
# 6 0.0000 0.0000 0.0000 0.0000 0.0000 30.1405
#
#
#
# Elastic Compliance Matrix: (Units=1/GPa)
#
#
# Indices 1 2 3 4 5 6 
#
# 1 0.013280 0.004030 -0.002173 0.000000 0.000000 0.000000
# 2 0.004030 0.028363 -0.003361 0.000000 0.000000 0.000000
# 3 -0.002173 -0.003361 0.006956 0.000000 0.000000 0.000000
# 4 0.000000 0.000000 0.000000 0.030302 0.000000 0.000000
# 5 0.000000 0.000000 0.000000 0.000000 0.029934 0.000000
# 6 0.000000 0.000000 0.000000 0.000000 0.000000 0.033178
#
#
# Mechanical properties :
#
#
# Convention : Reuss Voigt Hill
#
# Bulk Modulus (GPa) = 21.93386 37.03189 29.48288
# Shear Modulus (GPa) = 31.20745 35.98636 33.59691
#
# Velocity S-wave (km/s) = 3.65906 3.92924 3.79655
# Velocity P-wave (km/s) = 5.22127 6.03927 5.64511
#
# Compressibility (1/GPa) = 0.04559161
#
# Stress axis : x y z
#
# Youngs Moduli (GPa) = 75.30187 35.25684 143.76385
#
# Poissons Ratio (x) = -0.14210 0.31243
# Poissons Ratio (y) = -0.30350 0.48319
# Poissons Ratio (z) = 0.16365 0.11850
#
# Static dielectric constant tensor:
#      x y z
#    x 4.221350 0.000000 0.000000 
#    y 0.000000 4.131340 0.000000 
#    z 0.000000 0.000000 4.620220 
# 
# 
# High freq. dielectric constant tensor:
#      x y z
#    x 1.917020 0.000000 0.000000 
#    y 0.000000 1.907160 0.000000 
#    z 0.000000 0.000000 1.933440 
# 
# From -- ./inp_files/3446.got.cif
#   From: 2010.03.12/outbox.cif.g09.slc.cpg/sg19_2_cif.got.tgz:3446.got - 2010.04.10 18:59:41.
