data_PCOD8157431
_publ_section_title
;
Structure prediction by ZEFSAII (Michael W. Deem and Ramdas Pophale) SiO2 
 PCOD8157431
Probable space group: P 21 21 21
;
_chemical_formula_sum "Si O2"
_cell_formula_units_Z 28
_cell_length_a 7.475995
_cell_length_b 9.123212
_cell_length_c 16.843722
_cell_angle_alpha 90.000000
_cell_angle_beta 90.000000
_cell_angle_gamma 90.000000
_cell_volume 1148.827529
_symmetry_space_group_name_H-M "P 21 21 21"
_symmetry_group_IT_number 19
_symmetry_cell_setting 'orthorhombic'
loop_
_space_group_symop_operation_xyz
x,y,z
1/2-x,-y,1/2+z
1/2+x,1/2-y,-z
-x,1/2+y,1/2-z
loop_
_atom_site_type_symbol
_atom_site_label
_atom_site_fract_x
_atom_site_fract_y
_atom_site_fract_z
Si Si1 0.438350 0.533551 0.126638
Si Si2 0.124506 0.803043 0.602670
Si Si3 0.584159 0.683898 0.984415
Si Si4 0.940620 0.518141 0.031807
Si Si5 0.683305 0.149126 0.215913
Si Si6 0.697234 0.534579 0.694553
Si Si7 0.528673 0.457707 0.854085
O O1 0.401251 0.370740 0.092918
O O2 0.301456 0.570099 0.198275
O O3 0.632921 0.556943 0.165473
O O4 0.433100 0.644025 0.051553
O O5 0.335264 0.842502 0.604330
O O6 0.017755 0.862808 0.679885
O O7 0.033186 0.882812 0.527551
O O8 0.599730 0.860863 0.973508
O O9 0.532744 0.612752 0.899345
O O10 0.768223 0.616046 0.013344
O O11 0.934135 0.445811 0.118981
O O12 0.731231 0.316015 0.231878
O O13 0.821425 0.089149 0.149521
O O14 0.587489 0.456268 0.762764
#
# Coordination Sequence:
#
# PCOD8157431 Si02
#       7
#     4   4   4   4   4   4   4
#     4  10  23  46  72  97 136 185 227 281 353 406
#     4  10  24  47  71  96 140 178 219 293 340 406
#     4  10  25  43  68 102 135 178 232 278 343 418
#     4  10  24  45  69 100 141 181 224 291 343 409
#     4  11  25  42  72 100 133 183 226 281 353 404
#     4  10  24  45  66 102 140 174 235 283 339 422
#     4  11  25  44  66 105 135 173 233 281 339 415
#
# _framework density 24.372676999999999
#
# number of rings (size 3 to 8) (size 9 to 14) (size 15 to 20)
#    0.000    1.714    1.429    0.000   12.000    0.000 
#    0.000    0.000    0.000    0.000    0.000    0.000 
#    0.000    0.000    0.000    0.000    0.000    0.000 
#
# Total GULP energy -347081.869180 kJ/mol
# GULP energy per Si atom -12395.781042 kJ/mol
# Density = 2.431720 g / cm^3
# Si number density = 24.372677 Si / 1000 Ang^3
#
#
#
# Elastic Constant Matrix: (Units=GPa)
#
#
# Indices 1 2 3 4 5 6 
#
# 1 50.8162 6.5214 -4.4866 0.0000 0.0000 0.0000
# 2 6.5214 74.6883 30.3541 0.0000 0.0000 0.0000
# 3 -4.4866 30.3541 109.9188 0.0000 0.0000 0.0000
# 4 0.0000 0.0000 0.0000 40.2440 0.0000 0.0000
# 5 0.0000 0.0000 0.0000 0.0000 26.1965 0.0000
# 6 0.0000 0.0000 0.0000 0.0000 0.0000 23.7172
#
#
#
# Elastic Compliance Matrix: (Units=1/GPa)
#
#
# Indices 1 2 3 4 5 6 
#
# 1 0.020111 -0.002354 0.001471 0.000000 0.000000 0.000000
# 2 -0.002354 0.015357 -0.004337 0.000000 0.000000 0.000000
# 3 0.001471 -0.004337 0.010355 0.000000 0.000000 0.000000
# 4 0.000000 0.000000 0.000000 0.024848 0.000000 0.000000
# 5 0.000000 0.000000 0.000000 0.000000 0.038173 0.000000
# 6 0.000000 0.000000 0.000000 0.000000 0.000000 0.042164
#
#
# Mechanical properties :
#
#
# Convention : Reuss Voigt Hill
#
# Bulk Modulus (GPa) = 28.26180 33.35567 30.80873
# Shear Modulus (GPa) = 28.86132 31.56715 30.21424
#
# Velocity S-wave (km/s) = 3.44491 3.60277 3.52472
# Velocity P-wave (km/s) = 5.23871 5.56974 5.40676
#
# Compressibility (1/GPa) = 0.03538345
#
# Stress axis : x y z
#
# Youngs Moduli (GPa) = 49.72477 65.11655 96.56879
#
# Poissons Ratio (x) = 0.15327 -0.14204
# Poissons Ratio (y) = 0.11704 0.41881
# Poissons Ratio (z) = -0.07314 0.28241
#
# Static dielectric constant tensor:
#      x y z
#    x 4.425070 0.000000 0.000000 
#    y 0.000000 4.183420 0.000000 
#    z 0.000000 0.000000 4.535840 
# 
# 
# High freq. dielectric constant tensor:
#      x y z
#    x 1.971900 0.000000 0.000000 
#    y 0.000000 1.953040 0.000000 
#    z 0.000000 0.000000 1.977950 
# 
# From -- ./inp_files/6584.got.cif
#   From: 2010.03.12/outbox.cif.g09.slc.cpg/sg19_4_cif.got.tgz:6584.got - 2010.04.10 18:59:41.
