data_PCOD8157387
_publ_section_title
;
Structure prediction by ZEFSAII (Michael W. Deem and Ramdas Pophale) SiO2 
 PCOD8157387
Probable space group: P 21 21 21
;
_chemical_formula_sum "Si O2"
_cell_formula_units_Z 28
_cell_length_a 24.165630
_cell_length_b 5.030470
_cell_length_c 10.141205
_cell_angle_alpha 90.000000
_cell_angle_beta 90.000000
_cell_angle_gamma 90.000000
_cell_volume 1232.810279
_symmetry_space_group_name_H-M "P 21 21 21"
_symmetry_group_IT_number 19
_symmetry_cell_setting 'orthorhombic'
loop_
_space_group_symop_operation_xyz
x,y,z
1/2-x,-y,1/2+z
1/2+x,1/2-y,-z
-x,1/2+y,1/2-z
loop_
_atom_site_type_symbol
_atom_site_label
_atom_site_fract_x
_atom_site_fract_y
_atom_site_fract_z
Si Si1 0.215393 0.961525 0.329430
Si Si2 0.846836 0.939414 0.256622
Si Si3 0.470735 0.658227 0.704241
Si Si4 0.469319 0.727636 0.405368
Si Si5 0.073326 0.771487 0.767576
Si Si6 0.199775 0.677615 0.741877
Si Si7 0.271260 0.603283 0.516353
O O1 0.177024 0.731181 0.269680
O O2 0.242576 0.876761 0.468022
O O3 0.177242 0.225444 0.348097
O O4 0.266915 0.041387 0.233095
O O5 0.912295 0.947459 0.243989
O O6 0.828905 0.847444 0.405213
O O7 0.510610 0.402095 0.703373
O O8 0.468416 0.783654 0.559394
O O9 0.444796 0.437148 0.378785
O O10 0.532661 0.756016 0.357096
O O11 0.429952 0.937375 0.331056
O O12 0.135081 0.715770 0.717545
O O13 0.226865 0.490216 0.626817
O O14 0.215186 0.572018 0.888287
#
# Coordination Sequence:
#
# PCOD8157387 Si02
#       7
#     4   4   4   4   4   4   4
#     4  11  24  44  64 105 138 182 236 277 350 424
#     4  11  26  44  70  97 144 186 227 294 345 416
#     4  12  26  45  71 102 140 186 234 284 356 416
#     4  10  23  47  66 108 130 181 242 291 341 428
#     4  10  23  43  75  96 138 177 238 295 350 400
#     4  11  26  41  74 102 142 191 231 295 351 424
#     4  11  24  46  66 104 142 181 240 278 353 426
#
# _framework density 22.712336000000001
#
# number of rings (size 3 to 8) (size 9 to 14) (size 15 to 20)
#    0.000    1.143    2.857    2.571    8.000    2.286 
#    0.000    0.000    0.000    0.000    0.000    0.000 
#    0.000    0.000    0.000    0.000    0.000    0.000 
#
# Total GULP energy -347002.704015 kJ/mol
# GULP energy per Si atom -12392.953715 kJ/mol
# Density = 2.266064 g / cm^3
# Si number density = 22.712336 Si / 1000 Ang^3
#
#
#
# Elastic Constant Matrix: (Units=GPa)
#
#
# Indices 1 2 3 4 5 6 
#
# 1 148.4884 27.3678 11.5059 0.0000 0.0000 0.0000
# 2 27.3678 96.6629 9.5103 0.0000 0.0000 0.0000
# 3 11.5059 9.5103 46.5603 0.0000 0.0000 0.0000
# 4 0.0000 0.0000 0.0000 28.8488 0.0000 0.0000
# 5 0.0000 0.0000 0.0000 0.0000 24.1272 0.0000
# 6 0.0000 0.0000 0.0000 0.0000 0.0000 35.6167
#
#
#
# Elastic Compliance Matrix: (Units=1/GPa)
#
#
# Indices 1 2 3 4 5 6 
#
# 1 0.007192 -0.001900 -0.001389 0.000000 0.000000 0.000000
# 2 -0.001900 0.011059 -0.001789 0.000000 0.000000 0.000000
# 3 -0.001389 -0.001789 0.022186 0.000000 0.000000 0.000000
# 4 0.000000 0.000000 0.000000 0.034663 0.000000 0.000000
# 5 0.000000 0.000000 0.000000 0.000000 0.041447 0.000000
# 6 0.000000 0.000000 0.000000 0.000000 0.000000 0.028077
#
#
# Mechanical properties :
#
#
# Convention : Reuss Voigt Hill
#
# Bulk Modulus (GPa) = 33.02412 43.16441 38.09426
# Shear Modulus (GPa) = 30.32592 33.94039 32.13315
#
# Velocity S-wave (km/s) = 3.65803 3.86989 3.76545
# Velocity P-wave (km/s) = 5.69327 6.24613 5.97609
#
# Compressibility (1/GPa) = 0.03028090
#
# Stress axis : x y z
#
# Youngs Moduli (GPa) = 139.03743 90.42303 45.07272
#
# Poissons Ratio (x) = 0.17177 0.06262
# Poissons Ratio (y) = 0.26412 0.08066
# Poissons Ratio (z) = 0.19317 0.16181
#
# Static dielectric constant tensor:
#      x y z
#    x 4.163070 0.000000 0.000000 
#    y 0.000000 4.110570 0.000000 
#    z 0.000000 0.000000 4.106470 
# 
# 
# High freq. dielectric constant tensor:
#      x y z
#    x 1.899960 0.000000 0.000000 
#    y 0.000000 1.899070 0.000000 
#    z 0.000000 0.000000 1.889590 
# 
# From -- ./inp_files/4362.got.cif
#   From: 2010.03.12/outbox.cif.g09.slc.cpg/sg19_3_cif.got.tgz:4362.got - 2010.04.10 18:59:41.
