data_PCOD8157599
_publ_section_title
;
Structure prediction by ZEFSAII (Michael W. Deem and Ramdas Pophale) SiO2 
 PCOD8157599
Probable space group: P 21 21 21
;
_chemical_formula_sum "Si O2"
_cell_formula_units_Z 20
_cell_length_a 12.321045
_cell_length_b 7.863269
_cell_length_c 7.487788
_cell_angle_alpha 90.000000
_cell_angle_beta 90.000000
_cell_angle_gamma 90.000000
_cell_volume 725.444540
_symmetry_space_group_name_H-M "P 21 21 21"
_symmetry_group_IT_number 19
_symmetry_cell_setting 'orthorhombic'
loop_
_space_group_symop_operation_xyz
x,y,z
1/2-x,-y,1/2+z
1/2+x,1/2-y,-z
-x,1/2+y,1/2-z
loop_
_atom_site_type_symbol
_atom_site_label
_atom_site_fract_x
_atom_site_fract_y
_atom_site_fract_z
Si Si1 0.314457 0.624626 0.655539
Si Si2 0.266147 0.897869 0.373942
Si Si3 0.496459 0.991034 0.375024
Si Si4 0.806643 0.800646 0.955962
Si Si5 0.035226 0.884048 0.497532
O O1 0.275774 0.722140 0.480342
O O2 0.262580 0.440070 0.650026
O O3 0.445015 0.605587 0.657490
O O4 0.273941 0.723319 0.835633
O O5 0.369441 0.013861 0.435164
O O6 0.284190 0.869447 0.160236
O O7 0.145135 0.967610 0.412552
O O8 0.548785 0.811304 0.436463
O O9 0.566666 0.144746 0.455751
O O10 0.504095 0.998207 0.160079
#
# Coordination Sequence:
#
# PCOD8157599 Si02
#       5
#     4   4   4   4   4
#     4  11  22  41  73 100 133 187 238 278 351 434
#     4  11  25  46  68 107 143 185 236 294 347 419
#     4  11  22  46  72 101 143 183 237 292 350 422
#     4  12  21  46  74  98 137 192 231 283 358 427
#     4  11  24  47  69 106 146 181 242 295 354 422
#
# _framework density 27.569303000000001
#
# number of rings (size 3 to 8) (size 9 to 14) (size 15 to 20)
#    0.000    0.800    8.000    0.000    0.000    1.600 
#   21.600    0.000    0.000    0.000    0.000    0.000 
#    0.000    0.000    0.000    0.000    0.000    0.000 
#
# Total GULP energy -247956.511968 kJ/mol
# GULP energy per Si atom -12397.825598 kJ/mol
# Density = 2.750655 g / cm^3
# Si number density = 27.569303 Si / 1000 Ang^3
#
#
#
# Elastic Constant Matrix: (Units=GPa)
#
#
# Indices 1 2 3 4 5 6 
#
# 1 163.5603 4.2683 29.5611 0.0000 0.0000 0.0000
# 2 4.2683 22.3570 -2.6387 0.0000 0.0000 0.0000
# 3 29.5611 -2.6387 141.9690 0.0000 0.0000 0.0000
# 4 0.0000 0.0000 0.0000 38.0701 0.0000 0.0000
# 5 0.0000 0.0000 0.0000 0.0000 42.3967 0.0000
# 6 0.0000 0.0000 0.0000 0.0000 0.0000 37.0177
#
#
#
# Elastic Compliance Matrix: (Units=1/GPa)
#
#
# Indices 1 2 3 4 5 6 
#
# 1 0.006395 -0.001381 -0.001357 0.000000 0.000000 0.000000
# 2 -0.001381 0.045125 0.001126 0.000000 0.000000 0.000000
# 3 -0.001357 0.001126 0.007347 0.000000 0.000000 0.000000
# 4 0.000000 0.000000 0.000000 0.026267 0.000000 0.000000
# 5 0.000000 0.000000 0.000000 0.000000 0.023587 0.000000
# 6 0.000000 0.000000 0.000000 0.000000 0.000000 0.027014
#
#
# Mechanical properties :
#
#
# Convention : Reuss Voigt Hill
#
# Bulk Modulus (GPa) = 17.97151 43.36309 30.66730
# Shear Modulus (GPa) = 31.74435 43.27661 37.51048
#
# Velocity S-wave (km/s) = 3.39697 3.96629 3.69262
# Velocity P-wave (km/s) = 4.68174 6.06120 5.41557
#
# Compressibility (1/GPa) = 0.05564362
#
# Stress axis : x y z
#
# Youngs Moduli (GPa) = 156.36459 22.16052 136.10351
#
# Poissons Ratio (x) = 0.03061 0.18474
# Poissons Ratio (y) = 0.21596 -0.15329
# Poissons Ratio (z) = 0.21224 -0.02496
#
# Static dielectric constant tensor:
#      x y z
#    x 5.406330 0.000000 0.000000 
#    y 0.000000 4.640540 0.000000 
#    z 0.000000 0.000000 4.919440 
# 
# 
# High freq. dielectric constant tensor:
#      x y z
#    x 2.126790 0.000000 0.000000 
#    y 0.000000 2.096130 0.000000 
#    z 0.000000 0.000000 2.113660 
# 
# From -- ./inp_files/3285.got.cif
#   From: 2010.03.12/outbox.cif.g09.slc.cpg/sg19_2_cif.got.tgz:3285.got - 2010.04.10 18:59:41.
