data_PCOD8157138
_publ_section_title
;
Structure prediction by ZEFSAII (Michael W. Deem and Ramdas Pophale) SiO2 
 PCOD8157138
Probable space group: P 21 21 21
;
_chemical_formula_sum "Si O2"
_cell_formula_units_Z 28
_cell_length_a 5.245826
_cell_length_b 24.416945
_cell_length_c 9.979967
_cell_angle_alpha 90.000000
_cell_angle_beta 90.000000
_cell_angle_gamma 90.000000
_cell_volume 1278.304481
_symmetry_space_group_name_H-M "P 21 21 21"
_symmetry_group_IT_number 19
_symmetry_cell_setting 'orthorhombic'
loop_
_space_group_symop_operation_xyz
x,y,z
1/2-x,-y,1/2+z
1/2+x,1/2-y,-z
-x,1/2+y,1/2-z
loop_
_atom_site_type_symbol
_atom_site_label
_atom_site_fract_x
_atom_site_fract_y
_atom_site_fract_z
Si Si1 0.813839 0.426220 0.292874
Si Si2 0.798667 0.618592 0.523263
Si Si3 0.936804 0.801425 0.601163
Si Si4 0.769057 0.886328 0.801521
Si Si5 0.331520 0.305733 0.160571
Si Si6 0.206828 0.623168 0.900774
Si Si7 0.781129 0.552243 0.277355
O O1 0.876044 0.395132 0.152359
O O2 0.577947 0.398793 0.372681
O O3 0.739373 0.488052 0.259844
O O4 0.076501 0.423098 0.375848
O O5 0.692116 0.663368 0.418967
O O6 0.828422 0.563721 0.435568
O O7 0.060456 0.640287 0.585952
O O8 0.739999 0.839053 0.687154
O O9 0.870325 0.783876 0.448162
O O10 0.975849 0.745177 0.683847
O O11 0.536995 0.928974 0.797456
O O12 0.035265 0.918002 0.785061
O O13 0.744642 0.857484 0.946524
O O14 0.230194 0.324179 0.305997
#
# Coordination Sequence:
#
# PCOD8157138 Si02
#       7
#     4   4   4   4   4   4   4
#     4  11  24  42  66  95 133 179 220 265 326 386
#     4  10  22  38  64  96 128 164 228 270 312 390
#     4  11  21  41  67  96 126 171 219 274 330 381
#     4  11  25  44  65  97 138 170 216 274 325 398
#     4  11  21  41  67  96 126 171 219 274 330 381
#     4  11  25  44  65  97 138 170 216 274 325 398
#     4  11  24  42  66  95 133 179 220 265 326 386
#
# _framework density 21.904012999999999
#
# number of rings (size 3 to 8) (size 9 to 14) (size 15 to 20)
#    0.000    1.143    4.286    1.714    4.000    0.000 
#    0.000    7.143    0.000    0.000    0.000    0.000 
#    0.000    0.000    0.000    0.000    0.000    0.000 
#
# Total GULP energy -347012.134107 kJ/mol
# GULP energy per Si atom -12393.290504 kJ/mol
# Density = 2.185416 g / cm^3
# Si number density = 21.904013 Si / 1000 Ang^3
#
#
#
# Elastic Constant Matrix: (Units=GPa)
#
#
# Indices 1 2 3 4 5 6 
#
# 1 96.7858 10.5472 16.4629 0.0000 0.0000 0.0000
# 2 10.5472 85.3810 28.9197 0.0000 0.0000 0.0000
# 3 16.4629 28.9197 125.6860 0.0000 0.0000 0.0000
# 4 0.0000 0.0000 0.0000 21.3959 0.0000 0.0000
# 5 0.0000 0.0000 0.0000 0.0000 23.6955 0.0000
# 6 0.0000 0.0000 0.0000 0.0000 0.0000 23.5117
#
#
#
# Elastic Compliance Matrix: (Units=1/GPa)
#
#
# Indices 1 2 3 4 5 6 
#
# 1 0.010633 -0.000913 -0.001183 0.000000 0.000000 0.000000
# 2 -0.000913 0.012781 -0.002821 0.000000 0.000000 0.000000
# 3 -0.001183 -0.002821 0.008760 0.000000 0.000000 0.000000
# 4 0.000000 0.000000 0.000000 0.046738 0.000000 0.000000
# 5 0.000000 0.000000 0.000000 0.000000 0.042202 0.000000
# 6 0.000000 0.000000 0.000000 0.000000 0.000000 0.042532
#
#
# Mechanical properties :
#
#
# Convention : Reuss Voigt Hill
#
# Bulk Modulus (GPa) = 44.76231 46.63472 45.69851
# Shear Modulus (GPa) = 27.63564 30.51550 29.07557
#
# Velocity S-wave (km/s) = 3.55585 3.73654 3.64731
# Velocity P-wave (km/s) = 6.11055 6.32079 6.21656
#
# Compressibility (1/GPa) = 0.02234022
#
# Stress axis : x y z
#
# Youngs Moduli (GPa) = 94.04914 78.24397 114.15029
#
# Poissons Ratio (x) = 0.07143 0.13500
# Poissons Ratio (y) = 0.08586 0.32204
# Poissons Ratio (z) = 0.11123 0.22074
#
# Static dielectric constant tensor:
#      x y z
#    x 3.784900 0.000000 0.000000 
#    y 0.000000 3.888170 0.000000 
#    z 0.000000 0.000000 4.294280 
# 
# 
# High freq. dielectric constant tensor:
#      x y z
#    x 1.858820 0.000000 0.000000 
#    y 0.000000 1.848870 0.000000 
#    z 0.000000 0.000000 1.864530 
# 
# From -- ./inp_files/551.got.cif
#   From: 2010.03.12/outbox.cif.g09.slc.cpg/sg19_1_cif.got.tgz:551.got - 2010.04.10 18:59:41.
