data_PCOD8157667
_publ_section_title
;
Structure prediction by ZEFSAII (Michael W. Deem and Ramdas Pophale) SiO2 
 PCOD8157667
Probable space group: P 21 21 21
;
_chemical_formula_sum "Si O2"
_cell_formula_units_Z 28
_cell_length_a 10.201529
_cell_length_b 11.544509
_cell_length_c 10.550793
_cell_angle_alpha 90.000000
_cell_angle_beta 90.000000
_cell_angle_gamma 90.000000
_cell_volume 1242.584230
_symmetry_space_group_name_H-M "P 21 21 21"
_symmetry_group_IT_number 19
_symmetry_cell_setting 'orthorhombic'
loop_
_space_group_symop_operation_xyz
x,y,z
1/2-x,-y,1/2+z
1/2+x,1/2-y,-z
-x,1/2+y,1/2-z
loop_
_atom_site_type_symbol
_atom_site_label
_atom_site_fract_x
_atom_site_fract_y
_atom_site_fract_z
Si Si1 0.585153 0.181820 0.557102
Si Si2 0.210534 0.834582 0.069074
Si Si3 0.407118 0.499944 0.169722
Si Si4 0.452098 0.620552 0.410833
Si Si5 0.144523 0.152103 0.822050
Si Si6 0.322212 0.668132 0.667543
Si Si7 0.242654 0.905810 0.567659
O O1 0.432756 0.224797 0.549786
O O2 0.687624 0.288739 0.537731
O O3 0.612873 0.084334 0.450720
O O4 0.609883 0.134904 0.699299
O O5 0.283373 0.801373 0.198289
O O6 0.180925 0.972213 0.072576
O O7 0.362865 0.557759 0.303689
O O8 0.560535 0.465877 0.185640
O O9 0.322227 0.384587 0.155269
O O10 0.459075 0.754517 0.372914
O O11 0.402575 0.606305 0.554306
O O12 0.595353 0.567222 0.393895
O O13 0.260539 0.138715 0.923530
O O14 0.313166 0.808191 0.654355
#
# Coordination Sequence:
#
# PCOD8157667 Si02
#       7
#     4   4   4   4   4   4   4
#     4  12  29  48  73 112 151 190 249 308 373 432
#     4  12  27  46  72 108 145 192 244 304 362 440
#     4  12  23  45  77 104 144 191 246 298 369 441
#     4  11  23  45  69 103 138 196 238 293 365 440
#     4  11  23  43  70 100 141 187 249 294 359 442
#     4  11  27  46  72 107 152 184 239 309 370 435
#     4  11  24  43  75  98 141 194 241 290 368 438
#
# _framework density 22.533684000000001
#
# number of rings (size 3 to 8) (size 9 to 14) (size 15 to 20)
#    0.000    0.571    5.714    1.714    6.000    1.143 
#    2.571    0.000    0.000    0.000    0.000    0.000 
#    0.000    0.000    0.000    0.000    0.000    0.000 
#
# Total GULP energy -347019.768839 kJ/mol
# GULP energy per Si atom -12393.563173 kJ/mol
# Density = 2.248240 g / cm^3
# Si number density = 22.533684 Si / 1000 Ang^3
#
#
#
# Elastic Constant Matrix: (Units=GPa)
#
#
# Indices 1 2 3 4 5 6 
#
# 1 116.1061 28.5705 36.0756 0.0000 0.0000 0.0000
# 2 28.5705 83.1181 29.7481 0.0000 0.0000 0.0000
# 3 36.0756 29.7481 165.8895 0.0000 0.0000 0.0000
# 4 0.0000 0.0000 0.0000 27.6347 0.0000 0.0000
# 5 0.0000 0.0000 0.0000 0.0000 26.3528 0.0000
# 6 0.0000 0.0000 0.0000 0.0000 0.0000 28.2774
#
#
#
# Elastic Compliance Matrix: (Units=1/GPa)
#
#
# Indices 1 2 3 4 5 6 
#
# 1 0.009806 -0.002786 -0.001633 0.000000 0.000000 0.000000
# 2 -0.002786 0.013648 -0.001841 0.000000 0.000000 0.000000
# 3 -0.001633 -0.001841 0.006713 0.000000 0.000000 0.000000
# 4 0.000000 0.000000 0.000000 0.036186 0.000000 0.000000
# 5 0.000000 0.000000 0.000000 0.000000 0.037947 0.000000
# 6 0.000000 0.000000 0.000000 0.000000 0.000000 0.035364
#
#
# Mechanical properties :
#
#
# Convention : Reuss Voigt Hill
#
# Bulk Modulus (GPa) = 56.66989 61.54469 59.10729
# Shear Modulus (GPa) = 31.63217 34.50095 33.06656
#
# Velocity S-wave (km/s) = 3.75076 3.91715 3.83486
# Velocity P-wave (km/s) = 6.63032 6.91595 6.77464
#
# Compressibility (1/GPa) = 0.01764605
#
# Stress axis : x y z
#
# Youngs Moduli (GPa) = 101.98098 73.27158 148.95552
#
# Poissons Ratio (x) = 0.20415 0.24322
# Poissons Ratio (y) = 0.28414 0.27430
# Poissons Ratio (z) = 0.16651 0.13493
#
# Static dielectric constant tensor:
#      x y z
#    x 3.841430 0.000000 0.000000 
#    y 0.000000 3.901260 0.000000 
#    z 0.000000 0.000000 4.179430 
# 
# 
# High freq. dielectric constant tensor:
#      x y z
#    x 1.878550 0.000000 0.000000 
#    y 0.000000 1.880930 0.000000 
#    z 0.000000 0.000000 1.904070 
# 
# From -- ./inp_files/4582.got.cif
#   From: 2010.03.12/outbox.cif.g09.slc.cpg/sg19_3_cif.got.tgz:4582.got - 2010.04.10 18:59:41.
