data_PCOD8157125
_publ_section_title
;
Structure prediction by ZEFSAII (Michael W. Deem and Ramdas Pophale) SiO2 
 PCOD8157125
Probable space group: P 21 21 21
;
_chemical_formula_sum "Si O2"
_cell_formula_units_Z 20
_cell_length_a 11.652269
_cell_length_b 5.890066
_cell_length_c 11.419868
_cell_angle_alpha 90.000000
_cell_angle_beta 90.000000
_cell_angle_gamma 90.000000
_cell_volume 783.775615
_symmetry_space_group_name_H-M "P 21 21 21"
_symmetry_group_IT_number 19
_symmetry_cell_setting 'orthorhombic'
loop_
_space_group_symop_operation_xyz
x,y,z
1/2-x,-y,1/2+z
1/2+x,1/2-y,-z
-x,1/2+y,1/2-z
loop_
_atom_site_type_symbol
_atom_site_label
_atom_site_fract_x
_atom_site_fract_y
_atom_site_fract_z
Si Si1 0.998764 0.563291 0.593388
Si Si2 0.838678 0.286531 0.749739
Si Si3 0.312816 0.570983 0.436044
Si Si4 0.351927 0.103974 0.826595
Si Si5 0.954788 0.208115 0.397452
O O1 0.954652 0.390362 0.693410
O O2 0.926789 0.791033 0.590272
O O3 0.989374 0.436076 0.468821
O O4 0.126773 0.653477 0.629958
O O5 0.741040 0.480157 0.759602
O O6 0.782321 0.103773 0.665168
O O7 0.205560 0.745290 0.430566
O O8 0.341807 0.425286 0.553157
O O9 0.431225 0.244873 0.738428
O O10 0.430514 0.940639 0.903884
#
# Coordination Sequence:
#
# PCOD8157125 Si02
#       5
#     4   4   4   4   4
#     4  10  21  46  74 107 147 190 249 319 378 455
#     4  10  21  46  74 107 147 190 249 319 378 455
#     4  10  24  50  76 108 144 200 258 312 390 454
#     4  11  28  51  71 110 158 201 254 325 388 461
#     4  11  28  51  71 110 158 201 254 325 388 461
#
# _framework density 25.517505
#
# number of rings (size 3 to 8) (size 9 to 14) (size 15 to 20)
#    0.000    1.600    2.000    0.000    5.600    0.000 
#   28.800    0.000    0.000    0.000    0.000    0.000 
#    0.000    0.000    0.000    0.000    0.000    0.000 
#
# Total GULP energy -247845.523237 kJ/mol
# GULP energy per Si atom -12392.276162 kJ/mol
# Density = 2.545943 g / cm^3
# Si number density = 25.517505 Si / 1000 Ang^3
#
#
#
# Elastic Constant Matrix: (Units=GPa)
#
#
# Indices 1 2 3 4 5 6 
#
# 1 51.4177 15.3009 29.0882 0.0000 0.0000 0.0000
# 2 15.3009 88.2644 16.5324 0.0000 0.0000 0.0000
# 3 29.0882 16.5324 83.2236 0.0000 0.0000 0.0000
# 4 0.0000 0.0000 0.0000 25.5600 0.0000 0.0000
# 5 0.0000 0.0000 0.0000 0.0000 25.6976 0.0000
# 6 0.0000 0.0000 0.0000 0.0000 0.0000 46.5721
#
#
#
# Elastic Compliance Matrix: (Units=1/GPa)
#
#
# Indices 1 2 3 4 5 6 
#
# 1 0.024886 -0.002789 -0.008144 0.000000 0.000000 0.000000
# 2 -0.002789 0.012080 -0.001425 0.000000 0.000000 0.000000
# 3 -0.008144 -0.001425 0.015145 0.000000 0.000000 0.000000
# 4 0.000000 0.000000 0.000000 0.039124 0.000000 0.000000
# 5 0.000000 0.000000 0.000000 0.000000 0.038914 0.000000
# 6 0.000000 0.000000 0.000000 0.000000 0.000000 0.021472
#
#
# Mechanical properties :
#
#
# Convention : Reuss Voigt Hill
#
# Bulk Modulus (GPa) = 36.50210 38.30541 37.40376
# Shear Modulus (GPa) = 26.95880 30.36487 28.66183
#
# Velocity S-wave (km/s) = 3.25388 3.45333 3.35509
# Velocity P-wave (km/s) = 5.33412 5.56279 5.44965
#
# Compressibility (1/GPa) = 0.02739568
#
# Stress axis : x y z
#
# Youngs Moduli (GPa) = 40.18374 82.78199 66.02662
#
# Poissons Ratio (x) = 0.23084 0.53772
# Poissons Ratio (y) = 0.11206 0.09409
# Poissons Ratio (z) = 0.32726 0.11797
#
# Static dielectric constant tensor:
#      x y z
#    x 4.454200 0.000000 0.000000 
#    y 0.000000 4.957360 0.000000 
#    z 0.000000 0.000000 4.150750 
# 
# 
# High freq. dielectric constant tensor:
#      x y z
#    x 2.013950 0.000000 0.000000 
#    y 0.000000 2.038740 0.000000 
#    z 0.000000 0.000000 2.003560 
# 
# From -- ./inp_files/4873.got.cif
#   From: 2010.03.12/outbox.cif.g09.slc.cpg/sg19_3_cif.got.tgz:4873.got - 2010.04.10 18:59:41.
