data_PCOD8157689
_publ_section_title
;
Structure prediction by ZEFSAII (Michael W. Deem and Ramdas Pophale) SiO2 
 PCOD8157689
Probable space group: P 21 21 21
;
_chemical_formula_sum "Si O2"
_cell_formula_units_Z 24
_cell_length_a 6.889332
_cell_length_b 5.550284
_cell_length_c 27.858036
_cell_angle_alpha 90.000000
_cell_angle_beta 90.000000
_cell_angle_gamma 90.000000
_cell_volume 1065.228593
_symmetry_space_group_name_H-M "P 21 21 21"
_symmetry_group_IT_number 19
_symmetry_cell_setting 'orthorhombic'
loop_
_space_group_symop_operation_xyz
x,y,z
1/2-x,-y,1/2+z
1/2+x,1/2-y,-z
-x,1/2+y,1/2-z
loop_
_atom_site_type_symbol
_atom_site_label
_atom_site_fract_x
_atom_site_fract_y
_atom_site_fract_z
Si Si1 0.346955 0.508788 0.042760
Si Si2 0.396700 0.284236 0.294148
Si Si3 0.099798 0.568912 0.357923
Si Si4 0.114140 0.005251 0.047657
Si Si5 0.716810 0.638753 0.305343
Si Si6 0.065739 0.103722 0.866919
O O1 0.237484 0.763755 0.037194
O O2 0.495993 0.548725 0.087145
O O3 0.224383 0.263062 0.051722
O O4 0.460221 0.460425 0.994175
O O5 0.262644 0.407249 0.333939
O O6 0.615153 0.388417 0.290302
O O7 0.299577 0.306837 0.241830
O O8 0.420727 0.019666 0.314887
O O9 0.218975 0.797469 0.378562
O O10 0.995260 0.443129 0.402718
O O11 0.943760 0.628945 0.316917
O O12 0.605945 0.708568 0.354665
#
# Coordination Sequence:
#
# PCOD8157689 Si02
#       6
#     4   4   4   4   4   4
#     4  12  27  48  78 106 148 188 240 300 365 433
#     4  11  25  40  70  97 144 186 241 297 355 435
#     4  11  27  42  70 105 140 186 244 294 365 432
#     4  12  27  49  76 109 146 190 238 303 362 436
#     4  11  23  46  63 104 139 189 236 297 362 418
#     4  11  25  45  71  99 143 185 237 295 361 432
#
# _framework density 22.530377999999999
#
# number of rings (size 3 to 8) (size 9 to 14) (size 15 to 20)
#    0.000    0.667    3.333    3.000    9.333    1.333 
#    0.000    0.000    0.000    0.000    0.000    0.000 
#    0.000    0.000    0.000    0.000    0.000    0.000 
#
# Total GULP energy -297341.001293 kJ/mol
# GULP energy per Si atom -12389.208387 kJ/mol
# Density = 2.247910 g / cm^3
# Si number density = 22.530378 Si / 1000 Ang^3
#
#
#
# Elastic Constant Matrix: (Units=GPa)
#
#
# Indices 1 2 3 4 5 6 
#
# 1 113.6750 33.0349 37.6926 0.0000 0.0000 0.0000
# 2 33.0349 90.7321 15.9706 0.0000 0.0000 0.0000
# 3 37.6926 15.9706 130.2068 0.0000 0.0000 0.0000
# 4 0.0000 0.0000 0.0000 32.7894 0.0000 0.0000
# 5 0.0000 0.0000 0.0000 0.0000 47.6390 0.0000
# 6 0.0000 0.0000 0.0000 0.0000 0.0000 27.4566
#
#
#
# Elastic Compliance Matrix: (Units=1/GPa)
#
#
# Indices 1 2 3 4 5 6 
#
# 1 0.010676 -0.003417 -0.002671 0.000000 0.000000 0.000000
# 2 -0.003417 0.012358 -0.000527 0.000000 0.000000 0.000000
# 3 -0.002671 -0.000527 0.008518 0.000000 0.000000 0.000000
# 4 0.000000 0.000000 0.000000 0.030498 0.000000 0.000000
# 5 0.000000 0.000000 0.000000 0.000000 0.020991 0.000000
# 6 0.000000 0.000000 0.000000 0.000000 0.000000 0.036421
#
#
# Mechanical properties :
#
#
# Convention : Reuss Voigt Hill
#
# Bulk Modulus (GPa) = 54.57834 56.44557 55.51196
# Shear Modulus (GPa) = 36.02334 38.10473 37.06404
#
# Velocity S-wave (km/s) = 4.00294 4.11695 4.06035
# Velocity P-wave (km/s) = 6.75586 6.90699 6.83184
#
# Compressibility (1/GPa) = 0.01832229
#
# Stress axis : x y z
#
# Youngs Moduli (GPa) = 93.67060 80.91814 117.39836
#
# Poissons Ratio (x) = 0.27648 0.31361
# Poissons Ratio (y) = 0.32005 0.06184
# Poissons Ratio (z) = 0.25023 0.04262
#
# Static dielectric constant tensor:
#      x y z
#    x 4.071790 0.000000 0.000000 
#    y 0.000000 4.120330 0.000000 
#    z 0.000000 0.000000 4.222740 
# 
# 
# High freq. dielectric constant tensor:
#      x y z
#    x 1.893380 0.000000 0.000000 
#    y 0.000000 1.878580 0.000000 
#    z 0.000000 0.000000 1.912710 
# 
# From -- ./inp_files/184.got.cif
#   From: 2010.03.12/outbox.cif.g09.slc.cpg/sg19_1_cif.got.tgz:184.got - 2010.04.10 18:59:41.
