data_PCOD8157777
_publ_section_title
;
Structure prediction by ZEFSAII (Michael W. Deem and Ramdas Pophale) SiO2 
 PCOD8157777
Probable space group: P 21 21 21
;
_chemical_formula_sum "Si O2"
_cell_formula_units_Z 20
_cell_length_a 8.633483
_cell_length_b 16.973223
_cell_length_c 5.220946
_cell_angle_alpha 90.000000
_cell_angle_beta 90.000000
_cell_angle_gamma 90.000000
_cell_volume 765.067153
_symmetry_space_group_name_H-M "P 21 21 21"
_symmetry_group_IT_number 19
_symmetry_cell_setting 'orthorhombic'
loop_
_space_group_symop_operation_xyz
x,y,z
1/2-x,-y,1/2+z
1/2+x,1/2-y,-z
-x,1/2+y,1/2-z
loop_
_atom_site_type_symbol
_atom_site_label
_atom_site_fract_x
_atom_site_fract_y
_atom_site_fract_z
Si Si1 0.978008 0.647378 0.329902
Si Si2 0.215649 0.618461 0.717616
Si Si3 0.638460 0.646040 0.477395
Si Si4 0.524568 0.206468 0.523314
Si Si5 0.027389 0.500249 0.032639
O O1 0.817310 0.669729 0.465872
O O2 0.982507 0.699035 0.067599
O O3 0.125252 0.672229 0.507472
O O4 0.984837 0.553702 0.277794
O O5 0.299447 0.672873 0.933041
O O6 0.082970 0.561276 0.821176
O O7 0.341025 0.563947 0.581895
O O8 0.583097 0.666722 0.761980
O O9 0.619953 0.550987 0.438914
O O10 0.533967 0.688912 0.261193
#
# Coordination Sequence:
#
# PCOD8157777 Si02
#       5
#     4   4   4   4   4
#     4  12  28  44  79 110 152 197 257 314 380 447
#     4  11  24  47  74 107 145 204 245 307 368 468
#     4  11  29  49  74 112 153 197 251 318 377 449
#     4  11  28  50  75 109 155 197 253 309 386 449
#     4  11  25  44  76 102 149 193 252 298 379 443
#
# _framework density 26.141497000000001
#
# number of rings (size 3 to 8) (size 9 to 14) (size 15 to 20)
#    0.000    0.800    2.000    2.400   16.800    0.000 
#    0.000    0.000    0.000    0.000    0.000    0.000 
#    0.000    0.000    0.000    0.000    0.000    0.000 
#
# Total GULP energy -247974.617518 kJ/mol
# GULP energy per Si atom -12398.730876 kJ/mol
# Density = 2.608200 g / cm^3
# Si number density = 26.141497 Si / 1000 Ang^3
#
#
#
# Elastic Constant Matrix: (Units=GPa)
#
#
# Indices 1 2 3 4 5 6 
#
# 1 101.2201 26.3319 4.0980 0.0000 0.0000 0.0000
# 2 26.3319 106.5505 4.6328 0.0000 0.0000 0.0000
# 3 4.0980 4.6328 50.9395 0.0000 0.0000 0.0000
# 4 0.0000 0.0000 0.0000 49.8986 0.0000 0.0000
# 5 0.0000 0.0000 0.0000 0.0000 31.1938 0.0000
# 6 0.0000 0.0000 0.0000 0.0000 0.0000 31.8008
#
#
#
# Elastic Compliance Matrix: (Units=1/GPa)
#
#
# Indices 1 2 3 4 5 6 
#
# 1 0.010577 -0.002587 -0.000616 0.000000 0.000000 0.000000
# 2 -0.002587 0.010055 -0.000706 0.000000 0.000000 0.000000
# 3 -0.000616 -0.000706 0.019745 0.000000 0.000000 0.000000
# 4 0.000000 0.000000 0.000000 0.020041 0.000000 0.000000
# 5 0.000000 0.000000 0.000000 0.000000 0.032058 0.000000
# 6 0.000000 0.000000 0.000000 0.000000 0.000000 0.031446
#
#
# Mechanical properties :
#
#
# Convention : Reuss Voigt Hill
#
# Bulk Modulus (GPa) = 30.71329 36.53725 33.62527
# Shear Modulus (GPa) = 35.06477 37.48847 36.27662
#
# Velocity S-wave (km/s) = 3.66641 3.79101 3.72923
# Velocity P-wave (km/s) = 5.44957 5.75929 5.60657
#
# Compressibility (1/GPa) = 0.03255920
#
# Stress axis : x y z
#
# Youngs Moduli (GPa) = 94.54078 99.44984 50.64601
#
# Poissons Ratio (x) = 0.25730 0.03118
# Poissons Ratio (y) = 0.24460 0.03577
# Poissons Ratio (z) = 0.05820 0.07025
#
# Static dielectric constant tensor:
#      x y z
#    x 4.916560 0.000000 0.000000 
#    y 0.000000 5.186140 0.000000 
#    z 0.000000 0.000000 4.341770 
# 
# 
# High freq. dielectric constant tensor:
#      x y z
#    x 2.052280 0.000000 0.000000 
#    y 0.000000 2.066360 0.000000 
#    z 0.000000 0.000000 2.033620 
# 
# From -- ./inp_files/334.got.cif
#   From: 2010.03.12/outbox.cif.g09.slc.cpg/sg19_1_cif.got.tgz:334.got - 2010.04.10 18:59:41.
