data_PCOD8157631
_publ_section_title
;
Structure prediction by ZEFSAII (Michael W. Deem and Ramdas Pophale) SiO2 
 PCOD8157631
Probable space group: P 21 21 21
;
_chemical_formula_sum "Si O2"
_cell_formula_units_Z 16
_cell_length_a 11.485360
_cell_length_b 7.390907
_cell_length_c 8.301309
_cell_angle_alpha 90.000000
_cell_angle_beta 90.000000
_cell_angle_gamma 90.000000
_cell_volume 704.675107
_symmetry_space_group_name_H-M "P 21 21 21"
_symmetry_group_IT_number 19
_symmetry_cell_setting 'orthorhombic'
loop_
_space_group_symop_operation_xyz
x,y,z
1/2-x,-y,1/2+z
1/2+x,1/2-y,-z
-x,1/2+y,1/2-z
loop_
_atom_site_type_symbol
_atom_site_label
_atom_site_fract_x
_atom_site_fract_y
_atom_site_fract_z
Si Si1 0.242563 0.861555 0.332230
Si Si2 0.078918 0.268091 0.050847
Si Si3 0.475792 0.140639 0.632165
Si Si4 0.087897 0.056084 0.559557
O O1 0.291907 0.722911 0.469711
O O2 0.142855 0.779676 0.215967
O O3 0.188060 0.035412 0.422929
O O4 0.355994 0.922450 0.233895
O O5 0.075721 0.359591 0.228246
O O6 0.040948 0.058735 0.063589
O O7 0.988850 0.373716 0.935787
O O8 0.509928 0.270436 0.485317
#
# Coordination Sequence:
#
# PCOD8157631 Si02
#       4
#     4   4   4   4
#     4  11  23  44  68  98 135 174 217 278 330 383
#     4  11  23  43  67  96 130 175 217 269 326 391
#     4  11  22  46  66  93 140 172 220 275 320 398
#     4  11  24  45  67  97 139 169 224 272 324 396
#
# _framework density 22.705500000000001
#
# number of rings (size 3 to 8) (size 9 to 14) (size 15 to 20)
#    0.000    1.000    7.500    0.000    3.500    0.000 
#    9.000    5.000    0.000    0.000    0.000    0.000 
#    0.000    0.000    0.000    0.000    0.000    0.000 
#
# Total GULP energy -198283.752543 kJ/mol
# GULP energy per Si atom -12392.734534 kJ/mol
# Density = 2.265382 g / cm^3
# Si number density = 22.705500 Si / 1000 Ang^3
#
#
#
# Elastic Constant Matrix: (Units=GPa)
#
#
# Indices 1 2 3 4 5 6 
#
# 1 44.6893 12.5133 19.3891 0.0000 0.0000 0.0000
# 2 12.5133 69.5339 9.6562 0.0000 0.0000 0.0000
# 3 19.3891 9.6562 45.8335 0.0000 0.0000 0.0000
# 4 0.0000 0.0000 0.0000 30.9363 0.0000 0.0000
# 5 0.0000 0.0000 0.0000 0.0000 67.5638 0.0000
# 6 0.0000 0.0000 0.0000 0.0000 0.0000 26.0406
#
#
#
# Elastic Compliance Matrix: (Units=1/GPa)
#
#
# Indices 1 2 3 4 5 6 
#
# 1 0.028221 -0.003524 -0.011196 0.000000 0.000000 0.000000
# 2 -0.003524 0.015255 -0.001723 0.000000 0.000000 0.000000
# 3 -0.011196 -0.001723 0.026917 0.000000 0.000000 0.000000
# 4 0.000000 0.000000 0.000000 0.032325 0.000000 0.000000
# 5 0.000000 0.000000 0.000000 0.000000 0.014801 0.000000
# 6 0.000000 0.000000 0.000000 0.000000 0.000000 0.038402
#
#
# Mechanical properties :
#
#
# Convention : Reuss Voigt Hill
#
# Bulk Modulus (GPa) = 26.66152 27.01931 26.84041
# Shear Modulus (GPa) = 24.83745 32.80800 28.82272
#
# Velocity S-wave (km/s) = 3.31100 3.80536 3.56675
# Velocity P-wave (km/s) = 5.13661 5.58868 5.36741
#
# Compressibility (1/GPa) = 0.03750724
#
# Stress axis : x y z
#
# Youngs Moduli (GPa) = 35.43458 65.55256 37.15059
#
# Poissons Ratio (x) = 0.23100 0.41594
# Poissons Ratio (y) = 0.12487 0.06402
# Poissons Ratio (z) = 0.39673 0.11296
#
# Static dielectric constant tensor:
#      x y z
#    x 4.325800 0.000000 0.000000 
#    y 0.000000 3.841070 0.000000 
#    z 0.000000 0.000000 4.218870 
# 
# 
# High freq. dielectric constant tensor:
#      x y z
#    x 1.890130 0.000000 0.000000 
#    y 0.000000 1.869710 0.000000 
#    z 0.000000 0.000000 1.903280 
# 
# From -- ./inp_files/2570.got.cif
#   From: 2010.03.12/outbox.cif.g09.slc.cpg/sg19_2_cif.got.tgz:2570.got - 2010.04.10 18:59:41.
