data_PCOD8157432
_publ_section_title
;
Structure prediction by ZEFSAII (Michael W. Deem and Ramdas Pophale) SiO2 
 PCOD8157432
Probable space group: P 21 21 21
;
_chemical_formula_sum "Si O2"
_cell_formula_units_Z 32
_cell_length_a 21.782959
_cell_length_b 5.121179
_cell_length_c 12.519855
_cell_angle_alpha 90.000000
_cell_angle_beta 90.000000
_cell_angle_gamma 90.000000
_cell_volume 1396.645316
_symmetry_space_group_name_H-M "P 21 21 21"
_symmetry_group_IT_number 19
_symmetry_cell_setting 'orthorhombic'
loop_
_space_group_symop_operation_xyz
x,y,z
1/2-x,-y,1/2+z
1/2+x,1/2-y,-z
-x,1/2+y,1/2-z
loop_
_atom_site_type_symbol
_atom_site_label
_atom_site_fract_x
_atom_site_fract_y
_atom_site_fract_z
Si Si1 0.868081 0.041025 0.327818
Si Si2 0.392892 0.434814 0.259379
Si Si3 0.593576 0.889783 0.591350
Si Si4 0.977145 0.887812 0.471243
Si Si5 0.333403 0.138521 0.087061
Si Si6 0.557734 0.256595 0.411055
Si Si7 0.694327 0.467519 0.914150
Si Si8 0.109160 0.065290 0.897780
O O1 0.885656 0.004937 0.205137
O O2 0.832549 0.312273 0.337008
O O3 0.929684 0.047434 0.398755
O O4 0.824002 0.811235 0.366508
O O5 0.336533 0.362958 0.178888
O O6 0.449324 0.534576 0.181698
O O7 0.372508 0.668944 0.336481
O O8 0.411896 0.175915 0.324802
O O9 0.536373 0.688152 0.599539
O O10 0.650293 0.754972 0.529382
O O11 0.570685 0.139995 0.527207
O O12 0.946827 0.625919 0.520626
O O13 0.997184 0.063810 0.574224
O O14 0.267317 0.006691 0.081581
O O15 0.383772 0.928179 0.124311
O O16 0.669089 0.512625 0.033892
#
# Coordination Sequence:
#
# PCOD8157432 Si02
#       8
#     4   4   4   4   4   4   4   4
#     4  11  27  46  72 107 136 185 236 279 362 412
#     4  11  23  46  69  97 140 176 238 271 352 414
#     4  10  25  43  73 104 139 184 233 286 350 416
#     4  10  25  44  71 100 149 174 234 288 347 417
#     4  10  24  48  68 103 142 180 238 290 344 412
#     4  10  23  47  68 105 136 184 225 291 339 414
#     4  11  27  46  71 100 144 181 233 297 339 419
#     4  11  24  46  68 104 136 186 227 286 353 412
#
# _framework density 22.912046
#
# number of rings (size 3 to 8) (size 9 to 14) (size 15 to 20)
#    0.000    1.500    1.250    1.500   14.000    2.000 
#    6.750    0.000    0.000    0.000    0.000    0.000 
#    0.000    0.000    0.000    0.000    0.000    0.000 
#
# Total GULP energy -396814.203065 kJ/mol
# GULP energy per Si atom -12400.443846 kJ/mol
# Density = 2.285990 g / cm^3
# Si number density = 22.912046 Si / 1000 Ang^3
#
#
#
# Elastic Constant Matrix: (Units=GPa)
#
#
# Indices 1 2 3 4 5 6 
#
# 1 92.7449 10.1283 25.0453 0.0000 0.0000 0.0000
# 2 10.1283 96.9889 25.4546 0.0000 0.0000 0.0000
# 3 25.0453 25.4546 115.7643 0.0000 0.0000 0.0000
# 4 0.0000 0.0000 0.0000 40.2158 0.0000 0.0000
# 5 0.0000 0.0000 0.0000 0.0000 15.6971 0.0000
# 6 0.0000 0.0000 0.0000 0.0000 0.0000 19.6888
#
#
#
# Elastic Compliance Matrix: (Units=1/GPa)
#
#
# Indices 1 2 3 4 5 6 
#
# 1 0.011482 -0.000581 -0.002356 0.000000 0.000000 0.000000
# 2 -0.000581 0.010971 -0.002287 0.000000 0.000000 0.000000
# 3 -0.002356 -0.002287 0.009651 0.000000 0.000000 0.000000
# 4 0.000000 0.000000 0.000000 0.024866 0.000000 0.000000
# 5 0.000000 0.000000 0.000000 0.000000 0.063706 0.000000
# 6 0.000000 0.000000 0.000000 0.000000 0.000000 0.050790
#
#
# Mechanical properties :
#
#
# Convention : Reuss Voigt Hill
#
# Bulk Modulus (GPa) = 46.17549 47.41716 46.79633
# Shear Modulus (GPa) = 26.43645 31.44499 28.94072
#
# Velocity S-wave (km/s) = 3.40048 3.70864 3.55790
# Velocity P-wave (km/s) = 5.96782 6.25131 6.11121
#
# Compressibility (1/GPa) = 0.02165651
#
# Stress axis : x y z
#
# Youngs Moduli (GPa) = 87.09276 91.14727 103.61749
#
# Poissons Ratio (x) = 0.05292 0.24417
# Poissons Ratio (y) = 0.05057 0.23695
# Poissons Ratio (z) = 0.20523 0.20843
#
# Static dielectric constant tensor:
#      x y z
#    x 3.891660 0.000000 0.000000 
#    y 0.000000 4.295560 0.000000 
#    z 0.000000 0.000000 4.131240 
# 
# 
# High freq. dielectric constant tensor:
#      x y z
#    x 1.883900 0.000000 0.000000 
#    y 0.000000 1.922250 0.000000 
#    z 0.000000 0.000000 1.906920 
# 
# From -- ./inp_files/5513.got.cif
#   From: 2010.03.12/outbox.cif.g09.slc.cpg/sg19_3_cif.got.tgz:5513.got - 2010.04.10 18:59:41.
