data_PCOD8157814
_publ_section_title
;
Structure prediction by ZEFSAII (Michael W. Deem and Ramdas Pophale) SiO2 
 PCOD8157814
Probable space group: P 21 21 21
;
_chemical_formula_sum "Si O2"
_cell_formula_units_Z 28
_cell_length_a 5.493408
_cell_length_b 24.201842
_cell_length_c 8.192874
_cell_angle_alpha 90.000000
_cell_angle_beta 90.000000
_cell_angle_gamma 90.000000
_cell_volume 1089.247452
_symmetry_space_group_name_H-M "P 21 21 21"
_symmetry_group_IT_number 19
_symmetry_cell_setting 'orthorhombic'
loop_
_space_group_symop_operation_xyz
x,y,z
1/2-x,-y,1/2+z
1/2+x,1/2-y,-z
-x,1/2+y,1/2-z
loop_
_atom_site_type_symbol
_atom_site_label
_atom_site_fract_x
_atom_site_fract_y
_atom_site_fract_z
Si Si1 0.170571 0.480278 0.974947
Si Si2 0.670665 0.818170 0.983612
Si Si3 0.029652 0.403649 0.710747
Si Si4 0.290731 0.169626 0.023336
Si Si5 0.839759 0.563118 0.614095
Si Si6 0.881558 0.581500 0.975651
Si Si7 0.049638 0.261857 0.236030
O O1 0.903032 0.459792 0.030926
O O2 0.138510 0.546933 0.980594
O O3 0.409420 0.470147 0.083921
O O4 0.200515 0.451053 0.795895
O O5 0.421086 0.852022 0.015975
O O6 0.643431 0.771476 0.845967
O O7 0.849957 0.866989 0.930112
O O8 0.744599 0.788060 0.149498
O O9 0.795694 0.433993 0.627535
O O10 0.969404 0.358526 0.848307
O O11 0.430326 0.188242 0.860898
O O12 0.099333 0.123678 0.960162
O O13 0.157925 0.221168 0.102081
O O14 0.764771 0.564995 0.803393
#
# Coordination Sequence:
#
# PCOD8157814 Si02
#       7
#     4   4   4   4   4   4   4
#     4  11  28  49  81 111 160 202 257 311 404 457
#     4  12  28  46  75 108 152 194 260 318 384 454
#     4  11  25  50  72 113 150 203 251 325 379 470
#     4  11  25  46  75 106 150 195 259 312 391 453
#     4  11  28  49  76 117 150 205 254 324 379 477
#     4  12  28  46  78 111 155 200 257 320 386 469
#     4  12  26  46  75 108 147 205 252 324 387 458
#
# _framework density 25.705819000000002
#
# number of rings (size 3 to 8) (size 9 to 14) (size 15 to 20)
#    0.000    0.571    1.429    4.286   16.000    0.000 
#    0.000    0.000    0.000    0.000    0.000    0.000 
#    0.000    0.000    0.000    0.000    0.000    0.000 
#
# Total GULP energy -347077.145586 kJ/mol
# GULP energy per Si atom -12395.612342 kJ/mol
# Density = 2.564731 g / cm^3
# Si number density = 25.705819 Si / 1000 Ang^3
#
#
#
# Elastic Constant Matrix: (Units=GPa)
#
#
# Indices 1 2 3 4 5 6 
#
# 1 92.8705 23.6171 28.2120 0.0000 0.0000 0.0000
# 2 23.6171 106.2520 30.6112 0.0000 0.0000 0.0000
# 3 28.2120 30.6112 129.9014 0.0000 0.0000 0.0000
# 4 0.0000 0.0000 0.0000 48.6929 0.0000 0.0000
# 5 0.0000 0.0000 0.0000 0.0000 35.1108 0.0000
# 6 0.0000 0.0000 0.0000 0.0000 0.0000 38.9462
#
#
#
# Elastic Compliance Matrix: (Units=1/GPa)
#
#
# Indices 1 2 3 4 5 6 
#
# 1 0.011928 -0.002044 -0.002109 0.000000 0.000000 0.000000
# 2 -0.002044 0.010447 -0.002018 0.000000 0.000000 0.000000
# 3 -0.002109 -0.002018 0.008632 0.000000 0.000000 0.000000
# 4 0.000000 0.000000 0.000000 0.020537 0.000000 0.000000
# 5 0.000000 0.000000 0.000000 0.000000 0.028481 0.000000
# 6 0.000000 0.000000 0.000000 0.000000 0.000000 0.025676
#
#
# Mechanical properties :
#
#
# Convention : Reuss Voigt Hill
#
# Bulk Modulus (GPa) = 53.57435 54.87826 54.22631
# Shear Modulus (GPa) = 40.23665 40.98890 40.61277
#
# Velocity S-wave (km/s) = 3.96065 3.99750 3.97912
# Velocity P-wave (km/s) = 6.46546 6.53464 6.50015
#
# Compressibility (1/GPa) = 0.01866565
#
# Stress axis : x y z
#
# Youngs Moduli (GPa) = 83.83601 95.71899 115.85180
#
# Poissons Ratio (x) = 0.19562 0.24432
# Poissons Ratio (y) = 0.17134 0.23379
# Poissons Ratio (z) = 0.17680 0.19316
#
# Static dielectric constant tensor:
#      x y z
#    x 4.439770 0.000000 0.000000 
#    y 0.000000 5.448090 0.000000 
#    z 0.000000 0.000000 4.875920 
# 
# 
# High freq. dielectric constant tensor:
#      x y z
#    x 2.004020 0.000000 0.000000 
#    y 0.000000 2.059070 0.000000 
#    z 0.000000 0.000000 2.045920 
# 
# From -- ./inp_files/2446.got.cif
#   From: 2010.03.12/outbox.cif.g09.slc.cpg/sg19_2_cif.got.tgz:2446.got - 2010.04.10 18:59:41.
