data_PCOD8157095
_publ_section_title
;
Structure prediction by ZEFSAII (Michael W. Deem and Ramdas Pophale) SiO2 
 PCOD8157095
Probable space group: P 21 21 21
;
_chemical_formula_sum "Si O2"
_cell_formula_units_Z 20
_cell_length_a 7.372347
_cell_length_b 12.256716
_cell_length_c 9.955734
_cell_angle_alpha 90.000000
_cell_angle_beta 90.000000
_cell_angle_gamma 90.000000
_cell_volume 899.607725
_symmetry_space_group_name_H-M "P 21 21 21"
_symmetry_group_IT_number 19
_symmetry_cell_setting 'orthorhombic'
loop_
_space_group_symop_operation_xyz
x,y,z
1/2-x,-y,1/2+z
1/2+x,1/2-y,-z
-x,1/2+y,1/2-z
loop_
_atom_site_type_symbol
_atom_site_label
_atom_site_fract_x
_atom_site_fract_y
_atom_site_fract_z
Si Si1 0.885198 0.761023 0.103022
Si Si2 0.767099 0.573347 0.653412
Si Si3 0.043849 0.996228 0.101008
Si Si4 0.336611 0.303685 0.817513
Si Si5 0.016085 0.225410 0.686374
O O1 0.692546 0.742753 0.175537
O O2 0.923697 0.889142 0.085987
O O3 0.036182 0.700263 0.187575
O O4 0.886555 0.706090 0.957108
O O5 0.646890 0.501180 0.755856
O O6 0.815004 0.502370 0.523038
O O7 0.655360 0.684046 0.609599
O O8 0.950240 0.612665 0.731760
O O9 0.906360 0.099392 0.087806
O O10 0.129156 0.321906 0.764109
#
# Coordination Sequence:
#
# PCOD8157095 Si02
#       5
#     4   4   4   4   4
#     4  11  21  41  71  94 134 184 233 271 347 419
#     4   9  24  43  67 103 135 179 224 288 335 405
#     4  11  23  43  69 103 136 182 233 277 347 415
#     4   9  23  42  63  97 138 176 222 288 335 403
#     4  10  21  43  64  95 135 181 220 284 342 396
#
# _framework density 22.231912000000001
#
# number of rings (size 3 to 8) (size 9 to 14) (size 15 to 20)
#    1.200    0.800    2.000    0.000    5.600    3.200 
#    0.000    2.000    0.000    0.000    0.000    0.000 
#    0.000    0.000    0.000    0.000    0.000    0.000 
#
# Total GULP energy -247795.157631 kJ/mol
# GULP energy per Si atom -12389.757882 kJ/mol
# Density = 2.218131 g / cm^3
# Si number density = 22.231912 Si / 1000 Ang^3
#
#
#
# Elastic Constant Matrix: (Units=GPa)
#
#
# Indices 1 2 3 4 5 6 
#
# 1 113.0724 27.7247 38.8696 0.0000 0.0000 0.0000
# 2 27.7247 75.2895 42.1715 0.0000 0.0000 0.0000
# 3 38.8696 42.1715 78.6545 0.0000 0.0000 0.0000
# 4 0.0000 0.0000 0.0000 25.9513 0.0000 0.0000
# 5 0.0000 0.0000 0.0000 0.0000 35.1576 0.0000
# 6 0.0000 0.0000 0.0000 0.0000 0.0000 29.0241
#
#
#
# Elastic Compliance Matrix: (Units=1/GPa)
#
#
# Indices 1 2 3 4 5 6 
#
# 1 0.010757 -0.001406 -0.004562 0.000000 0.000000 0.000000
# 2 -0.001406 0.019167 -0.009582 0.000000 0.000000 0.000000
# 3 -0.004562 -0.009582 0.020106 0.000000 0.000000 0.000000
# 4 0.000000 0.000000 0.000000 0.038534 0.000000 0.000000
# 5 0.000000 0.000000 0.000000 0.000000 0.028443 0.000000
# 6 0.000000 0.000000 0.000000 0.000000 0.000000 0.034454
#
#
# Mechanical properties :
#
#
# Convention : Reuss Voigt Hill
#
# Bulk Modulus (GPa) = 52.82618 53.83865 53.33242
# Shear Modulus (GPa) = 26.47327 28.57664 27.52496
#
# Velocity S-wave (km/s) = 3.45451 3.58912 3.52246
# Velocity P-wave (km/s) = 6.30274 6.43779 6.37062
#
# Compressibility (1/GPa) = 0.01893001
#
# Stress axis : x y z
#
# Youngs Moduli (GPa) = 92.96409 52.17379 49.73710
#
# Poissons Ratio (x) = 0.07334 0.22691
# Poissons Ratio (y) = 0.13069 0.47657
# Poissons Ratio (z) = 0.42411 0.49992
#
# Static dielectric constant tensor:
#      x y z
#    x 3.889380 0.000000 0.000000 
#    y 0.000000 3.907540 0.000000 
#    z 0.000000 0.000000 3.752060 
# 
# 
# High freq. dielectric constant tensor:
#      x y z
#    x 1.867880 0.000000 0.000000 
#    y 0.000000 1.864940 0.000000 
#    z 0.000000 0.000000 1.863550 
# 
# From -- ./inp_files/2761.got.cif
#   From: 2010.03.12/outbox.cif.g09.slc.cpg/sg19_2_cif.got.tgz:2761.got - 2010.04.10 18:59:41.
