data_PCOD8157039
_publ_section_title
;
Structure prediction by ZEFSAII (Michael W. Deem and Ramdas Pophale) SiO2 
 PCOD8157039
Probable space group: P 21 21 21
;
_chemical_formula_sum "Si O2"
_cell_formula_units_Z 32
_cell_length_a 18.394703
_cell_length_b 9.729465
_cell_length_c 8.869571
_cell_angle_alpha 90.000000
_cell_angle_beta 90.000000
_cell_angle_gamma 90.000000
_cell_volume 1587.392612
_symmetry_space_group_name_H-M "P 21 21 21"
_symmetry_group_IT_number 19
_symmetry_cell_setting 'orthorhombic'
loop_
_space_group_symop_operation_xyz
x,y,z
1/2-x,-y,1/2+z
1/2+x,1/2-y,-z
-x,1/2+y,1/2-z
loop_
_atom_site_type_symbol
_atom_site_label
_atom_site_fract_x
_atom_site_fract_y
_atom_site_fract_z
Si Si1 0.952900 0.009507 0.076114
Si Si2 0.730975 0.616572 0.405415
Si Si3 0.709566 0.068153 0.609382
Si Si4 0.966325 0.999308 0.429916
Si Si5 0.071723 0.793477 0.573136
Si Si6 0.558842 0.705925 0.070856
Si Si7 0.813312 0.871810 0.451229
Si Si8 0.777368 0.348925 0.558457
O O1 0.870878 0.960054 0.050044
O O2 0.976325 0.003010 0.250206
O O3 0.003663 0.912314 0.977188
O O4 0.960778 0.164254 0.016571
O O5 0.657307 0.691248 0.459708
O O6 0.799322 0.707782 0.464334
O O7 0.737059 0.461573 0.459399
O O8 0.731475 0.603195 0.227804
O O9 0.713227 0.079301 0.788333
O O10 0.737581 0.205173 0.527188
O O11 0.764187 0.945034 0.575207
O O12 0.896999 0.908123 0.478499
O O13 0.035412 0.930695 0.508046
O O14 0.961914 0.153052 0.490224
O O15 0.055989 0.774725 0.749793
O O16 0.638467 0.663572 0.013199
#
# Coordination Sequence:
#
# PCOD8157039 Si02
#       8
#     4   4   4   4   4   4   4   4
#     4  11  24  41  64  93 125 165 208 257 312 370
#     4  10  23  41  62  91 125 161 204 255 308 365
#     4  10  21  40  64  90 120 158 202 252 306 363
#     4  11  24  41  64  93 125 165 208 257 312 370
#     4  11  24  43  64  91 126 166 208 256 310 370
#     4  11  24  43  64  91 126 166 208 256 310 370
#     4  10  21  40  64  90 120 158 202 252 306 363
#     4  10  23  41  62  91 125 161 204 255 308 365
#
# _framework density 20.158844999999999
#
# number of rings (size 3 to 8) (size 9 to 14) (size 15 to 20)
#    0.000    1.500    2.500    1.500    3.500    4.000 
#    0.000    0.000    0.000    0.000    0.000    0.000 
#    0.000    0.000    0.000    0.000    0.000    0.000 
#
# Total GULP energy -396948.078082 kJ/mol
# GULP energy per Si atom -12404.627440 kJ/mol
# Density = 2.011296 g / cm^3
# Si number density = 20.158845 Si / 1000 Ang^3
#
#
#
# Elastic Constant Matrix: (Units=GPa)
#
#
# Indices 1 2 3 4 5 6 
#
# 1 62.2029 22.6880 28.5982 0.0000 0.0000 0.0000
# 2 22.6880 74.4646 26.0267 0.0000 0.0000 0.0000
# 3 28.5982 26.0267 40.5964 0.0000 0.0000 0.0000
# 4 0.0000 0.0000 0.0000 36.4469 0.0000 0.0000
# 5 0.0000 0.0000 0.0000 0.0000 26.7238 0.0000
# 6 0.0000 0.0000 0.0000 0.0000 0.0000 37.6846
#
#
#
# Elastic Compliance Matrix: (Units=1/GPa)
#
#
# Indices 1 2 3 4 5 6 
#
# 1 0.023964 -0.001806 -0.015724 0.000000 0.000000 0.000000
# 2 -0.001806 0.017444 -0.009911 0.000000 0.000000 0.000000
# 3 -0.015724 -0.009911 0.042064 0.000000 0.000000 0.000000
# 4 0.000000 0.000000 0.000000 0.027437 0.000000 0.000000
# 5 0.000000 0.000000 0.000000 0.000000 0.037420 0.000000
# 6 0.000000 0.000000 0.000000 0.000000 0.000000 0.026536
#
#
# Mechanical properties :
#
#
# Convention : Reuss Voigt Hill
#
# Bulk Modulus (GPa) = 34.97762 36.87663 35.92713
# Shear Modulus (GPa) = 20.89635 26.83444 23.86539
#
# Velocity S-wave (km/s) = 3.22310 3.65245 3.44447
# Velocity P-wave (km/s) = 5.58926 6.00999 5.80344
#
# Compressibility (1/GPa) = 0.02858971
#
# Stress axis : x y z
#
# Youngs Moduli (GPa) = 41.72883 57.32794 23.77345
#
# Poissons Ratio (x) = 0.10351 0.37381
# Poissons Ratio (y) = 0.07535 0.23562
# Poissons Ratio (z) = 0.65615 0.56819
#
# Static dielectric constant tensor:
#      x y z
#    x 3.790060 0.000000 0.000000 
#    y 0.000000 3.676110 0.000000 
#    z 0.000000 0.000000 3.612070 
# 
# 
# High freq. dielectric constant tensor:
#      x y z
#    x 1.793160 0.000000 0.000000 
#    y 0.000000 1.798550 0.000000 
#    z 0.000000 0.000000 1.788240 
# 
# From -- ./inp_files/3043.got.cif
#   From: 2010.03.12/outbox.cif.g09.slc.cpg/sg19_2_cif.got.tgz:3043.got - 2010.04.10 18:59:41.
