data_PCOD8157165
_publ_section_title
;
Structure prediction by ZEFSAII (Michael W. Deem and Ramdas Pophale) SiO2 
 PCOD8157165
Probable space group: P 21 21 21
;
_chemical_formula_sum "Si O2"
_cell_formula_units_Z 32
_cell_length_a 20.020950
_cell_length_b 8.892641
_cell_length_c 8.856595
_cell_angle_alpha 90.000000
_cell_angle_beta 90.000000
_cell_angle_gamma 90.000000
_cell_volume 1576.820387
_symmetry_space_group_name_H-M "P 21 21 21"
_symmetry_group_IT_number 19
_symmetry_cell_setting 'orthorhombic'
loop_
_space_group_symop_operation_xyz
x,y,z
1/2-x,-y,1/2+z
1/2+x,1/2-y,-z
-x,1/2+y,1/2-z
loop_
_atom_site_type_symbol
_atom_site_label
_atom_site_fract_x
_atom_site_fract_y
_atom_site_fract_z
Si Si1 0.622666 0.176167 0.413295
Si Si2 0.369552 0.315350 0.406714
Si Si3 0.889717 0.168588 0.942242
Si Si4 0.228445 0.839806 0.413795
Si Si5 0.753202 0.350900 0.435712
Si Si6 0.004705 0.166636 0.422926
Si Si7 0.640131 0.157670 0.067753
Si Si8 0.508598 0.184310 0.898711
O O1 0.698064 0.221119 0.456212
O O2 0.572277 0.288389 0.493903
O O3 0.611505 0.189338 0.234192
O O4 0.609428 0.009003 0.472100
O O5 0.370865 0.290921 0.228164
O O6 0.319296 0.192700 0.473024
O O7 0.442950 0.286729 0.471997
O O8 0.343694 0.481167 0.450409
O O9 0.836362 0.240608 0.054659
O O10 0.962590 0.231927 0.979511
O O11 0.228724 0.874267 0.237683
O O12 0.293512 0.749662 0.468616
O O13 0.223398 0.994261 0.503825
O O14 0.996200 0.250092 0.265480
O O15 0.009049 0.990248 0.395443
O O16 0.585134 0.210283 0.947114
#
# Coordination Sequence:
#
# PCOD8157165 Si02
#       8
#     4   4   4   4   4   4   4   4
#     4  10  22  40  61  85 116 154 193 240 293 348
#     4  10  22  40  61  85 116 154 193 240 293 348
#     4  11  22  39  62  86 116 153 194 239 294 348
#     4  11  23  39  60  88 119 154 196 242 291 348
#     4  11  23  39  60  87 119 153 195 241 290 346
#     4  11  23  39  60  87 119 153 195 241 290 346
#     4   9  22  41  60  84 116 155 194 237 294 350
#     4  11  23  39  60  88 119 154 196 242 291 348
#
# _framework density 20.294003
#
# number of rings (size 3 to 8) (size 9 to 14) (size 15 to 20)
#    0.000    1.500    0.000    4.500    0.000    7.000 
#    0.000    0.000    0.000    0.000    0.000    0.000 
#    0.000    0.000    0.000    0.000    0.000    0.000 
#
# Total GULP energy -397049.833147 kJ/mol
# GULP energy per Si atom -12407.807286 kJ/mol
# Density = 2.024781 g / cm^3
# Si number density = 20.294003 Si / 1000 Ang^3
#
#
#
# Elastic Constant Matrix: (Units=GPa)
#
#
# Indices 1 2 3 4 5 6 
#
# 1 60.7163 11.5370 15.8928 0.0000 0.0000 0.0000
# 2 11.5370 60.8388 6.6761 0.0000 0.0000 0.0000
# 3 15.8928 6.6761 54.6535 0.0000 0.0000 0.0000
# 4 0.0000 0.0000 0.0000 31.0918 0.0000 0.0000
# 5 0.0000 0.0000 0.0000 0.0000 31.3270 0.0000
# 6 0.0000 0.0000 0.0000 0.0000 0.0000 35.1034
#
#
#
# Elastic Compliance Matrix: (Units=1/GPa)
#
#
# Indices 1 2 3 4 5 6 
#
# 1 0.018328 -0.002930 -0.004972 0.000000 0.000000 0.000000
# 2 -0.002930 0.017129 -0.001240 0.000000 0.000000 0.000000
# 3 -0.004972 -0.001240 0.019894 0.000000 0.000000 0.000000
# 4 0.000000 0.000000 0.000000 0.032163 0.000000 0.000000
# 5 0.000000 0.000000 0.000000 0.000000 0.031921 0.000000
# 6 0.000000 0.000000 0.000000 0.000000 0.000000 0.028487
#
#
# Mechanical properties :
#
#
# Convention : Reuss Voigt Hill
#
# Bulk Modulus (GPa) = 26.97819 27.15780 27.06800
# Shear Modulus (GPa) = 28.00140 28.97794 28.48967
#
# Velocity S-wave (km/s) = 3.71858 3.78286 3.75086
# Velocity P-wave (km/s) = 5.63557 5.70012 5.66793
#
# Compressibility (1/GPa) = 0.03706697
#
# Stress axis : x y z
#
# Youngs Moduli (GPa) = 54.56080 58.38181 50.26552
#
# Poissons Ratio (x) = 0.17106 0.24991
# Poissons Ratio (y) = 0.15986 0.06234
# Poissons Ratio (z) = 0.27126 0.07241
#
# Static dielectric constant tensor:
#      x y z
#    x 3.692430 0.000000 0.000000 
#    y 0.000000 3.748430 0.000000 
#    z 0.000000 0.000000 3.703370 
# 
# 
# High freq. dielectric constant tensor:
#      x y z
#    x 1.802440 0.000000 0.000000 
#    y 0.000000 1.802390 0.000000 
#    z 0.000000 0.000000 1.801580 
# 
# From -- ./inp_files/3045.got.cif
#   From: 2010.03.12/outbox.cif.g09.slc.cpg/sg19_2_cif.got.tgz:3045.got - 2010.04.10 18:59:41.
