data_PCOD8157090
_publ_section_title
;
Structure prediction by ZEFSAII (Michael W. Deem and Ramdas Pophale) SiO2 
 PCOD8157090
Probable space group: P 21 21 21
;
_chemical_formula_sum "Si O2"
_cell_formula_units_Z 32
_cell_length_a 10.084989
_cell_length_b 12.114531
_cell_length_c 12.218384
_cell_angle_alpha 90.000000
_cell_angle_beta 90.000000
_cell_angle_gamma 90.000000
_cell_volume 1492.779988
_symmetry_space_group_name_H-M "P 21 21 21"
_symmetry_group_IT_number 19
_symmetry_cell_setting 'orthorhombic'
loop_
_space_group_symop_operation_xyz
x,y,z
1/2-x,-y,1/2+z
1/2+x,1/2-y,-z
-x,1/2+y,1/2-z
loop_
_atom_site_type_symbol
_atom_site_label
_atom_site_fract_x
_atom_site_fract_y
_atom_site_fract_z
Si Si1 0.209288 0.578156 0.557876
Si Si2 0.525044 0.278488 0.437719
Si Si3 0.152624 0.387059 0.715117
Si Si4 0.542729 0.021408 0.075647
Si Si5 0.175980 0.213932 0.170484
Si Si6 0.257027 0.156361 0.408050
Si Si7 0.125063 0.701328 0.354496
Si Si8 0.283911 0.091692 0.968238
O O1 0.135653 0.486797 0.629585
O O2 0.322069 0.515389 0.491098
O O3 0.268247 0.666977 0.640752
O O4 0.111400 0.635641 0.470064
O O5 0.608416 0.224408 0.341551
O O6 0.493366 0.398237 0.390885
O O7 0.388162 0.212303 0.462381
O O8 0.621964 0.290576 0.542852
O O9 0.053368 0.407283 0.814947
O O10 0.301525 0.371979 0.761941
O O11 0.436841 0.081845 0.000713
O O12 0.252962 0.174853 0.278381
O O13 0.197587 0.126438 0.073157
O O14 0.019505 0.225697 0.192739
O O15 0.270503 0.024883 0.425459
O O16 0.213704 0.812346 0.375446
#
# Coordination Sequence:
#
# PCOD8157090 Si02
#       8
#     4   4   4   4   4   4   4   4
#     4  10  22  42  65  94 134 172 223 280 325 405
#     4  11  25  44  64  99 135 173 217 281 331 398
#     4  11  24  39  69  94 129 171 225 269 345 392
#     4  10  21  43  61  90 132 172 213 274 331 391
#     4  11  23  43  69  95 133 179 227 266 343 409
#     4  11  26  44  68 101 139 172 223 278 339 392
#     4  10  24  41  68 100 125 181 225 275 331 414
#     4  10  23  44  64  95 133 170 221 281 323 399
#
# _framework density 21.436513999999999
#
# number of rings (size 3 to 8) (size 9 to 14) (size 15 to 20)
#    0.000    1.500    1.250    2.250    7.000    5.000 
#    0.000    0.000    0.000    0.000    0.000    0.000 
#    0.000    0.000    0.000    0.000    0.000    0.000 
#
# Total GULP energy -396844.171971 kJ/mol
# GULP energy per Si atom -12401.380374 kJ/mol
# Density = 2.138772 g / cm^3
# Si number density = 21.436514 Si / 1000 Ang^3
#
#
#
# Elastic Constant Matrix: (Units=GPa)
#
#
# Indices 1 2 3 4 5 6 
#
# 1 67.6541 8.8824 11.5205 0.0000 0.0000 0.0000
# 2 8.8824 106.6159 40.3659 0.0000 0.0000 0.0000
# 3 11.5205 40.3659 82.6392 0.0000 0.0000 0.0000
# 4 0.0000 0.0000 0.0000 30.8129 0.0000 0.0000
# 5 0.0000 0.0000 0.0000 0.0000 24.1792 0.0000
# 6 0.0000 0.0000 0.0000 0.0000 0.0000 32.9263
#
#
#
# Elastic Compliance Matrix: (Units=1/GPa)
#
#
# Indices 1 2 3 4 5 6 
#
# 1 0.015168 -0.000568 -0.001837 0.000000 0.000000 0.000000
# 2 -0.000568 0.011529 -0.005552 0.000000 0.000000 0.000000
# 3 -0.001837 -0.005552 0.015069 0.000000 0.000000 0.000000
# 4 0.000000 0.000000 0.000000 0.032454 0.000000 0.000000
# 5 0.000000 0.000000 0.000000 0.000000 0.041358 0.000000
# 6 0.000000 0.000000 0.000000 0.000000 0.000000 0.030371
#
#
# Mechanical properties :
#
#
# Convention : Reuss Voigt Hill
#
# Bulk Modulus (GPa) = 38.68258 42.04964 40.36611
# Shear Modulus (GPa) = 29.32879 30.65973 29.99426
#
# Velocity S-wave (km/s) = 3.70289 3.78598 3.74466
# Velocity P-wave (km/s) = 6.03044 6.22655 6.12928
#
# Compressibility (1/GPa) = 0.02585143
#
# Stress axis : x y z
#
# Youngs Moduli (GPa) = 65.92616 86.73838 66.36171
#
# Poissons Ratio (x) = 0.04928 0.12191
# Poissons Ratio (y) = 0.03746 0.36845
# Poissons Ratio (z) = 0.12111 0.48159
#
# Static dielectric constant tensor:
#      x y z
#    x 3.834740 0.000000 0.000000 
#    y 0.000000 3.952940 0.000000 
#    z 0.000000 0.000000 3.810530 
# 
# 
# High freq. dielectric constant tensor:
#      x y z
#    x 1.842070 0.000000 0.000000 
#    y 0.000000 1.851330 0.000000 
#    z 0.000000 0.000000 1.838340 
# 
# From -- ./inp_files/5079.got.cif
#   From: 2010.03.12/outbox.cif.g09.slc.cpg/sg19_3_cif.got.tgz:5079.got - 2010.04.10 18:59:41.
