data_PCOD8157552
_publ_section_title
;
Structure prediction by ZEFSAII (Michael W. Deem and Ramdas Pophale) SiO2 
 PCOD8157552
Probable space group: P 21 21 21
;
_chemical_formula_sum "Si O2"
_cell_formula_units_Z 32
_cell_length_a 14.132377
_cell_length_b 17.583642
_cell_length_c 6.611507
_cell_angle_alpha 90.000000
_cell_angle_beta 90.000000
_cell_angle_gamma 90.000000
_cell_volume 1642.950615
_symmetry_space_group_name_H-M "P 21 21 21"
_symmetry_group_IT_number 19
_symmetry_cell_setting 'orthorhombic'
loop_
_space_group_symop_operation_xyz
x,y,z
1/2-x,-y,1/2+z
1/2+x,1/2-y,-z
-x,1/2+y,1/2-z
loop_
_atom_site_type_symbol
_atom_site_label
_atom_site_fract_x
_atom_site_fract_y
_atom_site_fract_z
Si Si1 0.697649 0.594163 0.569745
Si Si2 0.162523 0.070597 0.276022
Si Si3 0.377059 0.543092 0.333690
Si Si4 0.684110 0.919825 0.481443
Si Si5 0.049933 0.858337 0.744680
Si Si6 0.116182 0.702870 0.831677
Si Si7 0.707525 0.665650 0.971289
Si Si8 0.449291 0.419995 0.634430
O O1 0.696396 0.515049 0.687911
O O2 0.790410 0.599605 0.430827
O O3 0.600580 0.605959 0.450402
O O4 0.705532 0.663043 0.729499
O O5 0.196287 0.125299 0.456889
O O6 0.050407 0.076970 0.257990
O O7 0.294008 0.583610 0.458750
O O8 0.335134 0.496068 0.145876
O O9 0.445325 0.607309 0.238546
O O10 0.436625 0.491422 0.486927
O O11 0.660620 0.846926 0.346224
O O12 0.626192 0.920205 0.687632
O O13 0.045350 0.765734 0.732307
O O14 0.115257 0.880170 0.939239
O O15 0.201995 0.747331 0.947462
O O16 0.059380 0.655049 0.997584
#
# Coordination Sequence:
#
# PCOD8157552 Si02
#       8
#     4   4   4   4   4   4   4   4
#     4  11  20  36  65  93 130 160 207 262 321 385
#     4  11  22  36  64  99 124 165 205 265 327 379
#     4  11  22  43  69  95 125 173 228 263 327 380
#     4  11  24  43  66  94 130 170 219 280 321 376
#     4   9  22  41  65  93 123 172 217 257 323 398
#     4   9  24  45  59  92 131 173 214 266 325 384
#     4   9  22  41  61  89 133 167 205 257 324 388
#     4  11  24  41  65  93 132 162 219 278 314 386
#
# _framework density 19.477153000000001
#
# number of rings (size 3 to 8) (size 9 to 14) (size 15 to 20)
#    0.750    1.000    3.750    0.000    3.500    2.000 
#    4.500    0.000    0.000    0.000    0.000    0.000 
#    0.000    0.000    0.000    0.000    0.000    0.000 
#
# Total GULP energy -396717.760356 kJ/mol
# GULP energy per Si atom -12397.430011 kJ/mol
# Density = 1.943282 g / cm^3
# Si number density = 19.477153 Si / 1000 Ang^3
#
#
#
# Elastic Constant Matrix: (Units=GPa)
#
#
# Indices 1 2 3 4 5 6 
#
# 1 104.4133 37.2149 32.3358 0.0000 0.0000 0.0000
# 2 37.2149 95.2578 29.7756 0.0000 0.0000 0.0000
# 3 32.3358 29.7756 104.0987 0.0000 0.0000 0.0000
# 4 0.0000 0.0000 0.0000 23.7690 0.0000 0.0000
# 5 0.0000 0.0000 0.0000 0.0000 22.0235 0.0000
# 6 0.0000 0.0000 0.0000 0.0000 0.0000 23.5021
#
#
#
# Elastic Compliance Matrix: (Units=1/GPa)
#
#
# Indices 1 2 3 4 5 6 
#
# 1 0.011716 -0.003777 -0.002559 0.000000 0.000000 0.000000
# 2 -0.003777 0.012746 -0.002473 0.000000 0.000000 0.000000
# 3 -0.002559 -0.002473 0.011108 0.000000 0.000000 0.000000
# 4 0.000000 0.000000 0.000000 0.042072 0.000000 0.000000
# 5 0.000000 0.000000 0.000000 0.000000 0.045406 0.000000
# 6 0.000000 0.000000 0.000000 0.000000 0.000000 0.042549
#
#
# Mechanical properties :
#
#
# Convention : Reuss Voigt Hill
#
# Bulk Modulus (GPa) = 55.70000 55.82470 55.76235
# Shear Modulus (GPa) = 26.42706 27.48847 26.95776
#
# Velocity S-wave (km/s) = 3.68750 3.76083 3.72435
# Velocity P-wave (km/s) = 6.84032 6.89799 6.86922
#
# Compressibility (1/GPa) = 0.01795332
#
# Stress axis : x y z
#
# Youngs Moduli (GPa) = 85.35256 78.45343 90.02234
#
# Poissons Ratio (x) = 0.29635 0.23036
# Poissons Ratio (y) = 0.32241 0.22258
# Poissons Ratio (z) = 0.21841 0.19398
#
# Static dielectric constant tensor:
#      x y z
#    x 3.346630 0.000000 0.000000 
#    y 0.000000 3.487900 0.000000 
#    z 0.000000 0.000000 3.554270 
# 
# 
# High freq. dielectric constant tensor:
#      x y z
#    x 1.746070 0.000000 0.000000 
#    y 0.000000 1.753180 0.000000 
#    z 0.000000 0.000000 1.767020 
# 
# From -- ./inp_files/1576.got.cif
#   From: 2010.03.12/outbox.cif.g09.slc.cpg/sg19_1_cif.got.tgz:1576.got - 2010.04.10 18:59:41.
