data_PCOD8157216
_publ_section_title
;
Structure prediction by ZEFSAII (Michael W. Deem and Ramdas Pophale) SiO2 
 PCOD8157216
Probable space group: P 21 21 21
;
_chemical_formula_sum "Si O2"
_cell_formula_units_Z 32
_cell_length_a 8.845513
_cell_length_b 11.125450
_cell_length_c 15.245956
_cell_angle_alpha 90.000000
_cell_angle_beta 90.000000
_cell_angle_gamma 90.000000
_cell_volume 1500.359296
_symmetry_space_group_name_H-M "P 21 21 21"
_symmetry_group_IT_number 19
_symmetry_cell_setting 'orthorhombic'
loop_
_space_group_symop_operation_xyz
x,y,z
1/2-x,-y,1/2+z
1/2+x,1/2-y,-z
-x,1/2+y,1/2-z
loop_
_atom_site_type_symbol
_atom_site_label
_atom_site_fract_x
_atom_site_fract_y
_atom_site_fract_z
Si Si1 0.020848 0.550393 0.577604
Si Si2 0.272097 0.805962 0.338409
Si Si3 0.193192 0.354242 0.360847
Si Si4 0.714307 0.989003 0.806443
Si Si5 0.648945 0.721279 0.838745
Si Si6 0.732003 0.637485 0.027224
Si Si7 0.242147 0.411353 0.945636
Si Si8 0.969844 0.444504 0.061595
O O1 0.938077 0.645792 0.640227
O O2 0.904336 0.457377 0.532278
O O3 0.134423 0.473936 0.637157
O O4 0.119907 0.630447 0.509169
O O5 0.231020 0.851997 0.240500
O O6 0.260436 0.661094 0.353485
O O7 0.164746 0.855218 0.415431
O O8 0.255531 0.426057 0.276323
O O9 0.282027 0.233981 0.392439
O O10 0.217189 0.448120 0.438941
O O11 0.019659 0.324534 0.347078
O O12 0.653827 0.853639 0.796378
O O13 0.577977 0.054987 0.854752
O O14 0.731678 0.703218 0.932147
O O15 0.895830 0.573658 0.036664
O O16 0.072635 0.395741 0.982517
#
# Coordination Sequence:
#
# PCOD8157216 Si02
#       8
#     4   4   4   4   4   4   4   4
#     4  10  24  43  66 100 130 175 224 282 331 397
#     4  11  23  42  66  95 139 173 223 276 333 406
#     4  12  24  41  68  99 130 175 224 277 336 400
#     4  11  23  42  66  95 133 169 219 278 339 396
#     4  12  24  42  67  98 133 177 223 281 335 400
#     4  11  24  42  69  98 132 172 230 277 331 402
#     4  11  22  41  66  95 134 175 224 270 340 399
#     4  10  22  41  68  94 129 178 221 273 335 400
#
# _framework density 21.328223999999999
#
# number of rings (size 3 to 8) (size 9 to 14) (size 15 to 20)
#    0.000    1.000    5.000    2.250    0.000    2.000 
#    0.000    0.000    8.250    0.000    0.000    0.000 
#    0.000    0.000    0.000    0.000    0.000    0.000 
#
# Total GULP energy -396451.699922 kJ/mol
# GULP energy per Si atom -12389.115623 kJ/mol
# Density = 2.127968 g / cm^3
# Si number density = 21.328224 Si / 1000 Ang^3
#
#
#
# Elastic Constant Matrix: (Units=GPa)
#
#
# Indices 1 2 3 4 5 6 
#
# 1 83.6387 9.2270 18.6718 0.0000 0.0000 0.0000
# 2 9.2270 72.7993 21.0152 0.0000 0.0000 0.0000
# 3 18.6718 21.0152 106.1680 0.0000 0.0000 0.0000
# 4 0.0000 0.0000 0.0000 37.0197 0.0000 0.0000
# 5 0.0000 0.0000 0.0000 0.0000 24.2649 0.0000
# 6 0.0000 0.0000 0.0000 0.0000 0.0000 24.0955
#
#
#
# Elastic Compliance Matrix: (Units=1/GPa)
#
#
# Indices 1 2 3 4 5 6 
#
# 1 0.012514 -0.001008 -0.002001 0.000000 0.000000 0.000000
# 2 -0.001008 0.014650 -0.002723 0.000000 0.000000 0.000000
# 3 -0.002001 -0.002723 0.010310 0.000000 0.000000 0.000000
# 4 0.000000 0.000000 0.000000 0.027013 0.000000 0.000000
# 5 0.000000 0.000000 0.000000 0.000000 0.041212 0.000000
# 6 0.000000 0.000000 0.000000 0.000000 0.000000 0.041502
#
#
# Mechanical properties :
#
#
# Convention : Reuss Voigt Hill
#
# Bulk Modulus (GPa) = 38.44704 40.04823 39.24763
# Shear Modulus (GPa) = 29.88026 31.32215 30.60120
#
# Velocity S-wave (km/s) = 3.74702 3.83636 3.79195
# Velocity P-wave (km/s) = 6.06512 6.20011 6.13299
#
# Compressibility (1/GPa) = 0.02600980
#
# Stress axis : x y z
#
# Youngs Moduli (GPa) = 79.90916 68.25882 96.99405
#
# Poissons Ratio (x) = 0.06883 0.19411
# Poissons Ratio (y) = 0.08058 0.26407
# Poissons Ratio (z) = 0.15992 0.18584
#
# Static dielectric constant tensor:
#      x y z
#    x 3.839110 0.000000 0.000000 
#    y 0.000000 3.764010 0.000000 
#    z 0.000000 0.000000 3.942790 
# 
# 
# High freq. dielectric constant tensor:
#      x y z
#    x 1.838350 0.000000 0.000000 
#    y 0.000000 1.833650 0.000000 
#    z 0.000000 0.000000 1.839550 
# 
# From -- ./inp_files/5278.got.cif
#   From: 2010.03.12/outbox.cif.g09.slc.cpg/sg19_3_cif.got.tgz:5278.got - 2010.04.10 18:59:41.
