data_PCOD8157153
_publ_section_title
;
Structure prediction by ZEFSAII (Michael W. Deem and Ramdas Pophale) SiO2 
 PCOD8157153
Probable space group: P 21 21 21
;
_chemical_formula_sum "Si O2"
_cell_formula_units_Z 24
_cell_length_a 14.206504
_cell_length_b 7.792604
_cell_length_c 10.062647
_cell_angle_alpha 90.000000
_cell_angle_beta 90.000000
_cell_angle_gamma 90.000000
_cell_volume 1113.991976
_symmetry_space_group_name_H-M "P 21 21 21"
_symmetry_group_IT_number 19
_symmetry_cell_setting 'orthorhombic'
loop_
_space_group_symop_operation_xyz
x,y,z
1/2-x,-y,1/2+z
1/2+x,1/2-y,-z
-x,1/2+y,1/2-z
loop_
_atom_site_type_symbol
_atom_site_label
_atom_site_fract_x
_atom_site_fract_y
_atom_site_fract_z
Si Si1 0.293773 0.044003 0.264019
Si Si2 0.102788 0.567670 0.212883
Si Si3 0.099654 0.185071 0.266396
Si Si4 0.704248 0.174559 0.194566
Si Si5 0.889511 0.150560 0.581613
Si Si6 0.397535 0.824735 0.080700
O O1 0.184829 0.063523 0.219569
O O2 0.324247 0.211929 0.344528
O O3 0.305678 0.872436 0.356885
O O4 0.353393 0.009365 0.128189
O O5 0.110377 0.364669 0.190991
O O6 0.185710 0.625981 0.310557
O O7 0.000296 0.604526 0.276485
O O8 0.114462 0.673632 0.076654
O O9 0.108828 0.204955 0.425000
O O10 0.661161 0.172194 0.345791
O O11 0.645231 0.042453 0.107900
O O12 0.995271 0.177612 0.632243
#
# Coordination Sequence:
#
# PCOD8157153 Si02
#       6
#     4   4   4   4   4   4
#     4  10  22  39  69  90 130 169 216 272 317 385
#     4  11  24  41  67  93 137 173 216 273 324 396
#     4  11  22  45  62  96 134 171 221 266 329 391
#     4  10  22  39  65  98 122 171 221 258 334 372
#     4  11  21  44  63  97 132 169 218 268 323 384
#     4   9  23  40  66  92 131 169 210 275 319 386
#
# _framework density 21.544139999999999
#
# number of rings (size 3 to 8) (size 9 to 14) (size 15 to 20)
#    1.000    0.667    1.667    3.000    0.000    1.333 
#    6.000    1.667    0.000    0.000    0.000    0.000 
#    0.000    0.000    0.000    0.000    0.000    0.000 
#
# Total GULP energy -297422.905493 kJ/mol
# GULP energy per Si atom -12392.621062 kJ/mol
# Density = 2.149510 g / cm^3
# Si number density = 21.544140 Si / 1000 Ang^3
#
#
#
# Elastic Constant Matrix: (Units=GPa)
#
#
# Indices 1 2 3 4 5 6 
#
# 1 154.1670 20.8777 13.7414 0.0000 0.0000 0.0000
# 2 20.8777 103.1880 0.9591 0.0000 0.0000 0.0000
# 3 13.7414 0.9591 35.9890 0.0000 0.0000 0.0000
# 4 0.0000 0.0000 0.0000 29.9419 0.0000 0.0000
# 5 0.0000 0.0000 0.0000 0.0000 19.2987 0.0000
# 6 0.0000 0.0000 0.0000 0.0000 0.0000 39.3480
#
#
#
# Elastic Compliance Matrix: (Units=1/GPa)
#
#
# Indices 1 2 3 4 5 6 
#
# 1 0.006904 -0.001373 -0.002600 0.000000 0.000000 0.000000
# 2 -0.001373 0.009966 0.000259 0.000000 0.000000 0.000000
# 3 -0.002600 0.000259 0.028772 0.000000 0.000000 0.000000
# 4 0.000000 0.000000 0.000000 0.033398 0.000000 0.000000
# 5 0.000000 0.000000 0.000000 0.000000 0.051817 0.000000
# 6 0.000000 0.000000 0.000000 0.000000 0.000000 0.025414
#
#
# Mechanical properties :
#
#
# Convention : Reuss Voigt Hill
#
# Bulk Modulus (GPa) = 26.16776 40.50006 33.33391
# Shear Modulus (GPa) = 28.33864 34.90209 31.62036
#
# Velocity S-wave (km/s) = 3.63075 4.02932 3.83522
# Velocity P-wave (km/s) = 5.45426 6.36292 5.92603
#
# Compressibility (1/GPa) = 0.03821497
#
# Stress axis : x y z
#
# Youngs Moduli (GPa) = 144.84195 100.33731 34.75604
#
# Poissons Ratio (x) = 0.13774 0.09035
# Poissons Ratio (y) = 0.19883 -0.00899
# Poissons Ratio (z) = 0.37653 -0.02594
#
# Static dielectric constant tensor:
#      x y z
#    x 4.301870 0.000000 0.000000 
#    y 0.000000 3.721580 0.000000 
#    z 0.000000 0.000000 3.374110 
# 
# 
# High freq. dielectric constant tensor:
#      x y z
#    x 1.873360 0.000000 0.000000 
#    y 0.000000 1.839950 0.000000 
#    z 0.000000 0.000000 1.808510 
# 
# From -- ./inp_files/2800.got.cif
#   From: 2010.03.12/outbox.cif.g09.slc.cpg/sg19_2_cif.got.tgz:2800.got - 2010.04.10 18:59:41.
