data_PCOD8157440
_publ_section_title
;
Structure prediction by ZEFSAII (Michael W. Deem and Ramdas Pophale) SiO2 
 PCOD8157440
Probable space group: P 21 21 21
;
_chemical_formula_sum "Si O2"
_cell_formula_units_Z 28
_cell_length_a 18.195329
_cell_length_b 5.374041
_cell_length_c 12.143101
_cell_angle_alpha 90.000000
_cell_angle_beta 90.000000
_cell_angle_gamma 90.000000
_cell_volume 1187.382094
_symmetry_space_group_name_H-M "P 21 21 21"
_symmetry_group_IT_number 19
_symmetry_cell_setting 'orthorhombic'
loop_
_space_group_symop_operation_xyz
x,y,z
1/2-x,-y,1/2+z
1/2+x,1/2-y,-z
-x,1/2+y,1/2-z
loop_
_atom_site_type_symbol
_atom_site_label
_atom_site_fract_x
_atom_site_fract_y
_atom_site_fract_z
Si Si1 0.499866 0.663487 0.881136
Si Si2 0.794999 0.977741 0.411153
Si Si3 0.249684 0.148968 0.760834
Si Si4 0.639910 0.027041 0.129723
Si Si5 0.117697 0.132613 0.231951
Si Si6 0.504167 0.665155 0.478033
Si Si7 0.653835 0.722113 0.352715
O O1 0.427323 0.671897 0.805445
O O2 0.568408 0.607719 0.800784
O O3 0.494763 0.431986 0.963821
O O4 0.507456 0.930597 0.940673
O O5 0.829070 0.112375 0.519842
O O6 0.851862 0.754295 0.381336
O O7 0.710000 0.887293 0.426042
O O8 0.797927 0.152319 0.305332
O O9 0.202019 0.258704 0.859747
O O10 0.310657 0.951972 0.804114
O O11 0.192938 0.036100 0.673199
O O12 0.560488 0.152583 0.112401
O O13 0.635763 0.854039 0.236031
O O14 0.581288 0.646479 0.416677
#
# Coordination Sequence:
#
# PCOD8157440 Si02
#       7
#     4   4   4   4   4   4   4
#     4  12  28  46  79 114 156 202 250 328 386 457
#     4  10  23  48  72 104 148 194 261 316 388 450
#     4  10  25  46  71 105 144 205 248 329 370 471
#     4  11  25  46  76 102 152 203 256 320 390 447
#     4  11  25  47  74 112 151 193 260 313 396 454
#     4  12  29  47  77 116 154 206 256 318 387 465
#     4  10  27  44  71 109 147 205 257 320 379 472
#
# _framework density 23.581287
#
# number of rings (size 3 to 8) (size 9 to 14) (size 15 to 20)
#    0.000    1.143    1.429    1.714   14.000    4.571 
#    0.000    0.000    0.000    0.000    0.000    0.000 
#    0.000    0.000    0.000    0.000    0.000    0.000 
#
# Total GULP energy -347032.607141 kJ/mol
# GULP energy per Si atom -12394.021684 kJ/mol
# Density = 2.352761 g / cm^3
# Si number density = 23.581287 Si / 1000 Ang^3
#
#
#
# Elastic Constant Matrix: (Units=GPa)
#
#
# Indices 1 2 3 4 5 6 
#
# 1 148.8786 22.8602 28.1125 0.0000 0.0000 0.0000
# 2 22.8602 75.5159 4.7861 0.0000 0.0000 0.0000
# 3 28.1125 4.7861 44.7816 0.0000 0.0000 0.0000
# 4 0.0000 0.0000 0.0000 26.0679 0.0000 0.0000
# 5 0.0000 0.0000 0.0000 0.0000 31.4905 0.0000
# 6 0.0000 0.0000 0.0000 0.0000 0.0000 41.5397
#
#
#
# Elastic Compliance Matrix: (Units=1/GPa)
#
#
# Indices 1 2 3 4 5 6 
#
# 1 0.007938 -0.002101 -0.004759 0.000000 0.000000 0.000000
# 2 -0.002101 0.013889 -0.000165 0.000000 0.000000 0.000000
# 3 -0.004759 -0.000165 0.025336 0.000000 0.000000 0.000000
# 4 0.000000 0.000000 0.000000 0.038361 0.000000 0.000000
# 5 0.000000 0.000000 0.000000 0.000000 0.031756 0.000000
# 6 0.000000 0.000000 0.000000 0.000000 0.000000 0.024073
#
#
# Mechanical properties :
#
#
# Convention : Reuss Voigt Hill
#
# Bulk Modulus (GPa) = 30.20057 42.29931 36.24994
# Shear Modulus (GPa) = 30.04068 34.04744 32.04406
#
# Velocity S-wave (km/s) = 3.57307 3.80390 3.69029
# Velocity P-wave (km/s) = 5.46418 6.10487 5.79339
#
# Compressibility (1/GPa) = 0.03311196
#
# Stress axis : x y z
#
# Youngs Moduli (GPa) = 125.97413 72.00018 39.47012
#
# Poissons Ratio (x) = 0.15130 0.18783
# Poissons Ratio (y) = 0.26473 0.00652
# Poissons Ratio (z) = 0.59948 0.01189
#
# Static dielectric constant tensor:
#      x y z
#    x 4.652630 0.000000 0.000000 
#    y 0.000000 4.204740 0.000000 
#    z 0.000000 0.000000 4.070550 
# 
# 
# High freq. dielectric constant tensor:
#      x y z
#    x 1.964070 0.000000 0.000000 
#    y 0.000000 1.930560 0.000000 
#    z 0.000000 0.000000 1.917110 
# 
# From -- ./inp_files/5348.got.cif
#   From: 2010.03.12/outbox.cif.g09.slc.cpg/sg19_3_cif.got.tgz:5348.got - 2010.04.10 18:59:41.
