data_PCOD8157824
_publ_section_title
;
Structure prediction by ZEFSAII (Michael W. Deem and Ramdas Pophale) SiO2 
 PCOD8157824
Probable space group: P 21 21 21
;
_chemical_formula_sum "Si O2"
_cell_formula_units_Z 28
_cell_length_a 9.150989
_cell_length_b 11.665422
_cell_length_c 11.244094
_cell_angle_alpha 90.000000
_cell_angle_beta 90.000000
_cell_angle_gamma 90.000000
_cell_volume 1200.308703
_symmetry_space_group_name_H-M "P 21 21 21"
_symmetry_group_IT_number 19
_symmetry_cell_setting 'orthorhombic'
loop_
_space_group_symop_operation_xyz
x,y,z
1/2-x,-y,1/2+z
1/2+x,1/2-y,-z
-x,1/2+y,1/2-z
loop_
_atom_site_type_symbol
_atom_site_label
_atom_site_fract_x
_atom_site_fract_y
_atom_site_fract_z
Si Si1 0.804540 0.916384 0.375081
Si Si2 0.795930 0.170958 0.424893
Si Si3 0.539830 0.694792 0.123588
Si Si4 0.084393 0.848362 0.268023
Si Si5 0.290287 0.040667 0.215758
Si Si6 0.494754 0.874543 0.301813
Si Si7 0.769640 0.693905 0.511183
O O1 0.646745 0.938892 0.318341
O O2 0.794628 0.828423 0.485449
O O3 0.908896 0.858891 0.274145
O O4 0.859739 0.042051 0.414292
O O5 0.863182 0.221466 0.544302
O O6 0.618225 0.166142 0.434080
O O7 0.856821 0.249517 0.318134
O O8 0.644488 0.587295 0.156776
O O9 0.515333 0.746580 0.254505
O O10 0.132796 0.816017 0.401128
O O11 0.136482 0.976306 0.233026
O O12 0.406518 0.937736 0.194193
O O13 0.273257 0.131049 0.111166
O O14 0.410098 0.864240 0.427541
#
# Coordination Sequence:
#
# PCOD8157824 Si02
#       7
#     4   4   4   4   4   4   4
#     4  12  27  46  77 108 149 201 251 320 371 458
#     4  12  30  48  74 111 154 196 256 310 384 451
#     4  12  27  49  73 113 152 197 250 313 379 453
#     4  11  29  48  73 112 155 191 260 309 387 449
#     4  11  25  47  79 104 150 203 246 312 383 443
#     4  11  25  48  72 111 149 195 255 312 371 457
#     4  11  25  50  76 105 147 205 254 308 381 451
#
# _framework density 23.327331000000001
#
# number of rings (size 3 to 8) (size 9 to 14) (size 15 to 20)
#    0.000    0.571    5.714    0.857   12.000    1.143 
#    0.000    0.000    0.000    0.000    0.000    0.000 
#    0.000    0.000    0.000    0.000    0.000    0.000 
#
# Total GULP energy -346991.371819 kJ/mol
# GULP energy per Si atom -12392.548994 kJ/mol
# Density = 2.327424 g / cm^3
# Si number density = 23.327331 Si / 1000 Ang^3
#
#
#
# Elastic Constant Matrix: (Units=GPa)
#
#
# Indices 1 2 3 4 5 6 
#
# 1 129.1020 26.9968 46.4265 0.0000 0.0000 0.0000
# 2 26.9968 131.9486 51.0429 0.0000 0.0000 0.0000
# 3 46.4265 51.0429 98.2350 0.0000 0.0000 0.0000
# 4 0.0000 0.0000 0.0000 30.2320 0.0000 0.0000
# 5 0.0000 0.0000 0.0000 0.0000 27.8462 0.0000
# 6 0.0000 0.0000 0.0000 0.0000 0.0000 29.0113
#
#
#
# Elastic Compliance Matrix: (Units=1/GPa)
#
#
# Indices 1 2 3 4 5 6 
#
# 1 0.009339 -0.000255 -0.004281 0.000000 0.000000 0.000000
# 2 -0.000255 0.009492 -0.004812 0.000000 0.000000 0.000000
# 3 -0.004281 -0.004812 0.014703 0.000000 0.000000 0.000000
# 4 0.000000 0.000000 0.000000 0.033078 0.000000 0.000000
# 5 0.000000 0.000000 0.000000 0.000000 0.035912 0.000000
# 6 0.000000 0.000000 0.000000 0.000000 0.000000 0.034469
#
#
# Mechanical properties :
#
#
# Convention : Reuss Voigt Hill
#
# Bulk Modulus (GPa) = 67.39078 67.57975 67.48526
# Shear Modulus (GPa) = 31.12666 33.07253 32.09959
#
# Velocity S-wave (km/s) = 3.65683 3.76940 3.71354
# Velocity P-wave (km/s) = 6.83972 6.92659 6.88329
#
# Compressibility (1/GPa) = 0.01483883
#
# Stress axis : x y z
#
# Youngs Moduli (GPa) = 107.08222 105.34959 68.01217
#
# Poissons Ratio (x) = 0.02682 0.29118
# Poissons Ratio (y) = 0.02726 0.32726
# Poissons Ratio (z) = 0.45844 0.50693
#
# Static dielectric constant tensor:
#      x y z
#    x 4.406560 0.000000 0.000000 
#    y 0.000000 4.419590 0.000000 
#    z 0.000000 0.000000 3.938480 
# 
# 
# High freq. dielectric constant tensor:
#      x y z
#    x 1.936200 0.000000 0.000000 
#    y 0.000000 1.941370 0.000000 
#    z 0.000000 0.000000 1.902950 
# 
# From -- ./inp_files/4588.got.cif
#   From: 2010.03.12/outbox.cif.g09.slc.cpg/sg19_3_cif.got.tgz:4588.got - 2010.04.10 18:59:41.
