data_PCOD8157446
_publ_section_title
;
Structure prediction by ZEFSAII (Michael W. Deem and Ramdas Pophale) SiO2 
 PCOD8157446
Probable space group: P 21 21 21
;
_chemical_formula_sum "Si O2"
_cell_formula_units_Z 20
_cell_length_a 4.849150
_cell_length_b 18.705461
_cell_length_c 8.559600
_cell_angle_alpha 90.000000
_cell_angle_beta 90.000000
_cell_angle_gamma 90.000000
_cell_volume 776.403536
_symmetry_space_group_name_H-M "P 21 21 21"
_symmetry_group_IT_number 19
_symmetry_cell_setting 'orthorhombic'
loop_
_space_group_symop_operation_xyz
x,y,z
1/2-x,-y,1/2+z
1/2+x,1/2-y,-z
-x,1/2+y,1/2-z
loop_
_atom_site_type_symbol
_atom_site_label
_atom_site_fract_x
_atom_site_fract_y
_atom_site_fract_z
Si Si1 0.153548 0.228200 0.596912
Si Si2 0.855728 0.048985 0.342828
Si Si3 0.928952 0.282037 0.921751
Si Si4 0.524596 0.558071 0.440161
Si Si5 0.164903 0.920615 0.030062
O O1 0.400852 0.274689 0.524399
O O2 0.058457 0.268064 0.753051
O O3 0.263858 0.148152 0.636689
O O4 0.905267 0.964635 0.388560
O O5 0.741951 0.058512 0.171513
O O6 0.650090 0.080264 0.476935
O O7 0.150419 0.088468 0.369362
O O8 0.838821 0.364468 0.944629
O O9 0.154693 0.264319 0.054653
O O10 0.744861 0.495859 0.384772
#
# Coordination Sequence:
#
# PCOD8157446 Si02
#       5
#     4   4   4   4   4
#     4  12  25  46  72 102 142 185 234 282 353 416
#     4  10  24  41  72  96 130 173 230 285 328 398
#     4  12  29  45  70 104 149 182 226 294 358 412
#     4  10  26  43  71  97 140 173 237 273 345 400
#     4  10  24  39  71  95 133 175 233 270 334 404
#
# _framework density 25.759801
#
# number of rings (size 3 to 8) (size 9 to 14) (size 15 to 20)
#    1.200    0.000    0.000    4.800    8.400    1.600 
#    0.000    0.000    0.000    0.000    0.000    0.000 
#    0.000    0.000    0.000    0.000    0.000    0.000 
#
# Total GULP energy -247886.506617 kJ/mol
# GULP energy per Si atom -12394.325331 kJ/mol
# Density = 2.570117 g / cm^3
# Si number density = 25.759801 Si / 1000 Ang^3
#
#
#
# Elastic Constant Matrix: (Units=GPa)
#
#
# Indices 1 2 3 4 5 6 
#
# 1 68.1557 30.1584 -23.9701 0.0000 0.0000 0.0000
# 2 30.1584 180.1790 19.7238 0.0000 0.0000 0.0000
# 3 -23.9701 19.7238 27.4892 0.0000 0.0000 0.0000
# 4 0.0000 0.0000 0.0000 29.0131 0.0000 0.0000
# 5 0.0000 0.0000 0.0000 0.0000 29.4268 0.0000
# 6 0.0000 0.0000 0.0000 0.0000 0.0000 31.3620
#
#
#
# Elastic Compliance Matrix: (Units=1/GPa)
#
#
# Indices 1 2 3 4 5 6 
#
# 1 0.029633 -0.008452 0.031904 0.000000 0.000000 0.000000
# 2 -0.008452 0.008434 -0.013422 0.000000 0.000000 0.000000
# 3 0.031904 -0.013422 0.073828 0.000000 0.000000 0.000000
# 4 0.000000 0.000000 0.000000 0.034467 0.000000 0.000000
# 5 0.000000 0.000000 0.000000 0.000000 0.033983 0.000000
# 6 0.000000 0.000000 0.000000 0.000000 0.000000 0.031886
#
#
# Mechanical properties :
#
#
# Convention : Reuss Voigt Hill
#
# Bulk Modulus (GPa) = 7.57838 36.40533 21.99185
# Shear Modulus (GPa) = 21.17248 34.62118 27.89683
#
# Velocity S-wave (km/s) = 2.87002 3.67004 3.29441
# Velocity P-wave (km/s) = 3.73243 5.66765 4.79861
#
# Compressibility (1/GPa) = 0.13195436
#
# Stress axis : x y z
#
# Youngs Moduli (GPa) = 33.74622 118.56684 13.54503
#
# Poissons Ratio (x) = 1.00218 -0.43214
# Poissons Ratio (y) = 0.28524 0.18180
# Poissons Ratio (z) = -1.07664 1.59139
#
# Static dielectric constant tensor:
#      x y z
#    x 4.700930 0.000000 0.000000 
#    y 0.000000 4.678150 0.000000 
#    z 0.000000 0.000000 4.199200 
# 
# 
# High freq. dielectric constant tensor:
#      x y z
#    x 2.043130 0.000000 0.000000 
#    y 0.000000 2.031680 0.000000 
#    z 0.000000 0.000000 2.007170 
# 
# From -- ./inp_files/436.got.cif
#   From: 2010.03.12/outbox.cif.g09.slc.cpg/sg19_1_cif.got.tgz:436.got - 2010.04.10 18:59:41.
