data_PCOD8157045
_publ_section_title
;
Structure prediction by ZEFSAII (Michael W. Deem and Ramdas Pophale) SiO2 
 PCOD8157045
Probable space group: P 21 21 21
;
_chemical_formula_sum "Si O2"
_cell_formula_units_Z 20
_cell_length_a 8.991599
_cell_length_b 4.959689
_cell_length_c 18.846501
_cell_angle_alpha 90.000000
_cell_angle_beta 90.000000
_cell_angle_gamma 90.000000
_cell_volume 840.469788
_symmetry_space_group_name_H-M "P 21 21 21"
_symmetry_group_IT_number 19
_symmetry_cell_setting 'orthorhombic'
loop_
_space_group_symop_operation_xyz
x,y,z
1/2-x,-y,1/2+z
1/2+x,1/2-y,-z
-x,1/2+y,1/2-z
loop_
_atom_site_type_symbol
_atom_site_label
_atom_site_fract_x
_atom_site_fract_y
_atom_site_fract_z
Si Si1 0.015632 0.998303 0.552944
Si Si2 0.933091 0.638600 0.339807
Si Si3 0.854712 0.510817 0.494791
Si Si4 0.315077 0.362761 0.736184
Si Si5 0.532460 0.424358 0.281293
O O1 0.046278 0.072851 0.634164
O O2 0.908422 0.214639 0.515828
O O3 0.175201 0.978535 0.512454
O O4 0.921781 0.720506 0.551965
O O5 0.936646 0.596386 0.422850
O O6 0.831061 0.430044 0.299062
O O7 0.100581 0.604041 0.310510
O O8 0.868657 0.933056 0.323907
O O9 0.141179 0.331071 0.751999
O O10 0.595786 0.709805 0.246764
#
# Coordination Sequence:
#
# PCOD8157045 Si02
#       5
#     4   4   4   4   4
#     4  12  28  47  75 107 148 197 246 297 375 437
#     4  10  21  40  71  96 131 180 232 289 345 417
#     4  12  26  47  76 107 150 196 243 306 361 450
#     4  10  21  40  68 101 129 176 235 283 351 421
#     4  12  26  44  72 101 144 187 234 303 366 435
#
# _framework density 23.796216000000001
#
# number of rings (size 3 to 8) (size 9 to 14) (size 15 to 20)
#    0.000    0.800    2.000    4.800    2.800    4.800 
#    0.000    0.000    0.000    0.000    0.000    0.000 
#    0.000    0.000    0.000    0.000    0.000    0.000 
#
# Total GULP energy -247790.070218 kJ/mol
# GULP energy per Si atom -12389.503511 kJ/mol
# Density = 2.374206 g / cm^3
# Si number density = 23.796216 Si / 1000 Ang^3
#
#
#
# Elastic Constant Matrix: (Units=GPa)
#
#
# Indices 1 2 3 4 5 6 
#
# 1 98.4554 33.9364 17.4746 0.0000 0.0000 0.0000
# 2 33.9364 142.7977 15.7430 0.0000 0.0000 0.0000
# 3 17.4746 15.7430 65.7357 0.0000 0.0000 0.0000
# 4 0.0000 0.0000 0.0000 123.3079 0.0000 0.0000
# 5 0.0000 0.0000 0.0000 0.0000 27.5281 0.0000
# 6 0.0000 0.0000 0.0000 0.0000 0.0000 13.6180
#
#
#
# Elastic Compliance Matrix: (Units=1/GPa)
#
#
# Indices 1 2 3 4 5 6 
#
# 1 0.011436 -0.002447 -0.002454 0.000000 0.000000 0.000000
# 2 -0.002447 0.007717 -0.001197 0.000000 0.000000 0.000000
# 3 -0.002454 -0.001197 0.016152 0.000000 0.000000 0.000000
# 4 0.000000 0.000000 0.000000 0.008110 0.000000 0.000000
# 5 0.000000 0.000000 0.000000 0.000000 0.036327 0.000000
# 6 0.000000 0.000000 0.000000 0.000000 0.000000 0.073432
#
#
# Mechanical properties :
#
#
# Convention : Reuss Voigt Hill
#
# Bulk Modulus (GPa) = 43.27749 49.03299 46.15524
# Shear Modulus (GPa) = 28.88969 48.87979 38.88474
#
# Velocity S-wave (km/s) = 3.48810 4.53713 4.04675
# Velocity P-wave (km/s) = 5.86929 6.93524 6.42441
#
# Compressibility (1/GPa) = 0.02310670
#
# Stress axis : x y z
#
# Youngs Moduli (GPa) = 87.44341 129.59186 61.91356
#
# Poissons Ratio (x) = 0.31715 0.15193
# Poissons Ratio (y) = 0.21400 0.07414
# Poissons Ratio (z) = 0.21458 0.15518
#
# Static dielectric constant tensor:
#      x y z
#    x -1.446420 0.000000 0.000000 
#    y 0.000000 4.881270 0.000000 
#    z 0.000000 0.000000 4.075620 
# 
# 
# High freq. dielectric constant tensor:
#      x y z
#    x 1.968230 0.000000 0.000000 
#    y 0.000000 1.983680 0.000000 
#    z 0.000000 0.000000 1.927130 
# 
# From -- ./inp_files/383.got.cif
#   From: 2010.03.12/outbox.cif.g09.slc.cpg/sg19_1_cif.got.tgz:383.got - 2010.04.10 18:59:41.
