data_PCOD8157435
_publ_section_title
;
Structure prediction by ZEFSAII (Michael W. Deem and Ramdas Pophale) SiO2 
 PCOD8157435
Probable space group: P 21 21 21
;
_chemical_formula_sum "Si O2"
_cell_formula_units_Z 24
_cell_length_a 8.382718
_cell_length_b 11.015790
_cell_length_c 11.632983
_cell_angle_alpha 90.000000
_cell_angle_beta 90.000000
_cell_angle_gamma 90.000000
_cell_volume 1074.215954
_symmetry_space_group_name_H-M "P 21 21 21"
_symmetry_group_IT_number 19
_symmetry_cell_setting 'orthorhombic'
loop_
_space_group_symop_operation_xyz
x,y,z
1/2-x,-y,1/2+z
1/2+x,1/2-y,-z
-x,1/2+y,1/2-z
loop_
_atom_site_type_symbol
_atom_site_label
_atom_site_fract_x
_atom_site_fract_y
_atom_site_fract_z
Si Si1 0.271356 0.422996 0.309380
Si Si2 0.238190 0.806837 0.158581
Si Si3 0.104794 0.954236 0.730191
Si Si4 0.124327 0.657194 0.374014
Si Si5 0.725105 0.246200 0.896297
Si Si6 0.428300 0.211477 0.432176
O O1 0.428925 0.503531 0.298939
O O2 0.135445 0.511325 0.360143
O O3 0.218285 0.371689 0.185514
O O4 0.299271 0.313685 0.397549
O O5 0.184732 0.715750 0.256497
O O6 0.395230 0.758085 0.095013
O O7 0.267738 0.938638 0.213766
O O8 0.094059 0.815843 0.066950
O O9 0.140993 0.839694 0.648157
O O10 0.112331 0.911429 0.862615
O O11 0.235298 0.703638 0.476328
O O12 0.942919 0.687143 0.399817
#
# Coordination Sequence:
#
# PCOD8157435 Si02
#       6
#     4   4   4   4   4   4
#     4  10  24  48  72 102 146 187 238 305 353 429
#     4  11  26  43  75 102 144 187 238 296 360 431
#     4  10  23  47  73 102 143 190 234 292 368 420
#     4  12  27  47  72 107 144 192 245 293 368 425
#     4  11  28  46  76 107 147 191 247 297 362 434
#     4  10  24  45  70 106 140 185 240 293 363 423
#
# _framework density 22.341875000000002
#
# number of rings (size 3 to 8) (size 9 to 14) (size 15 to 20)
#    0.000    1.333    1.667    1.000   16.333    0.000 
#    0.000    0.000    0.000    0.000    0.000    0.000 
#    0.000    0.000    0.000    0.000    0.000    0.000 
#
# Total GULP energy -297738.835317 kJ/mol
# GULP energy per Si atom -12405.784805 kJ/mol
# Density = 2.229102 g / cm^3
# Si number density = 22.341875 Si / 1000 Ang^3
#
#
#
# Elastic Constant Matrix: (Units=GPa)
#
#
# Indices 1 2 3 4 5 6 
#
# 1 94.0845 24.6999 19.2906 0.0000 0.0000 0.0000
# 2 24.6999 84.6785 0.6060 0.0000 0.0000 0.0000
# 3 19.2906 0.6060 77.1408 0.0000 0.0000 0.0000
# 4 0.0000 0.0000 0.0000 30.5868 0.0000 0.0000
# 5 0.0000 0.0000 0.0000 0.0000 36.2386 0.0000
# 6 0.0000 0.0000 0.0000 0.0000 0.0000 35.4103
#
#
#
# Elastic Compliance Matrix: (Units=1/GPa)
#
#
# Indices 1 2 3 4 5 6 
#
# 1 0.012174 -0.003529 -0.003017 0.000000 0.000000 0.000000
# 2 -0.003529 0.012833 0.000782 0.000000 0.000000 0.000000
# 3 -0.003017 0.000782 0.013712 0.000000 0.000000 0.000000
# 4 0.000000 0.000000 0.000000 0.032694 0.000000 0.000000
# 5 0.000000 0.000000 0.000000 0.000000 0.027595 0.000000
# 6 0.000000 0.000000 0.000000 0.000000 0.000000 0.028240
#
#
# Mechanical properties :
#
#
# Convention : Reuss Voigt Hill
#
# Bulk Modulus (GPa) = 36.77792 38.34408 37.56100
# Shear Modulus (GPa) = 33.82046 34.53429 34.17738
#
# Velocity S-wave (km/s) = 3.89494 3.93583 3.91544
# Velocity P-wave (km/s) = 6.06008 6.15256 6.10650
#
# Compressibility (1/GPa) = 0.02719023
#
# Stress axis : x y z
#
# Youngs Moduli (GPa) = 82.14347 77.92246 72.93134
#
# Poissons Ratio (x) = 0.27502 0.22000
# Poissons Ratio (y) = 0.28992 -0.05702
# Poissons Ratio (z) = 0.24779 -0.06092
#
# Static dielectric constant tensor:
#      x y z
#    x 3.997160 0.000000 0.000000 
#    y 0.000000 4.311060 0.000000 
#    z 0.000000 0.000000 4.003640 
# 
# 
# High freq. dielectric constant tensor:
#      x y z
#    x 1.884790 0.000000 0.000000 
#    y 0.000000 1.893890 0.000000 
#    z 0.000000 0.000000 1.881390 
# 
# From -- ./inp_files/3354.got.cif
#   From: 2010.03.12/outbox.cif.g09.slc.cpg/sg19_2_cif.got.tgz:3354.got - 2010.04.10 18:59:41.
