data_PCOD8157839
_publ_section_title
;
Structure prediction by ZEFSAII (Michael W. Deem and Ramdas Pophale) SiO2 
 PCOD8157839
Probable space group: P 21 21 21
;
_chemical_formula_sum "Si O2"
_cell_formula_units_Z 28
_cell_length_a 25.901882
_cell_length_b 5.206749
_cell_length_c 8.495182
_cell_angle_alpha 90.000000
_cell_angle_beta 90.000000
_cell_angle_gamma 90.000000
_cell_volume 1145.699307
_symmetry_space_group_name_H-M "P 21 21 21"
_symmetry_group_IT_number 19
_symmetry_cell_setting 'orthorhombic'
loop_
_space_group_symop_operation_xyz
x,y,z
1/2-x,-y,1/2+z
1/2+x,1/2-y,-z
-x,1/2+y,1/2-z
loop_
_atom_site_type_symbol
_atom_site_label
_atom_site_fract_x
_atom_site_fract_y
_atom_site_fract_z
Si Si1 0.477935 0.901750 0.325742
Si Si2 0.743866 0.264087 0.196937
Si Si3 0.844484 0.379852 0.054534
Si Si4 0.637946 0.556516 0.204589
Si Si5 0.129698 0.373055 0.259447
Si Si6 0.195876 0.600166 0.015877
Si Si7 0.018568 0.240438 0.171971
O O1 0.501659 0.182696 0.292136
O O2 0.415719 0.909783 0.322538
O O3 0.499093 0.823053 0.495850
O O4 0.782233 0.400503 0.072491
O O5 0.686474 0.369208 0.201973
O O6 0.769713 0.274041 0.368027
O O7 0.734712 0.979550 0.124614
O O8 0.865961 0.653940 0.109662
O O9 0.866834 0.153052 0.162058
O O10 0.862143 0.314183 0.877265
O O11 0.646704 0.755115 0.061321
O O12 0.075776 0.351142 0.172642
O O13 0.173160 0.362892 0.120933
O O14 0.982704 0.474107 0.230839
#
# Coordination Sequence:
#
# PCOD8157839 Si02
#       7
#     4   4   4   4   4   4   4
#     4  12  32  54  79 117 155 204 269 329 391 461
#     4  11  26  45  76 113 156 203 262 313 394 473
#     4  11  28  46  78 112 157 200 255 311 389 478
#     4  12  29  48  80 107 161 208 257 329 396 461
#     4  11  28  50  73 113 153 203 258 318 388 470
#     4  11  27  46  76 112 160 206 259 316 394 473
#     4  12  28  51  84 110 152 204 264 332 392 456
#
# _framework density 24.439219999999999
#
# number of rings (size 3 to 8) (size 9 to 14) (size 15 to 20)
#    0.000    0.571    0.000    4.286   32.000    0.000 
#    0.000    0.000    0.000    0.000    0.000    0.000 
#    0.000    0.000    0.000    0.000    0.000    0.000 
#
# Total GULP energy -347140.115156 kJ/mol
# GULP energy per Si atom -12397.861256 kJ/mol
# Density = 2.438360 g / cm^3
# Si number density = 24.439220 Si / 1000 Ang^3
#
#
#
# Elastic Constant Matrix: (Units=GPa)
#
#
# Indices 1 2 3 4 5 6 
#
# 1 101.1293 29.0025 33.2251 0.0000 0.0000 0.0000
# 2 29.0025 116.0738 42.7382 0.0000 0.0000 0.0000
# 3 33.2251 42.7382 144.9908 0.0000 0.0000 0.0000
# 4 0.0000 0.0000 0.0000 38.2786 0.0000 0.0000
# 5 0.0000 0.0000 0.0000 0.0000 33.5489 0.0000
# 6 0.0000 0.0000 0.0000 0.0000 0.0000 42.6151
#
#
#
# Elastic Compliance Matrix: (Units=1/GPa)
#
#
# Indices 1 2 3 4 5 6 
#
# 1 0.011117 -0.002064 -0.001939 0.000000 0.000000 0.000000
# 2 -0.002064 0.010047 -0.002489 0.000000 0.000000 0.000000
# 3 -0.001939 -0.002489 0.008075 0.000000 0.000000 0.000000
# 4 0.000000 0.000000 0.000000 0.026124 0.000000 0.000000
# 5 0.000000 0.000000 0.000000 0.000000 0.029807 0.000000
# 6 0.000000 0.000000 0.000000 0.000000 0.000000 0.023466
#
#
# Mechanical properties :
#
#
# Convention : Reuss Voigt Hill
#
# Bulk Modulus (GPa) = 61.51526 63.56949 62.54238
# Shear Modulus (GPa) = 39.35806 40.03707 39.69756
#
# Velocity S-wave (km/s) = 4.01739 4.05190 4.03468
# Velocity P-wave (km/s) = 6.83700 6.92519 6.88124
#
# Compressibility (1/GPa) = 0.01625613
#
# Stress axis : x y z
#
# Youngs Moduli (GPa) = 89.94977 99.53042 123.84002
#
# Poissons Ratio (x) = 0.20541 0.24016
# Poissons Ratio (y) = 0.18564 0.30819
# Poissons Ratio (z) = 0.17443 0.24769
#
# Static dielectric constant tensor:
#      x y z
#    x 4.509760 0.000000 0.000000 
#    y 0.000000 4.293210 0.000000 
#    z 0.000000 0.000000 4.821260 
# 
# 
# High freq. dielectric constant tensor:
#      x y z
#    x 1.980310 0.000000 0.000000 
#    y 0.000000 1.967410 0.000000 
#    z 0.000000 0.000000 1.986910 
# 
# From -- ./inp_files/4349.got.cif
#   From: 2010.03.12/outbox.cif.g09.slc.cpg/sg19_3_cif.got.tgz:4349.got - 2010.04.10 18:59:41.
