data_PCOD8157878
_publ_section_title
;
Structure prediction by ZEFSAII (Michael W. Deem and Ramdas Pophale) SiO2 
 PCOD8157878
Probable space group: P 21 21 21
;
_chemical_formula_sum "Si O2"
_cell_formula_units_Z 20
_cell_length_a 6.879450
_cell_length_b 6.784889
_cell_length_c 19.285179
_cell_angle_alpha 90.000000
_cell_angle_beta 90.000000
_cell_angle_gamma 90.000000
_cell_volume 900.160890
_symmetry_space_group_name_H-M "P 21 21 21"
_symmetry_group_IT_number 19
_symmetry_cell_setting 'orthorhombic'
loop_
_space_group_symop_operation_xyz
x,y,z
1/2-x,-y,1/2+z
1/2+x,1/2-y,-z
-x,1/2+y,1/2-z
loop_
_atom_site_type_symbol
_atom_site_label
_atom_site_fract_x
_atom_site_fract_y
_atom_site_fract_z
Si Si1 0.135531 0.941767 0.570508
Si Si2 0.775461 0.040415 0.261070
Si Si3 0.557999 0.747908 0.161661
Si Si4 0.308957 0.885885 0.425893
Si Si5 0.463205 0.768037 0.655626
O O1 0.301091 0.916715 0.628184
O O2 0.999306 0.748851 0.564376
O O3 0.018568 0.134050 0.594416
O O4 0.241780 0.983981 0.497815
O O5 0.605742 0.189924 0.282406
O O6 0.953401 0.160874 0.228876
O O7 0.707695 0.882077 0.203748
O O8 0.854739 0.939118 0.330859
O O9 0.657786 0.551911 0.132068
O O10 0.133523 0.748842 0.400356
#
# Coordination Sequence:
#
# PCOD8157878 Si02
#       5
#     4   4   4   4   4
#     4  12  26  48  73 104 147 188 244 300 348 421
#     4  12  24  44  72 108 146 184 242 290 360 434
#     4  12  26  46  74 108 148 188 236 300 358 426
#     4  12  26  48  73 104 147 188 244 300 348 421
#     4  12  24  44  74 100 142 194 232 292 360 416
#
# _framework density 22.218249
#
# number of rings (size 3 to 8) (size 9 to 14) (size 15 to 20)
#    0.000    0.000    6.000    4.800    0.000    4.800 
#    0.000    0.000    0.000    0.000    0.000    0.000 
#    0.000    0.000    0.000    0.000    0.000    0.000 
#
# Total GULP energy -248114.080943 kJ/mol
# GULP energy per Si atom -12405.704047 kJ/mol
# Density = 2.216768 g / cm^3
# Si number density = 22.218249 Si / 1000 Ang^3
#
#
#
# Elastic Constant Matrix: (Units=GPa)
#
#
# Indices 1 2 3 4 5 6 
#
# 1 91.3589 15.8135 20.7750 0.0000 0.0000 0.0000
# 2 15.8135 68.5393 11.3337 0.0000 0.0000 0.0000
# 3 20.7750 11.3337 83.5276 0.0000 0.0000 0.0000
# 4 0.0000 0.0000 0.0000 44.7125 0.0000 0.0000
# 5 0.0000 0.0000 0.0000 0.0000 50.5723 0.0000
# 6 0.0000 0.0000 0.0000 0.0000 0.0000 28.1668
#
#
#
# Elastic Compliance Matrix: (Units=1/GPa)
#
#
# Indices 1 2 3 4 5 6 
#
# 1 0.011951 -0.002318 -0.002658 0.000000 0.000000 0.000000
# 2 -0.002318 0.015375 -0.001510 0.000000 0.000000 0.000000
# 3 -0.002658 -0.001510 0.012838 0.000000 0.000000 0.000000
# 4 0.000000 0.000000 0.000000 0.022365 0.000000 0.000000
# 5 0.000000 0.000000 0.000000 0.000000 0.019774 0.000000
# 6 0.000000 0.000000 0.000000 0.000000 0.000000 0.035503
#
#
# Mechanical properties :
#
#
# Convention : Reuss Voigt Hill
#
# Bulk Modulus (GPa) = 36.77431 37.69668 37.23550
# Shear Modulus (GPa) = 35.75483 37.72389 36.73936
#
# Velocity S-wave (km/s) = 4.01590 4.12500 4.07082
# Velocity P-wave (km/s) = 6.17176 6.30007 6.23625
#
# Compressibility (1/GPa) = 0.02719289
#
# Stress axis : x y z
#
# Youngs Moduli (GPa) = 83.67156 65.04232 77.89351
#
# Poissons Ratio (x) = 0.15076 0.20705
# Poissons Ratio (y) = 0.19395 0.11759
# Poissons Ratio (z) = 0.22240 0.09819
#
# Static dielectric constant tensor:
#      x y z
#    x 4.135060 0.000000 0.000000 
#    y 0.000000 3.860780 0.000000 
#    z 0.000000 0.000000 3.954170 
# 
# 
# High freq. dielectric constant tensor:
#      x y z
#    x 1.893000 0.000000 0.000000 
#    y 0.000000 1.869230 0.000000 
#    z 0.000000 0.000000 1.880180 
# 
# From -- ./inp_files/127.got.cif
#   From: 2010.03.12/outbox.cif.g09.slc.cpg/sg19_1_cif.got.tgz:127.got - 2010.04.10 18:59:41.
