data_PCOD8157958
_publ_section_title
;
Structure prediction by ZEFSAII (Michael W. Deem and Ramdas Pophale) SiO2 
 PCOD8157958
Probable space group: C 2 2 21
;
_chemical_formula_sum "Si O2"
_cell_formula_units_Z 52
_cell_length_a 15.131412
_cell_length_b 8.940373
_cell_length_c 19.763390
_cell_angle_alpha 90.000000
_cell_angle_beta 90.000000
_cell_angle_gamma 90.000000
_cell_volume 2673.600635
_symmetry_space_group_name_H-M "C 2 2 21"
_symmetry_group_IT_number 20
_symmetry_cell_setting 'orthorhombic'
loop_
_space_group_symop_operation_xyz
x,y,z
-x,-y,1/2+z
x,-y,-z
-x,y,1/2-z
1/2+x,1/2+y,z
1/2-x,1/2-y,1/2+z
1/2+x,1/2-y,-z
1/2-x,1/2+y,1/2-z
loop_
_atom_site_type_symbol
_atom_site_label
_atom_site_fract_x
_atom_site_fract_y
_atom_site_fract_z
Si Si1 0.000000 0.363859 0.250000
Si Si2 0.237237 0.396708 0.825893
Si Si3 0.452966 0.562550 0.679193
Si Si4 0.110743 0.540759 0.573794
Si Si5 0.080781 0.162954 0.361862
Si Si6 0.051794 0.404699 0.859012
Si Si7 0.749219 0.551401 0.811426
O O1 0.932528 0.261709 0.206917
O O2 0.948754 0.474487 0.299541
O O3 0.331134 0.441908 0.858391
O O4 0.156182 0.410975 0.880155
O O5 0.214038 0.485756 0.758115
O O6 0.251191 0.227120 0.803927
O O7 0.500000 0.525053 0.750000
O O8 0.501453 0.453747 0.624853
O O9 0.468425 0.736070 0.664149
O O10 0.352498 0.504543 0.676827
O O11 0.147579 0.500000 0.500000
O O12 0.089485 0.718390 0.576861
O O13 0.186381 0.495081 0.628042
O O14 0.019182 0.448639 0.584148
#
# Coordination Sequence:
#
# PCOD8157958 Si02
#       7
#     4   8   8   8   8   8   8
#     4  10  16  30  48  80 108 150 172 214 280 326
#     4  10  18  31  51  87 110 137 173 227 296 328
#     4  11  19  33  54  93 121 134 163 231 307 346
#     4  10  23  42  55  72 106 161 204 223 258 335
#     4  10  19  33  56  79 118 140 177 231 280 341
#     4  10  20  31  54  78 111 142 183 226 272 327
#     4  10  21  32  58  83 117 143 178 232 284 345
#
# _framework density 19.449425999999999
#
# number of rings (size 3 to 8) (size 9 to 14) (size 15 to 20)
#    0.000    1.846    3.077    2.769    2.154    1.231 
#    0.000    5.385    0.000    0.000    0.000    0.000 
#    0.000    0.000    0.000    0.000    0.000    0.000 
#
# Total GULP energy -322098.959856 kJ/mol
# GULP energy per Si atom -12388.421533 kJ/mol
# Density = 1.940516 g / cm^3
# Si number density = 19.449426 Si / 1000 Ang^3
#
#
#
# Elastic Constant Matrix: (Units=GPa)
#
#
# Indices 1 2 3 4 5 6 
#
# 1 154.7683 31.9953 21.7038 0.0000 0.0000 0.0000
# 2 31.9953 56.4853 5.9587 0.0000 0.0000 0.0000
# 3 21.7038 5.9587 38.7356 0.0000 0.0000 0.0000
# 4 0.0000 0.0000 0.0000 11.5360 0.0000 0.0000
# 5 0.0000 0.0000 0.0000 0.0000 12.0642 0.0000
# 6 0.0000 0.0000 0.0000 0.0000 0.0000 24.2402
#
#
#
# Elastic Compliance Matrix: (Units=1/GPa)
#
#
# Indices 1 2 3 4 5 6 
#
# 1 0.007823 -0.004034 -0.003763 0.000000 0.000000 0.000000
# 2 -0.004034 0.020076 -0.000828 0.000000 0.000000 0.000000
# 3 -0.003763 -0.000828 0.028052 0.000000 0.000000 0.000000
# 4 0.000000 0.000000 0.000000 0.086685 0.000000 0.000000
# 5 0.000000 0.000000 0.000000 0.000000 0.082890 0.000000
# 6 0.000000 0.000000 0.000000 0.000000 0.000000 0.041254
#
#
# Mechanical properties :
#
#
# Convention : Reuss Voigt Hill
#
# Bulk Modulus (GPa) = 25.83903 41.03387 33.43645
# Shear Modulus (GPa) = 16.83900 22.25684 19.54792
#
# Velocity S-wave (km/s) = 2.94561 3.38649 3.17371
# Velocity P-wave (km/s) = 4.98828 6.03611 5.53703
#
# Compressibility (1/GPa) = 0.03870114
#
# Stress axis : x y z
#
# Youngs Moduli (GPa) = 127.82938 49.81022 35.64859
#
# Poissons Ratio (x) = 0.20095 0.13413
# Poissons Ratio (y) = 0.51570 0.02951
# Poissons Ratio (z) = 0.48098 0.04124
#
# Static dielectric constant tensor:
#      x y z
#    x 4.391700 0.000000 0.000000 
#    y 0.000000 3.648640 0.000000 
#    z 0.000000 0.000000 2.993900 
# 
# 
# High freq. dielectric constant tensor:
#      x y z
#    x 1.786490 0.000000 0.000000 
#    y 0.000000 1.764050 0.000000 
#    z 0.000000 0.000000 1.688210 
# 
# From -- ./inp_files/27521.got.cif
#   From: 2010.03.12/outbox.cif.g09.slc.cpg/sg20_14_cif.got.tgz:27521.got - 2010.04.14 01:38:04.
