data_PCOD8157606
_publ_section_title
;
Structure prediction by ZEFSAII (Michael W. Deem and Ramdas Pophale) SiO2 
 PCOD8157606
Probable space group: P 21 21 21
;
_chemical_formula_sum "Si O2"
_cell_formula_units_Z 28
_cell_length_a 7.124447
_cell_length_b 9.418788
_cell_length_c 21.316549
_cell_angle_alpha 90.000000
_cell_angle_beta 90.000000
_cell_angle_gamma 90.000000
_cell_volume 1430.418369
_symmetry_space_group_name_H-M "P 21 21 21"
_symmetry_group_IT_number 19
_symmetry_cell_setting 'orthorhombic'
loop_
_space_group_symop_operation_xyz
x,y,z
1/2-x,-y,1/2+z
1/2+x,1/2-y,-z
-x,1/2+y,1/2-z
loop_
_atom_site_type_symbol
_atom_site_label
_atom_site_fract_x
_atom_site_fract_y
_atom_site_fract_z
Si Si1 0.724003 0.980150 0.133958
Si Si2 0.299355 0.990918 0.139234
Si Si3 0.736297 0.562412 0.998328
Si Si4 0.806140 0.890596 0.996655
Si Si5 0.496199 0.788400 0.672298
Si Si6 0.018592 0.767756 0.184946
Si Si7 0.516113 0.000686 0.898875
O O1 0.514493 0.990493 0.162026
O O2 0.829836 0.129956 0.140363
O O3 0.833630 0.861355 0.173307
O O4 0.709819 0.936876 0.061366
O O5 0.189410 0.114280 0.176055
O O6 0.200751 0.839736 0.153155
O O7 0.287816 0.021700 0.064948
O O8 0.515532 0.552161 0.007897
O O9 0.832589 0.487422 0.057539
O O10 0.814610 0.721449 0.992790
O O11 0.695724 0.958189 0.939361
O O12 0.557009 0.744630 0.741685
O O13 0.446041 0.651519 0.631895
O O14 0.983886 0.614016 0.155514
#
# Coordination Sequence:
#
# PCOD8157606 Si02
#       7
#     4   4   4   4   4   4   4
#     4  11  22  43  68  92 130 170 212 270 324 373
#     4  11  22  43  68  92 130 170 212 270 324 373
#     4  12  20  38  66  96 124 159 217 274 319 373
#     4  12  20  38  66  96 124 159 217 274 319 373
#     4  11  27  45  59  97 141 177 205 257 333 391
#     4  11  23  45  69  89 129 175 220 263 304 389
#     4  12  24  38  70  98 126 168 219 266 325 388
#
# _framework density 19.574693
#
# number of rings (size 3 to 8) (size 9 to 14) (size 15 to 20)
#    0.000    0.571    8.571    1.714    0.000    3.429 
#    0.000    2.857    0.000    0.000    0.000    0.000 
#    0.000    0.000    0.000    0.000    0.000    0.000 
#
# Total GULP energy -347376.526512 kJ/mol
# GULP energy per Si atom -12406.304518 kJ/mol
# Density = 1.953014 g / cm^3
# Si number density = 19.574693 Si / 1000 Ang^3
#
#
#
# Elastic Constant Matrix: (Units=GPa)
#
#
# Indices 1 2 3 4 5 6 
#
# 1 124.5443 16.6461 -1.8322 0.0000 0.0000 0.0000
# 2 16.6461 84.6654 21.5062 0.0000 0.0000 0.0000
# 3 -1.8322 21.5062 89.9780 0.0000 0.0000 0.0000
# 4 0.0000 0.0000 0.0000 21.3980 0.0000 0.0000
# 5 0.0000 0.0000 0.0000 0.0000 15.2002 0.0000
# 6 0.0000 0.0000 0.0000 0.0000 0.0000 16.3673
#
#
#
# Elastic Compliance Matrix: (Units=1/GPa)
#
#
# Indices 1 2 3 4 5 6 
#
# 1 0.008276 -0.001778 0.000593 0.000000 0.000000 0.000000
# 2 -0.001778 0.012957 -0.003133 0.000000 0.000000 0.000000
# 3 0.000593 -0.003133 0.011875 0.000000 0.000000 0.000000
# 4 0.000000 0.000000 0.000000 0.046733 0.000000 0.000000
# 5 0.000000 0.000000 0.000000 0.000000 0.065788 0.000000
# 6 0.000000 0.000000 0.000000 0.000000 0.000000 0.061097
#
#
# Mechanical properties :
#
#
# Convention : Reuss Voigt Hill
#
# Bulk Modulus (GPa) = 40.86281 41.31422 41.08852
# Shear Modulus (GPa) = 22.36954 28.11762 25.24358
#
# Velocity S-wave (km/s) = 3.38417 3.79413 3.59500
# Velocity P-wave (km/s) = 6.01588 6.35183 6.18613
#
# Compressibility (1/GPa) = 0.02447213
#
# Stress axis : x y z
#
# Youngs Moduli (GPa) = 120.83690 77.18094 84.21225
#
# Poissons Ratio (x) = 0.13721 -0.04997
# Poissons Ratio (y) = 0.21483 0.26384
# Poissons Ratio (z) = -0.07171 0.24181
#
# Static dielectric constant tensor:
#      x y z
#    x 3.667480 0.000000 0.000000 
#    y 0.000000 3.512810 0.000000 
#    z 0.000000 0.000000 3.616610 
# 
# 
# High freq. dielectric constant tensor:
#      x y z
#    x 1.769640 0.000000 0.000000 
#    y 0.000000 1.755540 0.000000 
#    z 0.000000 0.000000 1.765690 
# 
# From -- ./inp_files/7027.got.cif
#   From: 2010.03.12/outbox.cif.g09.slc.cpg/sg19_4_cif.got.tgz:7027.got - 2010.04.10 18:59:41.
