data_PCOD8157803
_publ_section_title
;
Structure prediction by ZEFSAII (Michael W. Deem and Ramdas Pophale) SiO2 
 PCOD8157803
Probable space group: P 21 21 21
;
_chemical_formula_sum "Si O2"
_cell_formula_units_Z 24
_cell_length_a 11.118227
_cell_length_b 17.720045
_cell_length_c 4.913756
_cell_angle_alpha 90.000000
_cell_angle_beta 90.000000
_cell_angle_gamma 90.000000
_cell_volume 968.086011
_symmetry_space_group_name_H-M "P 21 21 21"
_symmetry_group_IT_number 19
_symmetry_cell_setting 'orthorhombic'
loop_
_space_group_symop_operation_xyz
x,y,z
1/2-x,-y,1/2+z
1/2+x,1/2-y,-z
-x,1/2+y,1/2-z
loop_
_atom_site_type_symbol
_atom_site_label
_atom_site_fract_x
_atom_site_fract_y
_atom_site_fract_z
Si Si1 0.038708 0.206578 0.389610
Si Si2 0.104316 0.671334 0.598873
Si Si3 0.263640 0.547514 0.888719
Si Si4 0.992449 0.373648 0.441080
Si Si5 0.289970 0.044434 0.815702
Si Si6 0.215873 0.823535 0.671232
O O1 0.178800 0.185345 0.392063
O O2 0.999438 0.198021 0.698077
O O3 0.015101 0.293450 0.292748
O O4 0.960059 0.152909 0.188553
O O5 0.171870 0.600479 0.725052
O O6 0.194879 0.740837 0.546438
O O7 0.301025 0.486679 0.656690
O O8 0.378511 0.591163 0.014990
O O9 0.929033 0.435285 0.245200
O O10 0.904083 0.360761 0.698672
O O11 0.218550 0.022212 0.540131
O O12 0.267292 0.878763 0.436340
#
# Coordination Sequence:
#
# PCOD8157803 Si02
#       6
#     4   4   4   4   4   4
#     4  11  25  44  80 104 149 182 259 313 368 437
#     4  11  25  47  72 112 139 197 252 305 367 454
#     4  12  29  50  75 106 156 201 246 300 380 452
#     4  11  26  50  74 110 151 196 246 321 373 439
#     4  12  26  45  72 108 150 192 243 304 381 443
#     4  11  25  48  77 110 143 202 250 311 373 433
#
# _framework density 24.791188999999999
#
# number of rings (size 3 to 8) (size 9 to 14) (size 15 to 20)
#    0.000    0.667    5.000    1.000    4.667    4.000 
#    0.000    0.000    0.000    0.000    0.000    0.000 
#    0.000    0.000    0.000    0.000    0.000    0.000 
#
# Total GULP energy -297501.850849 kJ/mol
# GULP energy per Si atom -12395.910452 kJ/mol
# Density = 2.473476 g / cm^3
# Si number density = 24.791189 Si / 1000 Ang^3
#
#
#
# Elastic Constant Matrix: (Units=GPa)
#
#
# Indices 1 2 3 4 5 6 
#
# 1 72.5447 19.2755 -0.4842 0.0000 0.0000 0.0000
# 2 19.2755 70.3644 7.8641 0.0000 0.0000 0.0000
# 3 -0.4842 7.8641 85.9589 0.0000 0.0000 0.0000
# 4 0.0000 0.0000 0.0000 24.7895 0.0000 0.0000
# 5 0.0000 0.0000 0.0000 0.0000 30.9274 0.0000
# 6 0.0000 0.0000 0.0000 0.0000 0.0000 28.7884
#
#
#
# Elastic Compliance Matrix: (Units=1/GPa)
#
#
# Indices 1 2 3 4 5 6 
#
# 1 0.014885 -0.004129 0.000462 0.000000 0.000000 0.000000
# 2 -0.004129 0.015504 -0.001442 0.000000 0.000000 0.000000
# 3 0.000462 -0.001442 0.011768 0.000000 0.000000 0.000000
# 4 0.000000 0.000000 0.000000 0.040340 0.000000 0.000000
# 5 0.000000 0.000000 0.000000 0.000000 0.032334 0.000000
# 6 0.000000 0.000000 0.000000 0.000000 0.000000 0.034736
#
#
# Mechanical properties :
#
#
# Convention : Reuss Voigt Hill
#
# Bulk Modulus (GPa) = 31.31025 31.35318 31.33171
# Shear Modulus (GPa) = 29.33742 30.38192 29.85967
#
# Velocity S-wave (km/s) = 3.44376 3.50453 3.47428
# Velocity P-wave (km/s) = 5.33570 5.38981 5.36282
#
# Compressibility (1/GPa) = 0.03193843
#
# Stress axis : x y z
#
# Youngs Moduli (GPa) = 67.18259 64.49962 84.97652
#
# Poissons Ratio (x) = 0.26633 -0.03923
# Poissons Ratio (y) = 0.27740 0.12251
# Poissons Ratio (z) = -0.03101 0.09299
#
# Static dielectric constant tensor:
#      x y z
#    x 4.226800 0.000000 0.000000 
#    y 0.000000 4.734830 0.000000 
#    z 0.000000 0.000000 4.388450 
# 
# 
# High freq. dielectric constant tensor:
#      x y z
#    x 1.974770 0.000000 0.000000 
#    y 0.000000 1.995650 0.000000 
#    z 0.000000 0.000000 1.986160 
# 
# From -- ./inp_files/431.got.cif
#   From: 2010.03.12/outbox.cif.g09.slc.cpg/sg19_1_cif.got.tgz:431.got - 2010.04.10 18:59:41.
