data_PCOD8157999
_publ_section_title
;
Structure prediction by ZEFSAII (Michael W. Deem and Ramdas Pophale) SiO2 
 PCOD8157999
Probable space group: C 2 2 21
;
_chemical_formula_sum "Si O2"
_cell_formula_units_Z 56
_cell_length_a 23.706307
_cell_length_b 16.580651
_cell_length_c 8.690908
_cell_angle_alpha 90.000000
_cell_angle_beta 90.000000
_cell_angle_gamma 90.000000
_cell_volume 3416.100469
_symmetry_space_group_name_H-M "C 2 2 21"
_symmetry_group_IT_number 20
_symmetry_cell_setting 'orthorhombic'
loop_
_space_group_symop_operation_xyz
x,y,z
-x,-y,1/2+z
x,-y,-z
-x,y,1/2-z
1/2+x,1/2+y,z
1/2-x,1/2-y,1/2+z
1/2+x,1/2-y,-z
1/2-x,1/2+y,1/2-z
loop_
_atom_site_type_symbol
_atom_site_label
_atom_site_fract_x
_atom_site_fract_y
_atom_site_fract_z
Si Si1 0.558600 0.993220 0.822364
Si Si2 0.868290 0.649487 0.316682
Si Si3 0.817683 0.794248 0.187617
Si Si4 0.283065 0.787656 0.104105
Si Si5 0.342501 0.887157 0.338534
Si Si6 0.280358 0.464684 0.160541
Si Si7 0.725491 0.930958 0.611049
O O1 0.500000 0.020436 0.750000
O O2 0.574577 0.900410 0.779721
O O3 0.609591 0.052650 0.775734
O O4 0.548543 0.000000 0.000000
O O5 0.871386 0.741009 0.245986
O O6 0.858723 0.653448 0.499734
O O7 0.819153 0.599534 0.234546
O O8 0.766033 0.754807 0.285263
O O9 0.821584 0.890600 0.212392
O O10 0.806307 0.782740 0.005534
O O11 0.335209 0.818847 0.208219
O O12 0.255580 0.858448 0.999821
O O13 0.283495 0.933299 0.359905
O O14 0.279423 0.532361 0.295131
O O15 0.303086 0.500000 0.000000
O O16 0.699102 0.000000 0.500000
#
# Coordination Sequence:
#
# PCOD8157999 Si02
#       7
#     8   8   8   8   8   8   8
#     4  10  20  32  49  69  89 122 158 195 233 273
#     4  10  19  32  45  59  91 120 152 194 229 267
#     4  10  20  28  41  64  85 120 155 194 224 276
#     4  10  20  27  43  63  87 116 163 189 227 274
#     4  10  17  32  46  61  87 124 157 192 231 264
#     4  11  18  30  44  60  90 125 155 192 227 267
#     4  11  17  27  43  61  81 119 153 185 223 259
#
# _framework density 16.392959999999999
#
# number of rings (size 3 to 8) (size 9 to 14) (size 15 to 20)
#    0.000    1.714    5.714    2.143    2.000    2.857 
#    0.000    0.000    0.000    0.000    0.000    0.000 
#    0.000    0.000    4.857    0.286    0.000    0.143 
#
# Total GULP energy -346931.585156 kJ/mol
# GULP energy per Si atom -12390.413756 kJ/mol
# Density = 1.635565 g / cm^3
# Si number density = 16.392960 Si / 1000 Ang^3
#
#
#
# Elastic Constant Matrix: (Units=GPa)
#
#
# Indices 1 2 3 4 5 6 
#
# 1 39.1509 20.7393 10.2300 0.0000 0.0000 0.0000
# 2 20.7393 68.7939 22.0380 0.0000 0.0000 0.0000
# 3 10.2300 22.0380 78.7243 0.0000 0.0000 0.0000
# 4 0.0000 0.0000 0.0000 39.7961 0.0000 0.0000
# 5 0.0000 0.0000 0.0000 0.0000 15.9677 0.0000
# 6 0.0000 0.0000 0.0000 0.0000 0.0000 12.9230
#
#
#
# Elastic Compliance Matrix: (Units=1/GPa)
#
#
# Indices 1 2 3 4 5 6 
#
# 1 0.030563 -0.008724 -0.001529 0.000000 0.000000 0.000000
# 2 -0.008724 0.018458 -0.004034 0.000000 0.000000 0.000000
# 3 -0.001529 -0.004034 0.014030 0.000000 0.000000 0.000000
# 4 0.000000 0.000000 0.000000 0.025128 0.000000 0.000000
# 5 0.000000 0.000000 0.000000 0.000000 0.062626 0.000000
# 6 0.000000 0.000000 0.000000 0.000000 0.000000 0.077381
#
#
# Mechanical properties :
#
#
# Convention : Reuss Voigt Hill
#
# Bulk Modulus (GPa) = 29.00392 32.52042 30.76217
# Shear Modulus (GPa) = 18.63903 22.64814 20.64359
#
# Velocity S-wave (km/s) = 3.37562 3.72099 3.55251
# Velocity P-wave (km/s) = 5.73798 6.19210 5.96936
#
# Compressibility (1/GPa) = 0.03447810
#
# Stress axis : x y z
#
# Youngs Moduli (GPa) = 32.71912 54.17605 71.27351
#
# Poissons Ratio (x) = 0.47263 0.10901
# Poissons Ratio (y) = 0.28544 0.28749
# Poissons Ratio (z) = 0.05004 0.21852
#
# Static dielectric constant tensor:
#      x y z
#    x 2.329100 0.000000 0.000000 
#    y 0.000000 3.290750 0.000000 
#    z 0.000000 0.000000 3.472860 
# 
# 
# High freq. dielectric constant tensor:
#      x y z
#    x 1.545800 0.000000 0.000000 
#    y 0.000000 1.629870 0.000000 
#    z 0.000000 0.000000 1.659120 
# 
# From -- ./inp_files/10849.got.cif
#   From: 2010.03.12/outbox.cif.g09.slc.cpg/sg20_6_cif.got.tgz:10849.got - 2010.04.14 01:38:04.
