data_PCOD8157196
_publ_section_title
;
Structure prediction by ZEFSAII (Michael W. Deem and Ramdas Pophale) SiO2 
 PCOD8157196
Probable space group: P 21 21 21
;
_chemical_formula_sum "Si O2"
_cell_formula_units_Z 32
_cell_length_a 9.347587
_cell_length_b 26.996953
_cell_length_c 6.224877
_cell_angle_alpha 90.000000
_cell_angle_beta 90.000000
_cell_angle_gamma 90.000000
_cell_volume 1570.887344
_symmetry_space_group_name_H-M "P 21 21 21"
_symmetry_group_IT_number 19
_symmetry_cell_setting 'orthorhombic'
loop_
_space_group_symop_operation_xyz
x,y,z
1/2-x,-y,1/2+z
1/2+x,1/2-y,-z
-x,1/2+y,1/2-z
loop_
_atom_site_type_symbol
_atom_site_label
_atom_site_fract_x
_atom_site_fract_y
_atom_site_fract_z
Si Si1 0.395504 0.227369 0.499678
Si Si2 0.745531 0.669038 0.377548
Si Si3 0.866192 0.564506 0.281685
Si Si4 0.900107 0.012762 0.962295
Si Si5 0.962603 0.831087 0.377706
Si Si6 0.378044 0.562160 0.697628
Si Si7 0.403504 0.005543 0.063445
Si Si8 0.853406 0.750269 0.697984
O O1 0.292566 0.195591 0.346108
O O2 0.496203 0.195258 0.655068
O O3 0.504422 0.258382 0.346004
O O4 0.287780 0.259251 0.652136
O O5 0.840661 0.622372 0.312658
O O6 0.602656 0.650901 0.495436
O O7 0.835034 0.702967 0.542920
O O8 0.874545 0.549640 0.030734
O O9 0.745784 0.529451 0.379075
O O10 0.016506 0.550688 0.385955
O O11 0.750481 0.039658 0.936670
O O12 0.986549 0.001963 0.751377
O O13 0.869091 0.958312 0.060117
O O14 0.869386 0.878449 0.310319
O O15 0.870212 0.796930 0.538737
O O16 0.528870 0.542803 0.608812
#
# Coordination Sequence:
#
# PCOD8157196 Si02
#       8
#     4   4   4   4   4   4   4   4
#     4  10  22  42  68  95 128 175 215 270 340 389
#     4  10  22  41  68  96 131 167 223 273 323 395
#     4  11  23  39  65  96 126 168 213 265 323 377
#     4  11  24  41  62  93 132 169 211 266 319 379
#     4  10  22  40  71  95 124 178 222 271 329 395
#     4  11  23  42  66  89 129 170 214 262 321 387
#     4  11  22  39  65  91 129 166 211 263 314 382
#     4  10  22  44  67  97 131 165 223 278 331 396
#
# _framework density 20.370653000000001
#
# number of rings (size 3 to 8) (size 9 to 14) (size 15 to 20)
#    0.000    1.500    3.750    0.750    1.750    2.000 
#   11.250    0.000    0.000    0.000    0.000    0.000 
#    0.000    0.000    0.000    0.000    0.000    0.000 
#
# Total GULP energy -396658.780745 kJ/mol
# GULP energy per Si atom -12395.586898 kJ/mol
# Density = 2.032429 g / cm^3
# Si number density = 20.370653 Si / 1000 Ang^3
#
#
#
# Elastic Constant Matrix: (Units=GPa)
#
#
# Indices 1 2 3 4 5 6 
#
# 1 90.6038 59.6030 58.6623 0.0000 0.0000 0.0000
# 2 59.6030 138.9933 69.3772 0.0000 0.0000 0.0000
# 3 58.6623 69.3772 133.0565 0.0000 0.0000 0.0000
# 4 0.0000 0.0000 0.0000 24.9433 0.0000 0.0000
# 5 0.0000 0.0000 0.0000 0.0000 51.8585 0.0000
# 6 0.0000 0.0000 0.0000 0.0000 0.0000 30.4813
#
#
#
# Elastic Compliance Matrix: (Units=1/GPa)
#
#
# Indices 1 2 3 4 5 6 
#
# 1 0.017683 -0.004990 -0.005194 0.000000 0.000000 0.000000
# 2 -0.004990 0.011134 -0.003605 0.000000 0.000000 0.000000
# 3 -0.005194 -0.003605 0.011685 0.000000 0.000000 0.000000
# 4 0.000000 0.000000 0.000000 0.040091 0.000000 0.000000
# 5 0.000000 0.000000 0.000000 0.000000 0.019283 0.000000
# 6 0.000000 0.000000 0.000000 0.000000 0.000000 0.032807
#
#
# Mechanical properties :
#
#
# Convention : Reuss Voigt Hill
#
# Bulk Modulus (GPa) = 77.38093 81.99320 79.68707
# Shear Modulus (GPa) = 30.38214 33.12401 31.75307
#
# Velocity S-wave (km/s) = 3.86614 4.03682 3.95240
# Velocity P-wave (km/s) = 7.61566 7.87820 7.74804
#
# Compressibility (1/GPa) = 0.01292308
#
# Stress axis : x y z
#
# Youngs Moduli (GPa) = 56.55230 89.81469 85.57625
#
# Poissons Ratio (x) = 0.44819 0.44449
# Poissons Ratio (y) = 0.28220 0.30853
# Poissons Ratio (z) = 0.29374 0.32381
#
# Static dielectric constant tensor:
#      x y z
#    x 3.837520 0.000000 0.000000 
#    y 0.000000 3.459810 0.000000 
#    z 0.000000 0.000000 4.024260 
# 
# 
# High freq. dielectric constant tensor:
#      x y z
#    x 1.805820 0.000000 0.000000 
#    y 0.000000 1.773100 0.000000 
#    z 0.000000 0.000000 1.815470 
# 
# From -- ./inp_files/736.got.cif
#   From: 2010.03.12/outbox.cif.g09.slc.cpg/sg19_1_cif.got.tgz:736.got - 2010.04.10 18:59:41.
