data_PCOD8157628
_publ_section_title
;
Structure prediction by ZEFSAII (Michael W. Deem and Ramdas Pophale) SiO2 
 PCOD8157628
Probable space group: P 21 21 21
;
_chemical_formula_sum "Si O2"
_cell_formula_units_Z 32
_cell_length_a 11.243892
_cell_length_b 14.445880
_cell_length_c 9.168096
_cell_angle_alpha 90.000000
_cell_angle_beta 90.000000
_cell_angle_gamma 90.000000
_cell_volume 1489.154714
_symmetry_space_group_name_H-M "P 21 21 21"
_symmetry_group_IT_number 19
_symmetry_cell_setting 'orthorhombic'
loop_
_space_group_symop_operation_xyz
x,y,z
1/2-x,-y,1/2+z
1/2+x,1/2-y,-z
-x,1/2+y,1/2-z
loop_
_atom_site_type_symbol
_atom_site_label
_atom_site_fract_x
_atom_site_fract_y
_atom_site_fract_z
Si Si1 0.431471 0.441579 0.395123
Si Si2 0.855187 0.871519 0.715059
Si Si3 0.422095 0.938552 0.814141
Si Si4 0.533670 0.781089 0.312082
Si Si5 0.317420 0.642134 0.959932
Si Si6 0.296954 0.172370 0.405104
Si Si7 0.402739 0.319732 0.861763
Si Si8 0.440456 0.134106 0.685429
O O1 0.436822 0.550407 0.361237
O O2 0.501532 0.418410 0.541704
O O3 0.488660 0.379490 0.266697
O O4 0.293196 0.417599 0.407767
O O5 0.718816 0.875622 0.664353
O O6 0.908204 0.771527 0.672109
O O7 0.864925 0.893825 0.885999
O O8 0.287792 0.903286 0.831612
O O9 0.487069 0.885574 0.681672
O O10 0.408219 0.046985 0.784712
O O11 0.620842 0.716470 0.218698
O O12 0.590733 0.796906 0.468750
O O13 0.283608 0.749284 0.980034
O O14 0.417872 0.633568 0.836956
O O15 0.376055 0.125230 0.529805
O O16 0.401530 0.227004 0.766523
#
# Coordination Sequence:
#
# PCOD8157628 Si02
#       8
#     4   4   4   4   4   4   4   4
#     4  11  26  43  71 102 136 183 228 284 343 402
#     4  12  24  44  73  98 140 175 234 285 333 409
#     4  12  26  46  70 102 141 179 231 280 350 416
#     4  11  27  44  68 106 139 180 227 288 345 405
#     4  11  22  45  72  97 133 181 231 277 337 405
#     4  11  24  47  68  95 143 181 221 280 354 409
#     4  12  26  44  70 107 134 183 236 283 340 402
#     4  12  25  45  74  99 136 186 230 283 342 414
#
# _framework density 21.488700999999999
#
# number of rings (size 3 to 8) (size 9 to 14) (size 15 to 20)
#    0.000    0.500    5.000    3.000    5.250    3.000 
#    0.000    0.000    0.000    0.000    0.000    0.000 
#    0.000    0.000    0.000    0.000    0.000    0.000 
#
# Total GULP energy -397036.348950 kJ/mol
# GULP energy per Si atom -12407.385905 kJ/mol
# Density = 2.143979 g / cm^3
# Si number density = 21.488701 Si / 1000 Ang^3
#
#
#
# Elastic Constant Matrix: (Units=GPa)
#
#
# Indices 1 2 3 4 5 6 
#
# 1 63.3184 13.8815 15.2158 0.0000 0.0000 0.0000
# 2 13.8815 90.8284 13.6492 0.0000 0.0000 0.0000
# 3 15.2158 13.6492 105.3664 0.0000 0.0000 0.0000
# 4 0.0000 0.0000 0.0000 37.2144 0.0000 0.0000
# 5 0.0000 0.0000 0.0000 0.0000 27.9087 0.0000
# 6 0.0000 0.0000 0.0000 0.0000 0.0000 30.7788
#
#
#
# Elastic Compliance Matrix: (Units=1/GPa)
#
#
# Indices 1 2 3 4 5 6 
#
# 1 0.016799 -0.002247 -0.002135 0.000000 0.000000 0.000000
# 2 -0.002247 0.011529 -0.001169 0.000000 0.000000 0.000000
# 3 -0.002135 -0.001169 0.009950 0.000000 0.000000 0.000000
# 4 0.000000 0.000000 0.000000 0.026871 0.000000 0.000000
# 5 0.000000 0.000000 0.000000 0.000000 0.035831 0.000000
# 6 0.000000 0.000000 0.000000 0.000000 0.000000 0.032490
#
#
# Mechanical properties :
#
#
# Convention : Reuss Voigt Hill
#
# Bulk Modulus (GPa) = 36.79573 38.33400 37.56487
# Shear Modulus (GPa) = 32.54569 33.63150 33.08859
#
# Velocity S-wave (km/s) = 3.89594 3.96040 3.92830
# Velocity P-wave (km/s) = 6.11541 6.22823 6.17208
#
# Compressibility (1/GPa) = 0.02717706
#
# Stress axis : x y z
#
# Youngs Moduli (GPa) = 59.52825 86.73933 100.49828
#
# Poissons Ratio (x) = 0.19487 0.21455
# Poissons Ratio (y) = 0.13373 0.11748
# Poissons Ratio (z) = 0.12708 0.10140
#
# Static dielectric constant tensor:
#      x y z
#    x 3.957320 0.000000 0.000000 
#    y 0.000000 3.930480 0.000000 
#    z 0.000000 0.000000 3.824440 
# 
# 
# High freq. dielectric constant tensor:
#      x y z
#    x 1.847950 0.000000 0.000000 
#    y 0.000000 1.848910 0.000000 
#    z 0.000000 0.000000 1.846790 
# 
# From -- ./inp_files/3648.got.cif
#   From: 2010.03.12/outbox.cif.g09.slc.cpg/sg19_2_cif.got.tgz:3648.got - 2010.04.10 18:59:41.
