data_PCOD8157221
_publ_section_title
;
Structure prediction by ZEFSAII (Michael W. Deem and Ramdas Pophale) SiO2 
 PCOD8157221
Probable space group: P 21 21 21
;
_chemical_formula_sum "Si O2"
_cell_formula_units_Z 28
_cell_length_a 9.729803
_cell_length_b 24.283612
_cell_length_c 5.297394
_cell_angle_alpha 90.000000
_cell_angle_beta 90.000000
_cell_angle_gamma 90.000000
_cell_volume 1251.640501
_symmetry_space_group_name_H-M "P 21 21 21"
_symmetry_group_IT_number 19
_symmetry_cell_setting 'orthorhombic'
loop_
_space_group_symop_operation_xyz
x,y,z
1/2-x,-y,1/2+z
1/2+x,1/2-y,-z
-x,1/2+y,1/2-z
loop_
_atom_site_type_symbol
_atom_site_label
_atom_site_fract_x
_atom_site_fract_y
_atom_site_fract_z
Si Si1 0.376341 0.174371 0.814540
Si Si2 0.400275 0.963597 0.599024
Si Si3 0.295815 0.256739 0.205059
Si Si4 0.859181 0.852731 0.563602
Si Si5 0.215250 0.531728 0.410833
Si Si6 0.259257 0.927577 0.097735
Si Si7 0.566323 0.232976 0.447970
O O1 0.295774 0.134307 0.626570
O O2 0.465684 0.220180 0.676659
O O3 0.273636 0.209267 0.994462
O O4 0.485113 0.137187 0.969296
O O5 0.558970 0.956244 0.652546
O O6 0.365222 0.939130 0.324850
O O7 0.363238 0.028086 0.614965
O O8 0.325804 0.929875 0.821382
O O9 0.460929 0.264556 0.256941
O O10 0.202183 0.235077 0.445657
O O11 0.234902 0.315566 0.122404
O O12 0.795221 0.911574 0.605613
O O13 0.871420 0.822526 0.830907
O O14 0.225674 0.507349 0.692035
#
# Coordination Sequence:
#
# PCOD8157221 Si02
#       7
#     4   4   4   4   4   4   4
#     4  10  22  41  69  99 126 191 225 278 357 414
#     4  10  23  43  64 101 133 178 226 289 342 399
#     4  10  22  44  66 103 134 181 235 289 354 426
#     4  10  24  43  68  99 138 177 235 288 343 429
#     4  12  27  46  72 103 137 186 233 287 356 421
#     4  10  22  42  67  94 140 172 230 282 337 419
#     4  10  22  43  68  95 138 183 230 287 353 418
#
# _framework density 22.370642
#
# number of rings (size 3 to 8) (size 9 to 14) (size 15 to 20)
#    0.000    1.714    0.000    2.571   10.000    1.143 
#   12.857    0.000    0.000    0.000    0.000    0.000 
#    0.000    0.000    0.000    0.000    0.000    0.000 
#
# Total GULP energy -347086.577354 kJ/mol
# GULP energy per Si atom -12395.949191 kJ/mol
# Density = 2.231973 g / cm^3
# Si number density = 22.370642 Si / 1000 Ang^3
#
#
#
# Elastic Constant Matrix: (Units=GPa)
#
#
# Indices 1 2 3 4 5 6 
#
# 1 70.0907 21.9931 1.6323 0.0000 0.0000 0.0000
# 2 21.9931 61.0426 -1.1687 0.0000 0.0000 0.0000
# 3 1.6323 -1.1687 77.8360 0.0000 0.0000 0.0000
# 4 0.0000 0.0000 0.0000 37.9587 0.0000 0.0000
# 5 0.0000 0.0000 0.0000 0.0000 35.4217 0.0000
# 6 0.0000 0.0000 0.0000 0.0000 0.0000 26.1395
#
#
#
# Elastic Compliance Matrix: (Units=1/GPa)
#
#
# Indices 1 2 3 4 5 6 
#
# 1 0.016100 -0.005809 -0.000425 0.000000 0.000000 0.000000
# 2 -0.005809 0.018482 0.000399 0.000000 0.000000 0.000000
# 3 -0.000425 0.000399 0.012862 0.000000 0.000000 0.000000
# 4 0.000000 0.000000 0.000000 0.026344 0.000000 0.000000
# 5 0.000000 0.000000 0.000000 0.000000 0.028231 0.000000
# 6 0.000000 0.000000 0.000000 0.000000 0.000000 0.038256
#
#
# Mechanical properties :
#
#
# Convention : Reuss Voigt Hill
#
# Bulk Modulus (GPa) = 27.95154 28.20917 28.08035
# Shear Modulus (GPa) = 30.51190 32.33817 31.42504
#
# Velocity S-wave (km/s) = 3.69714 3.80618 3.75206
# Velocity P-wave (km/s) = 5.54500 5.65272 5.59912
#
# Compressibility (1/GPa) = 0.03577621
#
# Stress axis : x y z
#
# Youngs Moduli (GPa) = 62.11260 54.10531 77.74582
#
# Poissons Ratio (x) = 0.31428 0.03303
# Poissons Ratio (y) = 0.36080 -0.03105
# Poissons Ratio (z) = 0.02639 -0.02161
#
# Static dielectric constant tensor:
#      x y z
#    x 4.320740 0.000000 0.000000 
#    y 0.000000 3.694380 0.000000 
#    z 0.000000 0.000000 4.408360 
# 
# 
# High freq. dielectric constant tensor:
#      x y z
#    x 1.890770 0.000000 0.000000 
#    y 0.000000 1.859070 0.000000 
#    z 0.000000 0.000000 1.901890 
# 
# From -- ./inp_files/519.got.cif
#   From: 2010.03.12/outbox.cif.g09.slc.cpg/sg19_1_cif.got.tgz:519.got - 2010.04.10 18:59:41.
