data_PCOD8157549
_publ_section_title
;
Structure prediction by ZEFSAII (Michael W. Deem and Ramdas Pophale) SiO2 
 PCOD8157549
Probable space group: P 21 21 21
;
_chemical_formula_sum "Si O2"
_cell_formula_units_Z 24
_cell_length_a 6.417989
_cell_length_b 18.680589
_cell_length_c 9.256381
_cell_angle_alpha 90.000000
_cell_angle_beta 90.000000
_cell_angle_gamma 90.000000
_cell_volume 1109.764316
_symmetry_space_group_name_H-M "P 21 21 21"
_symmetry_group_IT_number 19
_symmetry_cell_setting 'orthorhombic'
loop_
_space_group_symop_operation_xyz
x,y,z
1/2-x,-y,1/2+z
1/2+x,1/2-y,-z
-x,1/2+y,1/2-z
loop_
_atom_site_type_symbol
_atom_site_label
_atom_site_fract_x
_atom_site_fract_y
_atom_site_fract_z
Si Si1 0.300546 0.270305 0.692801
Si Si2 0.442741 0.639306 0.745542
Si Si3 0.450639 0.315228 0.401924
Si Si4 0.167741 0.424641 0.709504
Si Si5 0.205729 0.919099 0.001039
Si Si6 0.452574 0.525455 0.515970
O O1 0.477220 0.221735 0.769559
O O2 0.330674 0.266302 0.518403
O O3 0.076206 0.232459 0.714105
O O4 0.291620 0.351444 0.749946
O O5 0.587058 0.590403 0.847658
O O6 0.447074 0.603852 0.587983
O O7 0.210774 0.637702 0.810127
O O8 0.599331 0.365261 0.499325
O O9 0.303689 0.471633 0.601612
O O10 0.133336 0.469063 0.854170
O O11 0.948547 0.404759 0.633128
O O12 0.307526 0.998154 0.988180
#
# Coordination Sequence:
#
# PCOD8157549 Si02
#       6
#     4   4   4   4   4   4
#     4  11  21  39  66  99 131 178 220 269 332 391
#     4  11  24  42  68 101 132 176 226 276 326 401
#     4  11  19  38  68  95 129 167 227 267 322 401
#     4  12  25  43  68  99 134 179 221 277 333 395
#     4  11  21  41  69  96 125 170 223 272 333 388
#     4  12  26  45  67  98 137 174 227 275 334 394
#
# _framework density 21.626213
#
# number of rings (size 3 to 8) (size 9 to 14) (size 15 to 20)
#    0.000    0.667    5.000    4.000    0.000    1.333 
#    3.000    0.000    0.000    0.000    0.000    0.000 
#    0.000    0.000    0.000    0.000    0.000    0.000 
#
# Total GULP energy -297608.637375 kJ/mol
# GULP energy per Si atom -12400.359891 kJ/mol
# Density = 2.157699 g / cm^3
# Si number density = 21.626213 Si / 1000 Ang^3
#
#
#
# Elastic Constant Matrix: (Units=GPa)
#
#
# Indices 1 2 3 4 5 6 
#
# 1 103.8361 37.4873 37.1750 0.0000 0.0000 0.0000
# 2 37.4873 115.0981 38.1295 0.0000 0.0000 0.0000
# 3 37.1750 38.1295 92.3565 0.0000 0.0000 0.0000
# 4 0.0000 0.0000 0.0000 38.4088 0.0000 0.0000
# 5 0.0000 0.0000 0.0000 0.0000 19.9587 0.0000
# 6 0.0000 0.0000 0.0000 0.0000 0.0000 38.3355
#
#
#
# Elastic Compliance Matrix: (Units=1/GPa)
#
#
# Indices 1 2 3 4 5 6 
#
# 1 0.011913 -0.002655 -0.003699 0.000000 0.000000 0.000000
# 2 -0.002655 0.010656 -0.003331 0.000000 0.000000 0.000000
# 3 -0.003699 -0.003331 0.013692 0.000000 0.000000 0.000000
# 4 0.000000 0.000000 0.000000 0.026036 0.000000 0.000000
# 5 0.000000 0.000000 0.000000 0.000000 0.050103 0.000000
# 6 0.000000 0.000000 0.000000 0.000000 0.000000 0.026085
#
#
# Mechanical properties :
#
#
# Convention : Reuss Voigt Hill
#
# Bulk Modulus (GPa) = 59.20083 59.65271 59.42677
# Shear Modulus (GPa) = 30.58354 32.57386 31.57870
#
# Velocity S-wave (km/s) = 3.76465 3.88522 3.82541
# Velocity P-wave (km/s) = 6.80667 6.91158 6.85933
#
# Compressibility (1/GPa) = 0.01689166
#
# Stress axis : x y z
#
# Youngs Moduli (GPa) = 83.93915 93.84100 73.03616
#
# Poissons Ratio (x) = 0.24912 0.27019
# Poissons Ratio (y) = 0.22283 0.24328
# Poissons Ratio (z) = 0.31052 0.31258
#
# Static dielectric constant tensor:
#      x y z
#    x 4.184600 0.000000 0.000000 
#    y 0.000000 4.016260 0.000000 
#    z 0.000000 0.000000 3.514290 
# 
# 
# High freq. dielectric constant tensor:
#      x y z
#    x 1.864340 0.000000 0.000000 
#    y 0.000000 1.857690 0.000000 
#    z 0.000000 0.000000 1.810020 
# 
# From -- ./inp_files/2388.got.cif
#   From: 2010.03.12/outbox.cif.g09.slc.cpg/sg19_2_cif.got.tgz:2388.got - 2010.04.10 18:59:41.
