data_PCOD8157998
_publ_section_title
;
Structure prediction by ZEFSAII (Michael W. Deem and Ramdas Pophale) SiO2 
 PCOD8157998
Probable space group: C 2 2 21
;
_chemical_formula_sum "Si O2"
_cell_formula_units_Z 48
_cell_length_a 27.398118
_cell_length_b 5.148580
_cell_length_c 13.786866
_cell_angle_alpha 90.000000
_cell_angle_beta 90.000000
_cell_angle_gamma 90.000000
_cell_volume 1944.794652
_symmetry_space_group_name_H-M "C 2 2 21"
_symmetry_group_IT_number 20
_symmetry_cell_setting 'orthorhombic'
loop_
_space_group_symop_operation_xyz
x,y,z
-x,-y,1/2+z
x,-y,-z
-x,y,1/2-z
1/2+x,1/2+y,z
1/2-x,1/2-y,1/2+z
1/2+x,1/2-y,-z
1/2-x,1/2+y,1/2-z
loop_
_atom_site_type_symbol
_atom_site_label
_atom_site_fract_x
_atom_site_fract_y
_atom_site_fract_z
Si Si1 0.936065 0.801462 0.339305
Si Si2 0.989652 0.687755 0.636904
Si Si3 0.780359 0.758640 0.561097
Si Si4 0.671529 0.675797 0.592296
Si Si5 0.414833 0.011421 0.161399
Si Si6 0.646337 0.380120 0.781584
O O1 0.971510 0.022901 0.384151
O O2 0.119814 0.903723 0.148948
O O3 0.950758 0.537117 0.397193
O O4 0.060432 0.754399 0.278681
O O5 0.044041 0.627676 0.593098
O O6 0.000000 0.646922 0.750000
O O7 0.786265 0.500000 0.500000
O O8 0.723936 0.812867 0.587000
O O9 0.811999 0.731495 0.658654
O O10 0.800172 0.000000 0.500000
O O11 0.659997 0.500000 0.500000
O O12 0.630192 0.898254 0.595191
O O13 0.672160 0.505291 0.689037
O O14 0.395504 0.819748 0.246930
#
# Coordination Sequence:
#
# PCOD8157998 Si02
#       6
#     8   8   8   8   8   8
#     4  10  19  34  59 100 133 169 227 273 340 405
#     4  10  17  31  57  96 134 171 220 274 332 419
#     4  11  29  49  72 102 143 186 235 298 360 418
#     4  10  26  44  68 102 145 185 233 297 360 423
#     4  10  22  34  68 101 137 176 238 273 353 410
#     4  11  24  42  74 106 132 188 237 288 350 424
#
# _framework density 24.681269
#
# number of rings (size 3 to 8) (size 9 to 14) (size 15 to 20)
#    0.000    1.667    3.333    1.500   14.000    0.000 
#    0.000    0.000    0.000    3.000    0.000    0.000 
#    0.000    0.000    0.000    0.000    0.000    0.000 
#
# Total GULP energy -297405.889517 kJ/mol
# GULP energy per Si atom -12391.912063 kJ/mol
# Density = 2.462509 g / cm^3
# Si number density = 24.681269 Si / 1000 Ang^3
#
#
#
# Elastic Constant Matrix: (Units=GPa)
#
#
# Indices 1 2 3 4 5 6 
#
# 1 95.7533 29.6982 40.5469 0.0000 0.0000 0.0000
# 2 29.6982 126.4730 22.7430 0.0000 0.0000 0.0000
# 3 40.5469 22.7430 62.7826 0.0000 0.0000 0.0000
# 4 0.0000 0.0000 0.0000 23.2834 0.0000 0.0000
# 5 0.0000 0.0000 0.0000 0.0000 -10.4815 0.0000
# 6 0.0000 0.0000 0.0000 0.0000 0.0000 61.4612
#
#
#
# Elastic Compliance Matrix: (Units=1/GPa)
#
#
# Indices 1 2 3 4 5 6 
#
# 1 0.014779 -0.001876 -0.008865 0.000000 0.000000 0.000000
# 2 -0.001876 0.008696 -0.001938 0.000000 0.000000 0.000000
# 3 -0.008865 -0.001938 0.022356 0.000000 0.000000 0.000000
# 4 0.000000 0.000000 0.000000 0.042949 0.000000 0.000000
# 5 0.000000 0.000000 0.000000 0.000000 -0.095406 0.000000
# 6 0.000000 0.000000 0.000000 0.000000 0.000000 0.016270
#
#
# Mechanical properties :
#
#
# Convention : Reuss Voigt Hill
#
# Bulk Modulus (GPa) = 48.84926 52.33166 50.59046
# Shear Modulus (GPa) = 119.53712 27.65402 73.59557
#
# Velocity S-wave (km/s) = 6.96688 3.35094 5.46655
# Velocity P-wave (km/s) = 9.19520 6.01837 7.77085
#
# Compressibility (1/GPa) = 0.02047114
#
# Stress axis : x y z
#
# Youngs Moduli (GPa) = 67.66137 114.99573 44.73140
#
# Poissons Ratio (x) = 0.21576 0.39656
# Poissons Ratio (y) = 0.12695 0.08671
# Poissons Ratio (z) = 0.59984 0.22290
#
# Static dielectric constant tensor:
#      x y z
#    x 4.866740 0.000000 0.000000 
#    y 0.000000 4.432540 0.000000 
#    z 0.000000 0.000000 3.865460 
# 
# 
# High freq. dielectric constant tensor:
#      x y z
#    x 1.996280 0.000000 0.000000 
#    y 0.000000 1.989870 0.000000 
#    z 0.000000 0.000000 1.938620 
# 
# From -- ./inp_files/22156.got.cif
#   From: 2010.03.12/outbox.cif.g09.slc.cpg/sg20_12_cif.got.tgz:22156.got - 2010.04.14 01:38:04.
