data_PCOD8157241
_publ_section_title
;
Structure prediction by ZEFSAII (Michael W. Deem and Ramdas Pophale) SiO2 
 PCOD8157241
Probable space group: P 21 21 21
;
_chemical_formula_sum "Si O2"
_cell_formula_units_Z 32
_cell_length_a 5.375358
_cell_length_b 8.813700
_cell_length_c 30.234862
_cell_angle_alpha 90.000000
_cell_angle_beta 90.000000
_cell_angle_gamma 90.000000
_cell_volume 1432.430792
_symmetry_space_group_name_H-M "P 21 21 21"
_symmetry_group_IT_number 19
_symmetry_cell_setting 'orthorhombic'
loop_
_space_group_symop_operation_xyz
x,y,z
1/2-x,-y,1/2+z
1/2+x,1/2-y,-z
-x,1/2+y,1/2-z
loop_
_atom_site_type_symbol
_atom_site_label
_atom_site_fract_x
_atom_site_fract_y
_atom_site_fract_z
Si Si1 0.387072 0.172332 0.114678
Si Si2 0.407704 0.319761 0.021059
Si Si3 0.396623 0.693826 0.836478
Si Si4 0.595095 0.181796 0.479964
Si Si5 0.005754 0.118136 0.180881
Si Si6 0.611689 0.320021 0.202773
Si Si7 0.417050 0.825585 0.112687
Si Si8 0.805323 0.372042 0.737330
O O1 0.408704 0.282426 0.073038
O O2 0.104202 0.154744 0.131512
O O3 0.519990 0.251393 0.156346
O O4 0.478822 0.002588 0.102071
O O5 0.409362 0.500333 0.014026
O O6 0.657449 0.250566 0.999752
O O7 0.314231 0.520984 0.824029
O O8 0.672325 0.693059 0.856979
O O9 0.408504 0.795814 0.792609
O O10 0.166706 0.750524 0.866908
O O11 0.325742 0.250282 0.492415
O O12 0.649496 0.228834 0.430098
O O13 0.206718 0.057759 0.216565
O O14 0.901238 0.273172 0.202091
O O15 0.571448 0.498779 0.206526
O O16 0.505264 0.251808 0.248174
#
# Coordination Sequence:
#
# PCOD8157241 Si02
#       8
#     4   4   4   4   4   4   4   4
#     4  10  24  43  67 104 137 188 231 299 358 429
#     4  12  28  48  79 110 150 193 243 304 370 447
#     4  11  24  42  65  99 135 183 231 288 354 417
#     4  12  26  49  77 109 146 190 243 300 371 448
#     4  10  22  42  64  95 134 187 234 291 351 425
#     4  11  23  42  66  94 142 179 245 293 355 421
#     4  11  24  44  71  99 143 179 233 289 360 429
#     4  11  25  38  65  94 135 189 236 294 351 418
#
# _framework density 22.339648
#
# number of rings (size 3 to 8) (size 9 to 14) (size 15 to 20)
#    0.000    1.000    1.250    4.500    8.750    3.000 
#    0.000    0.000    0.000    0.000    0.000    0.000 
#    0.000    0.000    0.000    0.000    0.000    0.000 
#
# Total GULP energy -396450.140622 kJ/mol
# GULP energy per Si atom -12389.066894 kJ/mol
# Density = 2.228880 g / cm^3
# Si number density = 22.339648 Si / 1000 Ang^3
#
#
#
# Elastic Constant Matrix: (Units=GPa)
#
#
# Indices 1 2 3 4 5 6 
#
# 1 103.0617 40.1953 30.7150 0.0000 0.0000 0.0000
# 2 40.1953 143.0287 49.9797 0.0000 0.0000 0.0000
# 3 30.7150 49.9797 109.7388 0.0000 0.0000 0.0000
# 4 0.0000 0.0000 0.0000 42.0179 0.0000 0.0000
# 5 0.0000 0.0000 0.0000 0.0000 28.9395 0.0000
# 6 0.0000 0.0000 0.0000 0.0000 0.0000 33.6326
#
#
#
# Elastic Compliance Matrix: (Units=1/GPa)
#
#
# Indices 1 2 3 4 5 6 
#
# 1 0.011267 -0.002455 -0.002035 0.000000 0.000000 0.000000
# 2 -0.002455 0.008850 -0.003343 0.000000 0.000000 0.000000
# 3 -0.002035 -0.003343 0.011205 0.000000 0.000000 0.000000
# 4 0.000000 0.000000 0.000000 0.023799 0.000000 0.000000
# 5 0.000000 0.000000 0.000000 0.000000 0.034555 0.000000
# 6 0.000000 0.000000 0.000000 0.000000 0.000000 0.029733
#
#
# Mechanical properties :
#
#
# Convention : Reuss Voigt Hill
#
# Bulk Modulus (GPa) = 63.88144 66.40103 65.14124
# Shear Modulus (GPa) = 35.63915 36.58062 36.10988
#
# Velocity S-wave (km/s) = 3.99849 4.05096 4.02481
# Velocity P-wave (km/s) = 7.06929 7.18807 7.12893
#
# Compressibility (1/GPa) = 0.01565400
#
# Stress axis : x y z
#
# Youngs Moduli (GPa) = 88.75438 112.99565 89.24594
#
# Poissons Ratio (x) = 0.27742 0.18165
# Poissons Ratio (y) = 0.21790 0.29839
# Poissons Ratio (z) = 0.18065 0.37780
#
# Static dielectric constant tensor:
#      x y z
#    x 4.142120 0.000000 0.000000 
#    y 0.000000 4.068780 0.000000 
#    z 0.000000 0.000000 4.022260 
# 
# 
# High freq. dielectric constant tensor:
#      x y z
#    x 1.884780 0.000000 0.000000 
#    y 0.000000 1.881540 0.000000 
#    z 0.000000 0.000000 1.888330 
# 
# From -- ./inp_files/7530.got.cif
#   From: 2010.03.12/outbox.cif.g09.slc.cpg/sg19_4_cif.got.tgz:7530.got - 2010.04.10 18:59:41.
