data_PCOD8157384
_publ_section_title
;
Structure prediction by ZEFSAII (Michael W. Deem and Ramdas Pophale) SiO2 
 PCOD8157384
Probable space group: P 21 21 21
;
_chemical_formula_sum "Si O2"
_cell_formula_units_Z 28
_cell_length_a 11.033747
_cell_length_b 13.385790
_cell_length_c 8.634251
_cell_angle_alpha 90.000000
_cell_angle_beta 90.000000
_cell_angle_gamma 90.000000
_cell_volume 1275.239330
_symmetry_space_group_name_H-M "P 21 21 21"
_symmetry_group_IT_number 19
_symmetry_cell_setting 'orthorhombic'
loop_
_space_group_symop_operation_xyz
x,y,z
1/2-x,-y,1/2+z
1/2+x,1/2-y,-z
-x,1/2+y,1/2-z
loop_
_atom_site_type_symbol
_atom_site_label
_atom_site_fract_x
_atom_site_fract_y
_atom_site_fract_z
Si Si1 0.412482 0.799314 0.652748
Si Si2 0.619046 0.091413 0.989965
Si Si3 0.973095 0.535877 0.597167
Si Si4 0.942773 0.561651 0.926498
Si Si5 0.282376 0.549673 0.181179
Si Si6 0.778956 0.374256 0.595080
Si Si7 0.606057 0.789367 0.894522
O O1 0.374558 0.710143 0.536912
O O2 0.446455 0.897634 0.553145
O O3 0.299444 0.826308 0.765323
O O4 0.533233 0.756593 0.738823
O O5 0.696570 0.054981 0.136521
O O6 0.482288 0.052391 0.027321
O O7 0.680311 0.035643 0.843650
O O8 0.982018 0.599881 0.755338
O O9 0.863653 0.463576 0.651941
O O10 0.098348 0.474869 0.577926
O O11 0.801721 0.578360 0.958271
O O12 0.015001 0.629861 0.042577
O O13 0.236295 0.659787 0.133834
O O14 0.872521 0.298493 0.515204
#
# Coordination Sequence:
#
# PCOD8157384 Si02
#       7
#     4   4   4   4   4   4   4
#     4  11  26  44  70 106 132 184 237 280 344 414
#     4  10  23  43  70  99 139 177 233 284 332 413
#     4  11  24  43  68  99 137 174 228 285 341 400
#     4   9  23  44  63  94 135 177 223 277 344 399
#     4  10  23  44  67 101 134 183 224 281 343 403
#     4  11  25  43  67  97 139 181 218 285 349 403
#     4  10  24  43  67  98 134 184 225 276 339 412
#
# _framework density 21.956662999999999
#
# number of rings (size 3 to 8) (size 9 to 14) (size 15 to 20)
#    0.000    1.714    0.000    1.714   12.000    5.714 
#    7.714    0.000    0.000    0.000    0.000    0.000 
#    0.000    0.000    0.000    0.000    0.000    0.000 
#
# Total GULP energy -347003.708797 kJ/mol
# GULP energy per Si atom -12392.989600 kJ/mol
# Density = 2.190669 g / cm^3
# Si number density = 21.956663 Si / 1000 Ang^3
#
#
#
# Elastic Constant Matrix: (Units=GPa)
#
#
# Indices 1 2 3 4 5 6 
#
# 1 84.8941 22.9354 24.5581 0.0000 0.0000 0.0000
# 2 22.9354 83.2110 37.1447 0.0000 0.0000 0.0000
# 3 24.5581 37.1447 93.5133 0.0000 0.0000 0.0000
# 4 0.0000 0.0000 0.0000 33.7707 0.0000 0.0000
# 5 0.0000 0.0000 0.0000 0.0000 33.3638 0.0000
# 6 0.0000 0.0000 0.0000 0.0000 0.0000 20.6089
#
#
#
# Elastic Compliance Matrix: (Units=1/GPa)
#
#
# Indices 1 2 3 4 5 6 
#
# 1 0.013174 -0.002537 -0.002452 0.000000 0.000000 0.000000
# 2 -0.002537 0.015096 -0.005330 0.000000 0.000000 0.000000
# 3 -0.002452 -0.005330 0.013455 0.000000 0.000000 0.000000
# 4 0.000000 0.000000 0.000000 0.029611 0.000000 0.000000
# 5 0.000000 0.000000 0.000000 0.000000 0.029973 0.000000
# 6 0.000000 0.000000 0.000000 0.000000 0.000000 0.048523
#
#
# Mechanical properties :
#
#
# Convention : Reuss Voigt Hill
#
# Bulk Modulus (GPa) = 47.42219 47.87720 47.64969
# Shear Modulus (GPa) = 28.16922 29.34737 28.75830
#
# Velocity S-wave (km/s) = 3.58571 3.65993 3.62301
# Velocity P-wave (km/s) = 6.22801 6.30180 6.26501
#
# Compressibility (1/GPa) = 0.02108718
#
# Stress axis : x y z
#
# Youngs Moduli (GPa) = 75.90692 66.24202 74.32240
#
# Poissons Ratio (x) = 0.16802 0.18225
# Poissons Ratio (y) = 0.19254 0.39616
# Poissons Ratio (z) = 0.18614 0.35309
#
# Static dielectric constant tensor:
#      x y z
#    x 4.361920 0.000000 0.000000 
#    y 0.000000 3.917430 0.000000 
#    z 0.000000 0.000000 3.934180 
# 
# 
# High freq. dielectric constant tensor:
#      x y z
#    x 1.871690 0.000000 0.000000 
#    y 0.000000 1.849790 0.000000 
#    z 0.000000 0.000000 1.870300 
# 
# From -- ./inp_files/3421.got.cif
#   From: 2010.03.12/outbox.cif.g09.slc.cpg/sg19_2_cif.got.tgz:3421.got - 2010.04.10 18:59:41.
