data_PCOD8157174
_publ_section_title
;
Structure prediction by ZEFSAII (Michael W. Deem and Ramdas Pophale) SiO2 
 PCOD8157174
Probable space group: P 21 21 21
;
_chemical_formula_sum "Si O2"
_cell_formula_units_Z 24
_cell_length_a 8.728795
_cell_length_b 8.171154
_cell_length_c 13.868375
_cell_angle_alpha 90.000000
_cell_angle_beta 90.000000
_cell_angle_gamma 90.000000
_cell_volume 989.152530
_symmetry_space_group_name_H-M "P 21 21 21"
_symmetry_group_IT_number 19
_symmetry_cell_setting 'orthorhombic'
loop_
_space_group_symop_operation_xyz
x,y,z
1/2-x,-y,1/2+z
1/2+x,1/2-y,-z
-x,1/2+y,1/2-z
loop_
_atom_site_type_symbol
_atom_site_label
_atom_site_fract_x
_atom_site_fract_y
_atom_site_fract_z
Si Si1 0.919070 0.822373 0.885291
Si Si2 0.434022 0.881648 0.294363
Si Si3 0.099388 0.991215 0.288933
Si Si4 0.997502 0.165146 0.110248
Si Si5 0.335416 0.656443 0.456441
Si Si6 0.923712 0.167611 0.445563
O O1 0.980271 0.683555 0.811231
O O2 0.740596 0.785840 0.902648
O O3 0.933529 0.004916 0.840369
O O4 0.012928 0.812830 0.985846
O O5 0.405565 0.716412 0.355532
O O6 0.282583 0.994015 0.293769
O O7 0.039763 0.137489 0.357321
O O8 0.046203 0.015067 0.178242
O O9 0.030331 0.819897 0.321312
O O10 0.845347 0.121288 0.050084
O O11 0.135315 0.201983 0.036119
O O12 0.421549 0.493327 0.487878
#
# Coordination Sequence:
#
# PCOD8157174 Si02
#       6
#     4   4   4   4   4   4
#     4  12  26  44  68  99 136 176 223 279 339 402
#     4  11  25  43  66  96 130 174 223 272 331 396
#     4  10  23  41  64  92 126 168 216 267 327 391
#     4  10  22  40  64  92 124 164 211 266 325 390
#     4  10  22  41  65  93 127 168 217 266 324 391
#     4  11  24  43  67  98 135 176 222 274 334 396
#
# _framework density 24.263193999999999
#
# number of rings (size 3 to 8) (size 9 to 14) (size 15 to 20)
#    0.000    1.333    0.000    5.000    0.000   14.667 
#    0.000    0.000    0.000    0.000    0.000    0.000 
#    0.000    0.000    0.000    0.000    0.000    0.000 
#
# Total GULP energy -297762.083218 kJ/mol
# GULP energy per Si atom -12406.753467 kJ/mol
# Density = 2.420797 g / cm^3
# Si number density = 24.263194 Si / 1000 Ang^3
#
#
#
# Elastic Constant Matrix: (Units=GPa)
#
#
# Indices 1 2 3 4 5 6 
#
# 1 62.6515 -5.9120 17.3925 0.0000 0.0000 0.0000
# 2 -5.9120 19.9472 -14.2189 0.0000 0.0000 0.0000
# 3 17.3925 -14.2189 88.1204 0.0000 0.0000 0.0000
# 4 0.0000 0.0000 0.0000 48.6935 0.0000 0.0000
# 5 0.0000 0.0000 0.0000 0.0000 43.1550 0.0000
# 6 0.0000 0.0000 0.0000 0.0000 0.0000 30.5308
#
#
#
# Elastic Compliance Matrix: (Units=1/GPa)
#
#
# Indices 1 2 3 4 5 6 
#
# 1 0.017044 0.002998 -0.002880 0.000000 0.000000 0.000000
# 2 0.002998 0.057175 0.008634 0.000000 0.000000 0.000000
# 3 -0.002880 0.008634 0.013310 0.000000 0.000000 0.000000
# 4 0.000000 0.000000 0.000000 0.020537 0.000000 0.000000
# 5 0.000000 0.000000 0.000000 0.000000 0.023172 0.000000
# 6 0.000000 0.000000 0.000000 0.000000 0.000000 0.032754
#
#
# Mechanical properties :
#
#
# Convention : Reuss Voigt Hill
#
# Bulk Modulus (GPa) = 9.52078 18.36024 13.94051
# Shear Modulus (GPa) = 27.54846 36.03970 31.79408
#
# Velocity S-wave (km/s) = 3.37323 3.85822 3.62385
# Velocity P-wave (km/s) = 4.37082 5.23750 4.82366
#
# Compressibility (1/GPa) = 0.10503341
#
# Stress axis : x y z
#
# Youngs Moduli (GPa) = 58.67237 17.49003 75.13308
#
# Poissons Ratio (x) = -0.05244 0.21639
# Poissons Ratio (y) = -0.17593 -0.64869
# Poissons Ratio (z) = 0.16898 -0.15101
#
# Static dielectric constant tensor:
#      x y z
#    x 4.112730 0.000000 0.000000 
#    y 0.000000 4.119880 0.000000 
#    z 0.000000 0.000000 4.569380 
# 
# 
# High freq. dielectric constant tensor:
#      x y z
#    x 1.948230 0.000000 0.000000 
#    y 0.000000 1.959080 0.000000 
#    z 0.000000 0.000000 1.985350 
# 
# From -- ./inp_files/2684.got.cif
#   From: 2010.03.12/outbox.cif.g09.slc.cpg/sg19_2_cif.got.tgz:2684.got - 2010.04.10 18:59:41.
