data_PCOD8157928
_publ_section_title
;
Structure prediction by ZEFSAII (Michael W. Deem and Ramdas Pophale) SiO2 
 PCOD8157928
Probable space group: P 21 21 21
;
_chemical_formula_sum "Si O2"
_cell_formula_units_Z 16
_cell_length_a 8.535433
_cell_length_b 4.943343
_cell_length_c 16.313797
_cell_angle_alpha 90.000000
_cell_angle_beta 90.000000
_cell_angle_gamma 90.000000
_cell_volume 688.337384
_symmetry_space_group_name_H-M "P 21 21 21"
_symmetry_group_IT_number 19
_symmetry_cell_setting 'orthorhombic'
loop_
_space_group_symop_operation_xyz
x,y,z
1/2-x,-y,1/2+z
1/2+x,1/2-y,-z
-x,1/2+y,1/2-z
loop_
_atom_site_type_symbol
_atom_site_label
_atom_site_fract_x
_atom_site_fract_y
_atom_site_fract_z
Si Si1 0.601125 0.222708 0.267632
Si Si2 0.432513 0.140392 0.792747
Si Si3 0.642796 0.091188 0.452985
Si Si4 0.517615 0.102615 0.976663
O O1 0.479380 0.467889 0.275903
O O2 0.747226 0.309628 0.212171
O O3 0.663587 0.146383 0.357131
O O4 0.530805 0.333159 0.732315
O O5 0.488805 0.198251 0.884244
O O6 0.599753 0.362085 0.500951
O O7 0.511705 0.860553 0.465058
O O8 0.804996 0.988172 0.491095
#
# Coordination Sequence:
#
# PCOD8157928 Si02
#       4
#     4   4   4   4
#     4  12  28  48  75 107 149 189 246 301 355 428
#     4  12  26  50  75 104 144 196 242 294 359 429
#     4  12  28  50  70 112 145 192 242 296 365 434
#     4  12  28  48  76 105 150 191 240 299 367 431
#
# _framework density 23.244415
#
# number of rings (size 3 to 8) (size 9 to 14) (size 15 to 20)
#    0.000    0.000    2.500    6.000   14.000    0.000 
#    0.000    0.000    0.000    0.000    0.000    0.000 
#    0.000    0.000    0.000    0.000    0.000    0.000 
#
# Total GULP energy -198608.441793 kJ/mol
# GULP energy per Si atom -12413.027612 kJ/mol
# Density = 2.319151 g / cm^3
# Si number density = 23.244415 Si / 1000 Ang^3
#
#
#
# Elastic Constant Matrix: (Units=GPa)
#
#
# Indices 1 2 3 4 5 6 
#
# 1 67.3858 2.5992 14.8677 0.0000 0.0000 0.0000
# 2 2.5992 103.8246 9.8509 0.0000 0.0000 0.0000
# 3 14.8677 9.8509 42.6714 0.0000 0.0000 0.0000
# 4 0.0000 0.0000 0.0000 43.2037 0.0000 0.0000
# 5 0.0000 0.0000 0.0000 0.0000 31.6928 0.0000
# 6 0.0000 0.0000 0.0000 0.0000 0.0000 42.7158
#
#
#
# Elastic Compliance Matrix: (Units=1/GPa)
#
#
# Indices 1 2 3 4 5 6 
#
# 1 0.016077 0.000132 -0.005632 0.000000 0.000000 0.000000
# 2 0.000132 0.009848 -0.002320 0.000000 0.000000 0.000000
# 3 -0.005632 -0.002320 0.025933 0.000000 0.000000 0.000000
# 4 0.000000 0.000000 0.000000 0.023146 0.000000 0.000000
# 5 0.000000 0.000000 0.000000 0.000000 0.031553 0.000000
# 6 0.000000 0.000000 0.000000 0.000000 0.000000 0.023411
#
#
# Mechanical properties :
#
#
# Convention : Reuss Voigt Hill
#
# Bulk Modulus (GPa) = 27.60981 29.83526 28.72253
# Shear Modulus (GPa) = 31.70960 35.96006 33.83483
#
# Velocity S-wave (km/s) = 3.69749 3.93751 3.81939
# Velocity P-wave (km/s) = 5.48930 5.79097 5.64215
#
# Compressibility (1/GPa) = 0.03621901
#
# Stress axis : x y z
#
# Youngs Moduli (GPa) = 62.19875 101.53925 38.56124
#
# Poissons Ratio (x) = -0.01339 0.21719
# Poissons Ratio (y) = -0.00820 0.08944
# Poissons Ratio (z) = 0.35032 0.23552
#
# Static dielectric constant tensor:
#      x y z
#    x 4.224500 0.000000 0.000000 
#    y 0.000000 4.357970 0.000000 
#    z 0.000000 0.000000 4.033440 
# 
# 
# High freq. dielectric constant tensor:
#      x y z
#    x 1.931750 0.000000 0.000000 
#    y 0.000000 1.937590 0.000000 
#    z 0.000000 0.000000 1.921340 
# 
# From -- ./inp_files/274.got.cif
#   From: 2010.03.12/outbox.cif.g09.slc.cpg/sg19_1_cif.got.tgz:274.got - 2010.04.10 18:59:41.
