data_PCOD8157140
_publ_section_title
;
Structure prediction by ZEFSAII (Michael W. Deem and Ramdas Pophale) SiO2 
 PCOD8157140
Probable space group: P 21 21 21
;
_chemical_formula_sum "Si O2"
_cell_formula_units_Z 24
_cell_length_a 5.348393
_cell_length_b 12.570505
_cell_length_c 15.400964
_cell_angle_alpha 90.000000
_cell_angle_beta 90.000000
_cell_angle_gamma 90.000000
_cell_volume 1035.437626
_symmetry_space_group_name_H-M "P 21 21 21"
_symmetry_group_IT_number 19
_symmetry_cell_setting 'orthorhombic'
loop_
_space_group_symop_operation_xyz
x,y,z
1/2-x,-y,1/2+z
1/2+x,1/2-y,-z
-x,1/2+y,1/2-z
loop_
_atom_site_type_symbol
_atom_site_label
_atom_site_fract_x
_atom_site_fract_y
_atom_site_fract_z
Si Si1 0.822021 0.540109 0.612579
Si Si2 0.831177 0.604694 0.260817
Si Si3 0.681203 0.974217 0.976241
Si Si4 0.958579 0.197856 0.767517
Si Si5 0.372908 0.572814 0.847892
Si Si6 0.674740 0.775434 0.862340
O O1 0.831567 0.444974 0.682302
O O2 0.566417 0.535623 0.556910
O O3 0.067399 0.534642 0.553085
O O4 0.836589 0.652498 0.664974
O O5 0.668986 0.696617 0.308458
O O6 0.914455 0.514684 0.328295
O O7 0.074638 0.659413 0.220495
O O8 0.694353 0.852058 0.944780
O O9 0.679283 0.973755 0.081075
O O10 0.760193 0.103683 0.743632
O O11 0.064736 0.227946 0.672141
O O12 0.499730 0.677100 0.889814
#
# Coordination Sequence:
#
# PCOD8157140 Si02
#       6
#     4   4   4   4   4   4
#     4  11  23  44  67  99 143 186 233 289 358 422
#     4  10  22  41  66 105 133 186 239 288 344 435
#     4  11  26  42  67 108 149 181 225 301 371 418
#     4  11  22  41  72 100 134 190 247 290 344 439
#     4  11  25  40  71 105 147 183 238 301 368 422
#     4  10  22  38  67 101 140 180 232 295 351 428
#
# _framework density 23.178605999999998
#
# number of rings (size 3 to 8) (size 9 to 14) (size 15 to 20)
#    0.000    1.333    3.333    2.000    7.000    0.000 
#    0.000    0.000    3.667    0.000    0.000    0.000 
#    0.000    0.000    0.000    0.000    0.000    0.000 
#
# Total GULP energy -297563.529073 kJ/mol
# GULP energy per Si atom -12398.480378 kJ/mol
# Density = 2.312585 g / cm^3
# Si number density = 23.178606 Si / 1000 Ang^3
#
#
#
# Elastic Constant Matrix: (Units=GPa)
#
#
# Indices 1 2 3 4 5 6 
#
# 1 106.5346 23.3557 10.3059 0.0000 0.0000 0.0000
# 2 23.3557 69.3953 15.5953 0.0000 0.0000 0.0000
# 3 10.3059 15.5953 48.3333 0.0000 0.0000 0.0000
# 4 0.0000 0.0000 0.0000 22.2705 0.0000 0.0000
# 5 0.0000 0.0000 0.0000 0.0000 27.9783 0.0000
# 6 0.0000 0.0000 0.0000 0.0000 0.0000 44.2289
#
#
#
# Elastic Compliance Matrix: (Units=1/GPa)
#
#
# Indices 1 2 3 4 5 6 
#
# 1 0.010193 -0.003172 -0.001150 0.000000 0.000000 0.000000
# 2 -0.003172 0.016524 -0.004655 0.000000 0.000000 0.000000
# 3 -0.001150 -0.004655 0.022437 0.000000 0.000000 0.000000
# 4 0.000000 0.000000 0.000000 0.044902 0.000000 0.000000
# 5 0.000000 0.000000 0.000000 0.000000 0.035742 0.000000
# 6 0.000000 0.000000 0.000000 0.000000 0.000000 0.022610
#
#
# Mechanical properties :
#
#
# Convention : Reuss Voigt Hill
#
# Bulk Modulus (GPa) = 32.05186 35.86410 33.95798
# Shear Modulus (GPa) = 27.66053 30.56263 29.11158
#
# Velocity S-wave (km/s) = 3.45826 3.63515 3.54781
# Velocity P-wave (km/s) = 5.45933 5.75549 5.60936
#
# Compressibility (1/GPa) = 0.03119944
#
# Stress axis : x y z
#
# Youngs Moduli (GPa) = 98.10349 60.51787 44.56937
#
# Poissons Ratio (x) = 0.19198 0.05125
# Poissons Ratio (y) = 0.31121 0.20748
# Poissons Ratio (z) = 0.11281 0.28173
#
# Static dielectric constant tensor:
#      x y z
#    x 4.148350 0.000000 0.000000 
#    y 0.000000 4.271460 0.000000 
#    z 0.000000 0.000000 3.672710 
# 
# 
# High freq. dielectric constant tensor:
#      x y z
#    x 1.924350 0.000000 0.000000 
#    y 0.000000 1.916450 0.000000 
#    z 0.000000 0.000000 1.878760 
# 
# From -- ./inp_files/4429.got.cif
#   From: 2010.03.12/outbox.cif.g09.slc.cpg/sg19_3_cif.got.tgz:4429.got - 2010.04.10 18:59:41.
