data_PCOD8157962
_publ_section_title
;
Structure prediction by ZEFSAII (Michael W. Deem and Ramdas Pophale) SiO2 
 PCOD8157962
Probable space group: C 2 2 21
;
_chemical_formula_sum "Si O2"
_cell_formula_units_Z 40
_cell_length_a 24.057485
_cell_length_b 5.261703
_cell_length_c 14.059780
_cell_angle_alpha 90.000000
_cell_angle_beta 90.000000
_cell_angle_gamma 90.000000
_cell_volume 1779.733926
_symmetry_space_group_name_H-M "C 2 2 21"
_symmetry_group_IT_number 20
_symmetry_cell_setting 'orthorhombic'
loop_
_space_group_symop_operation_xyz
x,y,z
-x,-y,1/2+z
x,-y,-z
-x,y,1/2-z
1/2+x,1/2+y,z
1/2-x,1/2-y,1/2+z
1/2+x,1/2-y,-z
1/2-x,1/2+y,1/2-z
loop_
_atom_site_type_symbol
_atom_site_label
_atom_site_fract_x
_atom_site_fract_y
_atom_site_fract_z
Si Si1 0.143691 0.369660 0.613330
Si Si2 0.408518 0.367493 0.889936
Si Si3 0.030550 0.249499 0.057825
Si Si4 0.744006 0.700311 0.190360
Si Si5 0.874908 0.330718 0.294070
O O1 0.127813 0.636963 0.561180
O O2 0.209423 0.301907 0.606436
O O3 0.129628 0.415173 0.727070
O O4 0.106029 0.143835 0.566092
O O5 0.474168 0.327916 0.889476
O O6 0.389400 0.395772 0.779926
O O7 0.077007 0.350610 0.129296
O O8 0.015381 0.500000 0.000000
O O9 0.051752 0.000000 0.000000
O O10 0.740779 0.418354 0.233903
O O11 0.682742 0.769692 0.150548
#
# Coordination Sequence:
#
# PCOD8157962 Si02
#       5
#     8   8   8   8   8
#     4   9  18  33  62  91 109 137 191 245 289 329
#     4  10  20  38  60  84 110 150 197 241 278 342
#     4  12  27  41  56  82 123 163 195 239 297 353
#     4  10  16  31  55  96 112 134 175 251 292 336
#     4   9  22  36  63  85 117 145 200 241 292 339
#
# _framework density 22.475272
#
# number of rings (size 3 to 8) (size 9 to 14) (size 15 to 20)
#    1.200    0.800    2.000    1.800    2.800    0.000 
#    3.600    0.000    0.000    7.200    0.000    0.000 
#    0.000    0.000    0.000    0.000    0.000    0.000 
#
# Total GULP energy -247767.048308 kJ/mol
# GULP energy per Si atom -12388.352415 kJ/mol
# Density = 2.242412 g / cm^3
# Si number density = 22.475272 Si / 1000 Ang^3
#
#
#
# Elastic Constant Matrix: (Units=GPa)
#
#
# Indices 1 2 3 4 5 6 
#
# 1 194.8671 63.9103 38.7832 0.0000 0.0000 0.0000
# 2 63.9103 130.9961 36.9964 0.0000 0.0000 0.0000
# 3 38.7832 36.9964 35.1588 0.0000 0.0000 0.0000
# 4 0.0000 0.0000 0.0000 32.7366 0.0000 0.0000
# 5 0.0000 0.0000 0.0000 0.0000 12.8751 0.0000
# 6 0.0000 0.0000 0.0000 0.0000 0.0000 27.0697
#
#
#
# Elastic Compliance Matrix: (Units=1/GPa)
#
#
# Indices 1 2 3 4 5 6 
#
# 1 0.006836 -0.001715 -0.005736 0.000000 0.000000 0.000000
# 2 -0.001715 0.011292 -0.009990 0.000000 0.000000 0.000000
# 3 -0.005736 -0.009990 0.045282 0.000000 0.000000 0.000000
# 4 0.000000 0.000000 0.000000 0.030547 0.000000 0.000000
# 5 0.000000 0.000000 0.000000 0.000000 0.077669 0.000000
# 6 0.000000 0.000000 0.000000 0.000000 0.000000 0.036942
#
#
# Mechanical properties :
#
#
# Convention : Reuss Voigt Hill
#
# Bulk Modulus (GPa) = 35.05398 71.15577 53.10487
# Shear Modulus (GPa) = 19.76603 29.29174 24.52888
#
# Velocity S-wave (km/s) = 2.96878 3.61402 3.30718
# Velocity P-wave (km/s) = 5.23279 7.01022 6.18568
#
# Compressibility (1/GPa) = 0.02852743
#
# Stress axis : x y z
#
# Youngs Moduli (GPa) = 146.28988 88.55731 22.08388
#
# Poissons Ratio (x) = 0.15189 0.12667
# Poissons Ratio (y) = 0.25091 0.22063
# Poissons Ratio (z) = 0.83907 0.88472
#
# Static dielectric constant tensor:
#      x y z
#    x 4.066580 0.000000 0.000000 
#    y 0.000000 4.167410 0.000000 
#    z 0.000000 0.000000 3.781650 
# 
# 
# High freq. dielectric constant tensor:
#      x y z
#    x 1.890920 0.000000 0.000000 
#    y 0.000000 1.904380 0.000000 
#    z 0.000000 0.000000 1.863160 
# 
# From -- ./inp_files/25397.got.cif
#   From: 2010.03.12/outbox.cif.g09.slc.cpg/sg20_13_cif.got.tgz:25397.got - 2010.04.14 01:38:04.
