data_PCOD8157916
_publ_section_title
;
Structure prediction by ZEFSAII (Michael W. Deem and Ramdas Pophale) SiO2 
 PCOD8157916
Probable space group: P 21 21 21
;
_chemical_formula_sum "Si O2"
_cell_formula_units_Z 20
_cell_length_a 7.546696
_cell_length_b 5.266881
_cell_length_c 19.673727
_cell_angle_alpha 90.000000
_cell_angle_beta 90.000000
_cell_angle_gamma 90.000000
_cell_volume 781.982443
_symmetry_space_group_name_H-M "P 21 21 21"
_symmetry_group_IT_number 19
_symmetry_cell_setting 'orthorhombic'
loop_
_space_group_symop_operation_xyz
x,y,z
1/2-x,-y,1/2+z
1/2+x,1/2-y,-z
-x,1/2+y,1/2-z
loop_
_atom_site_type_symbol
_atom_site_label
_atom_site_fract_x
_atom_site_fract_y
_atom_site_fract_z
Si Si1 0.560622 0.088901 0.786586
Si Si2 0.049071 0.696529 0.418352
Si Si3 0.095137 0.809650 0.762457
Si Si4 0.838586 0.184607 0.594825
Si Si5 0.193442 0.019745 0.531408
O O1 0.455112 0.308226 0.744785
O O2 0.494683 0.077293 0.865095
O O3 0.763290 0.178786 0.787299
O O4 0.217727 0.555684 0.385114
O O5 0.868838 0.534220 0.425102
O O6 0.103772 0.778782 0.494358
O O7 0.166937 0.865558 0.838873
O O8 0.949120 0.584792 0.768530
O O9 0.743369 0.291122 0.528742
O O10 0.045064 0.130215 0.581098
#
# Coordination Sequence:
#
# PCOD8157916 Si02
#       5
#     4   4   4   4   4
#     4  12  26  48  76 107 147 201 244 306 378 439
#     4  12  26  46  74 107 149 191 250 307 371 448
#     4  12  28  49  76 111 150 196 252 314 374 443
#     4  12  26  48  74 106 153 189 250 311 366 452
#     4  12  26  45  76 107 143 199 242 306 379 434
#
# _framework density 25.576021999999998
#
# number of rings (size 3 to 8) (size 9 to 14) (size 15 to 20)
#    0.000    0.000    6.000    3.600    2.800    3.200 
#    0.000    0.000    0.000    0.000    0.000    0.000 
#    0.000    0.000    0.000    0.000    0.000    0.000 
#
# Total GULP energy -247897.185923 kJ/mol
# GULP energy per Si atom -12394.859296 kJ/mol
# Density = 2.551781 g / cm^3
# Si number density = 25.576022 Si / 1000 Ang^3
#
#
#
# Elastic Constant Matrix: (Units=GPa)
#
#
# Indices 1 2 3 4 5 6 
#
# 1 124.7912 13.5181 6.2020 0.0000 0.0000 0.0000
# 2 13.5181 43.8170 -2.2903 0.0000 0.0000 0.0000
# 3 6.2020 -2.2903 96.6312 0.0000 0.0000 0.0000
# 4 0.0000 0.0000 0.0000 27.3561 0.0000 0.0000
# 5 0.0000 0.0000 0.0000 0.0000 23.4017 0.0000
# 6 0.0000 0.0000 0.0000 0.0000 0.0000 20.2421
#
#
#
# Elastic Compliance Matrix: (Units=1/GPa)
#
#
# Indices 1 2 3 4 5 6 
#
# 1 0.008325 -0.002599 -0.000596 0.000000 0.000000 0.000000
# 2 -0.002599 0.023662 0.000728 0.000000 0.000000 0.000000
# 3 -0.000596 0.000728 0.010404 0.000000 0.000000 0.000000
# 4 0.000000 0.000000 0.000000 0.036555 0.000000 0.000000
# 5 0.000000 0.000000 0.000000 0.000000 0.042732 0.000000
# 6 0.000000 0.000000 0.000000 0.000000 0.000000 0.049402
#
#
# Mechanical properties :
#
#
# Convention : Reuss Voigt Hill
#
# Bulk Modulus (GPa) = 26.69825 33.34432 30.02128
# Shear Modulus (GPa) = 26.52517 30.72062 28.62289
#
# Velocity S-wave (km/s) = 3.22391 3.46952 3.34897
# Velocity P-wave (km/s) = 4.93149 5.39590 5.16891
#
# Compressibility (1/GPa) = 0.03745564
#
# Stress axis : x y z
#
# Youngs Moduli (GPa) = 120.12614 42.26153 96.11575
#
# Poissons Ratio (x) = 0.10985 0.05727
# Poissons Ratio (y) = 0.31225 -0.06994
# Poissons Ratio (z) = 0.07158 -0.03075
#
# Static dielectric constant tensor:
#      x y z
#    x 5.063640 0.000000 0.000000 
#    y 0.000000 4.418910 0.000000 
#    z 0.000000 0.000000 5.117510 
# 
# 
# High freq. dielectric constant tensor:
#      x y z
#    x 2.045200 0.000000 0.000000 
#    y 0.000000 2.003280 0.000000 
#    z 0.000000 0.000000 2.029580 
# 
# From -- ./inp_files/378.got.cif
#   From: 2010.03.12/outbox.cif.g09.slc.cpg/sg19_1_cif.got.tgz:378.got - 2010.04.10 18:59:41.
