data_PCOD8157535
_publ_section_title
;
Structure prediction by ZEFSAII (Michael W. Deem and Ramdas Pophale) SiO2 
 PCOD8157535
Probable space group: P 21 21 21
;
_chemical_formula_sum "Si O2"
_cell_formula_units_Z 20
_cell_length_a 9.616837
_cell_length_b 9.888582
_cell_length_c 9.059592
_cell_angle_alpha 90.000000
_cell_angle_beta 90.000000
_cell_angle_gamma 90.000000
_cell_volume 861.538945
_symmetry_space_group_name_H-M "P 21 21 21"
_symmetry_group_IT_number 19
_symmetry_cell_setting 'orthorhombic'
loop_
_space_group_symop_operation_xyz
x,y,z
1/2-x,-y,1/2+z
1/2+x,1/2-y,-z
-x,1/2+y,1/2-z
loop_
_atom_site_type_symbol
_atom_site_label
_atom_site_fract_x
_atom_site_fract_y
_atom_site_fract_z
Si Si1 0.818940 0.957124 0.493578
Si Si2 0.498537 0.282815 0.533420
Si Si3 0.496511 0.491692 0.971913
Si Si4 0.183157 0.209795 0.200874
Si Si5 0.011543 0.865358 0.750044
O O1 0.819806 0.867344 0.344904
O O2 0.882938 0.101975 0.448089
O O3 0.667012 0.976653 0.562012
O O4 0.905316 0.878953 0.617532
O O5 0.446051 0.135553 0.594682
O O6 0.636068 0.317053 0.629724
O O7 0.533150 0.260267 0.358908
O O8 0.580375 0.367423 0.908853
O O9 0.513133 0.497375 0.150845
O O10 0.337839 0.155913 0.178877
#
# Coordination Sequence:
#
# PCOD8157535 Si02
#       5
#     4   4   4   4   4
#     4  12  26  47  79 106 148 199 252 306 376 455
#     4  10  26  44  76 104 150 192 247 308 373 444
#     4  10  27  46  74 104 151 194 243 313 379 438
#     4  12  25  48  74 113 144 199 249 308 379 449
#     4  10  28  45  73 107 153 190 255 303 375 438
#
# _framework density 23.214272999999999
#
# number of rings (size 3 to 8) (size 9 to 14) (size 15 to 20)
#    1.200    0.000    0.000    3.600   14.000    0.000 
#    3.600    0.000    0.000    0.000    0.000    0.000 
#    0.000    0.000    0.000    0.000    0.000    0.000 
#
# Total GULP energy -247819.517970 kJ/mol
# GULP energy per Si atom -12390.975899 kJ/mol
# Density = 2.316144 g / cm^3
# Si number density = 23.214273 Si / 1000 Ang^3
#
#
#
# Elastic Constant Matrix: (Units=GPa)
#
#
# Indices 1 2 3 4 5 6 
#
# 1 159.1677 77.4478 71.2703 0.0000 0.0000 0.0000
# 2 77.4478 117.4201 30.6413 0.0000 0.0000 0.0000
# 3 71.2703 30.6413 89.8196 0.0000 0.0000 0.0000
# 4 0.0000 0.0000 0.0000 42.0779 0.0000 0.0000
# 5 0.0000 0.0000 0.0000 0.0000 43.7548 0.0000
# 6 0.0000 0.0000 0.0000 0.0000 0.0000 32.4324
#
#
#
# Elastic Compliance Matrix: (Units=1/GPa)
#
#
# Indices 1 2 3 4 5 6 
#
# 1 0.013120 -0.006517 -0.008187 0.000000 0.000000 0.000000
# 2 -0.006517 0.012586 0.000877 0.000000 0.000000 0.000000
# 3 -0.008187 0.000877 0.017330 0.000000 0.000000 0.000000
# 4 0.000000 0.000000 0.000000 0.023765 0.000000 0.000000
# 5 0.000000 0.000000 0.000000 0.000000 0.022855 0.000000
# 6 0.000000 0.000000 0.000000 0.000000 0.000000 0.030833
#
#
# Mechanical properties :
#
#
# Convention : Reuss Voigt Hill
#
# Bulk Modulus (GPa) = 65.00706 80.56957 72.78832
# Shear Modulus (GPa) = 32.62228 36.12288 34.37258
#
# Velocity S-wave (km/s) = 3.75276 3.94898 3.85212
# Velocity P-wave (km/s) = 6.84408 7.45485 7.15599
#
# Compressibility (1/GPa) = 0.01538294
#
# Stress axis : x y z
#
# Youngs Moduli (GPa) = 76.22222 79.45411 57.70256
#
# Poissons Ratio (x) = 0.51780 0.47241
# Poissons Ratio (y) = 0.49674 -0.05063
# Poissons Ratio (z) = 0.62402 -0.06972
#
# Static dielectric constant tensor:
#      x y z
#    x 4.140120 0.000000 0.000000 
#    y 0.000000 4.179050 0.000000 
#    z 0.000000 0.000000 4.135370 
# 
# 
# High freq. dielectric constant tensor:
#      x y z
#    x 1.907910 0.000000 0.000000 
#    y 0.000000 1.921150 0.000000 
#    z 0.000000 0.000000 1.917610 
# 
# From -- ./inp_files/4884.got.cif
#   From: 2010.03.12/outbox.cif.g09.slc.cpg/sg19_3_cif.got.tgz:4884.got - 2010.04.10 18:59:41.
