data_PCOD8157608
_publ_section_title
;
Structure prediction by ZEFSAII (Michael W. Deem and Ramdas Pophale) SiO2 
 PCOD8157608
Probable space group: P 21 21 21
;
_chemical_formula_sum "Si O2"
_cell_formula_units_Z 32
_cell_length_a 8.336239
_cell_length_b 13.075968
_cell_length_c 12.347059
_cell_angle_alpha 90.000000
_cell_angle_beta 90.000000
_cell_angle_gamma 90.000000
_cell_volume 1345.883689
_symmetry_space_group_name_H-M "P 21 21 21"
_symmetry_group_IT_number 19
_symmetry_cell_setting 'orthorhombic'
loop_
_space_group_symop_operation_xyz
x,y,z
1/2-x,-y,1/2+z
1/2+x,1/2-y,-z
-x,1/2+y,1/2-z
loop_
_atom_site_type_symbol
_atom_site_label
_atom_site_fract_x
_atom_site_fract_y
_atom_site_fract_z
Si Si1 0.979111 0.964036 0.616724
Si Si2 0.194770 0.044029 0.005824
Si Si3 0.563078 0.699847 0.235666
Si Si4 0.455337 0.339747 0.630837
Si Si5 0.822146 0.942504 0.410599
Si Si6 0.985251 0.591732 0.693581
Si Si7 0.204324 0.816558 0.986371
Si Si8 0.599351 0.284425 0.842922
O O1 0.121494 0.929930 0.535107
O O2 0.961187 0.897990 0.726830
O O3 0.820464 0.958756 0.542189
O O4 0.012538 0.071714 0.675645
O O5 0.080132 0.130490 0.061111
O O6 0.166870 0.049881 0.874911
O O7 0.158999 0.926563 0.040795
O O8 0.475840 0.787250 0.303774
O O9 0.572117 0.708003 0.106663
O O10 0.741484 0.686138 0.279567
O O11 0.421765 0.461208 0.636238
O O12 0.312531 0.274426 0.574141
O O13 0.617352 0.320212 0.562498
O O14 0.459906 0.298871 0.754092
O O15 0.643944 0.948265 0.366489
O O16 0.903256 0.832590 0.384148
#
# Coordination Sequence:
#
# PCOD8157608 Si02
#       8
#     4   4   4   4   4   4   4   4
#     4  11  22  43  69  98 137 181 230 292 344 421
#     4  11  23  43  71 100 137 185 239 286 355 421
#     4   9  20  41  66  94 136 173 231 281 356 404
#     4  11  25  43  69 101 143 185 239 293 355 422
#     4  11  24  45  67 101 139 182 236 294 358 424
#     4  11  24  43  69 100 138 188 222 297 355 416
#     4  11  23  43  67 103 138 192 233 295 346 433
#     4   9  23  43  68  99 136 178 232 300 345 421
#
# _framework density 23.776202000000001
#
# number of rings (size 3 to 8) (size 9 to 14) (size 15 to 20)
#    0.000    1.500    2.500    1.500    3.500    1.000 
#    0.000    0.000    0.000    0.000    0.000    0.000 
#    0.000    0.000    0.000    0.000    0.000    0.000 
#
# Total GULP energy -396477.375499 kJ/mol
# GULP energy per Si atom -12389.917984 kJ/mol
# Density = 2.372209 g / cm^3
# Si number density = 23.776202 Si / 1000 Ang^3
#
#
#
# Elastic Constant Matrix: (Units=GPa)
#
#
# Indices 1 2 3 4 5 6 
#
# 1 49.1583 20.8999 16.9948 0.0000 0.0000 0.0000
# 2 20.8999 130.8309 26.6223 0.0000 0.0000 0.0000
# 3 16.9948 26.6223 90.5053 0.0000 0.0000 0.0000
# 4 0.0000 0.0000 0.0000 43.3982 0.0000 0.0000
# 5 0.0000 0.0000 0.0000 0.0000 35.7279 0.0000
# 6 0.0000 0.0000 0.0000 0.0000 0.0000 25.6748
#
#
#
# Elastic Compliance Matrix: (Units=1/GPa)
#
#
# Indices 1 2 3 4 5 6 
#
# 1 0.022773 -0.002944 -0.003410 0.000000 0.000000 0.000000
# 2 -0.002944 0.008511 -0.001951 0.000000 0.000000 0.000000
# 3 -0.003410 -0.001951 0.012263 0.000000 0.000000 0.000000
# 4 0.000000 0.000000 0.000000 0.023042 0.000000 0.000000
# 5 0.000000 0.000000 0.000000 0.000000 0.027989 0.000000
# 6 0.000000 0.000000 0.000000 0.000000 0.000000 0.038949
#
#
# Mechanical properties :
#
#
# Convention : Reuss Voigt Hill
#
# Bulk Modulus (GPa) = 37.12337 44.39205 40.75771
# Shear Modulus (GPa) = 31.42356 34.69201 33.05779
#
# Velocity S-wave (km/s) = 3.63938 3.82397 3.73282
# Velocity P-wave (km/s) = 5.77128 6.18129 5.97980
#
# Compressibility (1/GPa) = 0.02693721
#
# Stress axis : x y z
#
# Youngs Moduli (GPa) = 43.91153 117.49955 81.54471
#
# Poissons Ratio (x) = 0.34592 0.27809
# Poissons Ratio (y) = 0.12928 0.15906
# Poissons Ratio (z) = 0.14975 0.22920
#
# Static dielectric constant tensor:
#      x y z
#    x 3.928640 0.000000 0.000000 
#    y 0.000000 4.387060 0.000000 
#    z 0.000000 0.000000 4.675380 
# 
# 
# High freq. dielectric constant tensor:
#      x y z
#    x 1.908620 0.000000 0.000000 
#    y 0.000000 1.959720 0.000000 
#    z 0.000000 0.000000 1.948860 
# 
# From -- ./inp_files/4676.got.cif
#   From: 2010.03.12/outbox.cif.g09.slc.cpg/sg19_3_cif.got.tgz:4676.got - 2010.04.10 18:59:41.
