data_PCOD8157834
_publ_section_title
;
Structure prediction by ZEFSAII (Michael W. Deem and Ramdas Pophale) SiO2 
 PCOD8157834
Probable space group: P 21 21 21
;
_chemical_formula_sum "Si O2"
_cell_formula_units_Z 28
_cell_length_a 5.258330
_cell_length_b 8.559618
_cell_length_c 25.772811
_cell_angle_alpha 90.000000
_cell_angle_beta 90.000000
_cell_angle_gamma 90.000000
_cell_volume 1160.016082
_symmetry_space_group_name_H-M "P 21 21 21"
_symmetry_group_IT_number 19
_symmetry_cell_setting 'orthorhombic'
loop_
_space_group_symop_operation_xyz
x,y,z
1/2-x,-y,1/2+z
1/2+x,1/2-y,-z
-x,1/2+y,1/2-z
loop_
_atom_site_type_symbol
_atom_site_label
_atom_site_fract_x
_atom_site_fract_y
_atom_site_fract_z
Si Si1 0.902310 0.334352 0.864349
Si Si2 0.752412 0.133452 0.261742
Si Si3 0.982717 0.161360 0.482998
Si Si4 0.503052 0.180594 0.020729
Si Si5 0.908466 0.988184 0.166383
Si Si6 0.046556 0.146013 0.362262
Si Si7 0.619945 0.419171 0.198399
O O1 0.890214 0.279781 0.923281
O O2 0.676634 0.458326 0.857161
O O3 0.180241 0.403784 0.853337
O O4 0.885750 0.179441 0.827899
O O5 0.927711 0.011671 0.229056
O O6 0.775440 0.302194 0.235502
O O7 0.812186 0.142255 0.322568
O O8 0.471323 0.056846 0.262686
O O9 0.262166 0.223864 0.497234
O O10 0.955545 0.133931 0.421382
O O11 0.940015 0.001316 0.513200
O O12 0.774787 0.267223 0.017072
O O13 0.826806 0.814948 0.148606
O O14 0.222521 0.997926 0.348444
#
# Coordination Sequence:
#
# PCOD8157834 Si02
#       7
#     4   4   4   4   4   4   4
#     4  11  26  47  71 104 147 195 245 301 373 440
#     4  11  27  43  72 106 152 194 246 305 370 458
#     4  12  28  50  76 111 149 196 255 318 376 441
#     4  12  25  45  76 106 148 190 253 310 373 434
#     4  11  26  45  70 101 145 193 241 298 370 447
#     4  12  27  44  77 103 149 196 252 306 379 443
#     4  11  27  44  72 107 152 194 250 300 377 449
#
# _framework density 24.137595000000001
#
# number of rings (size 3 to 8) (size 9 to 14) (size 15 to 20)
#    0.000    0.571    0.000    6.000   20.000    0.000 
#    0.000    0.000    0.000    0.000    0.000    0.000 
#    0.000    0.000    0.000    0.000    0.000    0.000 
#
# Total GULP energy -347079.627510 kJ/mol
# GULP energy per Si atom -12395.700983 kJ/mol
# Density = 2.408266 g / cm^3
# Si number density = 24.137595 Si / 1000 Ang^3
#
#
#
# Elastic Constant Matrix: (Units=GPa)
#
#
# Indices 1 2 3 4 5 6 
#
# 1 95.8030 24.3874 20.2608 0.0000 0.0000 0.0000
# 2 24.3874 115.6380 26.2658 0.0000 0.0000 0.0000
# 3 20.2608 26.2658 119.0285 0.0000 0.0000 0.0000
# 4 0.0000 0.0000 0.0000 31.9274 0.0000 0.0000
# 5 0.0000 0.0000 0.0000 0.0000 26.4452 0.0000
# 6 0.0000 0.0000 0.0000 0.0000 0.0000 34.3815
#
#
#
# Elastic Compliance Matrix: (Units=1/GPa)
#
#
# Indices 1 2 3 4 5 6 
#
# 1 0.011268 -0.002043 -0.001467 0.000000 0.000000 0.000000
# 2 -0.002043 0.009474 -0.001743 0.000000 0.000000 0.000000
# 3 -0.001467 -0.001743 0.009036 0.000000 0.000000 0.000000
# 4 0.000000 0.000000 0.000000 0.031321 0.000000 0.000000
# 5 0.000000 0.000000 0.000000 0.000000 0.037814 0.000000
# 6 0.000000 0.000000 0.000000 0.000000 0.000000 0.029085
#
#
# Mechanical properties :
#
#
# Convention : Reuss Voigt Hill
#
# Bulk Modulus (GPa) = 51.88886 52.47749 52.18317
# Shear Modulus (GPa) = 34.49945 35.85452 35.17698
#
# Velocity S-wave (km/s) = 3.78469 3.85830 3.82167
# Velocity P-wave (km/s) = 6.37513 6.45266 6.41401
#
# Compressibility (1/GPa) = 0.01927196
#
# Stress axis : x y z
#
# Youngs Moduli (GPa) = 88.74297 105.54697 110.67205
#
# Poissons Ratio (x) = 0.21565 0.16238
# Poissons Ratio (y) = 0.18132 0.19289
# Poissons Ratio (z) = 0.13021 0.18396
#
# Static dielectric constant tensor:
#      x y z
#    x 4.083410 0.000000 0.000000 
#    y 0.000000 4.682690 0.000000 
#    z 0.000000 0.000000 4.597520 
# 
# 
# High freq. dielectric constant tensor:
#      x y z
#    x 1.952170 0.000000 0.000000 
#    y 0.000000 1.976570 0.000000 
#    z 0.000000 0.000000 1.969020 
# 
# From -- ./inp_files/512.got.cif
#   From: 2010.03.12/outbox.cif.g09.slc.cpg/sg19_1_cif.got.tgz:512.got - 2010.04.10 18:59:41.
