data_PCOD8157827
_publ_section_title
;
Structure prediction by ZEFSAII (Michael W. Deem and Ramdas Pophale) SiO2 
 PCOD8157827
Probable space group: P 21 21 21
;
_chemical_formula_sum "Si O2"
_cell_formula_units_Z 24
_cell_length_a 17.839773
_cell_length_b 9.662899
_cell_length_c 5.666836
_cell_angle_alpha 90.000000
_cell_angle_beta 90.000000
_cell_angle_gamma 90.000000
_cell_volume 976.871430
_symmetry_space_group_name_H-M "P 21 21 21"
_symmetry_group_IT_number 19
_symmetry_cell_setting 'orthorhombic'
loop_
_space_group_symop_operation_xyz
x,y,z
1/2-x,-y,1/2+z
1/2+x,1/2-y,-z
-x,1/2+y,1/2-z
loop_
_atom_site_type_symbol
_atom_site_label
_atom_site_fract_x
_atom_site_fract_y
_atom_site_fract_z
Si Si1 0.769064 0.925213 0.267480
Si Si2 0.985280 0.517394 0.675190
Si Si3 0.961088 0.278333 0.003912
Si Si4 0.704698 0.678374 0.488673
Si Si5 0.921243 0.814950 0.137715
Si Si6 0.164807 0.108504 0.705226
O O1 0.723153 0.779642 0.268228
O O2 0.857717 0.895758 0.284571
O O3 0.747849 0.003831 0.513402
O O4 0.984535 0.431317 0.918358
O O5 0.896933 0.545723 0.611990
O O6 0.029948 0.663184 0.704823
O O7 0.026498 0.429766 0.478574
O O8 0.875803 0.279832 0.098149
O O9 0.021355 0.229598 0.197834
O O10 0.707178 0.517553 0.421471
O O11 0.771816 0.703077 0.674700
O O12 0.882119 0.706255 0.966949
#
# Coordination Sequence:
#
# PCOD8157827 Si02
#       6
#     4   4   4   4   4   4
#     4  12  28  51  81 119 164 213 270 338 413 487
#     4  11  25  48  73 113 156 200 268 333 405 490
#     4  11  27  45  78 111 154 208 268 330 419 480
#     4  11  26  48  79 114 163 211 273 334 406 498
#     4  12  27  47  81 107 163 205 268 346 404 495
#     4  11  25  49  78 116 158 213 275 335 413 484
#
# _framework density 24.568225999999999
#
# number of rings (size 3 to 8) (size 9 to 14) (size 15 to 20)
#    0.000    0.667    1.667    4.000   11.667    0.000 
#    6.000    0.000    0.000    0.000    0.000    0.000 
#    0.000    0.000    0.000    0.000    0.000    0.000 
#
# Total GULP energy -297416.802896 kJ/mol
# GULP energy per Si atom -12392.366787 kJ/mol
# Density = 2.451231 g / cm^3
# Si number density = 24.568226 Si / 1000 Ang^3
#
#
#
# Elastic Constant Matrix: (Units=GPa)
#
#
# Indices 1 2 3 4 5 6 
#
# 1 207.4388 67.3115 79.4994 0.0000 0.0000 0.0000
# 2 67.3115 132.0074 48.9812 0.0000 0.0000 0.0000
# 3 79.4994 48.9812 100.5185 0.0000 0.0000 0.0000
# 4 0.0000 0.0000 0.0000 25.4278 0.0000 0.0000
# 5 0.0000 0.0000 0.0000 0.0000 46.3017 0.0000
# 6 0.0000 0.0000 0.0000 0.0000 0.0000 34.2206
#
#
#
# Elastic Compliance Matrix: (Units=1/GPa)
#
#
# Indices 1 2 3 4 5 6 
#
# 1 0.007299 -0.001928 -0.004833 0.000000 0.000000 0.000000
# 2 -0.001928 0.009757 -0.003229 0.000000 0.000000 0.000000
# 3 -0.004833 -0.003229 0.015344 0.000000 0.000000 0.000000
# 4 0.000000 0.000000 0.000000 0.039327 0.000000 0.000000
# 5 0.000000 0.000000 0.000000 0.000000 0.021597 0.000000
# 6 0.000000 0.000000 0.000000 0.000000 0.000000 0.029222
#
#
# Mechanical properties :
#
#
# Convention : Reuss Voigt Hill
#
# Bulk Modulus (GPa) = 80.52251 92.39432 86.45841
# Shear Modulus (GPa) = 34.09100 37.46820 35.77960
#
# Velocity S-wave (km/s) = 3.72910 3.90945 3.82034
# Velocity P-wave (km/s) = 7.16853 7.62019 7.39780
#
# Compressibility (1/GPa) = 0.01241889
#
# Stress axis : x y z
#
# Youngs Moduli (GPa) = 137.01382 102.49223 65.17171
#
# Poissons Ratio (x) = 0.19765 0.31495
# Poissons Ratio (y) = 0.26422 0.21045
# Poissons Ratio (z) = 0.66214 0.33097
#
# Static dielectric constant tensor:
#      x y z
#    x 4.930320 0.000000 0.000000 
#    y 0.000000 4.738840 0.000000 
#    z 0.000000 0.000000 4.103620 
# 
# 
# High freq. dielectric constant tensor:
#      x y z
#    x 2.003000 0.000000 0.000000 
#    y 0.000000 1.999340 0.000000 
#    z 0.000000 0.000000 1.942970 
# 
# From -- ./inp_files/1696.got.cif
#   From: 2010.03.12/outbox.cif.g09.slc.cpg/sg19_1_cif.got.tgz:1696.got - 2010.04.10 18:59:41.
