data_PCOD8157079
_publ_section_title
;
Structure prediction by ZEFSAII (Michael W. Deem and Ramdas Pophale) SiO2 
 PCOD8157079
Probable space group: P 21 21 21
;
_chemical_formula_sum "Si O2"
_cell_formula_units_Z 24
_cell_length_a 7.883550
_cell_length_b 10.844365
_cell_length_c 11.771200
_cell_angle_alpha 90.000000
_cell_angle_beta 90.000000
_cell_angle_gamma 90.000000
_cell_volume 1006.344533
_symmetry_space_group_name_H-M "P 21 21 21"
_symmetry_group_IT_number 19
_symmetry_cell_setting 'orthorhombic'
loop_
_space_group_symop_operation_xyz
x,y,z
1/2-x,-y,1/2+z
1/2+x,1/2-y,-z
-x,1/2+y,1/2-z
loop_
_atom_site_type_symbol
_atom_site_label
_atom_site_fract_x
_atom_site_fract_y
_atom_site_fract_z
Si Si1 0.837551 0.362977 0.033224
Si Si2 0.855277 0.041935 0.412370
Si Si3 0.057727 0.766984 0.247046
Si Si4 0.035554 0.698606 0.902424
Si Si5 0.313892 0.315944 0.166912
Si Si6 0.331565 0.094970 0.540481
O O1 0.806738 0.285034 0.149164
O O2 0.993814 0.447050 0.068105
O O3 0.886976 0.270013 0.932649
O O4 0.681722 0.450086 0.992362
O O5 0.896674 0.138789 0.313062
O O6 0.824032 0.115580 0.530088
O O7 0.695892 0.957307 0.377646
O O8 0.071435 0.882528 0.159390
O O9 0.864828 0.761397 0.290172
O O10 0.050295 0.684113 0.768141
O O11 0.853029 0.656657 0.945825
O O12 0.067273 0.840586 0.937119
#
# Coordination Sequence:
#
# PCOD8157079 Si02
#       6
#     4   4   4   4   4   4
#     4  10  23  39  67  99 130 170 230 272 335 400
#     4   9  22  43  62  91 137 172 221 276 334 413
#     4  10  23  44  67  94 134 181 216 278 345 395
#     4  10  21  42  64  93 132 175 221 273 347 393
#     4  11  23  38  68  94 131 173 225 285 328 404
#     4  10  22  42  66  95 132 175 223 276 333 421
#
# _framework density 23.848692
#
# number of rings (size 3 to 8) (size 9 to 14) (size 15 to 20)
#    0.000    2.000    0.000    3.000    9.333    2.667 
#    9.000    3.333    0.000    0.000    0.000    0.000 
#    0.000    0.000    0.000    0.000    0.000    0.000 
#
# Total GULP energy -297470.101537 kJ/mol
# GULP energy per Si atom -12394.587564 kJ/mol
# Density = 2.379441 g / cm^3
# Si number density = 23.848692 Si / 1000 Ang^3
#
#
#
# Elastic Constant Matrix: (Units=GPa)
#
#
# Indices 1 2 3 4 5 6 
#
# 1 31.7946 9.1801 15.6099 0.0000 0.0000 0.0000
# 2 9.1801 109.3762 54.9166 0.0000 0.0000 0.0000
# 3 15.6099 54.9166 160.4205 0.0000 0.0000 0.0000
# 4 0.0000 0.0000 0.0000 48.7228 0.0000 0.0000
# 5 0.0000 0.0000 0.0000 0.0000 17.2453 0.0000
# 6 0.0000 0.0000 0.0000 0.0000 0.0000 27.7306
#
#
#
# Elastic Compliance Matrix: (Units=1/GPa)
#
#
# Indices 1 2 3 4 5 6 
#
# 1 0.033208 -0.001407 -0.002750 0.000000 0.000000 0.000000
# 2 -0.001407 0.011100 -0.003663 0.000000 0.000000 0.000000
# 3 -0.002750 -0.003663 0.007755 0.000000 0.000000 0.000000
# 4 0.000000 0.000000 0.000000 0.020524 0.000000 0.000000
# 5 0.000000 0.000000 0.000000 0.000000 0.057987 0.000000
# 6 0.000000 0.000000 0.000000 0.000000 0.000000 0.036061
#
#
# Mechanical properties :
#
#
# Convention : Reuss Voigt Hill
#
# Bulk Modulus (GPa) = 27.45407 51.22272 39.33839
# Shear Modulus (GPa) = 25.71807 33.53205 29.62506
#
# Velocity S-wave (km/s) = 3.28744 3.75378 3.52832
# Velocity P-wave (km/s) = 5.09376 6.34922 5.75583
#
# Compressibility (1/GPa) = 0.03642448
#
# Stress axis : x y z
#
# Youngs Moduli (GPa) = 30.11312 90.09053 128.94676
#
# Poissons Ratio (x) = 0.12671 0.35459
# Poissons Ratio (y) = 0.04235 0.47233
# Poissons Ratio (z) = 0.08281 0.33000
#
# Static dielectric constant tensor:
#      x y z
#    x 4.060520 0.000000 0.000000 
#    y 0.000000 4.856350 0.000000 
#    z 0.000000 0.000000 4.889490 
# 
# 
# High freq. dielectric constant tensor:
#      x y z
#    x 1.922440 0.000000 0.000000 
#    y 0.000000 1.952480 0.000000 
#    z 0.000000 0.000000 1.956560 
# 
# From -- ./inp_files/3399.got.cif
#   From: 2010.03.12/outbox.cif.g09.slc.cpg/sg19_2_cif.got.tgz:3399.got - 2010.04.10 18:59:41.
