data_PCOD8157923
_publ_section_title
;
Structure prediction by ZEFSAII (Michael W. Deem and Ramdas Pophale) SiO2 
 PCOD8157923
Probable space group: P 21 21 21
;
_chemical_formula_sum "Si O2"
_cell_formula_units_Z 24
_cell_length_a 9.198522
_cell_length_b 9.302254
_cell_length_c 12.121435
_cell_angle_alpha 90.000000
_cell_angle_beta 90.000000
_cell_angle_gamma 90.000000
_cell_volume 1037.194684
_symmetry_space_group_name_H-M "P 21 21 21"
_symmetry_group_IT_number 19
_symmetry_cell_setting 'orthorhombic'
loop_
_space_group_symop_operation_xyz
x,y,z
1/2-x,-y,1/2+z
1/2+x,1/2-y,-z
-x,1/2+y,1/2-z
loop_
_atom_site_type_symbol
_atom_site_label
_atom_site_fract_x
_atom_site_fract_y
_atom_site_fract_z
Si Si1 0.713602 0.073259 0.037530
Si Si2 0.525439 0.536804 0.013510
Si Si3 0.445294 0.324838 0.354631
Si Si4 0.428574 0.979878 0.723598
Si Si5 0.681198 0.341272 0.180245
Si Si6 0.329286 0.671233 0.703360
O O1 0.735779 0.187434 0.136106
O O2 0.581820 0.967192 0.072064
O O3 0.675384 0.162212 0.928325
O O4 0.855657 0.976785 0.017152
O O5 0.563219 0.689434 0.065371
O O6 0.566358 0.409495 0.095964
O O7 0.617173 0.522140 0.900918
O O8 0.603749 0.326718 0.299001
O O9 0.329528 0.314078 0.255496
O O10 0.319750 0.055534 0.809017
O O11 0.593028 0.029528 0.748910
O O12 0.424195 0.808861 0.739182
#
# Coordination Sequence:
#
# PCOD8157923 Si02
#       6
#     4   4   4   4   4   4
#     4  12  28  48  79 110 152 200 250 321 379 454
#     4  12  26  48  72 111 149 196 255 306 391 450
#     4  12  28  46  77 112 149 199 255 313 377 462
#     4  12  28  46  73 111 148 196 248 314 378 450
#     4  12  27  48  78 108 151 195 255 314 375 453
#     4  12  27  48  75 110 153 196 253 310 382 451
#
# _framework density 23.139340000000001
#
# number of rings (size 3 to 8) (size 9 to 14) (size 15 to 20)
#    0.000    0.000    6.667    2.000    4.667    1.333 
#    0.000    0.000    0.000    0.000    0.000    0.000 
#    0.000    0.000    0.000    0.000    0.000    0.000 
#
# Total GULP energy -297775.233471 kJ/mol
# GULP energy per Si atom -12407.301395 kJ/mol
# Density = 2.308667 g / cm^3
# Si number density = 23.139340 Si / 1000 Ang^3
#
#
#
# Elastic Constant Matrix: (Units=GPa)
#
#
# Indices 1 2 3 4 5 6 
#
# 1 63.0421 28.4249 18.6201 0.0000 0.0000 0.0000
# 2 28.4249 132.0250 30.4041 0.0000 0.0000 0.0000
# 3 18.6201 30.4041 80.4408 0.0000 0.0000 0.0000
# 4 0.0000 0.0000 0.0000 48.6307 0.0000 0.0000
# 5 0.0000 0.0000 0.0000 0.0000 40.2265 0.0000
# 6 0.0000 0.0000 0.0000 0.0000 0.0000 37.6031
#
#
#
# Elastic Compliance Matrix: (Units=1/GPa)
#
#
# Indices 1 2 3 4 5 6 
#
# 1 0.018203 -0.003230 -0.002993 0.000000 0.000000 0.000000
# 2 -0.003230 0.008870 -0.002605 0.000000 0.000000 0.000000
# 3 -0.002993 -0.002605 0.014109 0.000000 0.000000 0.000000
# 4 0.000000 0.000000 0.000000 0.020563 0.000000 0.000000
# 5 0.000000 0.000000 0.000000 0.000000 0.024859 0.000000
# 6 0.000000 0.000000 0.000000 0.000000 0.000000 0.026594
#
#
# Mechanical properties :
#
#
# Convention : Reuss Voigt Hill
#
# Bulk Modulus (GPa) = 42.50557 47.82291 45.16424
# Shear Modulus (GPa) = 36.05068 38.49598 37.27333
#
# Velocity S-wave (km/s) = 3.95141 4.08322 4.01786
# Velocity P-wave (km/s) = 6.26318 6.55305 6.40976
#
# Compressibility (1/GPa) = 0.02352633
#
# Stress axis : x y z
#
# Youngs Moduli (GPa) = 54.93711 112.74515 70.87795
#
# Poissons Ratio (x) = 0.36415 0.21212
# Poissons Ratio (y) = 0.17744 0.18462
# Poissons Ratio (z) = 0.16441 0.29368
#
# Static dielectric constant tensor:
#      x y z
#    x 3.959000 0.000000 0.000000 
#    y 0.000000 4.095980 0.000000 
#    z 0.000000 0.000000 4.382060 
# 
# 
# High freq. dielectric constant tensor:
#      x y z
#    x 1.908260 0.000000 0.000000 
#    y 0.000000 1.923410 0.000000 
#    z 0.000000 0.000000 1.929200 
# 
# From -- ./inp_files/2672.got.cif
#   From: 2010.03.12/outbox.cif.g09.slc.cpg/sg19_2_cif.got.tgz:2672.got - 2010.04.10 18:59:41.
