data_PCOD8157500
_publ_section_title
;
Structure prediction by ZEFSAII (Michael W. Deem and Ramdas Pophale) SiO2 
 PCOD8157500
Probable space group: P 21 21 21
;
_chemical_formula_sum "Si O2"
_cell_formula_units_Z 28
_cell_length_a 19.876372
_cell_length_b 10.943014
_cell_length_c 4.937003
_cell_angle_alpha 90.000000
_cell_angle_beta 90.000000
_cell_angle_gamma 90.000000
_cell_volume 1073.834771
_symmetry_space_group_name_H-M "P 21 21 21"
_symmetry_group_IT_number 19
_symmetry_cell_setting 'orthorhombic'
loop_
_space_group_symop_operation_xyz
x,y,z
1/2-x,-y,1/2+z
1/2+x,1/2-y,-z
-x,1/2+y,1/2-z
loop_
_atom_site_type_symbol
_atom_site_label
_atom_site_fract_x
_atom_site_fract_y
_atom_site_fract_z
Si Si1 0.753762 0.082534 0.464304
Si Si2 0.681582 0.257224 0.818633
Si Si3 0.672106 0.641936 0.393236
Si Si4 0.106643 0.657378 0.938237
Si Si5 0.998053 0.333858 0.350350
Si Si6 0.377937 0.006591 0.598718
Si Si7 0.082413 0.383330 0.841073
O O1 0.694974 0.180762 0.540523
O O2 0.824579 0.145471 0.380590
O O3 0.727105 0.991650 0.238322
O O4 0.751478 0.314593 0.913103
O O5 0.628043 0.367917 0.791381
O O6 0.654638 0.165649 0.051391
O O7 0.622282 0.751328 0.309537
O O8 0.653602 0.601550 0.691793
O O9 0.662207 0.528225 0.183360
O O10 0.082722 0.528963 0.820572
O O11 0.047410 0.712858 0.121736
O O12 0.063474 0.328525 0.546999
O O13 0.956300 0.456888 0.429743
O O14 0.023868 0.339853 0.044889
#
# Coordination Sequence:
#
# PCOD8157500 Si02
#       7
#     4   4   4   4   4   4   4
#     4  11  25  45  71 109 144 185 240 300 379 433
#     4  11  26  44  75 110 145 185 244 309 364 440
#     4  10  24  46  76 106 143 186 234 304 379 435
#     4  10  25  49  73  99 148 187 240 300 363 431
#     4  11  28  46  69 101 142 197 241 291 357 427
#     4  11  24  47  74 106 142 192 242 299 369 434
#     4  12  28  45  70 107 140 194 243 297 353 430
#
# _framework density 26.074773
#
# number of rings (size 3 to 8) (size 9 to 14) (size 15 to 20)
#    0.000    1.143    1.429    2.571    6.000   13.714 
#    0.000    0.000    0.000    0.000    0.000    0.000 
#    0.000    0.000    0.000    0.000    0.000    0.000 
#
# Total GULP energy -347277.540788 kJ/mol
# GULP energy per Si atom -12402.769314 kJ/mol
# Density = 2.601543 g / cm^3
# Si number density = 26.074773 Si / 1000 Ang^3
#
#
#
# Elastic Constant Matrix: (Units=GPa)
#
#
# Indices 1 2 3 4 5 6 
#
# 1 69.8860 -2.7014 2.7145 0.0000 0.0000 0.0000
# 2 -2.7014 121.6130 2.2671 0.0000 0.0000 0.0000
# 3 2.7145 2.2671 65.0359 0.0000 0.0000 0.0000
# 4 0.0000 0.0000 0.0000 19.0668 0.0000 0.0000
# 5 0.0000 0.0000 0.0000 0.0000 28.4968 0.0000
# 6 0.0000 0.0000 0.0000 0.0000 0.0000 41.2470
#
#
#
# Elastic Compliance Matrix: (Units=1/GPa)
#
#
# Indices 1 2 3 4 5 6 
#
# 1 0.014345 0.000330 -0.000610 0.000000 0.000000 0.000000
# 2 0.000330 0.008236 -0.000301 0.000000 0.000000 0.000000
# 3 -0.000610 -0.000301 0.015412 0.000000 0.000000 0.000000
# 4 0.000000 0.000000 0.000000 0.052447 0.000000 0.000000
# 5 0.000000 0.000000 0.000000 0.000000 0.035092 0.000000
# 6 0.000000 0.000000 0.000000 0.000000 0.000000 0.024244
#
#
# Mechanical properties :
#
#
# Convention : Reuss Voigt Hill
#
# Bulk Modulus (GPa) = 27.15097 29.01060 28.08078
# Shear Modulus (GPa) = 30.63434 34.71243 32.67339
#
# Velocity S-wave (km/s) = 3.43135 3.65261 3.54371
# Velocity P-wave (km/s) = 5.11216 5.37948 5.24752
#
# Compressibility (1/GPa) = 0.03683110
#
# Stress axis : x y z
#
# Youngs Moduli (GPa) = 69.70839 121.42193 64.88418
#
# Poissons Ratio (x) = -0.04007 0.03960
# Poissons Ratio (y) = -0.02301 0.01952
# Poissons Ratio (z) = 0.04254 0.03653
#
# Static dielectric constant tensor:
#      x y z
#    x 4.826050 0.000000 0.000000 
#    y 0.000000 4.880530 0.000000 
#    z 0.000000 0.000000 4.413730 
# 
# 
# High freq. dielectric constant tensor:
#      x y z
#    x 2.059030 0.000000 0.000000 
#    y 0.000000 2.049020 0.000000 
#    z 0.000000 0.000000 2.034190 
# 
# From -- ./inp_files/1953.got.cif
#   From: 2010.03.12/outbox.cif.g09.slc.cpg/sg19_1_cif.got.tgz:1953.got - 2010.04.10 18:59:41.
