data_PCOD8157704
_publ_section_title
;
Structure prediction by ZEFSAII (Michael W. Deem and Ramdas Pophale) SiO2 
 PCOD8157704
Probable space group: P 21 21 21
;
_chemical_formula_sum "Si O2"
_cell_formula_units_Z 24
_cell_length_a 12.356518
_cell_length_b 5.121796
_cell_length_c 16.477003
_cell_angle_alpha 90.000000
_cell_angle_beta 90.000000
_cell_angle_gamma 90.000000
_cell_volume 1042.789390
_symmetry_space_group_name_H-M "P 21 21 21"
_symmetry_group_IT_number 19
_symmetry_cell_setting 'orthorhombic'
loop_
_space_group_symop_operation_xyz
x,y,z
1/2-x,-y,1/2+z
1/2+x,1/2-y,-z
-x,1/2+y,1/2-z
loop_
_atom_site_type_symbol
_atom_site_label
_atom_site_fract_x
_atom_site_fract_y
_atom_site_fract_z
Si Si1 0.939586 0.957732 0.857277
Si Si2 0.674722 0.333144 0.480293
Si Si3 0.753457 0.353143 0.843192
Si Si4 0.518513 0.307784 0.800358
Si Si5 0.852756 0.675612 0.705549
Si Si6 0.826198 0.157139 0.087020
O O1 0.934116 0.734877 0.927351
O O2 0.918338 0.862067 0.765992
O O3 0.843924 0.160329 0.880422
O O4 0.060711 0.069166 0.859925
O O5 0.760639 0.412858 0.409385
O O6 0.658377 0.568072 0.542294
O O7 0.711848 0.076522 0.528678
O O8 0.636504 0.220452 0.832817
O O9 0.794146 0.447666 0.755403
O O10 0.534885 0.553549 0.740411
O O11 0.441938 0.407261 0.872997
O O12 0.763558 0.836146 0.656975
#
# Coordination Sequence:
#
# PCOD8157704 Si02
#       6
#     4   4   4   4   4   4
#     4  11  23  47  72 109 141 188 231 305 353 421
#     4  11  27  49  66 105 154 181 238 284 370 418
#     4  11  24  49  71 106 141 189 233 297 356 417
#     4  12  26  46  76 105 140 185 242 298 343 420
#     4  11  24  42  80 103 140 181 251 288 350 417
#     4  12  26  49  71 108 142 192 237 292 348 435
#
# _framework density 23.015191000000002
#
# number of rings (size 3 to 8) (size 9 to 14) (size 15 to 20)
#    0.000    0.667    5.000    2.000    4.667    1.333 
#    6.000    0.000    0.000    0.000    0.000    0.000 
#    0.000    0.000    0.000    0.000    0.000    0.000 
#
# Total GULP energy -297576.522876 kJ/mol
# GULP energy per Si atom -12399.021786 kJ/mol
# Density = 2.296281 g / cm^3
# Si number density = 23.015191 Si / 1000 Ang^3
#
#
#
# Elastic Constant Matrix: (Units=GPa)
#
#
# Indices 1 2 3 4 5 6 
#
# 1 117.7646 10.5305 12.5807 0.0000 0.0000 0.0000
# 2 10.5305 103.5075 26.5440 0.0000 0.0000 0.0000
# 3 12.5807 26.5440 83.4367 0.0000 0.0000 0.0000
# 4 0.0000 0.0000 0.0000 47.4527 0.0000 0.0000
# 5 0.0000 0.0000 0.0000 0.0000 14.9307 0.0000
# 6 0.0000 0.0000 0.0000 0.0000 0.0000 26.0618
#
#
#
# Elastic Compliance Matrix: (Units=1/GPa)
#
#
# Indices 1 2 3 4 5 6 
#
# 1 0.008664 -0.000595 -0.001117 0.000000 0.000000 0.000000
# 2 -0.000595 0.010560 -0.003270 0.000000 0.000000 0.000000
# 3 -0.001117 -0.003270 0.013194 0.000000 0.000000 0.000000
# 4 0.000000 0.000000 0.000000 0.021074 0.000000 0.000000
# 5 0.000000 0.000000 0.000000 0.000000 0.066976 0.000000
# 6 0.000000 0.000000 0.000000 0.000000 0.000000 0.038370
#
#
# Mechanical properties :
#
#
# Convention : Reuss Voigt Hill
#
# Bulk Modulus (GPa) = 44.53501 44.89102 44.71302
# Shear Modulus (GPa) = 28.36285 34.69260 31.52772
#
# Velocity S-wave (km/s) = 3.51430 3.88671 3.70519
# Velocity P-wave (km/s) = 5.98827 6.29994 6.14608
#
# Compressibility (1/GPa) = 0.02245425
#
# Stress axis : x y z
#
# Youngs Moduli (GPa) = 115.41940 94.69517 75.79305
#
# Poissons Ratio (x) = 0.05634 0.08467
# Poissons Ratio (y) = 0.06867 0.24783
# Poissons Ratio (z) = 0.12893 0.30964
#
# Static dielectric constant tensor:
#      x y z
#    x 3.897100 0.000000 0.000000 
#    y 0.000000 4.224340 0.000000 
#    z 0.000000 0.000000 4.294100 
# 
# 
# High freq. dielectric constant tensor:
#      x y z
#    x 1.892580 0.000000 0.000000 
#    y 0.000000 1.914580 0.000000 
#    z 0.000000 0.000000 1.919450 
# 
# From -- ./inp_files/1001.got.cif
#   From: 2010.03.12/outbox.cif.g09.slc.cpg/sg19_1_cif.got.tgz:1001.got - 2010.04.10 18:59:41.
