data_PCOD8157516
_publ_section_title
;
Structure prediction by ZEFSAII (Michael W. Deem and Ramdas Pophale) SiO2 
 PCOD8157516
Probable space group: P 21 21 21
;
_chemical_formula_sum "Si O2"
_cell_formula_units_Z 32
_cell_length_a 9.356685
_cell_length_b 11.216269
_cell_length_c 13.831966
_cell_angle_alpha 90.000000
_cell_angle_beta 90.000000
_cell_angle_gamma 90.000000
_cell_volume 1451.624662
_symmetry_space_group_name_H-M "P 21 21 21"
_symmetry_group_IT_number 19
_symmetry_cell_setting 'orthorhombic'
loop_
_space_group_symop_operation_xyz
x,y,z
1/2-x,-y,1/2+z
1/2+x,1/2-y,-z
-x,1/2+y,1/2-z
loop_
_atom_site_type_symbol
_atom_site_label
_atom_site_fract_x
_atom_site_fract_y
_atom_site_fract_z
Si Si1 0.166177 0.387729 0.856454
Si Si2 0.283304 0.797654 0.827832
Si Si3 0.768475 0.353083 0.080740
Si Si4 0.093162 0.451794 0.368900
Si Si5 0.141509 0.791899 0.627977
Si Si6 0.572772 0.575784 0.050715
Si Si7 0.504031 0.993020 0.836527
Si Si8 0.320432 0.482937 0.153695
O O1 0.221827 0.252635 0.847368
O O2 0.286786 0.460655 0.920850
O O3 0.172424 0.467932 0.761758
O O4 0.001664 0.372384 0.890014
O O5 0.326820 0.661348 0.823209
O O6 0.225541 0.840725 0.722551
O O7 0.158730 0.810402 0.909033
O O8 0.419188 0.873395 0.864747
O O9 0.656202 0.459533 0.086963
O O10 0.920991 0.392552 0.122088
O O11 0.768405 0.308460 0.969726
O O12 0.958498 0.417897 0.436696
O O13 0.016227 0.514331 0.279018
O O14 0.115737 0.651051 0.645099
O O15 0.414567 0.575405 0.094100
O O16 0.659055 0.004207 0.886096
#
# Coordination Sequence:
#
# PCOD8157516 Si02
#       8
#     4   4   4   4   4   4   4   4
#     4  11  24  41  70 103 133 181 227 289 357 402
#     4  11  24  46  67 101 145 179 232 289 358 418
#     4  11  26  42  72 104 136 178 244 286 344 410
#     4  11  25  44  70 100 142 186 237 283 361 421
#     4  12  23  43  70  99 142 180 226 295 336 414
#     4  11  24  46  66 102 138 187 234 290 342 431
#     4  10  25  43  69 101 136 182 230 292 350 410
#     4  11  23  41  68  98 140 175 226 286 346 416
#
# _framework density 22.044263999999998
#
# number of rings (size 3 to 8) (size 9 to 14) (size 15 to 20)
#    0.000    1.000    5.000    1.500    7.000    1.000 
#    2.250    0.000    0.000    0.000    0.000    0.000 
#    0.000    0.000    0.000    0.000    0.000    0.000 
#
# Total GULP energy -396541.082124 kJ/mol
# GULP energy per Si atom -12391.908816 kJ/mol
# Density = 2.199409 g / cm^3
# Si number density = 22.044264 Si / 1000 Ang^3
#
#
#
# Elastic Constant Matrix: (Units=GPa)
#
#
# Indices 1 2 3 4 5 6 
#
# 1 114.8049 15.8983 17.8438 0.0000 0.0000 0.0000
# 2 15.8983 63.5908 -2.4316 0.0000 0.0000 0.0000
# 3 17.8438 -2.4316 48.9275 0.0000 0.0000 0.0000
# 4 0.0000 0.0000 0.0000 27.8024 0.0000 0.0000
# 5 0.0000 0.0000 0.0000 0.0000 33.5618 0.0000
# 6 0.0000 0.0000 0.0000 0.0000 0.0000 28.5767
#
#
#
# Elastic Compliance Matrix: (Units=1/GPa)
#
#
# Indices 1 2 3 4 5 6 
#
# 1 0.009628 -0.002546 -0.003638 0.000000 0.000000 0.000000
# 2 -0.002546 0.016429 0.001745 0.000000 0.000000 0.000000
# 3 -0.003638 0.001745 0.021852 0.000000 0.000000 0.000000
# 4 0.000000 0.000000 0.000000 0.035968 0.000000 0.000000
# 5 0.000000 0.000000 0.000000 0.000000 0.029796 0.000000
# 6 0.000000 0.000000 0.000000 0.000000 0.000000 0.034994
#
#
# Mechanical properties :
#
#
# Convention : Reuss Voigt Hill
#
# Bulk Modulus (GPa) = 25.62077 32.21600 28.91839
# Shear Modulus (GPa) = 29.31596 31.05569 30.18583
#
# Velocity S-wave (km/s) = 3.65069 3.75745 3.70446
# Velocity P-wave (km/s) = 5.42381 5.78538 5.60751
#
# Compressibility (1/GPa) = 0.03903083
#
# Stress axis : x y z
#
# Youngs Moduli (GPa) = 103.85834 60.86837 45.76257
#
# Poissons Ratio (x) = 0.15499 0.16649
# Poissons Ratio (y) = 0.26446 -0.07986
# Poissons Ratio (z) = 0.37784 -0.10622
#
# Static dielectric constant tensor:
#      x y z
#    x 4.312140 0.000000 0.000000 
#    y 0.000000 3.863350 0.000000 
#    z 0.000000 0.000000 3.889760 
# 
# 
# High freq. dielectric constant tensor:
#      x y z
#    x 1.883680 0.000000 0.000000 
#    y 0.000000 1.859340 0.000000 
#    z 0.000000 0.000000 1.858680 
# 
# From -- ./inp_files/5949.got.cif
#   From: 2010.03.12/outbox.cif.g09.slc.cpg/sg19_3_cif.got.tgz:5949.got - 2010.04.10 18:59:41.
