data_PCOD8157844
_publ_section_title
;
Structure prediction by ZEFSAII (Michael W. Deem and Ramdas Pophale) SiO2 
 PCOD8157844
Probable space group: P 21 21 21
;
_chemical_formula_sum "Si O2"
_cell_formula_units_Z 28
_cell_length_a 11.014095
_cell_length_b 10.796966
_cell_length_c 8.650823
_cell_angle_alpha 90.000000
_cell_angle_beta 90.000000
_cell_angle_gamma 90.000000
_cell_volume 1028.745570
_symmetry_space_group_name_H-M "P 21 21 21"
_symmetry_group_IT_number 19
_symmetry_cell_setting 'orthorhombic'
loop_
_space_group_symop_operation_xyz
x,y,z
1/2-x,-y,1/2+z
1/2+x,1/2-y,-z
-x,1/2+y,1/2-z
loop_
_atom_site_type_symbol
_atom_site_label
_atom_site_fract_x
_atom_site_fract_y
_atom_site_fract_z
Si Si1 0.342914 0.810053 0.664168
Si Si2 0.570151 0.307197 0.156373
Si Si3 0.481352 0.424970 0.606539
Si Si4 0.905558 0.284102 0.594228
Si Si5 0.289919 0.940134 0.079434
Si Si6 0.410883 0.525675 0.067768
Si Si7 0.781332 0.944767 0.223227
O O1 0.366214 0.746726 0.495365
O O2 0.467789 0.836608 0.755984
O O3 0.260451 0.706888 0.763714
O O4 0.268868 0.938376 0.654186
O O5 0.454383 0.230866 0.225923
O O6 0.671801 0.342958 0.285449
O O7 0.521773 0.431989 0.075881
O O8 0.392016 0.347818 0.491058
O O9 0.589899 0.485459 0.509254
O O10 0.401957 0.535199 0.674921
O O11 0.792454 0.373142 0.552185
O O12 0.029270 0.343810 0.522568
O O13 0.337925 0.521923 0.229652
O O14 0.307803 0.497725 0.942879
#
# Coordination Sequence:
#
# PCOD8157844 Si02
#       7
#     4   4   4   4   4   4   4
#     4  12  25  50  77 113 153 213 261 331 388 476
#     4  11  27  46  80 116 155 205 265 323 393 480
#     4  11  26  48  76 110 159 204 259 326 405 462
#     4  11  26  49  80 111 162 201 258 323 399 470
#     4  11  26  50  80 113 156 208 265 326 400 480
#     4  12  28  51  71 118 157 201 262 324 391 481
#     4  12  30  48  78 111 160 204 266 329 400 471
#
# _framework density 27.217613
#
# number of rings (size 3 to 8) (size 9 to 14) (size 15 to 20)
#    0.000    0.571    4.286    0.857   12.000    1.143 
#    0.000    0.000    0.000    0.000    0.000    0.000 
#    0.000    0.000    0.000    0.000    0.000    0.000 
#
# Total GULP energy -347035.971837 kJ/mol
# GULP energy per Si atom -12394.141851 kJ/mol
# Density = 2.715566 g / cm^3
# Si number density = 27.217613 Si / 1000 Ang^3
#
#
#
# Elastic Constant Matrix: (Units=GPa)
#
#
# Indices 1 2 3 4 5 6 
#
# 1 68.3605 10.7977 -13.3158 0.0000 0.0000 0.0000
# 2 10.7977 57.4356 -0.7617 0.0000 0.0000 0.0000
# 3 -13.3158 -0.7617 90.0703 0.0000 0.0000 0.0000
# 4 0.0000 0.0000 0.0000 40.4062 0.0000 0.0000
# 5 0.0000 0.0000 0.0000 0.0000 40.7327 0.0000
# 6 0.0000 0.0000 0.0000 0.0000 0.0000 46.3311
#
#
#
# Elastic Compliance Matrix: (Units=1/GPa)
#
#
# Indices 1 2 3 4 5 6 
#
# 1 0.015527 -0.002889 0.002271 0.000000 0.000000 0.000000
# 2 -0.002889 0.017950 -0.000275 0.000000 0.000000 0.000000
# 3 0.002271 -0.000275 0.011436 0.000000 0.000000 0.000000
# 4 0.000000 0.000000 0.000000 0.024749 0.000000 0.000000
# 5 0.000000 0.000000 0.000000 0.000000 0.024550 0.000000
# 6 0.000000 0.000000 0.000000 0.000000 0.000000 0.021584
#
#
# Mechanical properties :
#
#
# Convention : Reuss Voigt Hill
#
# Bulk Modulus (GPa) = 23.18740 23.25629 23.22185
# Shear Modulus (GPa) = 37.89090 40.10374 38.99732
#
# Velocity S-wave (km/s) = 3.73520 3.84272 3.78934
# Velocity P-wave (km/s) = 5.20961 5.31524 5.26269
#
# Compressibility (1/GPa) = 0.04312687
#
# Stress axis : x y z
#
# Youngs Moduli (GPa) = 64.40389 55.70949 87.44420
#
# Poissons Ratio (x) = 0.16094 -0.19859
# Poissons Ratio (y) = 0.18606 0.02407
# Poissons Ratio (z) = -0.14626 0.01534
#
# Static dielectric constant tensor:
#      x y z
#    x 5.030030 0.000000 0.000000 
#    y 0.000000 4.713120 0.000000 
#    z 0.000000 0.000000 5.201930 
# 
# 
# High freq. dielectric constant tensor:
#      x y z
#    x 2.115390 0.000000 0.000000 
#    y 0.000000 2.078750 0.000000 
#    z 0.000000 0.000000 2.115270 
# 
# From -- ./inp_files/3441.got.cif
#   From: 2010.03.12/outbox.cif.g09.slc.cpg/sg19_2_cif.got.tgz:3441.got - 2010.04.10 18:59:41.
