data_PCOD8157768
_publ_section_title
;
Structure prediction by ZEFSAII (Michael W. Deem and Ramdas Pophale) SiO2 
 PCOD8157768
Probable space group: P 21 21 21
;
_chemical_formula_sum "Si O2"
_cell_formula_units_Z 28
_cell_length_a 12.023322
_cell_length_b 5.590261
_cell_length_c 17.586455
_cell_angle_alpha 90.000000
_cell_angle_beta 90.000000
_cell_angle_gamma 90.000000
_cell_volume 1182.047335
_symmetry_space_group_name_H-M "P 21 21 21"
_symmetry_group_IT_number 19
_symmetry_cell_setting 'orthorhombic'
loop_
_space_group_symop_operation_xyz
x,y,z
1/2-x,-y,1/2+z
1/2+x,1/2-y,-z
-x,1/2+y,1/2-z
loop_
_atom_site_type_symbol
_atom_site_label
_atom_site_fract_x
_atom_site_fract_y
_atom_site_fract_z
Si Si1 0.815946 0.380936 0.986715
Si Si2 0.029668 0.643510 0.984618
Si Si3 0.653419 0.211070 0.106142
Si Si4 0.925537 0.028261 0.885680
Si Si5 0.058296 0.229339 0.229194
Si Si6 0.649043 0.601741 0.882781
Si Si7 0.749832 0.049248 0.261601
O O1 0.727313 0.389678 0.055211
O O2 0.836753 0.122058 0.948300
O O3 0.768255 0.550506 0.919920
O O4 0.935376 0.466166 0.016811
O O5 0.138185 0.519164 0.948255
O O6 0.063060 0.797710 0.056504
O O7 0.974114 0.781089 0.914468
O O8 0.529923 0.296931 0.126514
O O9 0.721626 0.171648 0.182362
O O10 0.864311 0.009493 0.804740
O O11 0.179877 0.310526 0.260914
O O12 0.984797 0.477940 0.230871
O O13 0.085686 0.142661 0.143152
O O14 0.670013 0.779204 0.811885
#
# Coordination Sequence:
#
# PCOD8157768 Si02
#       7
#     4   4   4   4   4   4   4
#     4  11  24  48  75 110 150 206 261 332 395 481
#     4  11  26  46  75 108 151 202 267 330 395 485
#     4  11  28  45  74 117 153 202 272 332 405 488
#     4  11  24  46  75 109 150 207 257 325 406 473
#     4  12  28  52  78 118 160 211 263 325 407 477
#     4  12  25  49  78 110 163 210 264 329 404 481
#     4  12  27  48  79 114 167 208 266 337 412 477
#
# _framework density 23.687716999999999
#
# number of rings (size 3 to 8) (size 9 to 14) (size 15 to 20)
#    0.000    0.571    5.714    0.857    2.000    4.571 
#    0.000    0.000    0.000    0.000    0.000    0.000 
#    0.000    0.000    0.000    0.000    0.000    0.000 
#
# Total GULP energy -346902.131377 kJ/mol
# GULP energy per Si atom -12389.361835 kJ/mol
# Density = 2.363380 g / cm^3
# Si number density = 23.687717 Si / 1000 Ang^3
#
#
#
# Elastic Constant Matrix: (Units=GPa)
#
#
# Indices 1 2 3 4 5 6 
#
# 1 95.4994 41.3299 62.7116 0.0000 0.0000 0.0000
# 2 41.3299 104.1753 44.8151 0.0000 0.0000 0.0000
# 3 62.7116 44.8151 118.6672 0.0000 0.0000 0.0000
# 4 0.0000 0.0000 0.0000 39.4915 0.0000 0.0000
# 5 0.0000 0.0000 0.0000 0.0000 47.9289 0.0000
# 6 0.0000 0.0000 0.0000 0.0000 0.0000 29.9873
#
#
#
# Elastic Compliance Matrix: (Units=1/GPa)
#
#
# Indices 1 2 3 4 5 6 
#
# 1 0.017010 -0.003440 -0.007690 0.000000 0.000000 0.000000
# 2 -0.003440 0.012157 -0.002773 0.000000 0.000000 0.000000
# 3 -0.007690 -0.002773 0.013538 0.000000 0.000000 0.000000
# 4 0.000000 0.000000 0.000000 0.025322 0.000000 0.000000
# 5 0.000000 0.000000 0.000000 0.000000 0.020864 0.000000
# 6 0.000000 0.000000 0.000000 0.000000 0.000000 0.033347
#
#
# Mechanical properties :
#
#
# Convention : Reuss Voigt Hill
#
# Bulk Modulus (GPa) = 67.12121 68.45057 67.78589
# Shear Modulus (GPa) = 32.25574 34.78056 33.51815
#
# Velocity S-wave (km/s) = 3.69414 3.83599 3.76573
# Velocity P-wave (km/s) = 6.82590 6.96990 6.89828
#
# Compressibility (1/GPa) = 0.01489842
#
# Stress axis : x y z
#
# Youngs Moduli (GPa) = 58.78939 82.25690 73.86597
#
# Poissons Ratio (x) = 0.28299 0.56802
# Poissons Ratio (y) = 0.20225 0.20484
# Poissons Ratio (z) = 0.45208 0.22810
#
# Static dielectric constant tensor:
#      x y z
#    x 4.589240 0.000000 0.000000 
#    y 0.000000 4.503560 0.000000 
#    z 0.000000 0.000000 4.125570 
# 
# 
# High freq. dielectric constant tensor:
#      x y z
#    x 1.958700 0.000000 0.000000 
#    y 0.000000 1.941620 0.000000 
#    z 0.000000 0.000000 1.925090 
# 
# From -- ./inp_files/6713.got.cif
#   From: 2010.03.12/outbox.cif.g09.slc.cpg/sg19_4_cif.got.tgz:6713.got - 2010.04.10 18:59:41.
