data_PCOD8157166
_publ_section_title
;
Structure prediction by ZEFSAII (Michael W. Deem and Ramdas Pophale) SiO2 
 PCOD8157166
Probable space group: P 21 21 21
;
_chemical_formula_sum "Si O2"
_cell_formula_units_Z 28
_cell_length_a 8.181445
_cell_length_b 17.623034
_cell_length_c 7.188752
_cell_angle_alpha 90.000000
_cell_angle_beta 90.000000
_cell_angle_gamma 90.000000
_cell_volume 1036.487803
_symmetry_space_group_name_H-M "P 21 21 21"
_symmetry_group_IT_number 19
_symmetry_cell_setting 'orthorhombic'
loop_
_space_group_symop_operation_xyz
x,y,z
1/2-x,-y,1/2+z
1/2+x,1/2-y,-z
-x,1/2+y,1/2-z
loop_
_atom_site_type_symbol
_atom_site_label
_atom_site_fract_x
_atom_site_fract_y
_atom_site_fract_z
Si Si1 0.750357 0.912789 0.940081
Si Si2 0.539489 0.045897 0.085466
Si Si3 0.434744 0.097623 0.662617
Si Si4 0.514243 0.713976 0.448953
Si Si5 0.243529 0.248564 0.634698
Si Si6 0.358981 0.806033 0.744940
Si Si7 0.764157 0.534577 0.183793
O O1 0.852056 0.936006 0.762255
O O2 0.665669 0.829957 0.903178
O O3 0.872698 0.903793 0.117486
O O4 0.615567 0.976388 0.971160
O O5 0.528687 0.128256 0.975081
O O6 0.364377 0.014544 0.153429
O O7 0.371696 0.183163 0.694150
O O8 0.339079 0.058910 0.493393
O O9 0.383793 0.040236 0.836615
O O10 0.388564 0.742193 0.294949
O O11 0.508603 0.771721 0.623901
O O12 0.691005 0.717138 0.357429
O O13 0.141664 0.227239 0.451734
O O14 0.378813 0.896605 0.747987
#
# Coordination Sequence:
#
# PCOD8157166 Si02
#       7
#     4   4   4   4   4   4   4
#     4  10  22  40  62  90 123 161 207 255 309 374
#     4   9  21  40  59  87 124 159 202 254 311 372
#     4  10  22  40  62  90 123 161 207 255 309 374
#     4  10  23  42  65  94 128 167 212 262 319 383
#     4  10  22  42  64  90 130 166 210 262 314 374
#     4  10  23  42  65  94 128 167 212 262 319 383
#     4   9  21  40  59  87 124 159 202 254 311 372
#
# _framework density 27.014308
#
# number of rings (size 3 to 8) (size 9 to 14) (size 15 to 20)
#    0.000    2.286    0.000    2.571    4.000    6.857 
#    0.000    8.571    0.000    0.000    0.000    0.000 
#    0.000    0.000    0.000    0.000    0.000    0.000 
#
# Total GULP energy -347296.714562 kJ/mol
# GULP energy per Si atom -12403.454091 kJ/mol
# Density = 2.695282 g / cm^3
# Si number density = 27.014308 Si / 1000 Ang^3
#
#
#
# Elastic Constant Matrix: (Units=GPa)
#
#
# Indices 1 2 3 4 5 6 
#
# 1 60.2571 78.9295 38.4240 0.0000 0.0000 0.0000
# 2 78.9295 201.8377 82.3013 0.0000 0.0000 0.0000
# 3 38.4240 82.3013 86.5683 0.0000 0.0000 0.0000
# 4 0.0000 0.0000 0.0000 57.8134 0.0000 0.0000
# 5 0.0000 0.0000 0.0000 0.0000 28.9087 0.0000
# 6 0.0000 0.0000 0.0000 0.0000 0.0000 56.2397
#
#
#
# Elastic Compliance Matrix: (Units=1/GPa)
#
#
# Indices 1 2 3 4 5 6 
#
# 1 0.034896 -0.011971 -0.004108 0.000000 0.000000 0.000000
# 2 -0.011971 0.012198 -0.006283 0.000000 0.000000 0.000000
# 3 -0.004108 -0.006283 0.019348 0.000000 0.000000 0.000000
# 4 0.000000 0.000000 0.000000 0.017297 0.000000 0.000000
# 5 0.000000 0.000000 0.000000 0.000000 0.034592 0.000000
# 6 0.000000 0.000000 0.000000 0.000000 0.000000 0.017781
#
#
# Mechanical properties :
#
#
# Convention : Reuss Voigt Hill
#
# Bulk Modulus (GPa) = 46.04495 83.10808 64.57651
# Shear Modulus (GPa) = 26.58522 38.52625 32.55574
#
# Velocity S-wave (km/s) = 3.14047 3.78053 3.47526
# Velocity P-wave (km/s) = 5.49834 7.06313 6.32928
#
# Compressibility (1/GPa) = 0.02171791
#
# Stress axis : x y z
#
# Youngs Moduli (GPa) = 28.65690 81.98159 51.68447
#
# Poissons Ratio (x) = 0.98142 0.21230
# Poissons Ratio (y) = 0.34306 0.32474
# Poissons Ratio (z) = 0.11771 0.51510
#
# Static dielectric constant tensor:
#      x y z
#    x 5.118870 0.000000 0.000000 
#    y 0.000000 5.360370 0.000000 
#    z 0.000000 0.000000 5.610810 
# 
# 
# High freq. dielectric constant tensor:
#      x y z
#    x 2.097950 0.000000 0.000000 
#    y 0.000000 2.106750 0.000000 
#    z 0.000000 0.000000 2.134010 
# 
# From -- ./inp_files/3022.got.cif
#   From: 2010.03.12/outbox.cif.g09.slc.cpg/sg19_2_cif.got.tgz:3022.got - 2010.04.10 18:59:41.
