data_PCOD8157682
_publ_section_title
;
Structure prediction by ZEFSAII (Michael W. Deem and Ramdas Pophale) SiO2 
 PCOD8157682
Probable space group: P 21 21 21
;
_chemical_formula_sum "Si O2"
_cell_formula_units_Z 32
_cell_length_a 26.346900
_cell_length_b 8.960975
_cell_length_c 6.642438
_cell_angle_alpha 90.000000
_cell_angle_beta 90.000000
_cell_angle_gamma 90.000000
_cell_volume 1568.239174
_symmetry_space_group_name_H-M "P 21 21 21"
_symmetry_group_IT_number 19
_symmetry_cell_setting 'orthorhombic'
loop_
_space_group_symop_operation_xyz
x,y,z
1/2-x,-y,1/2+z
1/2+x,1/2-y,-z
-x,1/2+y,1/2-z
loop_
_atom_site_type_symbol
_atom_site_label
_atom_site_fract_x
_atom_site_fract_y
_atom_site_fract_z
Si Si1 0.488105 0.012173 0.045825
Si Si2 0.894195 0.670702 0.079739
Si Si3 0.447141 0.329815 0.146837
Si Si4 0.423270 0.510940 0.759343
Si Si5 0.264458 0.217934 0.479236
Si Si6 0.694718 0.423853 0.849988
Si Si7 0.825460 0.759827 0.741093
Si Si8 0.356648 0.423116 0.409206
O O1 0.510379 0.919731 0.231555
O O2 0.462576 0.158276 0.136291
O O3 0.447648 0.911838 0.927569
O O4 0.531652 0.058720 0.889821
O O5 0.859880 0.587746 0.244783
O O6 0.900646 0.843056 0.137238
O O7 0.867243 0.663065 0.861990
O O8 0.393218 0.333927 0.258653
O O9 0.443574 0.396221 0.924143
O O10 0.379263 0.426877 0.634521
O O11 0.239849 0.141718 0.284588
O O12 0.221346 0.297686 0.612083
O O13 0.302194 0.346125 0.406945
O O14 0.294782 0.097242 0.610811
O O15 0.695004 0.335741 0.057530
O O16 0.851980 0.909087 0.667587
#
# Coordination Sequence:
#
# PCOD8157682 Si02
#       8
#     4   4   4   4   4   4   4   4
#     4  11  26  42  69  96 128 178 213 273 326 389
#     4  11  24  43  69  93 131 174 215 266 334 380
#     4  11  25  45  65  95 135 166 222 267 323 388
#     4  11  23  45  65  97 129 169 220 270 320 395
#     4  11  26  43  67  99 131 170 223 267 323 392
#     4  11  24  44  66  97 132 173 216 271 326 387
#     4  11  24  44  66  93 134 174 211 268 325 384
#     4  11  26  42  67  98 130 172 218 268 325 391
#
# _framework density 20.405051
#
# number of rings (size 3 to 8) (size 9 to 14) (size 15 to 20)
#    0.000    1.000    3.750    1.500    7.000    3.000 
#    0.000    0.000    0.000    0.000    0.000    0.000 
#    0.000    0.000    0.000    0.000    0.000    0.000 
#
# Total GULP energy -397056.986429 kJ/mol
# GULP energy per Si atom -12408.030826 kJ/mol
# Density = 2.035861 g / cm^3
# Si number density = 20.405051 Si / 1000 Ang^3
#
#
#
# Elastic Constant Matrix: (Units=GPa)
#
#
# Indices 1 2 3 4 5 6 
#
# 1 87.6709 14.0066 22.4364 0.0000 0.0000 0.0000
# 2 14.0066 50.3416 19.3933 0.0000 0.0000 0.0000
# 3 22.4364 19.3933 95.2023 0.0000 0.0000 0.0000
# 4 0.0000 0.0000 0.0000 25.1327 0.0000 0.0000
# 5 0.0000 0.0000 0.0000 0.0000 31.2975 0.0000
# 6 0.0000 0.0000 0.0000 0.0000 0.0000 38.3561
#
#
#
# Elastic Compliance Matrix: (Units=1/GPa)
#
#
# Indices 1 2 3 4 5 6 
#
# 1 0.012428 -0.002528 -0.002414 0.000000 0.000000 0.000000
# 2 -0.002528 0.022070 -0.003900 0.000000 0.000000 0.000000
# 3 -0.002414 -0.003900 0.011867 0.000000 0.000000 0.000000
# 4 0.000000 0.000000 0.000000 0.039789 0.000000 0.000000
# 5 0.000000 0.000000 0.000000 0.000000 0.031951 0.000000
# 6 0.000000 0.000000 0.000000 0.000000 0.000000 0.026071
#
#
# Mechanical properties :
#
#
# Convention : Reuss Voigt Hill
#
# Bulk Modulus (GPa) = 34.86568 38.32081 36.59325
# Shear Modulus (GPa) = 29.16789 30.78249 29.97519
#
# Velocity S-wave (km/s) = 3.78490 3.88825 3.83692
# Velocity P-wave (km/s) = 6.01868 6.24330 6.13202
#
# Compressibility (1/GPa) = 0.02868150
#
# Stress axis : x y z
#
# Youngs Moduli (GPa) = 80.46396 45.31023 84.26507
#
# Poissons Ratio (x) = 0.11454 0.20341
# Poissons Ratio (y) = 0.20341 0.32864
# Poissons Ratio (z) = 0.19424 0.17671
#
# Static dielectric constant tensor:
#      x y z
#    x 3.806990 0.000000 0.000000 
#    y 0.000000 3.549920 0.000000 
#    z 0.000000 0.000000 3.860170 
# 
# 
# High freq. dielectric constant tensor:
#      x y z
#    x 1.810480 0.000000 0.000000 
#    y 0.000000 1.795140 0.000000 
#    z 0.000000 0.000000 1.813150 
# 
# From -- ./inp_files/2262.got.cif
#   From: 2010.03.12/outbox.cif.g09.slc.cpg/sg19_2_cif.got.tgz:2262.got - 2010.04.10 18:59:41.
