data_PCOD8157906
_publ_section_title
;
Structure prediction by ZEFSAII (Michael W. Deem and Ramdas Pophale) SiO2 
 PCOD8157906
Probable space group: P 21 21 21
;
_chemical_formula_sum "Si O2"
_cell_formula_units_Z 32
_cell_length_a 6.274392
_cell_length_b 9.953933
_cell_length_c 21.064086
_cell_angle_alpha 90.000000
_cell_angle_beta 90.000000
_cell_angle_gamma 90.000000
_cell_volume 1315.554913
_symmetry_space_group_name_H-M "P 21 21 21"
_symmetry_group_IT_number 19
_symmetry_cell_setting 'orthorhombic'
loop_
_space_group_symop_operation_xyz
x,y,z
1/2-x,-y,1/2+z
1/2+x,1/2-y,-z
-x,1/2+y,1/2-z
loop_
_atom_site_type_symbol
_atom_site_label
_atom_site_fract_x
_atom_site_fract_y
_atom_site_fract_z
Si Si1 0.158338 0.628706 0.083224
Si Si2 0.745246 0.146105 0.273562
Si Si3 0.883213 0.682023 0.314576
Si Si4 0.964284 0.075131 0.967278
Si Si5 0.699674 0.381064 0.491235
Si Si6 0.509805 0.511408 0.374054
Si Si7 0.927944 0.129646 0.744498
Si Si8 0.298438 0.268055 0.915823
O O1 0.173165 0.677617 0.155468
O O2 0.275659 0.485008 0.075853
O O3 0.274104 0.733237 0.036449
O O4 0.912173 0.619359 0.060607
O O5 0.637671 0.279494 0.242077
O O6 0.946272 0.105889 0.230142
O O7 0.572838 0.022720 0.273437
O O8 0.723476 0.570911 0.342162
O O9 0.776909 0.794862 0.270945
O O10 0.991863 0.761547 0.373818
O O11 0.142842 0.140493 0.921603
O O12 0.867110 0.186867 0.013766
O O13 0.073021 0.954510 0.006449
O O14 0.544661 0.464809 0.445534
O O15 0.422276 0.387180 0.332090
O O16 0.324945 0.620094 0.375835
#
# Coordination Sequence:
#
# PCOD8157906 Si02
#       8
#     4   4   4   4   4   4   4   4
#     4  12  28  45  73 114 152 193 250 320 378 457
#     4  12  30  48  77 111 159 203 262 320 392 458
#     4  12  28  48  76 111 152 206 257 309 390 457
#     4  12  28  45  77 112 151 193 254 310 384 449
#     4  12  25  49  76 109 150 201 249 312 386 447
#     4  12  25  51  77 106 153 201 259 313 382 467
#     4  12  27  49  76 113 149 205 259 319 378 468
#     4  12  27  49  76 112 152 202 248 319 376 463
#
# _framework density 24.324335999999999
#
# number of rings (size 3 to 8) (size 9 to 14) (size 15 to 20)
#    0.000    0.000    7.500    0.750    7.000    3.000 
#    0.000    0.000    0.000    0.000    0.000    0.000 
#    0.000    0.000    0.000    0.000    0.000    0.000 
#
# Total GULP energy -396848.764544 kJ/mol
# GULP energy per Si atom -12401.523892 kJ/mol
# Density = 2.426897 g / cm^3
# Si number density = 24.324336 Si / 1000 Ang^3
#
#
#
# Elastic Constant Matrix: (Units=GPa)
#
#
# Indices 1 2 3 4 5 6 
#
# 1 76.7864 23.9797 28.1195 0.0000 0.0000 0.0000
# 2 23.9797 88.3869 9.4097 0.0000 0.0000 0.0000
# 3 28.1195 9.4097 74.3956 0.0000 0.0000 0.0000
# 4 0.0000 0.0000 0.0000 41.5768 0.0000 0.0000
# 5 0.0000 0.0000 0.0000 0.0000 47.1408 0.0000
# 6 0.0000 0.0000 0.0000 0.0000 0.0000 43.0313
#
#
#
# Elastic Compliance Matrix: (Units=1/GPa)
#
#
# Indices 1 2 3 4 5 6 
#
# 1 0.016293 -0.003816 -0.005676 0.000000 0.000000 0.000000
# 2 -0.003816 0.012362 -0.000121 0.000000 0.000000 0.000000
# 3 -0.005676 -0.000121 0.015602 0.000000 0.000000 0.000000
# 4 0.000000 0.000000 0.000000 0.024052 0.000000 0.000000
# 5 0.000000 0.000000 0.000000 0.000000 0.021213 0.000000
# 6 0.000000 0.000000 0.000000 0.000000 0.000000 0.023239
#
#
# Mechanical properties :
#
#
# Convention : Reuss Voigt Hill
#
# Bulk Modulus (GPa) = 39.94964 40.28740 40.11852
# Shear Modulus (GPa) = 35.62986 38.22046 36.92516
#
# Velocity S-wave (km/s) = 3.83140 3.96824 3.90042
# Velocity P-wave (km/s) = 6.00268 6.13143 6.06740
#
# Compressibility (1/GPa) = 0.02503151
#
# Stress axis : x y z
#
# Youngs Moduli (GPa) = 61.37458 80.89212 64.09322
#
# Poissons Ratio (x) = 0.30870 0.36378
# Poissons Ratio (y) = 0.23422 0.00777
# Poissons Ratio (z) = 0.34835 0.00980
#
# Static dielectric constant tensor:
#      x y z
#    x 4.403970 0.000000 0.000000 
#    y 0.000000 4.324560 0.000000 
#    z 0.000000 0.000000 4.411930 
# 
# 
# High freq. dielectric constant tensor:
#      x y z
#    x 1.967750 0.000000 0.000000 
#    y 0.000000 1.964430 0.000000 
#    z 0.000000 0.000000 1.972510 
# 
# From -- ./inp_files/6919.got.cif
#   From: 2010.03.12/outbox.cif.g09.slc.cpg/sg19_4_cif.got.tgz:6919.got - 2010.04.10 18:59:41.
