data_PCOD8157971
_publ_section_title
;
Structure prediction by ZEFSAII (Michael W. Deem and Ramdas Pophale) SiO2 
 PCOD8157971
Probable space group: C 2 2 21
;
_chemical_formula_sum "Si O2"
_cell_formula_units_Z 56
_cell_length_a 21.846250
_cell_length_b 8.196962
_cell_length_c 15.254426
_cell_angle_alpha 90.000000
_cell_angle_beta 90.000000
_cell_angle_gamma 90.000000
_cell_volume 2731.654013
_symmetry_space_group_name_H-M "C 2 2 21"
_symmetry_group_IT_number 20
_symmetry_cell_setting 'orthorhombic'
loop_
_space_group_symop_operation_xyz
x,y,z
-x,-y,1/2+z
x,-y,-z
-x,y,1/2-z
1/2+x,1/2+y,z
1/2-x,1/2-y,1/2+z
1/2+x,1/2-y,-z
1/2-x,1/2+y,1/2-z
loop_
_atom_site_type_symbol
_atom_site_label
_atom_site_fract_x
_atom_site_fract_y
_atom_site_fract_z
Si Si1 0.603385 0.811631 0.013873
Si Si2 0.875476 0.115481 0.315514
Si Si3 0.443172 0.074104 0.880671
Si Si4 0.023427 0.742106 0.445345
Si Si5 0.796730 0.124341 0.575178
Si Si6 0.828415 0.241192 0.140022
Si Si7 0.500000 0.317101 0.750000
Si Si8 0.111655 0.000000 0.500000
O O1 0.612777 0.763390 0.115668
O O2 0.547325 0.712212 0.967272
O O3 0.667077 0.775608 0.966137
O O4 0.586302 0.000000 0.000000
O O5 0.830204 0.161737 0.236241
O O6 0.942190 0.068529 0.275161
O O7 0.845047 0.961554 0.361052
O O8 0.372230 0.099848 0.854336
O O9 0.486128 0.199234 0.830189
O O10 0.466587 0.886960 0.864615
O O11 0.447312 0.134753 0.978961
O O12 0.065757 0.902129 0.434107
O O13 0.739820 0.195787 0.626795
O O14 0.773956 0.000000 0.500000
O O15 0.846720 0.114312 0.062172
#
# Coordination Sequence:
#
# PCOD8157971 Si02
#       8
#     8   8   8   8   8   8   4   4
#     4  11  21  38  65  91 123 166 207 256 317 388
#     4  10  22  41  62  91 124 166 204 266 319 370
#     4   9  18  33  61  85 120 154 195 252 308 370
#     4  10  18  35  58  89 119 152 204 249 305 367
#     4  10  25  41  62  88 124 168 211 255 312 378
#     4  10  23  43  61  88 125 166 216 258 319 365
#     4  10  16  34  66  92 122 156 196 248 326 370
#     4  10  24  36  64  92 116 166 208 264 304 374
#
# _framework density 20.500399999999999
#
# number of rings (size 3 to 8) (size 9 to 14) (size 15 to 20)
#    0.000    2.000    2.857    0.000    8.000    1.143 
#    2.571    4.286    0.000    0.857    0.000    0.000 
#    0.000    0.000    0.000    0.000    0.000    0.000 
#
# Total GULP energy -346920.326206 kJ/mol
# GULP energy per Si atom -12390.011650 kJ/mol
# Density = 2.045374 g / cm^3
# Si number density = 20.500400 Si / 1000 Ang^3
#
#
#
# Elastic Constant Matrix: (Units=GPa)
#
#
# Indices 1 2 3 4 5 6 
#
# 1 116.8348 46.3175 36.6576 0.0000 0.0000 0.0000
# 2 46.3175 69.0984 21.9911 0.0000 0.0000 0.0000
# 3 36.6576 21.9911 77.7795 0.0000 0.0000 0.0000
# 4 0.0000 0.0000 0.0000 4.9720 0.0000 0.0000
# 5 0.0000 0.0000 0.0000 0.0000 24.8598 0.0000
# 6 0.0000 0.0000 0.0000 0.0000 0.0000 19.1296
#
#
#
# Elastic Compliance Matrix: (Units=1/GPa)
#
#
# Indices 1 2 3 4 5 6 
#
# 1 0.012658 -0.007237 -0.003919 0.000000 0.000000 0.000000
# 2 -0.007237 0.020041 -0.002255 0.000000 0.000000 0.000000
# 3 -0.003919 -0.002255 0.015342 0.000000 0.000000 0.000000
# 4 0.000000 0.000000 0.000000 0.201127 0.000000 0.000000
# 5 0.000000 0.000000 0.000000 0.000000 0.040226 0.000000
# 6 0.000000 0.000000 0.000000 0.000000 0.000000 0.052275
#
#
# Mechanical properties :
#
#
# Convention : Reuss Voigt Hill
#
# Bulk Modulus (GPa) = 47.13310 52.62722 49.88016
# Shear Modulus (GPa) = 13.31326 20.37537 16.84432
#
# Velocity S-wave (km/s) = 2.55113 3.15604 2.86957
# Velocity P-wave (km/s) = 5.63195 6.24562 5.94671
#
# Compressibility (1/GPa) = 0.02121651
#
# Stress axis : x y z
#
# Youngs Moduli (GPa) = 79.00127 49.89715 65.18147
#
# Poissons Ratio (x) = 0.36113 0.25548
# Poissons Ratio (y) = 0.57177 0.14701
# Poissons Ratio (z) = 0.30964 0.11254
#
# Static dielectric constant tensor:
#      x y z
#    x 3.964450 0.000000 0.000000 
#    y 0.000000 3.953390 0.000000 
#    z 0.000000 0.000000 3.799310 
# 
# 
# High freq. dielectric constant tensor:
#      x y z
#    x 1.806220 0.000000 0.000000 
#    y 0.000000 1.787260 0.000000 
#    z 0.000000 0.000000 1.794000 
# 
# From -- ./inp_files/21822.got.cif
#   From: 2010.03.12/outbox.cif.g09.slc.cpg/sg20_11_cif.got.tgz:21822.got - 2010.04.14 01:38:04.
