data_PCOD8157277
_publ_section_title
;
Structure prediction by ZEFSAII (Michael W. Deem and Ramdas Pophale) SiO2 
 PCOD8157277
Probable space group: P 21 21 21
;
_chemical_formula_sum "Si O2"
_cell_formula_units_Z 24
_cell_length_a 7.317008
_cell_length_b 17.476075
_cell_length_c 9.212277
_cell_angle_alpha 90.000000
_cell_angle_beta 90.000000
_cell_angle_gamma 90.000000
_cell_volume 1177.997633
_symmetry_space_group_name_H-M "P 21 21 21"
_symmetry_group_IT_number 19
_symmetry_cell_setting 'orthorhombic'
loop_
_space_group_symop_operation_xyz
x,y,z
1/2-x,-y,1/2+z
1/2+x,1/2-y,-z
-x,1/2+y,1/2-z
loop_
_atom_site_type_symbol
_atom_site_label
_atom_site_fract_x
_atom_site_fract_y
_atom_site_fract_z
Si Si1 0.205592 0.672338 0.107862
Si Si2 0.060851 0.924118 0.887465
Si Si3 0.253842 0.685109 0.775539
Si Si4 0.350397 0.853550 0.713717
Si Si5 0.164630 0.844564 0.175785
Si Si6 0.545613 0.400118 0.102363
O O1 0.378187 0.621785 0.153496
O O2 0.244350 0.759221 0.157013
O O3 0.028111 0.638412 0.185318
O O4 0.172412 0.669743 0.935294
O O5 0.204443 0.919666 0.754202
O O6 0.006109 0.010701 0.921720
O O7 0.166526 0.887198 0.022818
O O8 0.244209 0.774407 0.739915
O O9 0.460697 0.656392 0.761444
O O10 0.138557 0.638153 0.659616
O O11 0.406258 0.859625 0.547615
O O12 0.288055 0.890521 0.287430
#
# Coordination Sequence:
#
# PCOD8157277 Si02
#       6
#     4   4   4   4   4   4
#     4  10  22  43  71  87 118 174 227 255 304 399
#     4  11  23  42  66  94 129 172 215 260 322 383
#     4  10  23  42  67  90 122 172 218 263 308 384
#     4  11  24  40  67  96 126 168 215 263 319 385
#     4  10  22  43  67  91 125 175 219 256 313 393
#     4  12  26  38  62 100 138 159 204 281 330 364
#
# _framework density 20.373553999999999
#
# number of rings (size 3 to 8) (size 9 to 14) (size 15 to 20)
#    0.000    1.333    1.667    3.000    7.000    5.333 
#    0.000    0.000    0.000    0.000    0.000    0.000 
#    0.000    0.000    0.000    0.000    0.000    0.000 
#
# Total GULP energy -297753.703030 kJ/mol
# GULP energy per Si atom -12406.404293 kJ/mol
# Density = 2.032718 g / cm^3
# Si number density = 20.373554 Si / 1000 Ang^3
#
#
#
# Elastic Constant Matrix: (Units=GPa)
#
#
# Indices 1 2 3 4 5 6 
#
# 1 105.6833 50.4163 50.7967 0.0000 0.0000 0.0000
# 2 50.4163 72.9739 30.8832 0.0000 0.0000 0.0000
# 3 50.7967 30.8832 72.0975 0.0000 0.0000 0.0000
# 4 0.0000 0.0000 0.0000 20.5773 0.0000 0.0000
# 5 0.0000 0.0000 0.0000 0.0000 29.3822 0.0000
# 6 0.0000 0.0000 0.0000 0.0000 0.0000 24.2045
#
#
#
# Elastic Compliance Matrix: (Units=1/GPa)
#
#
# Indices 1 2 3 4 5 6 
#
# 1 0.017810 -0.008543 -0.008889 0.000000 0.000000 0.000000
# 2 -0.008543 0.020835 -0.002906 0.000000 0.000000 0.000000
# 3 -0.008889 -0.002906 0.021378 0.000000 0.000000 0.000000
# 4 0.000000 0.000000 0.000000 0.048597 0.000000 0.000000
# 5 0.000000 0.000000 0.000000 0.000000 0.034034 0.000000
# 6 0.000000 0.000000 0.000000 0.000000 0.000000 0.041315
#
#
# Mechanical properties :
#
#
# Convention : Reuss Voigt Hill
#
# Bulk Modulus (GPa) = 51.68567 57.21635 54.45101
# Shear Modulus (GPa) = 21.63627 22.74338 22.18982
#
# Velocity S-wave (km/s) = 3.26234 3.34476 3.30381
# Velocity P-wave (km/s) = 6.29401 6.56210 6.42945
#
# Compressibility (1/GPa) = 0.01934772
#
# Stress axis : x y z
#
# Youngs Moduli (GPa) = 56.14838 47.99521 46.77798
#
# Poissons Ratio (x) = 0.41001 0.41580
# Poissons Ratio (y) = 0.47966 0.13594
# Poissons Ratio (z) = 0.49909 0.13948
#
# Static dielectric constant tensor:
#      x y z
#    x 3.749210 0.000000 0.000000 
#    y 0.000000 3.641380 0.000000 
#    z 0.000000 0.000000 3.645860 
# 
# 
# High freq. dielectric constant tensor:
#      x y z
#    x 1.810570 0.000000 0.000000 
#    y 0.000000 1.794520 0.000000 
#    z 0.000000 0.000000 1.795350 
# 
# From -- ./inp_files/2797.got.cif
#   From: 2010.03.12/outbox.cif.g09.slc.cpg/sg19_2_cif.got.tgz:2797.got - 2010.04.10 18:59:41.
