data_PCOD8157175
_publ_section_title
;
Structure prediction by ZEFSAII (Michael W. Deem and Ramdas Pophale) SiO2 
 PCOD8157175
Probable space group: P 21 21 21
;
_chemical_formula_sum "Si O2"
_cell_formula_units_Z 32
_cell_length_a 9.199234
_cell_length_b 27.801841
_cell_length_c 5.466667
_cell_angle_alpha 90.000000
_cell_angle_beta 90.000000
_cell_angle_gamma 90.000000
_cell_volume 1398.130923
_symmetry_space_group_name_H-M "P 21 21 21"
_symmetry_group_IT_number 19
_symmetry_cell_setting 'orthorhombic'
loop_
_space_group_symop_operation_xyz
x,y,z
1/2-x,-y,1/2+z
1/2+x,1/2-y,-z
-x,1/2+y,1/2-z
loop_
_atom_site_type_symbol
_atom_site_label
_atom_site_fract_x
_atom_site_fract_y
_atom_site_fract_z
Si Si1 0.319230 0.196459 0.394703
Si Si2 0.111955 0.649258 0.235923
Si Si3 0.896572 0.960539 0.046387
Si Si4 0.120861 0.123271 0.624264
Si Si5 0.724337 0.527466 0.860579
Si Si6 0.742684 0.937444 0.543185
Si Si7 0.859974 0.781356 0.863655
Si Si8 0.883898 0.704262 0.492715
O O1 0.261176 0.145299 0.486271
O O2 0.485092 0.202707 0.474360
O O3 0.218070 0.240173 0.484596
O O4 0.282048 0.197886 0.105180
O O5 0.147707 0.611549 0.453188
O O6 0.264556 0.670760 0.143466
O O7 0.012144 0.696166 0.294777
O O8 0.025623 0.618188 0.035171
O O9 0.829598 0.935705 0.288192
O O10 0.067830 0.952621 0.063869
O O11 0.864093 0.017220 0.047181
O O12 0.842242 0.937568 0.789808
O O13 0.165399 0.070341 0.710788
O O14 0.080100 0.159406 0.837318
O O15 0.712455 0.497364 0.607892
O O16 0.897872 0.757726 0.600890
#
# Coordination Sequence:
#
# PCOD8157175 Si02
#       8
#     4   4   4   4   4   4   4   4
#     4  10  22  40  64  92 137 170 225 287 341 425
#     4  11  24  40  69  97 133 186 233 285 361 422
#     4  10  23  44  65 101 140 177 237 285 357 413
#     4  10  25  42  65  97 134 175 233 288 339 430
#     4  12  27  44  74 101 141 189 233 291 361 425
#     4  10  23  42  69  98 140 181 226 297 340 427
#     4  11  22  41  65  96 132 179 224 285 360 411
#     4  10  22  41  63  94 133 175 231 282 347 421
#
# _framework density 22.887699000000001
#
# number of rings (size 3 to 8) (size 9 to 14) (size 15 to 20)
#    0.000    1.500    0.000    4.500    8.750    3.000 
#    0.000    0.000    0.000    0.000    0.000    0.000 
#    0.000    0.000    0.000    0.000    0.000    0.000 
#
# Total GULP energy -396535.781440 kJ/mol
# GULP energy per Si atom -12391.743170 kJ/mol
# Density = 2.283561 g / cm^3
# Si number density = 22.887699 Si / 1000 Ang^3
#
#
#
# Elastic Constant Matrix: (Units=GPa)
#
#
# Indices 1 2 3 4 5 6 
#
# 1 136.2263 25.0202 14.1485 0.0000 0.0000 0.0000
# 2 25.0202 80.6497 0.4181 0.0000 0.0000 0.0000
# 3 14.1485 0.4181 80.9594 0.0000 0.0000 0.0000
# 4 0.0000 0.0000 0.0000 28.2260 0.0000 0.0000
# 5 0.0000 0.0000 0.0000 0.0000 25.9712 0.0000
# 6 0.0000 0.0000 0.0000 0.0000 0.0000 33.8187
#
#
#
# Elastic Compliance Matrix: (Units=1/GPa)
#
#
# Indices 1 2 3 4 5 6 
#
# 1 0.007934 -0.002454 -0.001374 0.000000 0.000000 0.000000
# 2 -0.002454 0.013159 0.000361 0.000000 0.000000 0.000000
# 3 -0.001374 0.000361 0.012590 0.000000 0.000000 0.000000
# 4 0.000000 0.000000 0.000000 0.035428 0.000000 0.000000
# 5 0.000000 0.000000 0.000000 0.000000 0.038504 0.000000
# 6 0.000000 0.000000 0.000000 0.000000 0.000000 0.029569
#
#
# Mechanical properties :
#
#
# Convention : Reuss Voigt Hill
#
# Bulk Modulus (GPa) = 37.38513 41.88988 39.63750
# Shear Modulus (GPa) = 32.67209 34.81976 33.74593
#
# Velocity S-wave (km/s) = 3.78232 3.90466 3.84397
# Velocity P-wave (km/s) = 5.95350 6.21856 6.08748
#
# Compressibility (1/GPa) = 0.02674861
#
# Stress axis : x y z
#
# Youngs Moduli (GPa) = 126.03674 75.99457 79.42738
#
# Poissons Ratio (x) = 0.18652 0.10913
# Poissons Ratio (y) = 0.30933 -0.02867
# Poissons Ratio (z) = 0.17316 -0.02743
#
# Static dielectric constant tensor:
#      x y z
#    x 4.067270 0.000000 0.000000 
#    y 0.000000 4.033220 0.000000 
#    z 0.000000 0.000000 4.316040 
# 
# 
# High freq. dielectric constant tensor:
#      x y z
#    x 1.909010 0.000000 0.000000 
#    y 0.000000 1.900820 0.000000 
#    z 0.000000 0.000000 1.904620 
# 
# From -- ./inp_files/678.got.cif
#   From: 2010.03.12/outbox.cif.g09.slc.cpg/sg19_1_cif.got.tgz:678.got - 2010.04.10 18:59:41.
