data_PCOD8157120
_publ_section_title
;
Structure prediction by ZEFSAII (Michael W. Deem and Ramdas Pophale) SiO2 
 PCOD8157120
Probable space group: P 21 21 21
;
_chemical_formula_sum "Si O2"
_cell_formula_units_Z 24
_cell_length_a 12.869941
_cell_length_b 13.006427
_cell_length_c 6.286062
_cell_angle_alpha 90.000000
_cell_angle_beta 90.000000
_cell_angle_gamma 90.000000
_cell_volume 1052.236164
_symmetry_space_group_name_H-M "P 21 21 21"
_symmetry_group_IT_number 19
_symmetry_cell_setting 'orthorhombic'
loop_
_space_group_symop_operation_xyz
x,y,z
1/2-x,-y,1/2+z
1/2+x,1/2-y,-z
-x,1/2+y,1/2-z
loop_
_atom_site_type_symbol
_atom_site_label
_atom_site_fract_x
_atom_site_fract_y
_atom_site_fract_z
Si Si1 0.582209 0.361077 0.652574
Si Si2 0.980482 0.322607 0.538683
Si Si3 0.587468 0.873708 0.494989
Si Si4 0.635379 0.063023 0.725848
Si Si5 0.978661 0.982055 0.617821
Si Si6 0.282081 0.249711 0.291505
O O1 0.556188 0.275888 0.472049
O O2 0.507637 0.340817 0.854726
O O3 0.566462 0.472619 0.544968
O O4 0.699976 0.343639 0.735393
O O5 0.983216 0.378653 0.768272
O O6 0.860995 0.282521 0.516716
O O7 0.020002 0.402828 0.360797
O O8 0.652198 0.772130 0.425185
O O9 0.662867 0.953782 0.618033
O O10 0.549125 0.927403 0.279196
O O11 0.722819 0.143681 0.655440
O O12 0.623015 0.049092 0.979143
#
# Coordination Sequence:
#
# PCOD8157120 Si02
#       6
#     4   4   4   4   4   4
#     4  10  23  45  63  96 136 169 218 273 319 388
#     4  10  22  42  65  94 129 172 216 267 320 382
#     4  10  22  42  66  95 133 167 214 276 325 385
#     4   9  23  41  65  94 132 166 218 273 323 387
#     4  10  21  46  67  89 141 171 210 279 325 374
#     4  11  23  40  68  96 123 175 218 262 332 386
#
# _framework density 22.808568999999999
#
# number of rings (size 3 to 8) (size 9 to 14) (size 15 to 20)
#    0.000    2.000    1.667    0.000    7.000    0.000 
#   18.000    0.000    0.000    0.000    0.000    0.000 
#    0.000    0.000    0.000    0.000    0.000    0.000 
#
# Total GULP energy -297321.106525 kJ/mol
# GULP energy per Si atom -12388.379439 kJ/mol
# Density = 2.275666 g / cm^3
# Si number density = 22.808569 Si / 1000 Ang^3
#
#
#
# Elastic Constant Matrix: (Units=GPa)
#
#
# Indices 1 2 3 4 5 6 
#
# 1 117.0277 30.4339 42.2765 0.0000 0.0000 0.0000
# 2 30.4339 72.6963 40.9601 0.0000 0.0000 0.0000
# 3 42.2765 40.9601 99.8880 0.0000 0.0000 0.0000
# 4 0.0000 0.0000 0.0000 35.4499 0.0000 0.0000
# 5 0.0000 0.0000 0.0000 0.0000 25.5008 0.0000
# 6 0.0000 0.0000 0.0000 0.0000 0.0000 43.8704
#
#
#
# Elastic Compliance Matrix: (Units=1/GPa)
#
#
# Indices 1 2 3 4 5 6 
#
# 1 0.010410 -0.002439 -0.003406 0.000000 0.000000 0.000000
# 2 -0.002439 0.018461 -0.006538 0.000000 0.000000 0.000000
# 3 -0.003406 -0.006538 0.014133 0.000000 0.000000 0.000000
# 4 0.000000 0.000000 0.000000 0.028209 0.000000 0.000000
# 5 0.000000 0.000000 0.000000 0.000000 0.039214 0.000000
# 6 0.000000 0.000000 0.000000 0.000000 0.000000 0.022794
#
#
# Mechanical properties :
#
#
# Convention : Reuss Voigt Hill
#
# Bulk Modulus (GPa) = 54.82762 57.43921 56.13341
# Shear Modulus (GPa) = 30.47568 32.69367 31.58467
#
# Velocity S-wave (km/s) = 3.65930 3.79013 3.72529
# Velocity P-wave (km/s) = 6.47645 6.66268 6.57022
#
# Compressibility (1/GPa) = 0.01823898
#
# Stress axis : x y z
#
# Youngs Moduli (GPa) = 96.06564 54.16968 70.75436
#
# Poissons Ratio (x) = 0.13212 0.24096
# Poissons Ratio (y) = 0.23431 0.46256
# Poissons Ratio (z) = 0.32716 0.35414
#
# Static dielectric constant tensor:
#      x y z
#    x 4.084310 0.000000 0.000000 
#    y 0.000000 4.280560 0.000000 
#    z 0.000000 0.000000 4.084920 
# 
# 
# High freq. dielectric constant tensor:
#      x y z
#    x 1.878970 0.000000 0.000000 
#    y 0.000000 1.906850 0.000000 
#    z 0.000000 0.000000 1.889470 
# 
# From -- ./inp_files/1465.got.cif
#   From: 2010.03.12/outbox.cif.g09.slc.cpg/sg19_1_cif.got.tgz:1465.got - 2010.04.10 18:59:41.
