data_PCOD8157308
_publ_section_title
;
Structure prediction by ZEFSAII (Michael W. Deem and Ramdas Pophale) SiO2 
 PCOD8157308
Probable space group: P 21 21 21
;
_chemical_formula_sum "Si O2"
_cell_formula_units_Z 20
_cell_length_a 10.351694
_cell_length_b 9.674396
_cell_length_c 7.643222
_cell_angle_alpha 90.000000
_cell_angle_beta 90.000000
_cell_angle_gamma 90.000000
_cell_volume 765.441069
_symmetry_space_group_name_H-M "P 21 21 21"
_symmetry_group_IT_number 19
_symmetry_cell_setting 'orthorhombic'
loop_
_space_group_symop_operation_xyz
x,y,z
1/2-x,-y,1/2+z
1/2+x,1/2-y,-z
-x,1/2+y,1/2-z
loop_
_atom_site_type_symbol
_atom_site_label
_atom_site_fract_x
_atom_site_fract_y
_atom_site_fract_z
Si Si1 0.264142 0.294087 0.582537
Si Si2 0.959697 0.995527 0.922467
Si Si3 0.966668 0.995853 0.316511
Si Si4 0.832469 0.501059 0.878222
Si Si5 0.243084 0.705052 0.673664
O O1 0.133354 0.371357 0.641955
O O2 0.387665 0.359908 0.678306
O O3 0.283459 0.315478 0.377382
O O4 0.258139 0.134522 0.637413
O O5 0.079722 0.994953 0.793195
O O6 0.880511 0.138889 0.922299
O O7 0.011879 0.968306 0.118079
O O8 0.874558 0.871519 0.384542
O O9 0.089915 0.010341 0.440440
O O10 0.742800 0.364735 0.881906
#
# Coordination Sequence:
#
# PCOD8157308 Si02
#       5
#     4   4   4   4   4
#     4  10  23  46  68 102 145 177 232 293 341 419
#     4  10  22  44  72  96 136 187 224 285 353 403
#     4  10  24  48  71 100 142 186 228 288 353 409
#     4  12  24  46  71 103 142 184 234 284 347 419
#     4  10  23  46  68 105 141 182 230 290 348 410
#
# _framework density 26.128727999999999
#
# number of rings (size 3 to 8) (size 9 to 14) (size 15 to 20)
#    0.000    1.600    2.000    1.200    2.800    4.800 
#   10.800    0.000    0.000    0.000    0.000    0.000 
#    0.000    0.000    0.000    0.000    0.000    0.000 
#
# Total GULP energy -248159.256284 kJ/mol
# GULP energy per Si atom -12407.962814 kJ/mol
# Density = 2.606926 g / cm^3
# Si number density = 26.128728 Si / 1000 Ang^3
#
#
#
# Elastic Constant Matrix: (Units=GPa)
#
#
# Indices 1 2 3 4 5 6 
#
# 1 33.9162 23.9466 8.6883 0.0000 0.0000 0.0000
# 2 23.9466 190.3618 2.3187 0.0000 0.0000 0.0000
# 3 8.6883 2.3187 103.8846 0.0000 0.0000 0.0000
# 4 0.0000 0.0000 0.0000 31.0725 0.0000 0.0000
# 5 0.0000 0.0000 0.0000 0.0000 15.5430 0.0000
# 6 0.0000 0.0000 0.0000 0.0000 0.0000 32.4647
#
#
#
# Elastic Compliance Matrix: (Units=1/GPa)
#
#
# Indices 1 2 3 4 5 6 
#
# 1 0.033085 -0.004129 -0.002675 0.000000 0.000000 0.000000
# 2 -0.004129 0.005770 0.000217 0.000000 0.000000 0.000000
# 3 -0.002675 0.000217 0.009845 0.000000 0.000000 0.000000
# 4 0.000000 0.000000 0.000000 0.032183 0.000000 0.000000
# 5 0.000000 0.000000 0.000000 0.000000 0.064338 0.000000
# 6 0.000000 0.000000 0.000000 0.000000 0.000000 0.030803
#
#
# Mechanical properties :
#
#
# Convention : Reuss Voigt Hill
#
# Bulk Modulus (GPa) = 28.14938 44.22997 36.18968
# Shear Modulus (GPa) = 24.87062 35.36329 30.11695
#
# Velocity S-wave (km/s) = 3.08855 3.68288 3.39873
# Velocity P-wave (km/s) = 4.84929 5.92025 5.41133
#
# Compressibility (1/GPa) = 0.03552476
#
# Stress axis : x y z
#
# Youngs Moduli (GPa) = 30.22497 173.31099 101.57499
#
# Poissons Ratio (x) = 0.71567 0.27170
# Poissons Ratio (y) = 0.12481 -0.02200
# Poissons Ratio (z) = 0.08085 -0.03753
#
# Static dielectric constant tensor:
#      x y z
#    x 4.516580 0.000000 0.000000 
#    y 0.000000 5.064580 0.000000 
#    z 0.000000 0.000000 4.777200 
# 
# 
# High freq. dielectric constant tensor:
#      x y z
#    x 2.044770 0.000000 0.000000 
#    y 0.000000 2.055030 0.000000 
#    z 0.000000 0.000000 2.051240 
# 
# From -- ./inp_files/2611.got.cif
#   From: 2010.03.12/outbox.cif.g09.slc.cpg/sg19_2_cif.got.tgz:2611.got - 2010.04.10 18:59:41.
