data_PCOD8157111
_publ_section_title
;
Structure prediction by ZEFSAII (Michael W. Deem and Ramdas Pophale) SiO2 
 PCOD8157111
Probable space group: P 21 21 21
;
_chemical_formula_sum "Si O2"
_cell_formula_units_Z 32
_cell_length_a 9.483787
_cell_length_b 12.939617
_cell_length_c 12.994090
_cell_angle_alpha 90.000000
_cell_angle_beta 90.000000
_cell_angle_gamma 90.000000
_cell_volume 1594.590174
_symmetry_space_group_name_H-M "P 21 21 21"
_symmetry_group_IT_number 19
_symmetry_cell_setting 'orthorhombic'
loop_
_space_group_symop_operation_xyz
x,y,z
1/2-x,-y,1/2+z
1/2+x,1/2-y,-z
-x,1/2+y,1/2-z
loop_
_atom_site_type_symbol
_atom_site_label
_atom_site_fract_x
_atom_site_fract_y
_atom_site_fract_z
Si Si1 0.820945 0.483994 0.594764
Si Si2 0.148361 0.849155 0.527839
Si Si3 0.750617 0.025213 0.153337
Si Si4 0.838953 0.840502 0.469338
Si Si5 0.088275 0.147601 0.485643
Si Si6 0.410111 0.614073 0.000752
Si Si7 0.668861 0.949669 0.868088
Si Si8 0.437398 0.983072 0.181243
O O1 0.737137 0.580343 0.549306
O O2 0.724257 0.380781 0.584317
O O3 0.857145 0.519511 0.710264
O O4 0.958473 0.458358 0.528035
O O5 0.245966 0.755954 0.564668
O O6 0.106169 0.909200 0.630399
O O7 0.004390 0.810252 0.473164
O O8 0.848385 0.068061 0.246219
O O9 0.605448 0.978195 0.198911
O O10 0.717324 0.120741 0.079600
O O11 0.833902 0.933208 0.098231
O O12 0.810042 0.928361 0.385263
O O13 0.048857 0.267686 0.477793
O O14 0.961627 0.082338 0.437724
O O15 0.108941 0.110843 0.604658
O O16 0.304636 0.615591 0.097220
#
# Coordination Sequence:
#
# PCOD8157111 Si02
#       8
#     4   4   4   4   4   4   4   4
#     4  11  23  41  66  96 125 168 214 259 319 383
#     4  10  23  42  64  91 127 166 207 263 313 374
#     4  10  22  41  65  92 126 166 211 261 315 375
#     4  10  22  43  62  90 129 164 210 262 314 370
#     4  11  23  44  63  93 137 162 212 274 313 373
#     4  11  23  40  67  96 123 173 213 253 325 384
#     4  11  21  43  64  90 130 166 209 263 314 377
#     4  10  21  44  65  88 129 167 208 265 313 372
#
# _framework density 20.067851000000001
#
# number of rings (size 3 to 8) (size 9 to 14) (size 15 to 20)
#    0.000    1.500    6.250    0.750    3.500    4.000 
#    2.250    0.000    0.000    0.000    0.000    0.000 
#    0.000    0.000    0.000    0.000    0.000    0.000 
#
# Total GULP energy -396757.102319 kJ/mol
# GULP energy per Si atom -12398.659447 kJ/mol
# Density = 2.002218 g / cm^3
# Si number density = 20.067851 Si / 1000 Ang^3
#
#
#
# Elastic Constant Matrix: (Units=GPa)
#
#
# Indices 1 2 3 4 5 6 
#
# 1 104.7597 36.9143 43.3723 0.0000 0.0000 0.0000
# 2 36.9143 91.1397 39.3270 0.0000 0.0000 0.0000
# 3 43.3723 39.3270 114.6555 0.0000 0.0000 0.0000
# 4 0.0000 0.0000 0.0000 11.3477 0.0000 0.0000
# 5 0.0000 0.0000 0.0000 0.0000 30.0396 0.0000
# 6 0.0000 0.0000 0.0000 0.0000 0.0000 33.6519
#
#
#
# Elastic Compliance Matrix: (Units=1/GPa)
#
#
# Indices 1 2 3 4 5 6 
#
# 1 0.012181 -0.003457 -0.003422 0.000000 0.000000 0.000000
# 2 -0.003457 0.013859 -0.003446 0.000000 0.000000 0.000000
# 3 -0.003422 -0.003446 0.011198 0.000000 0.000000 0.000000
# 4 0.000000 0.000000 0.000000 0.088123 0.000000 0.000000
# 5 0.000000 0.000000 0.000000 0.000000 0.033289 0.000000
# 6 0.000000 0.000000 0.000000 0.000000 0.000000 0.029716
#
#
# Mechanical properties :
#
#
# Convention : Reuss Voigt Hill
#
# Bulk Modulus (GPa) = 60.28379 61.08692 60.68536
# Shear Modulus (GPa) = 23.30502 27.73726 25.52114
#
# Velocity S-wave (km/s) = 3.41150 3.72179 3.57002
# Velocity P-wave (km/s) = 6.75448 6.99823 6.87744
#
# Compressibility (1/GPa) = 0.01658821
#
# Stress axis : x y z
#
# Youngs Moduli (GPa) = 82.09831 72.15377 89.29956
#
# Poissons Ratio (x) = 0.24943 0.30558
# Poissons Ratio (y) = 0.28380 0.30773
# Poissons Ratio (z) = 0.28094 0.24865
#
# Static dielectric constant tensor:
#      x y z
#    x 3.971920 0.000000 0.000000 
#    y 0.000000 3.486370 0.000000 
#    z 0.000000 0.000000 3.526090 
# 
# 
# High freq. dielectric constant tensor:
#      x y z
#    x 1.798640 0.000000 0.000000 
#    y 0.000000 1.772650 0.000000 
#    z 0.000000 0.000000 1.775370 
# 
# From -- ./inp_files/5986.got.cif
#   From: 2010.03.12/outbox.cif.g09.slc.cpg/sg19_3_cif.got.tgz:5986.got - 2010.04.10 18:59:41.
