data_PCOD8157369
_publ_section_title
;
Structure prediction by ZEFSAII (Michael W. Deem and Ramdas Pophale) SiO2 
 PCOD8157369
Probable space group: P 21 21 21
;
_chemical_formula_sum "Si O2"
_cell_formula_units_Z 16
_cell_length_a 20.381465
_cell_length_b 6.792394
_cell_length_c 5.135318
_cell_angle_alpha 90.000000
_cell_angle_beta 90.000000
_cell_angle_gamma 90.000000
_cell_volume 710.927983
_symmetry_space_group_name_H-M "P 21 21 21"
_symmetry_group_IT_number 19
_symmetry_cell_setting 'orthorhombic'
loop_
_space_group_symop_operation_xyz
x,y,z
1/2-x,-y,1/2+z
1/2+x,1/2-y,-z
-x,1/2+y,1/2-z
loop_
_atom_site_type_symbol
_atom_site_label
_atom_site_fract_x
_atom_site_fract_y
_atom_site_fract_z
Si Si1 0.889003 0.670594 0.455057
Si Si2 0.709651 0.020830 0.123036
Si Si3 0.905800 0.267734 0.657127
Si Si4 0.459189 0.888814 0.053712
O O1 0.878421 0.433850 0.458597
O O2 0.922745 0.722489 0.181776
O O3 0.820197 0.780978 0.495964
O O4 0.938048 0.733424 0.688728
O O5 0.749686 0.923817 0.882624
O O6 0.654098 0.872747 0.228394
O O7 0.962558 0.136525 0.519474
O O8 0.935700 0.382744 0.911190
#
# Coordination Sequence:
#
# PCOD8157369 Si02
#       4
#     4   4   4   4
#     4  10  25  43  68 101 136 177 222 288 336 416
#     4  12  28  45  69  97 140 191 236 271 333 415
#     4  10  26  42  72 102 142 173 228 288 351 408
#     4  10  23  42  73 102 136 167 226 285 366 387
#
# _framework density 22.505794000000002
#
# number of rings (size 3 to 8) (size 9 to 14) (size 15 to 20)
#    1.500    0.000    0.000    3.000   10.500    2.000 
#    0.000    0.000    0.000    0.000    0.000    0.000 
#    0.000    0.000    0.000    0.000    0.000    0.000 
#
# Total GULP energy -198221.887629 kJ/mol
# GULP energy per Si atom -12388.867977 kJ/mol
# Density = 2.245457 g / cm^3
# Si number density = 22.505794 Si / 1000 Ang^3
#
#
#
# Elastic Constant Matrix: (Units=GPa)
#
#
# Indices 1 2 3 4 5 6 
#
# 1 120.1105 61.5663 33.9627 0.0000 0.0000 0.0000
# 2 61.5663 105.3764 28.5599 0.0000 0.0000 0.0000
# 3 33.9627 28.5599 131.0981 0.0000 0.0000 0.0000
# 4 0.0000 0.0000 0.0000 20.5977 0.0000 0.0000
# 5 0.0000 0.0000 0.0000 0.0000 31.5279 0.0000
# 6 0.0000 0.0000 0.0000 0.0000 0.0000 33.2227
#
#
#
# Elastic Compliance Matrix: (Units=1/GPa)
#
#
# Indices 1 2 3 4 5 6 
#
# 1 0.012237 -0.006685 -0.001714 0.000000 0.000000 0.000000
# 2 -0.006685 0.013737 -0.001261 0.000000 0.000000 0.000000
# 3 -0.001714 -0.001261 0.008347 0.000000 0.000000 0.000000
# 4 0.000000 0.000000 0.000000 0.048549 0.000000 0.000000
# 5 0.000000 0.000000 0.000000 0.000000 0.031718 0.000000
# 6 0.000000 0.000000 0.000000 0.000000 0.000000 0.030100
#
#
# Mechanical properties :
#
#
# Convention : Reuss Voigt Hill
#
# Bulk Modulus (GPa) = 66.66023 67.19585 66.92804
# Shear Modulus (GPa) = 29.58457 32.56940 31.07698
#
# Velocity S-wave (km/s) = 3.62958 3.80828 3.72000
# Velocity P-wave (km/s) = 6.87376 7.01849 6.94650
#
# Compressibility (1/GPa) = 0.01500145
#
# Stress axis : x y z
#
# Youngs Moduli (GPa) = 81.72067 72.79520 119.81013
#
# Poissons Ratio (x) = 0.48663 0.20533
# Poissons Ratio (y) = 0.54629 0.15106
# Poissons Ratio (z) = 0.14005 0.09178
#
# Static dielectric constant tensor:
#      x y z
#    x 3.868700 0.000000 0.000000 
#    y 0.000000 3.791530 0.000000 
#    z 0.000000 0.000000 3.790050 
# 
# 
# High freq. dielectric constant tensor:
#      x y z
#    x 1.880210 0.000000 0.000000 
#    y 0.000000 1.877180 0.000000 
#    z 0.000000 0.000000 1.877570 
# 
# From -- ./inp_files/72.got.cif
#   From: 2010.03.12/outbox.cif.g09.slc.cpg/sg19_1_cif.got.tgz:72.got - 2010.04.10 18:59:41.
