data_PCOD8157739
_publ_section_title
;
Structure prediction by ZEFSAII (Michael W. Deem and Ramdas Pophale) SiO2 
 PCOD8157739
Probable space group: P 21 21 21
;
_chemical_formula_sum "Si O2"
_cell_formula_units_Z 32
_cell_length_a 5.356006
_cell_length_b 16.875714
_cell_length_c 15.427760
_cell_angle_alpha 90.000000
_cell_angle_beta 90.000000
_cell_angle_gamma 90.000000
_cell_volume 1394.460079
_symmetry_space_group_name_H-M "P 21 21 21"
_symmetry_group_IT_number 19
_symmetry_cell_setting 'orthorhombic'
loop_
_space_group_symop_operation_xyz
x,y,z
1/2-x,-y,1/2+z
1/2+x,1/2-y,-z
-x,1/2+y,1/2-z
loop_
_atom_site_type_symbol
_atom_site_label
_atom_site_fract_x
_atom_site_fract_y
_atom_site_fract_z
Si Si1 0.055449 0.165478 0.423248
Si Si2 0.603808 0.649049 0.362190
Si Si3 0.885330 0.116301 0.034534
Si Si4 0.844141 0.951144 0.957116
Si Si5 0.396920 0.327444 0.158049
Si Si6 0.372357 0.164565 0.579212
Si Si7 0.323598 0.059108 0.304915
Si Si8 0.396237 0.099449 0.764909
O O1 0.116278 0.175034 0.525597
O O2 0.262410 0.142722 0.352377
O O3 0.904889 0.083351 0.415997
O O4 0.946372 0.247790 0.389433
O O5 0.345797 0.653849 0.414494
O O6 0.647208 0.735267 0.321313
O O7 0.557296 0.584767 0.286414
O O8 0.847433 0.624319 0.418163
O O9 0.892953 0.162399 0.944690
O O10 0.814157 0.024025 0.022278
O O11 0.994532 0.984272 0.873746
O O12 0.947667 0.875251 0.008928
O O13 0.667830 0.354171 0.191149
O O14 0.168331 0.372480 0.204657
O O15 0.353751 0.109170 0.662195
O O16 0.110184 0.994249 0.285281
#
# Coordination Sequence:
#
# PCOD8157739 Si02
#       8
#     4   4   4   4   4   4   4   4
#     4  11  24  44  71 102 152 185 243 297 371 427
#     4  12  28  46  77 106 141 186 248 297 354 439
#     4  12  26  48  73 103 145 189 244 296 367 427
#     4  11  25  44  71  99 150 187 236 295 367 424
#     4  12  26  49  74 106 144 191 236 306 366 420
#     4  11  25  43  72 109 139 198 241 297 360 446
#     4  11  27  45  68 109 142 195 236 307 363 431
#     4  12  27  45  76 104 149 187 248 293 366 438
#
# _framework density 22.947949999999999
#
# number of rings (size 3 to 8) (size 9 to 14) (size 15 to 20)
#    0.000    0.500    2.500    4.500   10.500    0.000 
#    0.000    0.000    0.000    0.000    0.000    0.000 
#    0.000    0.000    0.000    0.000    0.000    0.000 
#
# Total GULP energy -396588.098249 kJ/mol
# GULP energy per Si atom -12393.378070 kJ/mol
# Density = 2.289572 g / cm^3
# Si number density = 22.947950 Si / 1000 Ang^3
#
#
#
# Elastic Constant Matrix: (Units=GPa)
#
#
# Indices 1 2 3 4 5 6 
#
# 1 83.6536 1.4435 28.1968 0.0000 0.0000 0.0000
# 2 1.4435 102.7110 22.1367 0.0000 0.0000 0.0000
# 3 28.1968 22.1367 132.7237 0.0000 0.0000 0.0000
# 4 0.0000 0.0000 0.0000 39.7393 0.0000 0.0000
# 5 0.0000 0.0000 0.0000 0.0000 22.3815 0.0000
# 6 0.0000 0.0000 0.0000 0.0000 0.0000 35.1516
#
#
#
# Elastic Compliance Matrix: (Units=1/GPa)
#
#
# Indices 1 2 3 4 5 6 
#
# 1 0.012894 0.000424 -0.002810 0.000000 0.000000 0.000000
# 2 0.000424 0.010113 -0.001777 0.000000 0.000000 0.000000
# 3 -0.002810 -0.001777 0.008428 0.000000 0.000000 0.000000
# 4 0.000000 0.000000 0.000000 0.025164 0.000000 0.000000
# 5 0.000000 0.000000 0.000000 0.000000 0.044680 0.000000
# 6 0.000000 0.000000 0.000000 0.000000 0.000000 0.028448
#
#
# Mechanical properties :
#
#
# Convention : Reuss Voigt Hill
#
# Bulk Modulus (GPa) = 43.27190 46.96026 45.11608
# Shear Modulus (GPa) = 34.30411 37.27522 35.78966
#
# Velocity S-wave (km/s) = 3.87054 4.03468 3.95346
# Velocity P-wave (km/s) = 6.23476 6.49716 6.36731
#
# Compressibility (1/GPa) = 0.02310969
#
# Stress axis : x y z
#
# Youngs Moduli (GPa) = 77.55596 98.88204 118.65485
#
# Poissons Ratio (x) = -0.04197 0.33343
# Poissons Ratio (y) = -0.03292 0.21084
# Poissons Ratio (z) = 0.21794 0.17570
#
# Static dielectric constant tensor:
#      x y z
#    x 4.107060 0.000000 0.000000 
#    y 0.000000 4.177020 0.000000 
#    z 0.000000 0.000000 4.195760 
# 
# 
# High freq. dielectric constant tensor:
#      x y z
#    x 1.900120 0.000000 0.000000 
#    y 0.000000 1.925030 0.000000 
#    z 0.000000 0.000000 1.918620 
# 
# From -- ./inp_files/5759.got.cif
#   From: 2010.03.12/outbox.cif.g09.slc.cpg/sg19_3_cif.got.tgz:5759.got - 2010.04.10 18:59:41.
