data_PCOD8157115
_publ_section_title
;
Structure prediction by ZEFSAII (Michael W. Deem and Ramdas Pophale) SiO2 
 PCOD8157115
Probable space group: P 21 21 21
;
_chemical_formula_sum "Si O2"
_cell_formula_units_Z 24
_cell_length_a 8.498078
_cell_length_b 14.903768
_cell_length_c 9.215052
_cell_angle_alpha 90.000000
_cell_angle_beta 90.000000
_cell_angle_gamma 90.000000
_cell_volume 1167.117510
_symmetry_space_group_name_H-M "P 21 21 21"
_symmetry_group_IT_number 19
_symmetry_cell_setting 'orthorhombic'
loop_
_space_group_symop_operation_xyz
x,y,z
1/2-x,-y,1/2+z
1/2+x,1/2-y,-z
-x,1/2+y,1/2-z
loop_
_atom_site_type_symbol
_atom_site_label
_atom_site_fract_x
_atom_site_fract_y
_atom_site_fract_z
Si Si1 0.630643 0.159927 0.393416
Si Si2 0.466009 0.099274 0.672770
Si Si3 0.450685 0.260137 0.171513
Si Si4 0.127580 0.140369 0.602626
Si Si5 0.540263 0.918742 0.821335
Si Si6 0.084415 0.240115 0.147441
O O1 0.560503 0.100252 0.521992
O O2 0.500418 0.172274 0.265812
O O3 0.678132 0.259500 0.454511
O O4 0.779401 0.111118 0.324484
O O5 0.281757 0.083324 0.641954
O O6 0.480002 0.192972 0.756962
O O7 0.534831 0.021172 0.771996
O O8 0.515437 0.348811 0.255684
O O9 0.265222 0.267766 0.157418
O O10 0.532432 0.253838 0.017400
O O11 0.032829 0.087309 0.480875
O O12 0.442671 0.859874 0.706391
#
# Coordination Sequence:
#
# PCOD8157115 Si02
#       6
#     4   4   4   4   4   4
#     4  10  21  45  67  94 132 186 222 274 348 404
#     4  12  25  41  72 100 136 180 235 281 340 411
#     4  10  23  38  75  88 134 186 226 276 349 406
#     4  10  21  45  67  94 132 186 222 274 348 404
#     4  12  25  41  72 100 136 180 235 281 340 411
#     4  12  21  44  61 102 132 180 230 290 337 400
#
# _framework density 20.563482
#
# number of rings (size 3 to 8) (size 9 to 14) (size 15 to 20)
#    1.000    0.000    3.333    4.000    0.000    5.333 
#    0.000    5.000    0.000    0.000    0.000    0.000 
#    0.000    0.000    0.000    0.000    0.000    0.000 
#
# Total GULP energy -297662.613584 kJ/mol
# GULP energy per Si atom -12402.608899 kJ/mol
# Density = 2.051668 g / cm^3
# Si number density = 20.563482 Si / 1000 Ang^3
#
#
#
# Elastic Constant Matrix: (Units=GPa)
#
#
# Indices 1 2 3 4 5 6 
#
# 1 101.0701 9.0813 44.6924 0.0000 0.0000 0.0000
# 2 9.0813 44.0176 15.3731 0.0000 0.0000 0.0000
# 3 44.6924 15.3731 133.7383 0.0000 0.0000 0.0000
# 4 0.0000 0.0000 0.0000 37.4293 0.0000 0.0000
# 5 0.0000 0.0000 0.0000 0.0000 42.1791 0.0000
# 6 0.0000 0.0000 0.0000 0.0000 0.0000 20.8136
#
#
#
# Elastic Compliance Matrix: (Units=1/GPa)
#
#
# Indices 1 2 3 4 5 6 
#
# 1 0.011660 -0.001088 -0.003771 0.000000 0.000000 0.000000
# 2 -0.001088 0.023770 -0.002369 0.000000 0.000000 0.000000
# 3 -0.003771 -0.002369 0.009010 0.000000 0.000000 0.000000
# 4 0.000000 0.000000 0.000000 0.026717 0.000000 0.000000
# 5 0.000000 0.000000 0.000000 0.000000 0.023708 0.000000
# 6 0.000000 0.000000 0.000000 0.000000 0.000000 0.048046
#
#
# Mechanical properties :
#
#
# Convention : Reuss Voigt Hill
#
# Bulk Modulus (GPa) = 33.35242 46.34664 39.84953
# Shear Modulus (GPa) = 29.87551 34.06301 31.96926
#
# Velocity S-wave (km/s) = 3.81575 4.07440 3.94720
# Velocity P-wave (km/s) = 5.97225 6.68742 6.33993
#
# Compressibility (1/GPa) = 0.02998283
#
# Stress axis : x y z
#
# Youngs Moduli (GPa) = 85.76673 42.06985 110.98986
#
# Poissons Ratio (x) = 0.04579 0.41857
# Poissons Ratio (y) = 0.09335 0.26289
# Poissons Ratio (z) = 0.32345 0.09965
#
# Static dielectric constant tensor:
#      x y z
#    x 3.817260 0.000000 0.000000 
#    y 0.000000 3.403650 0.000000 
#    z 0.000000 0.000000 3.773180 
# 
# 
# High freq. dielectric constant tensor:
#      x y z
#    x 1.816910 0.000000 0.000000 
#    y 0.000000 1.773330 0.000000 
#    z 0.000000 0.000000 1.816740 
# 
# From -- ./inp_files/2825.got.cif
#   From: 2010.03.12/outbox.cif.g09.slc.cpg/sg19_2_cif.got.tgz:2825.got - 2010.04.10 18:59:41.
