data_PCOD8157873
_publ_section_title
;
Structure prediction by ZEFSAII (Michael W. Deem and Ramdas Pophale) SiO2 
 PCOD8157873
Probable space group: P 21 21 21
;
_chemical_formula_sum "Si O2"
_cell_formula_units_Z 24
_cell_length_a 18.706998
_cell_length_b 5.841014
_cell_length_c 9.407577
_cell_angle_alpha 90.000000
_cell_angle_beta 90.000000
_cell_angle_gamma 90.000000
_cell_volume 1027.945592
_symmetry_space_group_name_H-M "P 21 21 21"
_symmetry_group_IT_number 19
_symmetry_cell_setting 'orthorhombic'
loop_
_space_group_symop_operation_xyz
x,y,z
1/2-x,-y,1/2+z
1/2+x,1/2-y,-z
-x,1/2+y,1/2-z
loop_
_atom_site_type_symbol
_atom_site_label
_atom_site_fract_x
_atom_site_fract_y
_atom_site_fract_z
Si Si1 0.646715 0.976418 0.011544
Si Si2 0.770179 0.325594 0.997367
Si Si3 0.036620 0.168075 0.893288
Si Si4 0.673729 0.605718 0.805294
Si Si5 0.388794 0.192554 0.228509
Si Si6 0.526048 0.450696 0.806481
O O1 0.656444 0.832127 0.156022
O O2 0.573340 0.115076 0.031553
O O3 0.634724 0.831500 0.867174
O O4 0.720499 0.105872 0.982796
O O5 0.729635 0.538476 0.927745
O O6 0.846317 0.299192 0.919168
O O7 0.782442 0.364474 0.162482
O O8 0.968630 0.213087 0.794863
O O9 0.098992 0.059629 0.794653
O O10 0.011384 0.008785 0.024844
O O11 0.611459 0.419501 0.779842
O O12 0.503975 0.697664 0.737329
#
# Coordination Sequence:
#
# PCOD8157873 Si02
#       6
#     4   4   4   4   4   4
#     4  12  23  49  73 106 153 201 258 332 395 477
#     4  12  27  47  72 113 147 211 257 326 410 484
#     4  12  25  47  78 109 154 205 266 327 398 473
#     4  12  26  47  74 104 156 197 260 328 399 481
#     4  12  26  47  78 111 151 205 266 325 400 481
#     4  12  27  49  77 115 157 205 265 334 398 472
#
# _framework density 23.347539000000001
#
# number of rings (size 3 to 8) (size 9 to 14) (size 15 to 20)
#    0.000    0.000    5.000    5.000    0.000    1.333 
#    9.000    0.000    0.000    0.000    0.000    0.000 
#    0.000    0.000    0.000    0.000    0.000    0.000 
#
# Total GULP energy -297439.662059 kJ/mol
# GULP energy per Si atom -12393.319252 kJ/mol
# Density = 2.329440 g / cm^3
# Si number density = 23.347539 Si / 1000 Ang^3
#
#
#
# Elastic Constant Matrix: (Units=GPa)
#
#
# Indices 1 2 3 4 5 6 
#
# 1 103.1822 41.8837 51.3277 0.0000 0.0000 0.0000
# 2 41.8837 103.4784 53.0625 0.0000 0.0000 0.0000
# 3 51.3277 53.0625 154.4758 0.0000 0.0000 0.0000
# 4 0.0000 0.0000 0.0000 34.3347 0.0000 0.0000
# 5 0.0000 0.0000 0.0000 0.0000 57.7491 0.0000
# 6 0.0000 0.0000 0.0000 0.0000 0.0000 39.2923
#
#
#
# Elastic Compliance Matrix: (Units=1/GPa)
#
#
# Indices 1 2 3 4 5 6 
#
# 1 0.012622 -0.003591 -0.002960 0.000000 0.000000 0.000000
# 2 -0.003591 0.012752 -0.003187 0.000000 0.000000 0.000000
# 3 -0.002960 -0.003187 0.008552 0.000000 0.000000 0.000000
# 4 0.000000 0.000000 0.000000 0.029125 0.000000 0.000000
# 5 0.000000 0.000000 0.000000 0.000000 0.017316 0.000000
# 6 0.000000 0.000000 0.000000 0.000000 0.000000 0.025450
#
#
# Mechanical properties :
#
#
# Convention : Reuss Voigt Hill
#
# Bulk Modulus (GPa) = 69.20979 72.63159 70.92069
# Shear Modulus (GPa) = 38.42918 40.59941 39.51430
#
# Velocity S-wave (km/s) = 4.06145 4.17456 4.11839
# Velocity P-wave (km/s) = 7.19037 7.37647 7.28402
#
# Compressibility (1/GPa) = 0.01444882
#
# Stress axis : x y z
#
# Youngs Moduli (GPa) = 79.22808 78.42214 116.93261
#
# Poissons Ratio (x) = 0.28159 0.34617
# Poissons Ratio (y) = 0.28448 0.37267
# Poissons Ratio (z) = 0.23455 0.24994
#
# Static dielectric constant tensor:
#      x y z
#    x 4.296600 0.000000 0.000000 
#    y 0.000000 4.454210 0.000000 
#    z 0.000000 0.000000 4.545330 
# 
# 
# High freq. dielectric constant tensor:
#      x y z
#    x 1.933260 0.000000 0.000000 
#    y 0.000000 1.919910 0.000000 
#    z 0.000000 0.000000 1.938530 
# 
# From -- ./inp_files/405.got.cif
#   From: 2010.03.12/outbox.cif.g09.slc.cpg/sg19_1_cif.got.tgz:405.got - 2010.04.10 18:59:41.
