data_PCOD8157236
_publ_section_title
;
Structure prediction by ZEFSAII (Michael W. Deem and Ramdas Pophale) SiO2 
 PCOD8157236
Probable space group: P 21 21 21
;
_chemical_formula_sum "Si O2"
_cell_formula_units_Z 20
_cell_length_a 10.160022
_cell_length_b 18.232793
_cell_length_c 4.916540
_cell_angle_alpha 90.000000
_cell_angle_beta 90.000000
_cell_angle_gamma 90.000000
_cell_volume 910.767294
_symmetry_space_group_name_H-M "P 21 21 21"
_symmetry_group_IT_number 19
_symmetry_cell_setting 'orthorhombic'
loop_
_space_group_symop_operation_xyz
x,y,z
1/2-x,-y,1/2+z
1/2+x,1/2-y,-z
-x,1/2+y,1/2-z
loop_
_atom_site_type_symbol
_atom_site_label
_atom_site_fract_x
_atom_site_fract_y
_atom_site_fract_z
Si Si1 0.448550 0.103219 0.345994
Si Si2 0.443258 0.250976 0.573170
Si Si3 0.784827 0.366300 0.192383
Si Si4 0.991864 0.154464 0.929526
Si Si5 0.834672 0.011884 0.934958
O O1 0.519460 0.178615 0.456074
O O2 0.339950 0.078585 0.573129
O O3 0.556794 0.041318 0.302514
O O4 0.371418 0.119583 0.071692
O O5 0.306049 0.218388 0.699691
O O6 0.420931 0.306309 0.324260
O O7 0.519983 0.291553 0.816923
O O8 0.631279 0.380243 0.154385
O O9 0.896146 0.089439 0.021665
O O10 0.723973 0.024257 0.706293
#
# Coordination Sequence:
#
# PCOD8157236 Si02
#       5
#     4   4   4   4   4
#     4  10  22  46  64  96 134 179 220 271 348 385
#     4  10  22  42  63 103 131 174 214 285 330 388
#     4  10  22  42  67  97 125 177 225 271 342 377
#     4  12  24  42  70 102 130 173 236 271 332 411
#     4  12  28  46  66 102 138 185 221 276 350 403
#
# _framework density 21.959503999999999
#
# number of rings (size 3 to 8) (size 9 to 14) (size 15 to 20)
#    1.200    0.000    2.000    3.600    0.000    6.400 
#    0.000    0.000    0.000    0.000    0.000    0.000 
#    0.000    0.000    0.000    0.000    0.000    0.000 
#
# Total GULP energy -247834.666805 kJ/mol
# GULP energy per Si atom -12391.733340 kJ/mol
# Density = 2.190952 g / cm^3
# Si number density = 21.959504 Si / 1000 Ang^3
#
#
#
# Elastic Constant Matrix: (Units=GPa)
#
#
# Indices 1 2 3 4 5 6 
#
# 1 55.7617 14.5818 10.0787 0.0000 0.0000 0.0000
# 2 14.5818 55.4493 18.5567 0.0000 0.0000 0.0000
# 3 10.0787 18.5567 133.0060 0.0000 0.0000 0.0000
# 4 0.0000 0.0000 0.0000 25.7404 0.0000 0.0000
# 5 0.0000 0.0000 0.0000 0.0000 26.7113 0.0000
# 6 0.0000 0.0000 0.0000 0.0000 0.0000 26.9388
#
#
#
# Elastic Compliance Matrix: (Units=1/GPa)
#
#
# Indices 1 2 3 4 5 6 
#
# 1 0.019337 -0.004820 -0.000793 0.000000 0.000000 0.000000
# 2 -0.004820 0.020119 -0.002442 0.000000 0.000000 0.000000
# 3 -0.000793 -0.002442 0.007919 0.000000 0.000000 0.000000
# 4 0.000000 0.000000 0.000000 0.038849 0.000000 0.000000
# 5 0.000000 0.000000 0.000000 0.000000 0.037437 0.000000
# 6 0.000000 0.000000 0.000000 0.000000 0.000000 0.037121
#
#
# Mechanical properties :
#
#
# Convention : Reuss Voigt Hill
#
# Bulk Modulus (GPa) = 31.98302 36.73906 34.36104
# Shear Modulus (GPa) = 26.69307 29.27809 27.98558
#
# Velocity S-wave (km/s) = 3.49027 3.65537 3.57377
# Velocity P-wave (km/s) = 5.55327 5.88067 5.71931
#
# Compressibility (1/GPa) = 0.03126659
#
# Stress axis : x y z
#
# Youngs Moduli (GPa) = 51.71388 49.70388 126.27527
#
# Poissons Ratio (x) = 0.23957 0.10012
# Poissons Ratio (y) = 0.24925 0.30833
# Poissons Ratio (z) = 0.04100 0.12136
#
# Static dielectric constant tensor:
#      x y z
#    x 3.581980 0.000000 0.000000 
#    y 0.000000 3.829000 0.000000 
#    z 0.000000 0.000000 4.137600 
# 
# 
# High freq. dielectric constant tensor:
#      x y z
#    x 1.835360 0.000000 0.000000 
#    y 0.000000 1.853080 0.000000 
#    z 0.000000 0.000000 1.887810 
# 
# From -- ./inp_files/390.got.cif
#   From: 2010.03.12/outbox.cif.g09.slc.cpg/sg19_1_cif.got.tgz:390.got - 2010.04.10 18:59:41.
