data_PCOD8157022
_publ_section_title
;
Structure prediction by ZEFSAII (Michael W. Deem and Ramdas Pophale) SiO2 
 PCOD8157022
Probable space group: P 21 21 21
;
_chemical_formula_sum "Si O2"
_cell_formula_units_Z 32
_cell_length_a 13.231385
_cell_length_b 13.892910
_cell_length_c 7.864115
_cell_angle_alpha 90.000000
_cell_angle_beta 90.000000
_cell_angle_gamma 90.000000
_cell_volume 1445.600815
_symmetry_space_group_name_H-M "P 21 21 21"
_symmetry_group_IT_number 19
_symmetry_cell_setting 'orthorhombic'
loop_
_space_group_symop_operation_xyz
x,y,z
1/2-x,-y,1/2+z
1/2+x,1/2-y,-z
-x,1/2+y,1/2-z
loop_
_atom_site_type_symbol
_atom_site_label
_atom_site_fract_x
_atom_site_fract_y
_atom_site_fract_z
Si Si1 0.800555 0.680331 0.127025
Si Si2 0.795443 0.362546 0.084918
Si Si3 0.681293 0.530367 0.935888
Si Si4 0.291243 0.635160 0.669730
Si Si5 0.331593 0.712049 0.219730
Si Si6 0.983484 0.798982 0.514087
Si Si7 0.801275 0.057247 0.166310
Si Si8 0.475848 0.899882 0.654113
O O1 0.756744 0.759364 0.260201
O O2 0.899498 0.624149 0.191146
O O3 0.710947 0.604845 0.084656
O O4 0.837957 0.732885 0.956186
O O5 0.797721 0.422300 0.256796
O O6 0.728872 0.267924 0.126158
O O7 0.905512 0.339543 0.013696
O O8 0.743037 0.428863 0.942003
O O9 0.564288 0.495990 0.945588
O O10 0.407366 0.641924 0.608008
O O11 0.284382 0.557544 0.822114
O O12 0.217112 0.596290 0.523543
O O13 0.444768 0.691320 0.290533
O O14 0.272453 0.611264 0.199752
O O15 0.982211 0.686299 0.477696
O O16 0.914373 0.080011 0.229581
#
# Coordination Sequence:
#
# PCOD8157022 Si02
#       8
#     4   4   4   4   4   4   4   4
#     4  10  23  42  67  98 137 177 227 287 335 396
#     4  11  21  39  64  97 132 173 224 279 339 390
#     4  11  22  39  67  97 133 175 224 284 331 402
#     4  10  23  41  67  95 134 177 227 278 340 415
#     4  10  21  40  68  97 136 175 230 282 334 406
#     4  10  21  39  65  94 129 179 222 279 344 398
#     4  11  22  42  71  93 132 184 224 282 347 409
#     4  11  21  40  67  95 133 178 222 275 344 408
#
# _framework density 22.136125
#
# number of rings (size 3 to 8) (size 9 to 14) (size 15 to 20)
#    0.000    1.500    3.750    1.500    0.000    0.000 
#    0.000   10.000    2.750    0.000    0.000    0.000 
#    0.000    0.000    0.000    0.000    0.000    0.000 
#
# Total GULP energy -396693.728926 kJ/mol
# GULP energy per Si atom -12396.679029 kJ/mol
# Density = 2.208574 g / cm^3
# Si number density = 22.136125 Si / 1000 Ang^3
#
#
#
# Elastic Constant Matrix: (Units=GPa)
#
#
# Indices 1 2 3 4 5 6 
#
# 1 84.3703 11.4680 19.9766 0.0000 0.0000 0.0000
# 2 11.4680 86.2552 7.0817 0.0000 0.0000 0.0000
# 3 19.9766 7.0817 64.4643 0.0000 0.0000 0.0000
# 4 0.0000 0.0000 0.0000 36.1302 0.0000 0.0000
# 5 0.0000 0.0000 0.0000 0.0000 16.0171 0.0000
# 6 0.0000 0.0000 0.0000 0.0000 0.0000 29.8488
#
#
#
# Elastic Compliance Matrix: (Units=1/GPa)
#
#
# Indices 1 2 3 4 5 6 
#
# 1 0.012958 -0.001406 -0.003861 0.000000 0.000000 0.000000
# 2 -0.001406 0.011852 -0.000866 0.000000 0.000000 0.000000
# 3 -0.003861 -0.000866 0.016804 0.000000 0.000000 0.000000
# 4 0.000000 0.000000 0.000000 0.027678 0.000000 0.000000
# 5 0.000000 0.000000 0.000000 0.000000 0.062433 0.000000
# 6 0.000000 0.000000 0.000000 0.000000 0.000000 0.033502
#
#
# Mechanical properties :
#
#
# Convention : Reuss Voigt Hill
#
# Bulk Modulus (GPa) = 34.07480 34.68248 34.37864
# Shear Modulus (GPa) = 26.69870 29.50345 28.10108
#
# Velocity S-wave (km/s) = 3.47668 3.65474 3.56682
# Velocity P-wave (km/s) = 5.61633 5.78890 5.70327
#
# Compressibility (1/GPa) = 0.02934720
#
# Stress axis : x y z
#
# Youngs Moduli (GPa) = 77.17377 84.37723 59.50928
#
# Poissons Ratio (x) = 0.11862 0.22977
# Poissons Ratio (y) = 0.10849 0.05155
# Poissons Ratio (z) = 0.29797 0.07310
#
# Static dielectric constant tensor:
#      x y z
#    x 3.984450 0.000000 0.000000 
#    y 0.000000 4.489340 0.000000 
#    z 0.000000 0.000000 3.896390 
# 
# 
# High freq. dielectric constant tensor:
#      x y z
#    x 1.855740 0.000000 0.000000 
#    y 0.000000 1.893550 0.000000 
#    z 0.000000 0.000000 1.863670 
# 
# From -- ./inp_files/3600.got.cif
#   From: 2010.03.12/outbox.cif.g09.slc.cpg/sg19_2_cif.got.tgz:3600.got - 2010.04.10 18:59:41.
