data_PCOD8157410
_publ_section_title
;
Structure prediction by ZEFSAII (Michael W. Deem and Ramdas Pophale) SiO2 
 PCOD8157410
Probable space group: P 21 21 21
;
_chemical_formula_sum "Si O2"
_cell_formula_units_Z 28
_cell_length_a 5.112354
_cell_length_b 12.228958
_cell_length_c 18.536680
_cell_angle_alpha 90.000000
_cell_angle_beta 90.000000
_cell_angle_gamma 90.000000
_cell_volume 1158.890292
_symmetry_space_group_name_H-M "P 21 21 21"
_symmetry_group_IT_number 19
_symmetry_cell_setting 'orthorhombic'
loop_
_space_group_symop_operation_xyz
x,y,z
1/2-x,-y,1/2+z
1/2+x,1/2-y,-z
-x,1/2+y,1/2-z
loop_
_atom_site_type_symbol
_atom_site_label
_atom_site_fract_x
_atom_site_fract_y
_atom_site_fract_z
Si Si1 0.499774 0.565120 0.604440
Si Si2 0.646863 0.477747 0.294605
Si Si3 0.500912 0.944324 0.486658
Si Si4 0.949367 0.308501 0.528425
Si Si5 0.667382 0.925817 0.641428
Si Si6 0.622430 0.720673 0.730959
Si Si7 0.239737 0.135530 0.326605
O O1 0.219057 0.585446 0.570962
O O2 0.487128 0.638513 0.675419
O O3 0.534786 0.438753 0.627837
O O4 0.725731 0.597279 0.546211
O O5 0.424512 0.496341 0.355540
O O6 0.654463 0.348876 0.273320
O O7 0.590483 0.555261 0.225083
O O8 0.932318 0.509208 0.322455
O O9 0.579441 0.886786 0.561974
O O10 0.503206 0.072548 0.504539
O O11 0.675551 0.272746 0.494438
O O12 0.937490 0.311132 0.615662
O O13 0.752299 0.818971 0.686460
O O14 0.406070 0.767379 0.785364
#
# Coordination Sequence:
#
# PCOD8157410 Si02
#       7
#     4   4   4   4   4   4   4
#     4  10  23  44  71  99 140 182 223 287 350 407
#     4  10  24  44  67 100 137 179 228 288 344 404
#     4  11  24  46  65  99 145 174 230 292 336 413
#     4  11  24  42  68 100 133 186 228 279 355 415
#     4  11  25  45  68 103 140 177 235 291 334 413
#     4  10  24  45  74 101 136 190 234 281 361 410
#     4   9  22  44  67 100 141 174 228 288 338 418
#
# _framework density 24.161041999999998
#
# number of rings (size 3 to 8) (size 9 to 14) (size 15 to 20)
#    0.000    1.714    0.000    2.571    2.000   18.286 
#    2.571    0.000    0.000    0.000    0.000    0.000 
#    0.000    0.000    0.000    0.000    0.000    0.000 
#
# Total GULP energy -347245.589336 kJ/mol
# GULP energy per Si atom -12401.628191 kJ/mol
# Density = 2.410605 g / cm^3
# Si number density = 24.161042 Si / 1000 Ang^3
#
#
#
# Elastic Constant Matrix: (Units=GPa)
#
#
# Indices 1 2 3 4 5 6 
#
# 1 62.3693 38.6245 38.4745 0.0000 0.0000 0.0000
# 2 38.6245 80.1531 38.3630 0.0000 0.0000 0.0000
# 3 38.4745 38.3630 99.1932 0.0000 0.0000 0.0000
# 4 0.0000 0.0000 0.0000 31.4397 0.0000 0.0000
# 5 0.0000 0.0000 0.0000 0.0000 28.7488 0.0000
# 6 0.0000 0.0000 0.0000 0.0000 0.0000 14.7110
#
#
#
# Elastic Compliance Matrix: (Units=1/GPa)
#
#
# Indices 1 2 3 4 5 6 
#
# 1 0.025764 -0.009366 -0.006371 0.000000 0.000000 0.000000
# 2 -0.009366 0.018715 -0.003605 0.000000 0.000000 0.000000
# 3 -0.006371 -0.003605 0.013947 0.000000 0.000000 0.000000
# 4 0.000000 0.000000 0.000000 0.031807 0.000000 0.000000
# 5 0.000000 0.000000 0.000000 0.000000 0.034784 0.000000
# 6 0.000000 0.000000 0.000000 0.000000 0.000000 0.067976
#
#
# Mechanical properties :
#
#
# Convention : Reuss Voigt Hill
#
# Bulk Modulus (GPa) = 50.65470 52.51554 51.58512
# Shear Modulus (GPa) = 20.98570 23.39680 22.19125
#
# Velocity S-wave (km/s) = 2.95036 3.11524 3.03392
# Velocity P-wave (km/s) = 5.71114 5.89257 5.80257
#
# Compressibility (1/GPa) = 0.01974150
#
# Stress axis : x y z
#
# Youngs Moduli (GPa) = 38.81414 53.43317 71.70141
#
# Poissons Ratio (x) = 0.50045 0.45680
# Poissons Ratio (y) = 0.36353 0.25850
# Poissons Ratio (z) = 0.24728 0.19264
#
# Static dielectric constant tensor:
#      x y z
#    x 4.107960 0.000000 0.000000 
#    y 0.000000 4.452570 0.000000 
#    z 0.000000 0.000000 4.566490 
# 
# 
# High freq. dielectric constant tensor:
#      x y z
#    x 1.951200 0.000000 0.000000 
#    y 0.000000 1.955970 0.000000 
#    z 0.000000 0.000000 1.970800 
# 
# From -- ./inp_files/6438.got.cif
#   From: 2010.03.12/outbox.cif.g09.slc.cpg/sg19_4_cif.got.tgz:6438.got - 2010.04.10 18:59:41.
