data_PCOD8157475
_publ_section_title
;
Structure prediction by ZEFSAII (Michael W. Deem and Ramdas Pophale) SiO2 
 PCOD8157475
Probable space group: P 21 21 21
;
_chemical_formula_sum "Si O2"
_cell_formula_units_Z 28
_cell_length_a 7.738916
_cell_length_b 7.832125
_cell_length_c 21.050827
_cell_angle_alpha 90.000000
_cell_angle_beta 90.000000
_cell_angle_gamma 90.000000
_cell_volume 1275.936041
_symmetry_space_group_name_H-M "P 21 21 21"
_symmetry_group_IT_number 19
_symmetry_cell_setting 'orthorhombic'
loop_
_space_group_symop_operation_xyz
x,y,z
1/2-x,-y,1/2+z
1/2+x,1/2-y,-z
-x,1/2+y,1/2-z
loop_
_atom_site_type_symbol
_atom_site_label
_atom_site_fract_x
_atom_site_fract_y
_atom_site_fract_z
Si Si1 0.932016 0.908253 0.922994
Si Si2 0.428713 0.450159 0.414436
Si Si3 0.337210 0.652120 0.297882
Si Si4 0.039157 0.422878 0.438632
Si Si5 0.472200 0.772327 0.643325
Si Si6 0.540900 0.948484 0.946231
Si Si7 0.636622 0.876250 0.304294
O O1 0.736615 0.880690 0.945325
O O2 0.016120 0.739180 0.892369
O O3 0.937789 0.058710 0.871957
O O4 0.032813 0.950394 0.989129
O O5 0.457505 0.575479 0.355049
O O6 0.231051 0.487395 0.429715
O O7 0.524746 0.490870 0.481636
O O8 0.150012 0.724663 0.317043
O O9 0.470149 0.792191 0.270355
O O10 0.294941 0.523737 0.241313
O O11 0.930049 0.548370 0.392520
O O12 0.049805 0.222521 0.418968
O O13 0.495084 0.613506 0.595518
O O14 0.304627 0.744076 0.687332
#
# Coordination Sequence:
#
# PCOD8157475 Si02
#       7
#     4   4   4   4   4   4   4
#     4   9  19  37  60  94 129 165 212 270 331 395
#     4   9  19  37  60  94 129 165 212 270 331 395
#     4  11  25  44  64  96 129 178 226 272 329 398
#     4   9  19  37  62  96 129 164 214 271 337 391
#     4  10  24  44  66  98 128 174 226 278 326 400
#     4   9  19  37  62  96 129 164 214 271 337 391
#     4  11  25  44  64  96 129 178 226 272 329 398
#
# _framework density 21.944675
#
# number of rings (size 3 to 8) (size 9 to 14) (size 15 to 20)
#    0.000    2.286    0.000    0.857    6.000    1.143 
#   10.286    0.000    0.000    0.000    0.000    0.000 
#    0.000    0.000    0.000    0.000    0.000    0.000 
#
# Total GULP energy -346881.748066 kJ/mol
# GULP energy per Si atom -12388.633860 kJ/mol
# Density = 2.189473 g / cm^3
# Si number density = 21.944675 Si / 1000 Ang^3
#
#
#
# Elastic Constant Matrix: (Units=GPa)
#
#
# Indices 1 2 3 4 5 6 
#
# 1 69.7203 -1.1266 11.2896 0.0000 0.0000 0.0000
# 2 -1.1266 40.8335 -0.9644 0.0000 0.0000 0.0000
# 3 11.2896 -0.9644 45.7506 0.0000 0.0000 0.0000
# 4 0.0000 0.0000 0.0000 33.4540 0.0000 0.0000
# 5 0.0000 0.0000 0.0000 0.0000 16.3595 0.0000
# 6 0.0000 0.0000 0.0000 0.0000 0.0000 42.4674
#
#
#
# Elastic Compliance Matrix: (Units=1/GPa)
#
#
# Indices 1 2 3 4 5 6 
#
# 1 0.014944 0.000325 -0.003681 0.000000 0.000000 0.000000
# 2 0.000325 0.024509 0.000436 0.000000 0.000000 0.000000
# 3 -0.003681 0.000436 0.022775 0.000000 0.000000 0.000000
# 4 0.000000 0.000000 0.000000 0.029892 0.000000 0.000000
# 5 0.000000 0.000000 0.000000 0.000000 0.061127 0.000000
# 6 0.000000 0.000000 0.000000 0.000000 0.000000 0.023547
#
#
# Mechanical properties :
#
#
# Convention : Reuss Voigt Hill
#
# Bulk Modulus (GPa) = 17.73360 19.41129 18.57244
# Shear Modulus (GPa) = 24.82261 28.26324 26.54293
#
# Velocity S-wave (km/s) = 3.36690 3.59267 3.48161
# Velocity P-wave (km/s) = 4.81802 5.10632 4.96426
#
# Compressibility (1/GPa) = 0.05639014
#
# Stress axis : x y z
#
# Youngs Moduli (GPa) = 66.91507 40.80141 43.90758
#
# Poissons Ratio (x) = -0.01328 0.16162
# Poissons Ratio (y) = -0.02177 -0.01916
# Poissons Ratio (z) = 0.24630 -0.01780
#
# Static dielectric constant tensor:
#      x y z
#    x 3.800180 0.000000 0.000000 
#    y 0.000000 3.914730 0.000000 
#    z 0.000000 0.000000 4.100790 
# 
# 
# High freq. dielectric constant tensor:
#      x y z
#    x 1.857230 0.000000 0.000000 
#    y 0.000000 1.859900 0.000000 
#    z 0.000000 0.000000 1.858310 
# 
# From -- ./inp_files/7002.got.cif
#   From: 2010.03.12/outbox.cif.g09.slc.cpg/sg19_4_cif.got.tgz:7002.got - 2010.04.10 18:59:41.
