data_PCOD8157742
_publ_section_title
;
Structure prediction by ZEFSAII (Michael W. Deem and Ramdas Pophale) SiO2 
 PCOD8157742
Probable space group: P 21 21 21
;
_chemical_formula_sum "Si O2"
_cell_formula_units_Z 32
_cell_length_a 14.935990
_cell_length_b 9.001871
_cell_length_c 11.151452
_cell_angle_alpha 90.000000
_cell_angle_beta 90.000000
_cell_angle_gamma 90.000000
_cell_volume 1499.333410
_symmetry_space_group_name_H-M "P 21 21 21"
_symmetry_group_IT_number 19
_symmetry_cell_setting 'orthorhombic'
loop_
_space_group_symop_operation_xyz
x,y,z
1/2-x,-y,1/2+z
1/2+x,1/2-y,-z
-x,1/2+y,1/2-z
loop_
_atom_site_type_symbol
_atom_site_label
_atom_site_fract_x
_atom_site_fract_y
_atom_site_fract_z
Si Si1 0.243248 0.337661 0.101227
Si Si2 0.913520 0.172294 0.240230
Si Si3 0.740392 0.645595 0.619559
Si Si4 0.406822 0.288745 0.263842
Si Si5 0.907636 0.557534 0.769113
Si Si6 0.085181 0.338508 0.286870
Si Si7 0.335982 0.859086 0.981008
Si Si8 0.322377 0.355200 0.515470
O O1 0.342091 0.338330 0.156636
O O2 0.173220 0.316393 0.207828
O O3 0.229129 0.489086 0.028268
O O4 0.231720 0.198001 0.013116
O O5 0.827076 0.235896 0.175058
O O6 0.897274 0.161553 0.382614
O O7 0.999797 0.273898 0.216165
O O8 0.932873 0.010619 0.185360
O O9 0.827806 0.639868 0.701010
O O10 0.693622 0.485409 0.612925
O O11 0.502389 0.357969 0.233054
O O12 0.370627 0.354270 0.388038
O O13 0.414855 0.111824 0.272456
O O14 0.891270 0.567401 0.911261
O O15 0.099312 0.255188 0.412589
O O16 0.247797 0.778008 0.030104
#
# Coordination Sequence:
#
# PCOD8157742 Si02
#       8
#     4   4   4   4   4   4   4   4
#     4  11  26  45  71 100 139 186 231 287 351 421
#     4  11  25  44  70 106 136 182 234 288 356 416
#     4  12  25  45  71  99 141 184 233 289 348 422
#     4  12  27  49  70 106 146 184 240 293 358 426
#     4  12  28  46  72 105 142 191 236 296 358 428
#     4  11  24  45  71 102 139 179 231 292 347 422
#     4  12  23  46  73  97 137 185 235 288 354 414
#     4  11  24  44  74  97 136 185 232 287 352 419
#
# _framework density 21.342818000000001
#
# number of rings (size 3 to 8) (size 9 to 14) (size 15 to 20)
#    0.000    0.500    5.000    2.250    5.250    3.000 
#    4.500    0.000    0.000    0.000    0.000    0.000 
#    0.000    0.000    0.000    0.000    0.000    0.000 
#
# Total GULP energy -397096.389956 kJ/mol
# GULP energy per Si atom -12409.262186 kJ/mol
# Density = 2.129424 g / cm^3
# Si number density = 21.342818 Si / 1000 Ang^3
#
#
#
# Elastic Constant Matrix: (Units=GPa)
#
#
# Indices 1 2 3 4 5 6 
#
# 1 140.5861 53.5716 26.4570 0.0000 0.0000 0.0000
# 2 53.5716 137.6900 29.8130 0.0000 0.0000 0.0000
# 3 26.4570 29.8130 83.3870 0.0000 0.0000 0.0000
# 4 0.0000 0.0000 0.0000 39.3788 0.0000 0.0000
# 5 0.0000 0.0000 0.0000 0.0000 16.2925 0.0000
# 6 0.0000 0.0000 0.0000 0.0000 0.0000 42.3559
#
#
#
# Elastic Compliance Matrix: (Units=1/GPa)
#
#
# Indices 1 2 3 4 5 6 
#
# 1 0.008556 -0.002971 -0.001652 0.000000 0.000000 0.000000
# 2 -0.002971 0.008904 -0.002241 0.000000 0.000000 0.000000
# 3 -0.001652 -0.002241 0.013318 0.000000 0.000000 0.000000
# 4 0.000000 0.000000 0.000000 0.025394 0.000000 0.000000
# 5 0.000000 0.000000 0.000000 0.000000 0.061378 0.000000
# 6 0.000000 0.000000 0.000000 0.000000 0.000000 0.023609
#
#
# Mechanical properties :
#
#
# Convention : Reuss Voigt Hill
#
# Bulk Modulus (GPa) = 58.65393 64.59402 61.62397
# Shear Modulus (GPa) = 31.13882 36.39353 33.76618
#
# Velocity S-wave (km/s) = 3.82381 4.13387 3.98186
# Velocity P-wave (km/s) = 6.85834 7.28807 7.07647
#
# Compressibility (1/GPa) = 0.01704916
#
# Stress axis : x y z
#
# Youngs Moduli (GPa) = 116.87338 112.31063 75.08830
#
# Poissons Ratio (x) = 0.33370 0.12408
# Poissons Ratio (y) = 0.34726 0.16825
# Poissons Ratio (z) = 0.19313 0.25165
#
# Static dielectric constant tensor:
#      x y z
#    x 3.926930 0.000000 0.000000 
#    y 0.000000 3.992180 0.000000 
#    z 0.000000 0.000000 3.825380 
# 
# 
# High freq. dielectric constant tensor:
#      x y z
#    x 1.845530 0.000000 0.000000 
#    y 0.000000 1.851420 0.000000 
#    z 0.000000 0.000000 1.840390 
# 
# From -- ./inp_files/3979.got.cif
#   From: 2010.03.12/outbox.cif.g09.slc.cpg/sg19_2_cif.got.tgz:3979.got - 2010.04.10 18:59:41.
