data_PCOD8157055
_publ_section_title
;
Structure prediction by ZEFSAII (Michael W. Deem and Ramdas Pophale) SiO2 
 PCOD8157055
Probable space group: P 21 21 21
;
_chemical_formula_sum "Si O2"
_cell_formula_units_Z 32
_cell_length_a 13.583362
_cell_length_b 13.153756
_cell_length_c 9.186064
_cell_angle_alpha 90.000000
_cell_angle_beta 90.000000
_cell_angle_gamma 90.000000
_cell_volume 1641.294534
_symmetry_space_group_name_H-M "P 21 21 21"
_symmetry_group_IT_number 19
_symmetry_cell_setting 'orthorhombic'
loop_
_space_group_symop_operation_xyz
x,y,z
1/2-x,-y,1/2+z
1/2+x,1/2-y,-z
-x,1/2+y,1/2-z
loop_
_atom_site_type_symbol
_atom_site_label
_atom_site_fract_x
_atom_site_fract_y
_atom_site_fract_z
Si Si1 0.837924 0.525136 0.956814
Si Si2 0.017647 0.482767 0.135397
Si Si3 0.254122 0.787100 0.917078
Si Si4 0.288491 0.408116 0.593643
Si Si5 0.515085 0.406528 0.925930
Si Si6 0.789109 0.094959 0.069476
Si Si7 0.347987 0.016525 0.376667
Si Si8 0.143790 0.287736 0.130936
O O1 0.834072 0.524803 0.784421
O O2 0.840076 0.642669 0.012259
O O3 0.740210 0.470360 0.022096
O O4 0.934429 0.466918 0.013548
O O5 0.098335 0.560055 0.071901
O O6 0.066795 0.375403 0.172664
O O7 0.968560 0.528479 0.279946
O O8 0.160291 0.859936 0.878873
O O9 0.292123 0.733542 0.772759
O O10 0.221481 0.705429 0.035580
O O11 0.257788 0.413389 0.762419
O O12 0.219092 0.484248 0.503787
O O13 0.402636 0.371168 0.945977
O O14 0.584127 0.308482 0.925052
O O15 0.548020 0.478527 0.059965
O O16 0.718414 0.177160 0.995069
#
# Coordination Sequence:
#
# PCOD8157055 Si02
#       8
#     4   4   4   4   4   4   4   4
#     4  10  21  41  59  92 126 169 205 274 319 380
#     4  10  22  41  63  89 130 169 214 264 321 396
#     4  10  22  40  61  91 126 166 210 262 325 383
#     4  10  21  43  64  92 124 174 210 264 326 382
#     4  11  22  41  62  97 122 171 215 263 329 385
#     4  10  24  41  68  91 132 166 219 268 322 390
#     4  10  23  38  62  89 132 160 207 276 318 380
#     4  11  23  41  65  93 130 173 216 269 324 394
#
# _framework density 19.496805999999999
#
# number of rings (size 3 to 8) (size 9 to 14) (size 15 to 20)
#    0.750    1.000    1.250    3.750    1.750    7.000 
#    2.250    0.000    0.000    0.000    0.000    0.000 
#    0.000    0.000    0.000    0.000    0.000    0.000 
#
# Total GULP energy -396792.047516 kJ/mol
# GULP energy per Si atom -12399.751485 kJ/mol
# Density = 1.945243 g / cm^3
# Si number density = 19.496806 Si / 1000 Ang^3
#
#
#
# Elastic Constant Matrix: (Units=GPa)
#
#
# Indices 1 2 3 4 5 6 
#
# 1 72.4716 32.3996 32.4153 0.0000 0.0000 0.0000
# 2 32.3996 110.3382 34.0575 0.0000 0.0000 0.0000
# 3 32.4153 34.0575 111.9559 0.0000 0.0000 0.0000
# 4 0.0000 0.0000 0.0000 36.7768 0.0000 0.0000
# 5 0.0000 0.0000 0.0000 0.0000 28.3830 0.0000
# 6 0.0000 0.0000 0.0000 0.0000 0.0000 32.4514
#
#
#
# Elastic Compliance Matrix: (Units=1/GPa)
#
#
# Indices 1 2 3 4 5 6 
#
# 1 0.017240 -0.003887 -0.003809 0.000000 0.000000 0.000000
# 2 -0.003887 0.010878 -0.002184 0.000000 0.000000 0.000000
# 3 -0.003809 -0.002184 0.010699 0.000000 0.000000 0.000000
# 4 0.000000 0.000000 0.000000 0.027191 0.000000 0.000000
# 5 0.000000 0.000000 0.000000 0.000000 0.035232 0.000000
# 6 0.000000 0.000000 0.000000 0.000000 0.000000 0.030815
#
#
# Mechanical properties :
#
#
# Convention : Reuss Voigt Hill
#
# Bulk Modulus (GPa) = 52.47102 54.72338 53.59720
# Shear Modulus (GPa) = 31.61184 32.58179 32.09681
#
# Velocity S-wave (km/s) = 4.03101 4.09239 4.06181
# Velocity P-wave (km/s) = 6.97398 7.10345 7.03901
#
# Compressibility (1/GPa) = 0.01905814
#
# Stress axis : x y z
#
# Youngs Moduli (GPa) = 58.00512 91.92535 93.46334
#
# Poissons Ratio (x) = 0.35727 0.35603
# Poissons Ratio (y) = 0.22544 0.20412
# Poissons Ratio (z) = 0.22096 0.20076
#
# Static dielectric constant tensor:
#      x y z
#    x 3.480730 0.000000 0.000000 
#    y 0.000000 3.534320 0.000000 
#    z 0.000000 0.000000 3.503750 
# 
# 
# High freq. dielectric constant tensor:
#      x y z
#    x 1.754070 0.000000 0.000000 
#    y 0.000000 1.758100 0.000000 
#    z 0.000000 0.000000 1.766740 
# 
# From -- ./inp_files/3643.got.cif
#   From: 2010.03.12/outbox.cif.g09.slc.cpg/sg19_2_cif.got.tgz:3643.got - 2010.04.10 18:59:41.
