data_PCOD8157857
_publ_section_title
;
Structure prediction by ZEFSAII (Michael W. Deem and Ramdas Pophale) SiO2 
 PCOD8157857
Probable space group: P 21 21 21
;
_chemical_formula_sum "Si O2"
_cell_formula_units_Z 24
_cell_length_a 10.958413
_cell_length_b 9.934546
_cell_length_c 9.381728
_cell_angle_alpha 90.000000
_cell_angle_beta 90.000000
_cell_angle_gamma 90.000000
_cell_volume 1021.359250
_symmetry_space_group_name_H-M "P 21 21 21"
_symmetry_group_IT_number 19
_symmetry_cell_setting 'orthorhombic'
loop_
_space_group_symop_operation_xyz
x,y,z
1/2-x,-y,1/2+z
1/2+x,1/2-y,-z
-x,1/2+y,1/2-z
loop_
_atom_site_type_symbol
_atom_site_label
_atom_site_fract_x
_atom_site_fract_y
_atom_site_fract_z
Si Si1 0.471671 0.963106 0.843532
Si Si2 0.550035 0.234831 0.441850
Si Si3 0.255554 0.405639 0.718902
Si Si4 0.695561 0.680964 0.548589
Si Si5 0.104421 0.654930 0.688453
Si Si6 0.075336 0.023877 0.023205
O O1 0.617608 0.955275 0.847449
O O2 0.419402 0.933849 0.687462
O O3 0.429048 0.110930 0.896331
O O4 0.416527 0.851894 0.948856
O O5 0.678944 0.165295 0.406699
O O6 0.495250 0.289987 0.295737
O O7 0.448930 0.136116 0.511419
O O8 0.270543 0.308012 0.853260
O O9 0.184422 0.541049 0.768055
O O10 0.684660 0.726361 0.382854
O O11 0.800445 0.567170 0.555218
O O12 0.038129 0.595970 0.549687
#
# Coordination Sequence:
#
# PCOD8157857 Si02
#       6
#     4   4   4   4   4   4
#     4  12  29  47  81 111 157 205 259 328 388 476
#     4  11  28  50  79 115 154 206 263 326 397 463
#     4  11  27  51  76 116 156 202 266 327 392 469
#     4  12  28  48  80 113 158 203 262 325 393 471
#     4  11  27  47  82 110 154 205 258 328 397 461
#     4  11  27  49  72 115 151 203 262 318 397 466
#
# _framework density 23.498097999999999
#
# number of rings (size 3 to 8) (size 9 to 14) (size 15 to 20)
#    0.000    0.667    3.333    1.000   16.333    0.000 
#    0.000    0.000    0.000    0.000    0.000    0.000 
#    0.000    0.000    0.000    0.000    0.000    0.000 
#
# Total GULP energy -297704.091273 kJ/mol
# GULP energy per Si atom -12404.337136 kJ/mol
# Density = 2.344462 g / cm^3
# Si number density = 23.498098 Si / 1000 Ang^3
#
#
#
# Elastic Constant Matrix: (Units=GPa)
#
#
# Indices 1 2 3 4 5 6 
#
# 1 128.2765 58.6181 38.5418 0.0000 0.0000 0.0000
# 2 58.6181 116.1157 57.3389 0.0000 0.0000 0.0000
# 3 38.5418 57.3389 130.0716 0.0000 0.0000 0.0000
# 4 0.0000 0.0000 0.0000 43.4741 0.0000 0.0000
# 5 0.0000 0.0000 0.0000 0.0000 24.7805 0.0000
# 6 0.0000 0.0000 0.0000 0.0000 0.0000 47.5518
#
#
#
# Elastic Compliance Matrix: (Units=1/GPa)
#
#
# Indices 1 2 3 4 5 6 
#
# 1 0.010227 -0.004687 -0.000964 0.000000 0.000000 0.000000
# 2 -0.004687 0.013156 -0.004411 0.000000 0.000000 0.000000
# 3 -0.000964 -0.004411 0.009918 0.000000 0.000000 0.000000
# 4 0.000000 0.000000 0.000000 0.023002 0.000000 0.000000
# 5 0.000000 0.000000 0.000000 0.000000 0.040354 0.000000
# 6 0.000000 0.000000 0.000000 0.000000 0.000000 0.021030
#
#
# Mechanical properties :
#
#
# Convention : Reuss Voigt Hill
#
# Bulk Modulus (GPa) = 75.88606 75.94015 75.91311
# Shear Modulus (GPa) = 35.16075 37.82562 36.49318
#
# Velocity S-wave (km/s) = 3.87243 4.01650 3.94512
# Velocity P-wave (km/s) = 7.23595 7.34149 7.28891
#
# Compressibility (1/GPa) = 0.01317765
#
# Stress axis : x y z
#
# Youngs Moduli (GPa) = 97.77970 76.01005 100.82412
#
# Poissons Ratio (x) = 0.35623 0.09724
# Poissons Ratio (y) = 0.45826 0.44472
# Poissons Ratio (z) = 0.09430 0.33527
#
# Static dielectric constant tensor:
#      x y z
#    x 4.219150 0.000000 0.000000 
#    y 0.000000 4.512980 0.000000 
#    z 0.000000 0.000000 4.038240 
# 
# 
# High freq. dielectric constant tensor:
#      x y z
#    x 1.935360 0.000000 0.000000 
#    y 0.000000 1.940370 0.000000 
#    z 0.000000 0.000000 1.930000 
# 
# From -- ./inp_files/3319.got.cif
#   From: 2010.03.12/outbox.cif.g09.slc.cpg/sg19_2_cif.got.tgz:3319.got - 2010.04.10 18:59:41.
