data_PCOD8157405
_publ_section_title
;
Structure prediction by ZEFSAII (Michael W. Deem and Ramdas Pophale) SiO2 
 PCOD8157405
Probable space group: P 21 21 21
;
_chemical_formula_sum "Si O2"
_cell_formula_units_Z 24
_cell_length_a 8.855272
_cell_length_b 17.916733
_cell_length_c 6.766095
_cell_angle_alpha 90.000000
_cell_angle_beta 90.000000
_cell_angle_gamma 90.000000
_cell_volume 1073.492016
_symmetry_space_group_name_H-M "P 21 21 21"
_symmetry_group_IT_number 19
_symmetry_cell_setting 'orthorhombic'
loop_
_space_group_symop_operation_xyz
x,y,z
1/2-x,-y,1/2+z
1/2+x,1/2-y,-z
-x,1/2+y,1/2-z
loop_
_atom_site_type_symbol
_atom_site_label
_atom_site_fract_x
_atom_site_fract_y
_atom_site_fract_z
Si Si1 0.062705 0.399389 0.376930
Si Si2 0.389929 0.348802 0.344733
Si Si3 0.763072 0.272909 0.932319
Si Si4 0.432383 0.977021 0.339543
Si Si5 0.540537 0.754980 0.790315
Si Si6 0.878507 0.428515 0.012463
O O1 0.242515 0.397518 0.394850
O O2 0.987080 0.318689 0.429372
O O3 0.006434 0.472712 0.490503
O O4 0.017220 0.406682 0.149437
O O5 0.354076 0.274376 0.226750
O O6 0.497793 0.395020 0.195835
O O7 0.460166 0.325040 0.558085
O O8 0.586627 0.263862 0.880173
O O9 0.808913 0.358378 0.896995
O O10 0.802667 0.250589 0.162295
O O11 0.253870 0.970877 0.371467
O O12 0.462168 0.017808 0.136243
#
# Coordination Sequence:
#
# PCOD8157405 Si02
#       6
#     4   4   4   4   4   4
#     4  10  25  46  64 101 137 177 222 278 340 396
#     4  11  26  42  71 100 137 180 227 282 337 404
#     4  10  23  44  68  99 135 176 229 283 336 401
#     4  12  25  42  68  97 136 181 226 277 338 405
#     4  10  23  44  72 100 136 177 229 277 342 401
#     4  11  24  42  69  95 133 177 227 281 337 403
#
# _framework density 22.356942
#
# number of rings (size 3 to 8) (size 9 to 14) (size 15 to 20)
#    0.000    1.333    1.667    2.000    4.667   13.333 
#    0.000    0.000    0.000    0.000    0.000    0.000 
#    0.000    0.000    0.000    0.000    0.000    0.000 
#
# Total GULP energy -297474.934786 kJ/mol
# GULP energy per Si atom -12394.788949 kJ/mol
# Density = 2.230606 g / cm^3
# Si number density = 22.356942 Si / 1000 Ang^3
#
#
#
# Elastic Constant Matrix: (Units=GPa)
#
#
# Indices 1 2 3 4 5 6 
#
# 1 44.4762 13.9833 24.4386 0.0000 0.0000 0.0000
# 2 13.9833 87.1257 31.0210 0.0000 0.0000 0.0000
# 3 24.4386 31.0210 68.1865 0.0000 0.0000 0.0000
# 4 0.0000 0.0000 0.0000 58.8403 0.0000 0.0000
# 5 0.0000 0.0000 0.0000 0.0000 27.5664 0.0000
# 6 0.0000 0.0000 0.0000 0.0000 0.0000 33.5011
#
#
#
# Elastic Compliance Matrix: (Units=1/GPa)
#
#
# Indices 1 2 3 4 5 6 
#
# 1 0.028086 -0.001102 -0.009565 0.000000 0.000000 0.000000
# 2 -0.001102 0.013739 -0.005856 0.000000 0.000000 0.000000
# 3 -0.009565 -0.005856 0.020758 0.000000 0.000000 0.000000
# 4 0.000000 0.000000 0.000000 0.016995 0.000000 0.000000
# 5 0.000000 0.000000 0.000000 0.000000 0.036276 0.000000
# 6 0.000000 0.000000 0.000000 0.000000 0.000000 0.029850
#
#
# Mechanical properties :
#
#
# Convention : Reuss Voigt Hill
#
# Bulk Modulus (GPa) = 33.85470 37.63048 35.74259
# Shear Modulus (GPa) = 26.51173 32.67127 29.59150
#
# Velocity S-wave (km/s) = 3.44734 3.82690 3.64207
# Velocity P-wave (km/s) = 5.56967 6.03284 5.80587
#
# Compressibility (1/GPa) = 0.02953799
#
# Stress axis : x y z
#
# Youngs Moduli (GPa) = 35.60471 72.78307 48.17465
#
# Poissons Ratio (x) = 0.08022 0.46079
# Poissons Ratio (y) = 0.03924 0.28209
# Poissons Ratio (z) = 0.34056 0.42619
#
# Static dielectric constant tensor:
#      x y z
#    x 4.007490 0.000000 0.000000 
#    y 0.000000 4.353180 0.000000 
#    z 0.000000 0.000000 3.888500 
# 
# 
# High freq. dielectric constant tensor:
#      x y z
#    x 1.875680 0.000000 0.000000 
#    y 0.000000 1.892550 0.000000 
#    z 0.000000 0.000000 1.876960 
# 
# From -- ./inp_files/430.got.cif
#   From: 2010.03.12/outbox.cif.g09.slc.cpg/sg19_1_cif.got.tgz:430.got - 2010.04.10 18:59:41.
