data_PCOD8157234
_publ_section_title
;
Structure prediction by ZEFSAII (Michael W. Deem and Ramdas Pophale) SiO2 
 PCOD8157234
Probable space group: P 21 21 21
;
_chemical_formula_sum "Si O2"
_cell_formula_units_Z 24
_cell_length_a 13.826781
_cell_length_b 8.909727
_cell_length_c 9.187532
_cell_angle_alpha 90.000000
_cell_angle_beta 90.000000
_cell_angle_gamma 90.000000
_cell_volume 1131.838196
_symmetry_space_group_name_H-M "P 21 21 21"
_symmetry_group_IT_number 19
_symmetry_cell_setting 'orthorhombic'
loop_
_space_group_symop_operation_xyz
x,y,z
1/2-x,-y,1/2+z
1/2+x,1/2-y,-z
-x,1/2+y,1/2-z
loop_
_atom_site_type_symbol
_atom_site_label
_atom_site_fract_x
_atom_site_fract_y
_atom_site_fract_z
Si Si1 0.502122 0.714385 0.381521
Si Si2 0.309238 0.144456 0.453566
Si Si3 0.821571 0.850859 0.434465
Si Si4 0.796284 0.427472 0.861875
Si Si5 0.201406 0.437426 0.384085
Si Si6 0.983668 0.931279 0.925097
O O1 0.428952 0.651555 0.501970
O O2 0.604548 0.640932 0.423468
O O3 0.467286 0.664394 0.221606
O O4 0.511216 0.893542 0.384882
O O5 0.304825 0.041097 0.309262
O O6 0.285056 0.314679 0.412255
O O7 0.419812 0.128250 0.508218
O O8 0.229646 0.086786 0.567203
O O9 0.793354 0.681986 0.394056
O O10 0.818104 0.953733 0.288698
O O11 0.744981 0.908789 0.554092
O O12 0.102743 0.395045 0.464901
#
# Coordination Sequence:
#
# PCOD8157234 Si02
#       6
#     4   4   4   4   4   4
#     4  11  24  42  68  93 131 172 214 269 326 390
#     4  10  24  40  65  92 127 167 216 266 321 387
#     4  11  23  43  65  94 129 170 216 268 319 383
#     4  10  22  42  62  93 125 165 215 261 327 377
#     4  11  25  43  66  96 130 169 222 266 323 389
#     4  11  24  44  66  96 130 173 215 270 330 386
#
# _framework density 21.204443999999999
#
# number of rings (size 3 to 8) (size 9 to 14) (size 15 to 20)
#    0.000    1.333    3.333    1.000    9.333    2.667 
#    3.000    0.000    0.000    0.000    0.000    0.000 
#    0.000    0.000    0.000    0.000    0.000    0.000 
#
# Total GULP energy -297671.960899 kJ/mol
# GULP energy per Si atom -12402.998371 kJ/mol
# Density = 2.115618 g / cm^3
# Si number density = 21.204444 Si / 1000 Ang^3
#
#
#
# Elastic Constant Matrix: (Units=GPa)
#
#
# Indices 1 2 3 4 5 6 
#
# 1 117.3599 -0.3791 29.8414 0.0000 0.0000 0.0000
# 2 -0.3791 31.9888 5.9567 0.0000 0.0000 0.0000
# 3 29.8414 5.9567 82.4196 0.0000 0.0000 0.0000
# 4 0.0000 0.0000 0.0000 31.9131 0.0000 0.0000
# 5 0.0000 0.0000 0.0000 0.0000 39.0614 0.0000
# 6 0.0000 0.0000 0.0000 0.0000 0.0000 27.1865
#
#
#
# Elastic Compliance Matrix: (Units=1/GPa)
#
#
# Indices 1 2 3 4 5 6 
#
# 1 0.009403 0.000756 -0.003459 0.000000 0.000000 0.000000
# 2 0.000756 0.031748 -0.002568 0.000000 0.000000 0.000000
# 3 -0.003459 -0.002568 0.013571 0.000000 0.000000 0.000000
# 4 0.000000 0.000000 0.000000 0.031335 0.000000 0.000000
# 5 0.000000 0.000000 0.000000 0.000000 0.025601 0.000000
# 6 0.000000 0.000000 0.000000 0.000000 0.000000 0.036783
#
#
# Mechanical properties :
#
#
# Convention : Reuss Voigt Hill
#
# Bulk Modulus (GPa) = 22.63532 33.62294 28.12913
# Shear Modulus (GPa) = 28.78358 32.72214 30.75286
#
# Velocity S-wave (km/s) = 3.68833 3.93259 3.81242
# Velocity P-wave (km/s) = 5.36995 6.04246 5.71610
#
# Compressibility (1/GPa) = 0.04417873
#
# Stress axis : x y z
#
# Youngs Moduli (GPa) = 106.35153 31.49794 73.68628
#
# Poissons Ratio (x) = -0.02380 0.25488
# Poissons Ratio (y) = -0.08035 0.18923
# Poissons Ratio (z) = 0.36787 0.08089
#
# Static dielectric constant tensor:
#      x y z
#    x 3.979620 0.000000 0.000000 
#    y 0.000000 3.650430 0.000000 
#    z 0.000000 0.000000 3.850190 
# 
# 
# High freq. dielectric constant tensor:
#      x y z
#    x 1.845040 0.000000 0.000000 
#    y 0.000000 1.825200 0.000000 
#    z 0.000000 0.000000 1.824810 
# 
# From -- ./inp_files/2676.got.cif
#   From: 2010.03.12/outbox.cif.g09.slc.cpg/sg19_2_cif.got.tgz:2676.got - 2010.04.10 18:59:41.
