data_PCOD8157070
_publ_section_title
;
Structure prediction by ZEFSAII (Michael W. Deem and Ramdas Pophale) SiO2 
 PCOD8157070
Probable space group: P 21 21 21
;
_chemical_formula_sum "Si O2"
_cell_formula_units_Z 20
_cell_length_a 9.409461
_cell_length_b 6.629854
_cell_length_c 11.776666
_cell_angle_alpha 90.000000
_cell_angle_beta 90.000000
_cell_angle_gamma 90.000000
_cell_volume 734.667908
_symmetry_space_group_name_H-M "P 21 21 21"
_symmetry_group_IT_number 19
_symmetry_cell_setting 'orthorhombic'
loop_
_space_group_symop_operation_xyz
x,y,z
1/2-x,-y,1/2+z
1/2+x,1/2-y,-z
-x,1/2+y,1/2-z
loop_
_atom_site_type_symbol
_atom_site_label
_atom_site_fract_x
_atom_site_fract_y
_atom_site_fract_z
Si Si1 0.961419 0.020374 0.423068
Si Si2 0.336989 0.828908 0.753588
Si Si3 0.347966 0.534829 0.141409
Si Si4 0.524905 0.041135 0.590479
Si Si5 0.438025 0.980478 0.166082
O O1 0.813434 0.940412 0.363764
O O2 0.097624 0.995108 0.337854
O O3 0.927369 0.262074 0.437135
O O4 0.997506 0.933685 0.547940
O O5 0.352415 0.614998 0.821054
O O6 0.437311 0.849956 0.640336
O O7 0.172771 0.861517 0.721312
O O8 0.350007 0.776413 0.145321
O O9 0.434905 0.441255 0.245991
O O10 0.412175 0.453321 0.024541
#
# Coordination Sequence:
#
# PCOD8157070 Si02
#       5
#     4   4   4   4   4
#     4   9  23  40  64  92 139 164 222 270 339 384
#     4  10  21  41  67  96 129 177 228 274 340 395
#     4  11  24  44  67 100 135 176 221 279 343 401
#     4   9  22  39  70  88 136 172 220 283 332 395
#     4  11  24  42  70 100 133 183 225 274 342 401
#
# _framework density 27.223185999999998
#
# number of rings (size 3 to 8) (size 9 to 14) (size 15 to 20)
#    1.200    0.800    2.000    0.000   11.200    0.000 
#    3.600    0.000    0.000    0.000    0.000    0.000 
#    0.000    0.000    0.000    0.000    0.000    0.000 
#
# Total GULP energy -247874.467643 kJ/mol
# GULP energy per Si atom -12393.723382 kJ/mol
# Density = 2.716122 g / cm^3
# Si number density = 27.223186 Si / 1000 Ang^3
#
#
#
# Elastic Constant Matrix: (Units=GPa)
#
#
# Indices 1 2 3 4 5 6 
#
# 1 196.9090 47.1657 113.8783 0.0000 0.0000 0.0000
# 2 47.1657 56.2701 19.8906 0.0000 0.0000 0.0000
# 3 113.8783 19.8906 249.6513 0.0000 0.0000 0.0000
# 4 0.0000 0.0000 0.0000 27.1771 0.0000 0.0000
# 5 0.0000 0.0000 0.0000 0.0000 54.6360 0.0000
# 6 0.0000 0.0000 0.0000 0.0000 0.0000 56.7126
#
#
#
# Elastic Compliance Matrix: (Units=1/GPa)
#
#
# Indices 1 2 3 4 5 6 
#
# 1 0.008444 -0.005882 -0.003383 0.000000 0.000000 0.000000
# 2 -0.005882 0.022384 0.000900 0.000000 0.000000 0.000000
# 3 -0.003383 0.000900 0.005477 0.000000 0.000000 0.000000
# 4 0.000000 0.000000 0.000000 0.036796 0.000000 0.000000
# 5 0.000000 0.000000 0.000000 0.000000 0.018303 0.000000
# 6 0.000000 0.000000 0.000000 0.000000 0.000000 0.017633
#
#
# Mechanical properties :
#
#
# Convention : Reuss Voigt Hill
#
# Bulk Modulus (GPa) = 51.08809 96.07772 73.58290
# Shear Modulus (GPa) = 37.79542 49.16487 43.48015
#
# Velocity S-wave (km/s) = 3.73010 4.25431 4.00080
# Velocity P-wave (km/s) = 6.11218 7.71371 6.95917
#
# Compressibility (1/GPa) = 0.01957403
#
# Stress axis : x y z
#
# Youngs Moduli (GPa) = 118.42901 44.67562 182.57886
#
# Poissons Ratio (x) = 0.26277 0.61767
# Poissons Ratio (y) = 0.69658 -0.16425
# Poissons Ratio (z) = 0.40065 -0.04019
#
# Static dielectric constant tensor:
#      x y z
#    x 4.563810 0.000000 0.000000 
#    y 0.000000 4.931110 0.000000 
#    z 0.000000 0.000000 5.024500 
# 
# 
# High freq. dielectric constant tensor:
#      x y z
#    x 2.078040 0.000000 0.000000 
#    y 0.000000 2.117240 0.000000 
#    z 0.000000 0.000000 2.118040 
# 
# From -- ./inp_files/4538.got.cif
#   From: 2010.03.12/outbox.cif.g09.slc.cpg/sg19_3_cif.got.tgz:4538.got - 2010.04.10 18:59:41.
