data_PCOD8157116
_publ_section_title
;
Structure prediction by ZEFSAII (Michael W. Deem and Ramdas Pophale) SiO2 
 PCOD8157116
Probable space group: P 21 21 21
;
_chemical_formula_sum "Si O2"
_cell_formula_units_Z 28
_cell_length_a 9.421007
_cell_length_b 11.475504
_cell_length_c 13.046943
_cell_angle_alpha 90.000000
_cell_angle_beta 90.000000
_cell_angle_gamma 90.000000
_cell_volume 1410.515491
_symmetry_space_group_name_H-M "P 21 21 21"
_symmetry_group_IT_number 19
_symmetry_cell_setting 'orthorhombic'
loop_
_space_group_symop_operation_xyz
x,y,z
1/2-x,-y,1/2+z
1/2+x,1/2-y,-z
-x,1/2+y,1/2-z
loop_
_atom_site_type_symbol
_atom_site_label
_atom_site_fract_x
_atom_site_fract_y
_atom_site_fract_z
Si Si1 0.878517 0.494817 0.288585
Si Si2 0.282031 0.834532 0.358280
Si Si3 0.493980 0.031163 0.385791
Si Si4 0.144094 0.419582 0.404633
Si Si5 0.616450 0.078895 0.171206
Si Si6 0.804562 0.648100 0.106036
Si Si7 0.339848 0.045583 0.043989
O O1 0.793054 0.384817 0.243245
O O2 0.880290 0.602169 0.209214
O O3 0.805751 0.536496 0.393153
O O4 0.037985 0.455793 0.313581
O O5 0.300590 0.698308 0.345646
O O6 0.181261 0.856973 0.456340
O O7 0.431986 0.900724 0.373259
O O8 0.589535 0.036447 0.486302
O O9 0.597185 0.058776 0.291529
O O10 0.364474 0.123508 0.389307
O O11 0.295658 0.475377 0.380286
O O12 0.163085 0.281926 0.408300
O O13 0.464284 0.085026 0.117969
O O14 0.871159 0.579009 0.009355
#
# Coordination Sequence:
#
# PCOD8157116 Si02
#       7
#     4   4   4   4   4   4   4
#     4  10  21  46  66  94 132 181 209 267 343 380
#     4  10  24  43  69  91 139 177 215 269 335 398
#     4  10  24  46  64  98 131 182 210 269 351 380
#     4  12  27  41  72 105 129 164 239 275 313 405
#     4  12  27  40  72 104 128 174 228 277 320 405
#     4  10  24  43  71  91 137 180 212 271 337 396
#     4  10  21  45  68  91 134 182 211 262 351 378
#
# _framework density 19.850898000000001
#
# number of rings (size 3 to 8) (size 9 to 14) (size 15 to 20)
#    0.000    1.714    5.714    0.000   10.000    2.286 
#    2.571    0.000    0.000    0.000    0.000    0.000 
#    0.000    0.000    0.000    0.000    0.000    0.000 
#
# Total GULP energy -347280.996972 kJ/mol
# GULP energy per Si atom -12402.892749 kJ/mol
# Density = 1.980572 g / cm^3
# Si number density = 19.850898 Si / 1000 Ang^3
#
#
#
# Elastic Constant Matrix: (Units=GPa)
#
#
# Indices 1 2 3 4 5 6 
#
# 1 59.5481 5.1959 18.6307 0.0000 0.0000 0.0000
# 2 5.1959 92.6520 19.6092 0.0000 0.0000 0.0000
# 3 18.6307 19.6092 105.5155 0.0000 0.0000 0.0000
# 4 0.0000 0.0000 0.0000 15.5995 0.0000 0.0000
# 5 0.0000 0.0000 0.0000 0.0000 30.8000 0.0000
# 6 0.0000 0.0000 0.0000 0.0000 0.0000 23.9080
#
#
#
# Elastic Compliance Matrix: (Units=1/GPa)
#
#
# Indices 1 2 3 4 5 6 
#
# 1 0.017786 -0.000346 -0.003076 0.000000 0.000000 0.000000
# 2 -0.000346 0.011242 -0.002028 0.000000 0.000000 0.000000
# 3 -0.003076 -0.002028 0.010397 0.000000 0.000000 0.000000
# 4 0.000000 0.000000 0.000000 0.064105 0.000000 0.000000
# 5 0.000000 0.000000 0.000000 0.000000 0.032468 0.000000
# 6 0.000000 0.000000 0.000000 0.000000 0.000000 0.041827
#
#
# Mechanical properties :
#
#
# Convention : Reuss Voigt Hill
#
# Bulk Modulus (GPa) = 35.05833 38.28747 36.67290
# Shear Modulus (GPa) = 25.22287 28.34682 26.78484
#
# Velocity S-wave (km/s) = 3.56844 3.78297 3.67727
# Velocity P-wave (km/s) = 5.88876 6.19762 6.04517
#
# Compressibility (1/GPa) = 0.02852389
#
# Stress axis : x y z
#
# Youngs Moduli (GPa) = 56.22475 88.95436 96.17873
#
# Poissons Ratio (x) = 0.03081 0.29585
# Poissons Ratio (y) = 0.01948 0.19505
# Poissons Ratio (z) = 0.17295 0.18040
#
# Static dielectric constant tensor:
#      x y z
#    x 3.527340 0.000000 0.000000 
#    y 0.000000 3.451370 0.000000 
#    z 0.000000 0.000000 3.809890 
# 
# 
# High freq. dielectric constant tensor:
#      x y z
#    x 1.767870 0.000000 0.000000 
#    y 0.000000 1.765130 0.000000 
#    z 0.000000 0.000000 1.793390 
# 
# From -- ./inp_files/4606.got.cif
#   From: 2010.03.12/outbox.cif.g09.slc.cpg/sg19_3_cif.got.tgz:4606.got - 2010.04.10 18:59:41.
