data_PCOD8157902
_publ_section_title
;
Structure prediction by ZEFSAII (Michael W. Deem and Ramdas Pophale) SiO2 
 PCOD8157902
Probable space group: P 21 21 21
;
_chemical_formula_sum "Si O2"
_cell_formula_units_Z 24
_cell_length_a 8.216662
_cell_length_b 9.874585
_cell_length_c 12.555907
_cell_angle_alpha 90.000000
_cell_angle_beta 90.000000
_cell_angle_gamma 90.000000
_cell_volume 1018.737669
_symmetry_space_group_name_H-M "P 21 21 21"
_symmetry_group_IT_number 19
_symmetry_cell_setting 'orthorhombic'
loop_
_space_group_symop_operation_xyz
x,y,z
1/2-x,-y,1/2+z
1/2+x,1/2-y,-z
-x,1/2+y,1/2-z
loop_
_atom_site_type_symbol
_atom_site_label
_atom_site_fract_x
_atom_site_fract_y
_atom_site_fract_z
Si Si1 0.921941 0.381773 0.063563
Si Si2 0.803839 0.119558 0.149039
Si Si3 0.412862 0.628407 0.983464
Si Si4 0.721858 0.637549 0.114757
Si Si5 0.745911 0.017432 0.858243
Si Si6 0.068051 0.786738 0.662770
O O1 0.917626 0.250699 0.139973
O O2 0.809243 0.494767 0.115210
O O3 0.110552 0.424147 0.060906
O O4 0.853998 0.351674 0.944430
O O5 0.621091 0.177313 0.151984
O O6 0.860225 0.022504 0.053080
O O7 0.844233 0.026906 0.250498
O O8 0.355150 0.744278 0.902775
O O9 0.601601 0.648987 0.012858
O O10 0.321049 0.624104 0.097712
O O11 0.639402 0.648468 0.229986
O O12 0.890990 0.126381 0.835360
#
# Coordination Sequence:
#
# PCOD8157902 Si02
#       6
#     4   4   4   4   4   4
#     4  12  28  47  78 111 147 200 253 317 369 455
#     4  12  27  47  79 106 152 197 253 309 379 455
#     4  12  25  48  73 112 149 195 250 315 369 455
#     4  12  29  47  78 110 156 197 254 314 384 444
#     4  12  26  46  77 111 149 194 257 304 380 449
#     4  12  25  49  75 104 149 201 247 301 389 444
#
# _framework density 23.558565000000002
#
# number of rings (size 3 to 8) (size 9 to 14) (size 15 to 20)
#    0.000    0.000    6.667    2.000    4.667    2.667 
#    0.000    0.000    0.000    0.000    0.000    0.000 
#    0.000    0.000    0.000    0.000    0.000    0.000 
#
# Total GULP energy -297481.570557 kJ/mol
# GULP energy per Si atom -12395.065440 kJ/mol
# Density = 2.350494 g / cm^3
# Si number density = 23.558565 Si / 1000 Ang^3
#
#
#
# Elastic Constant Matrix: (Units=GPa)
#
#
# Indices 1 2 3 4 5 6 
#
# 1 64.0471 23.9767 15.2893 0.0000 0.0000 0.0000
# 2 23.9767 125.7966 41.8523 0.0000 0.0000 0.0000
# 3 15.2893 41.8523 82.7143 0.0000 0.0000 0.0000
# 4 0.0000 0.0000 0.0000 38.8502 0.0000 0.0000
# 5 0.0000 0.0000 0.0000 0.0000 35.5091 0.0000
# 6 0.0000 0.0000 0.0000 0.0000 0.0000 29.2068
#
#
#
# Elastic Compliance Matrix: (Units=1/GPa)
#
#
# Indices 1 2 3 4 5 6 
#
# 1 0.017036 -0.002645 -0.001811 0.000000 0.000000 0.000000
# 2 -0.002645 0.009969 -0.004555 0.000000 0.000000 0.000000
# 3 -0.001811 -0.004555 0.014729 0.000000 0.000000 0.000000
# 4 0.000000 0.000000 0.000000 0.025740 0.000000 0.000000
# 5 0.000000 0.000000 0.000000 0.000000 0.028162 0.000000
# 6 0.000000 0.000000 0.000000 0.000000 0.000000 0.034239
#
#
# Mechanical properties :
#
#
# Convention : Reuss Voigt Hill
#
# Bulk Modulus (GPa) = 42.17141 48.31053 45.24097
# Shear Modulus (GPa) = 32.09236 33.47585 32.78411
#
# Velocity S-wave (km/s) = 3.69485 3.77366 3.73446
# Velocity P-wave (km/s) = 6.01183 6.28796 6.15144
#
# Compressibility (1/GPa) = 0.02371275
#
# Stress axis : x y z
#
# Youngs Moduli (GPa) = 58.69989 100.31167 67.89111
#
# Poissons Ratio (x) = 0.26528 0.12294
# Poissons Ratio (y) = 0.15523 0.30927
# Poissons Ratio (z) = 0.10630 0.45695
#
# Static dielectric constant tensor:
#      x y z
#    x 4.146320 0.000000 0.000000 
#    y 0.000000 4.157950 0.000000 
#    z 0.000000 0.000000 4.433440 
# 
# 
# High freq. dielectric constant tensor:
#      x y z
#    x 1.928500 0.000000 0.000000 
#    y 0.000000 1.935050 0.000000 
#    z 0.000000 0.000000 1.948770 
# 
# From -- ./inp_files/2679.got.cif
#   From: 2010.03.12/outbox.cif.g09.slc.cpg/sg19_2_cif.got.tgz:2679.got - 2010.04.10 18:59:41.
