data_PCOD8157037
_publ_section_title
;
Structure prediction by ZEFSAII (Michael W. Deem and Ramdas Pophale) SiO2 
 PCOD8157037
Probable space group: P 21 21 21
;
_chemical_formula_sum "Si O2"
_cell_formula_units_Z 24
_cell_length_a 8.758282
_cell_length_b 9.079834
_cell_length_c 14.937050
_cell_angle_alpha 90.000000
_cell_angle_beta 90.000000
_cell_angle_gamma 90.000000
_cell_volume 1187.850180
_symmetry_space_group_name_H-M "P 21 21 21"
_symmetry_group_IT_number 19
_symmetry_cell_setting 'orthorhombic'
loop_
_space_group_symop_operation_xyz
x,y,z
1/2-x,-y,1/2+z
1/2+x,1/2-y,-z
-x,1/2+y,1/2-z
loop_
_atom_site_type_symbol
_atom_site_label
_atom_site_fract_x
_atom_site_fract_y
_atom_site_fract_z
Si Si1 0.688512 0.328907 0.575059
Si Si2 0.170027 0.644595 0.077431
Si Si3 0.173468 0.142946 0.924889
Si Si4 0.846534 0.832048 0.746013
Si Si5 0.849552 0.169573 0.727657
Si Si6 0.183851 0.661509 0.570734
O O1 0.509472 0.348465 0.565456
O O2 0.753057 0.271388 0.481302
O O3 0.766366 0.482615 0.599315
O O4 0.724085 0.214910 0.654829
O O5 0.212334 0.669696 0.180954
O O6 0.226664 0.485714 0.042963
O O7 0.211778 0.245948 0.840699
O O8 0.994606 0.134239 0.944744
O O9 0.260318 0.202571 0.011739
O O10 0.995524 0.759159 0.790044
O O11 0.888104 0.997615 0.717432
O O12 0.783791 0.204077 0.826269
#
# Coordination Sequence:
#
# PCOD8157037 Si02
#       6
#     4   4   4   4   4   4
#     4  12  24  39  62  88 120 160 204 252 305 359
#     4  11  24  41  61  87 120 160 205 253 301 361
#     4  11  23  39  64  92 122 161 200 249 305 362
#     4  10  22  40  63  89 123 159 199 249 305 363
#     4  10  21  40  62  89 123 159 198 248 304 361
#     4  10  22  41  62  89 122 157 200 247 300 360
#
# _framework density 20.204568999999999
#
# number of rings (size 3 to 8) (size 9 to 14) (size 15 to 20)
#    0.000    1.333    0.000    7.000    0.000    9.333 
#    0.000    0.000    0.000    0.000    0.000    0.000 
#    0.000    0.000    0.000    0.000    0.000    0.000 
#
# Total GULP energy -297773.554646 kJ/mol
# GULP energy per Si atom -12407.231444 kJ/mol
# Density = 2.015858 g / cm^3
# Si number density = 20.204569 Si / 1000 Ang^3
#
#
#
# Elastic Constant Matrix: (Units=GPa)
#
#
# Indices 1 2 3 4 5 6 
#
# 1 145.0231 52.0935 42.7259 0.0000 0.0000 0.0000
# 2 52.0935 131.3666 47.5017 0.0000 0.0000 0.0000
# 3 42.7259 47.5017 89.2350 0.0000 0.0000 0.0000
# 4 0.0000 0.0000 0.0000 37.9334 0.0000 0.0000
# 5 0.0000 0.0000 0.0000 0.0000 46.5580 0.0000
# 6 0.0000 0.0000 0.0000 0.0000 0.0000 38.5572
#
#
#
# Elastic Compliance Matrix: (Units=1/GPa)
#
#
# Indices 1 2 3 4 5 6 
#
# 1 0.008588 -0.002376 -0.002847 0.000000 0.000000 0.000000
# 2 -0.002376 0.010084 -0.004230 0.000000 0.000000 0.000000
# 3 -0.002847 -0.004230 0.014821 0.000000 0.000000 0.000000
# 4 0.000000 0.000000 0.000000 0.026362 0.000000 0.000000
# 5 0.000000 0.000000 0.000000 0.000000 0.021479 0.000000
# 6 0.000000 0.000000 0.000000 0.000000 0.000000 0.025935
#
#
# Mechanical properties :
#
#
# Convention : Reuss Voigt Hill
#
# Bulk Modulus (GPa) = 68.55643 72.25190 70.40416
# Shear Modulus (GPa) = 38.15677 39.49664 38.82670
#
# Velocity S-wave (km/s) = 4.35043 4.42615 4.38845
# Velocity P-wave (km/s) = 7.69674 7.87140 7.78456
#
# Compressibility (1/GPa) = 0.01458652
#
# Stress axis : x y z
#
# Youngs Moduli (GPa) = 116.44563 99.16524 67.46979
#
# Poissons Ratio (x) = 0.23562 0.19209
# Poissons Ratio (y) = 0.27667 0.28542
# Poissons Ratio (z) = 0.33152 0.41951
#
# Static dielectric constant tensor:
#      x y z
#    x 3.580210 0.000000 0.000000 
#    y 0.000000 3.781630 0.000000 
#    z 0.000000 0.000000 3.695710 
# 
# 
# High freq. dielectric constant tensor:
#      x y z
#    x 1.788100 0.000000 0.000000 
#    y 0.000000 1.802940 0.000000 
#    z 0.000000 0.000000 1.798870 
# 
# From -- ./inp_files/2743.got.cif
#   From: 2010.03.12/outbox.cif.g09.slc.cpg/sg19_2_cif.got.tgz:2743.got - 2010.04.10 18:59:41.
