data_PCOD8157597
_publ_section_title
;
Structure prediction by ZEFSAII (Michael W. Deem and Ramdas Pophale) SiO2 
 PCOD8157597
Probable space group: P 21 21 21
;
_chemical_formula_sum "Si O2"
_cell_formula_units_Z 28
_cell_length_a 5.238619
_cell_length_b 10.076361
_cell_length_c 21.013388
_cell_angle_alpha 90.000000
_cell_angle_beta 90.000000
_cell_angle_gamma 90.000000
_cell_volume 1109.217242
_symmetry_space_group_name_H-M "P 21 21 21"
_symmetry_group_IT_number 19
_symmetry_cell_setting 'orthorhombic'
loop_
_space_group_symop_operation_xyz
x,y,z
1/2-x,-y,1/2+z
1/2+x,1/2-y,-z
-x,1/2+y,1/2-z
loop_
_atom_site_type_symbol
_atom_site_label
_atom_site_fract_x
_atom_site_fract_y
_atom_site_fract_z
Si Si1 0.932342 0.833243 0.508186
Si Si2 0.982025 0.046918 0.404026
Si Si3 0.509866 0.683824 0.125657
Si Si4 0.310578 0.098818 0.680507
Si Si5 0.454010 0.137009 0.235191
Si Si6 0.331926 0.411453 0.868055
Si Si7 0.068233 0.324642 0.194052
O O1 0.668967 0.767653 0.482608
O O2 0.031798 0.947289 0.461462
O O3 0.874253 0.901401 0.575769
O O4 0.958932 0.970595 0.336338
O O5 0.717259 0.124283 0.417638
O O6 0.210115 0.157697 0.404172
O O7 0.432209 0.836518 0.143569
O O8 0.506260 0.605714 0.191546
O O9 0.401809 0.192919 0.739597
O O10 0.271869 0.956069 0.711244
O O11 0.522523 0.054802 0.627399
O O12 0.705809 0.089128 0.200965
O O13 0.358966 0.287795 0.216791
O O14 0.495944 0.274410 0.865007
#
# Coordination Sequence:
#
# PCOD8157597 Si02
#       7
#     4   4   4   4   4   4   4
#     4  12  26  48  77 110 148 193 257 322 370 435
#     4  12  26  44  72 107 149 190 246 308 375 439
#     4  12  26  44  69 107 149 198 238 304 381 448
#     4  11  25  42  68 104 157 193 244 302 381 466
#     4  11  24  40  70 103 148 196 245 309 371 454
#     4  11  25  43  71 109 140 201 248 305 376 451
#     4  11  22  41  65 112 147 185 242 306 378 441
#
# _framework density 25.243024999999999
#
# number of rings (size 3 to 8) (size 9 to 14) (size 15 to 20)
#    0.000    0.571    4.286    3.429   10.000    0.000 
#    0.000    0.000    3.143    0.000    0.000    0.000 
#    0.000    0.000    0.000    0.000    0.000    0.000 
#
# Total GULP energy -346865.468718 kJ/mol
# GULP energy per Si atom -12388.052454 kJ/mol
# Density = 2.518557 g / cm^3
# Si number density = 25.243025 Si / 1000 Ang^3
#
#
#
# Elastic Constant Matrix: (Units=GPa)
#
#
# Indices 1 2 3 4 5 6 
#
# 1 134.4305 30.4433 13.8763 0.0000 0.0000 0.0000
# 2 30.4433 80.8807 19.0437 0.0000 0.0000 0.0000
# 3 13.8763 19.0437 60.5460 0.0000 0.0000 0.0000
# 4 0.0000 0.0000 0.0000 26.0435 0.0000 0.0000
# 5 0.0000 0.0000 0.0000 0.0000 36.0725 0.0000
# 6 0.0000 0.0000 0.0000 0.0000 0.0000 49.3517
#
#
#
# Elastic Compliance Matrix: (Units=1/GPa)
#
#
# Indices 1 2 3 4 5 6 
#
# 1 0.008185 -0.002850 -0.000979 0.000000 0.000000 0.000000
# 2 -0.002850 0.014345 -0.003859 0.000000 0.000000 0.000000
# 3 -0.000979 -0.003859 0.017955 0.000000 0.000000 0.000000
# 4 0.000000 0.000000 0.000000 0.038397 0.000000 0.000000
# 5 0.000000 0.000000 0.000000 0.000000 0.027722 0.000000
# 6 0.000000 0.000000 0.000000 0.000000 0.000000 0.020263
#
#
# Mechanical properties :
#
#
# Convention : Reuss Voigt Hill
#
# Bulk Modulus (GPa) = 39.82786 44.73154 42.27970
# Shear Modulus (GPa) = 33.19749 36.45980 34.82864
#
# Velocity S-wave (km/s) = 3.63039 3.80459 3.71851
# Velocity P-wave (km/s) = 5.77797 6.08758 5.93480
#
# Compressibility (1/GPa) = 0.02510805
#
# Stress axis : x y z
#
# Youngs Moduli (GPa) = 122.16900 69.70912 55.69607
#
# Poissons Ratio (x) = 0.19869 0.05455
# Poissons Ratio (y) = 0.34822 0.21492
# Poissons Ratio (z) = 0.11966 0.26900
#
# Static dielectric constant tensor:
#      x y z
#    x 4.608740 0.000000 0.000000 
#    y 0.000000 4.700020 0.000000 
#    z 0.000000 0.000000 4.219820 
# 
# 
# High freq. dielectric constant tensor:
#      x y z
#    x 2.017850 0.000000 0.000000 
#    y 0.000000 2.004620 0.000000 
#    z 0.000000 0.000000 1.978440 
# 
# From -- ./inp_files/7284.got.cif
#   From: 2010.03.12/outbox.cif.g09.slc.cpg/sg19_4_cif.got.tgz:7284.got - 2010.04.10 18:59:41.
