data_PCOD8157385
_publ_section_title
;
Structure prediction by ZEFSAII (Michael W. Deem and Ramdas Pophale) SiO2 
 PCOD8157385
Probable space group: P 21 21 21
;
_chemical_formula_sum "Si O2"
_cell_formula_units_Z 20
_cell_length_a 13.439802
_cell_length_b 4.882026
_cell_length_c 11.646724
_cell_angle_alpha 90.000000
_cell_angle_beta 90.000000
_cell_angle_gamma 90.000000
_cell_volume 764.181892
_symmetry_space_group_name_H-M "P 21 21 21"
_symmetry_group_IT_number 19
_symmetry_cell_setting 'orthorhombic'
loop_
_space_group_symop_operation_xyz
x,y,z
1/2-x,-y,1/2+z
1/2+x,1/2-y,-z
-x,1/2+y,1/2-z
loop_
_atom_site_type_symbol
_atom_site_label
_atom_site_fract_x
_atom_site_fract_y
_atom_site_fract_z
Si Si1 0.931698 0.323086 0.772149
Si Si2 0.140237 0.473975 0.053029
Si Si3 0.415123 0.173262 0.970470
Si Si4 0.784263 0.469900 0.573610
Si Si5 0.564497 0.094123 0.720141
O O1 0.839828 0.410253 0.691784
O O2 0.982769 0.052118 0.722735
O O3 0.884435 0.266871 0.897534
O O4 0.157076 0.410599 0.189322
O O5 0.024612 0.446407 0.022919
O O6 0.201580 0.280685 0.968076
O O7 0.175208 0.781262 0.028560
O O8 0.336577 0.952857 0.912761
O O9 0.410416 0.463912 0.903026
O O10 0.481928 0.897762 0.785568
#
# Coordination Sequence:
#
# PCOD8157385 Si02
#       5
#     4   4   4   4   4
#     4  12  25  49  74 104 150 192 242 304 367 428
#     4  11  24  48  69 103 148 183 243 301 350 434
#     4  11  26  47  76 104 149 191 242 304 360 442
#     4  12  26  45  73 110 140 198 240 290 372 430
#     4  10  23  43  72 101 139 186 235 293 363 414
#
# _framework density 26.171780999999999
#
# number of rings (size 3 to 8) (size 9 to 14) (size 15 to 20)
#    0.000    0.800    4.000    2.400    2.800    6.400 
#    3.600    0.000    0.000    0.000    0.000    0.000 
#    0.000    0.000    0.000    0.000    0.000    0.000 
#
# Total GULP energy -248000.309863 kJ/mol
# GULP energy per Si atom -12400.015493 kJ/mol
# Density = 2.611221 g / cm^3
# Si number density = 26.171781 Si / 1000 Ang^3
#
#
#
# Elastic Constant Matrix: (Units=GPa)
#
#
# Indices 1 2 3 4 5 6 
#
# 1 72.9228 -1.2199 -19.8379 0.0000 0.0000 0.0000
# 2 -1.2199 54.3620 -14.4944 0.0000 0.0000 0.0000
# 3 -19.8379 -14.4944 120.1220 0.0000 0.0000 0.0000
# 4 0.0000 0.0000 0.0000 29.5796 0.0000 0.0000
# 5 0.0000 0.0000 0.0000 0.0000 18.2576 0.0000
# 6 0.0000 0.0000 0.0000 0.0000 0.0000 13.2649
#
#
#
# Elastic Compliance Matrix: (Units=1/GPa)
#
#
# Indices 1 2 3 4 5 6 
#
# 1 0.014410 0.000990 0.002499 0.000000 0.000000 0.000000
# 2 0.000990 0.019075 0.002465 0.000000 0.000000 0.000000
# 3 0.002499 0.002465 0.009035 0.000000 0.000000 0.000000
# 4 0.000000 0.000000 0.000000 0.033807 0.000000 0.000000
# 5 0.000000 0.000000 0.000000 0.000000 0.054772 0.000000
# 6 0.000000 0.000000 0.000000 0.000000 0.000000 0.075387
#
#
# Mechanical properties :
#
#
# Convention : Reuss Voigt Hill
#
# Bulk Modulus (GPa) = 18.37322 19.58915 18.98119
# Shear Modulus (GPa) = 23.50511 31.08435 27.29473
#
# Velocity S-wave (km/s) = 3.00010 3.45005 3.23291
# Velocity P-wave (km/s) = 4.36306 4.83441 4.60477
#
# Compressibility (1/GPa) = 0.05442704
#
# Stress axis : x y z
#
# Youngs Moduli (GPa) = 69.39837 52.42557 110.68015
#
# Poissons Ratio (x) = -0.05188 -0.27660
# Poissons Ratio (y) = -0.06868 -0.27283
# Poissons Ratio (z) = -0.17344 -0.12923
#
# Static dielectric constant tensor:
#      x y z
#    x 4.637620 0.000000 0.000000 
#    y 0.000000 4.675680 0.000000 
#    z 0.000000 0.000000 5.209190 
# 
# 
# High freq. dielectric constant tensor:
#      x y z
#    x 2.046900 0.000000 0.000000 
#    y 0.000000 2.051360 0.000000 
#    z 0.000000 0.000000 2.072570 
# 
# From -- ./inp_files/869.got.cif
#   From: 2010.03.12/outbox.cif.g09.slc.cpg/sg19_1_cif.got.tgz:869.got - 2010.04.10 18:59:41.
