data_PCOD8157124
_publ_section_title
;
Structure prediction by ZEFSAII (Michael W. Deem and Ramdas Pophale) SiO2 
 PCOD8157124
Probable space group: P 21 21 21
;
_chemical_formula_sum "Si O2"
_cell_formula_units_Z 28
_cell_length_a 10.137136
_cell_length_b 12.438143
_cell_length_c 8.647918
_cell_angle_alpha 90.000000
_cell_angle_beta 90.000000
_cell_angle_gamma 90.000000
_cell_volume 1090.391310
_symmetry_space_group_name_H-M "P 21 21 21"
_symmetry_group_IT_number 19
_symmetry_cell_setting 'orthorhombic'
loop_
_space_group_symop_operation_xyz
x,y,z
1/2-x,-y,1/2+z
1/2+x,1/2-y,-z
-x,1/2+y,1/2-z
loop_
_atom_site_type_symbol
_atom_site_label
_atom_site_fract_x
_atom_site_fract_y
_atom_site_fract_z
Si Si1 0.053142 0.590085 0.978674
Si Si2 0.456354 0.601787 0.840643
Si Si3 0.748303 0.078932 0.098480
Si Si4 0.795766 0.805086 0.896431
Si Si5 0.326892 0.961668 0.780893
Si Si6 0.108831 0.122236 0.800455
Si Si7 0.659589 0.256412 0.908507
O O1 0.142052 0.485012 0.003779
O O2 0.024186 0.595627 0.794423
O O3 0.149126 0.689358 0.026539
O O4 0.922325 0.577492 0.081081
O O5 0.374902 0.491306 0.862988
O O6 0.602444 0.552234 0.826959
O O7 0.430068 0.676104 0.691359
O O8 0.419165 0.677213 0.986554
O O9 0.685815 0.107202 0.263199
O O10 0.775404 0.186970 0.994958
O O11 0.804293 0.687908 0.824124
O O12 0.280310 0.854218 0.690804
O O13 0.193610 0.016209 0.846229
O O14 0.071774 0.188946 0.954443
#
# Coordination Sequence:
#
# PCOD8157124 Si02
#       7
#     4   4   4   4   4   4   4
#     4  11  23  46  70 105 152 192 246 314 369 450
#     4  11  22  44  73 105 141 196 251 304 369 451
#     4  10  21  46  71 106 136 190 257 304 358 460
#     4  10  23  42  72  98 145 191 250 304 373 441
#     4  12  25  44  73 105 156 190 245 314 385 448
#     4  11  27  45  67 110 150 191 252 307 383 450
#     4  11  25  45  70 111 140 202 245 303 381 446
#
# _framework density 25.678854000000001
#
# number of rings (size 3 to 8) (size 9 to 14) (size 15 to 20)
#    0.000    1.143    2.857    2.571    6.000    0.000 
#    7.714    2.857    0.000    0.000    0.000    0.000 
#    0.000    0.000    0.000    0.000    0.000    0.000 
#
# Total GULP energy -346875.143124 kJ/mol
# GULP energy per Si atom -12388.397969 kJ/mol
# Density = 2.562041 g / cm^3
# Si number density = 25.678854 Si / 1000 Ang^3
#
#
#
# Elastic Constant Matrix: (Units=GPa)
#
#
# Indices 1 2 3 4 5 6 
#
# 1 41.9411 22.1601 11.8993 0.0000 0.0000 0.0000
# 2 22.1601 113.7973 37.3554 0.0000 0.0000 0.0000
# 3 11.8993 37.3554 101.0326 0.0000 0.0000 0.0000
# 4 0.0000 0.0000 0.0000 54.3053 0.0000 0.0000
# 5 0.0000 0.0000 0.0000 0.0000 26.6577 0.0000
# 6 0.0000 0.0000 0.0000 0.0000 0.0000 20.8264
#
#
#
# Elastic Compliance Matrix: (Units=1/GPa)
#
#
# Indices 1 2 3 4 5 6 
#
# 1 0.026749 -0.004751 -0.001394 0.000000 0.000000 0.000000
# 2 -0.004751 0.010845 -0.003450 0.000000 0.000000 0.000000
# 3 -0.001394 -0.003450 0.011338 0.000000 0.000000 0.000000
# 4 0.000000 0.000000 0.000000 0.018414 0.000000 0.000000
# 5 0.000000 0.000000 0.000000 0.000000 0.037513 0.000000
# 6 0.000000 0.000000 0.000000 0.000000 0.000000 0.048016
#
#
# Mechanical properties :
#
#
# Convention : Reuss Voigt Hill
#
# Bulk Modulus (GPa) = 33.62344 44.40007 39.01175
# Shear Modulus (GPa) = 27.47563 32.71495 30.09529
#
# Velocity S-wave (km/s) = 3.27459 3.57319 3.42714
# Velocity P-wave (km/s) = 5.23636 5.86103 5.55748
#
# Compressibility (1/GPa) = 0.02974115
#
# Stress axis : x y z
#
# Youngs Moduli (GPa) = 37.38481 92.20470 88.20171
#
# Poissons Ratio (x) = 0.43810 0.12292
# Poissons Ratio (y) = 0.17763 0.30433
# Poissons Ratio (z) = 0.05210 0.31814
#
# Static dielectric constant tensor:
#      x y z
#    x 4.455340 0.000000 0.000000 
#    y 0.000000 4.991630 0.000000 
#    z 0.000000 0.000000 4.962100 
# 
# 
# High freq. dielectric constant tensor:
#      x y z
#    x 1.981360 0.000000 0.000000 
#    y 0.000000 2.047380 0.000000 
#    z 0.000000 0.000000 2.041520 
# 
# From -- ./inp_files/3465.got.cif
#   From: 2010.03.12/outbox.cif.g09.slc.cpg/sg19_2_cif.got.tgz:3465.got - 2010.04.10 18:59:41.
