data_PCOD8157831
_publ_section_title
;
Structure prediction by ZEFSAII (Michael W. Deem and Ramdas Pophale) SiO2 
 PCOD8157831
Probable space group: P 21 21 21
;
_chemical_formula_sum "Si O2"
_cell_formula_units_Z 28
_cell_length_a 8.966405
_cell_length_b 4.932131
_cell_length_c 25.988696
_cell_angle_alpha 90.000000
_cell_angle_beta 90.000000
_cell_angle_gamma 90.000000
_cell_volume 1149.310683
_symmetry_space_group_name_H-M "P 21 21 21"
_symmetry_group_IT_number 19
_symmetry_cell_setting 'orthorhombic'
loop_
_space_group_symop_operation_xyz
x,y,z
1/2-x,-y,1/2+z
1/2+x,1/2-y,-z
-x,1/2+y,1/2-z
loop_
_atom_site_type_symbol
_atom_site_label
_atom_site_fract_x
_atom_site_fract_y
_atom_site_fract_z
Si Si1 0.837191 0.190572 0.969288
Si Si2 0.093765 0.529067 0.737748
Si Si3 0.461728 0.480697 0.406428
Si Si4 0.726126 0.834658 0.671318
Si Si5 0.946829 0.663446 0.136127
Si Si6 0.283440 0.590336 0.131442
Si Si7 0.788362 0.676819 0.036470
O O1 0.998162 0.313398 0.952872
O O2 0.756382 0.115404 0.915808
O O3 0.747486 0.424949 0.999649
O O4 0.855180 0.925843 0.004111
O O5 0.232342 0.412929 0.770469
O O6 0.141345 0.568012 0.678757
O O7 0.044782 0.819627 0.759936
O O8 0.378537 0.654393 0.362321
O O9 0.612082 0.343178 0.384418
O O10 0.357832 0.248881 0.430655
O O11 0.648658 0.540769 0.671889
O O12 0.607558 0.034512 0.646510
O O13 0.917939 0.586622 0.076258
O O14 0.120367 0.680661 0.149469
#
# Coordination Sequence:
#
# PCOD8157831 Si02
#       7
#     4   4   4   4   4   4   4
#     4  12  27  44  72 107 146 190 253 305 362 434
#     4  12  26  47  81 113 142 192 251 307 374 446
#     4  11  26  48  74 106 144 197 254 302 366 454
#     4  11  25  50  76 104 153 193 242 305 386 441
#     4  11  28  48  71 109 152 193 241 313 376 444
#     4  12  29  46  77 110 151 186 259 311 365 452
#     4  11  27  45  71 101 150 199 244 299 385 437
#
# _framework density 24.362428999999999
#
# number of rings (size 3 to 8) (size 9 to 14) (size 15 to 20)
#    0.000    0.571    2.857    3.429   12.000    2.286 
#    2.571    0.000    0.000    0.000    0.000    0.000 
#    0.000    0.000    0.000    0.000    0.000    0.000 
#
# Total GULP energy -347285.869914 kJ/mol
# GULP energy per Si atom -12403.066783 kJ/mol
# Density = 2.430698 g / cm^3
# Si number density = 24.362429 Si / 1000 Ang^3
#
#
#
# Elastic Constant Matrix: (Units=GPa)
#
#
# Indices 1 2 3 4 5 6 
#
# 1 122.7226 13.6579 19.2552 0.0000 0.0000 0.0000
# 2 13.6579 76.8933 3.8531 0.0000 0.0000 0.0000
# 3 19.2552 3.8531 73.8060 0.0000 0.0000 0.0000
# 4 0.0000 0.0000 0.0000 27.6166 0.0000 0.0000
# 5 0.0000 0.0000 0.0000 0.0000 27.5944 0.0000
# 6 0.0000 0.0000 0.0000 0.0000 0.0000 30.1114
#
#
#
# Elastic Compliance Matrix: (Units=1/GPa)
#
#
# Indices 1 2 3 4 5 6 
#
# 1 0.008650 -0.001427 -0.002182 0.000000 0.000000 0.000000
# 2 -0.001427 0.013275 -0.000321 0.000000 0.000000 0.000000
# 3 -0.002182 -0.000321 0.014135 0.000000 0.000000 0.000000
# 4 0.000000 0.000000 0.000000 0.036210 0.000000 0.000000
# 5 0.000000 0.000000 0.000000 0.000000 0.036239 0.000000
# 6 0.000000 0.000000 0.000000 0.000000 0.000000 0.033210
#
#
# Mechanical properties :
#
#
# Convention : Reuss Voigt Hill
#
# Bulk Modulus (GPa) = 35.46149 38.55048 37.00598
# Shear Modulus (GPa) = 31.45088 32.84155 32.14621
#
# Velocity S-wave (km/s) = 3.59689 3.67555 3.63643
# Velocity P-wave (km/s) = 5.64248 5.81988 5.73186
#
# Compressibility (1/GPa) = 0.02819961
#
# Stress axis : x y z
#
# Youngs Moduli (GPa) = 115.61165 75.33201 70.74609
#
# Poissons Ratio (x) = 0.10750 0.15438
# Poissons Ratio (y) = 0.16498 0.02269
# Poissons Ratio (z) = 0.25228 0.02416
#
# Static dielectric constant tensor:
#      x y z
#    x 4.241560 0.000000 0.000000 
#    y 0.000000 4.408470 0.000000 
#    z 0.000000 0.000000 4.584720 
# 
# 
# High freq. dielectric constant tensor:
#      x y z
#    x 1.957480 0.000000 0.000000 
#    y 0.000000 1.975680 0.000000 
#    z 0.000000 0.000000 1.974380 
# 
# From -- ./inp_files/7489.got.cif
#   From: 2010.03.12/outbox.cif.g09.slc.cpg/sg19_4_cif.got.tgz:7489.got - 2010.04.10 18:59:41.
