data_PCOD8157925
_publ_section_title
;
Structure prediction by ZEFSAII (Michael W. Deem and Ramdas Pophale) SiO2 
 PCOD8157925
Probable space group: P 21 21 21
;
_chemical_formula_sum "Si O2"
_cell_formula_units_Z 12
_cell_length_a 8.520356
_cell_length_b 7.192334
_cell_length_c 7.526457
_cell_angle_alpha 90.000000
_cell_angle_beta 90.000000
_cell_angle_gamma 90.000000
_cell_volume 461.230664
_symmetry_space_group_name_H-M "P 21 21 21"
_symmetry_group_IT_number 19
_symmetry_cell_setting 'orthorhombic'
loop_
_space_group_symop_operation_xyz
x,y,z
1/2-x,-y,1/2+z
1/2+x,1/2-y,-z
-x,1/2+y,1/2-z
loop_
_atom_site_type_symbol
_atom_site_label
_atom_site_fract_x
_atom_site_fract_y
_atom_site_fract_z
Si Si1 0.384875 0.062862 0.633855
Si Si2 0.122712 0.357803 0.656107
Si Si3 0.115915 0.361908 0.054494
O O1 0.223460 0.170224 0.661869
O O2 0.477247 0.168882 0.476510
O O3 0.482858 0.061144 0.815710
O O4 0.346701 0.853246 0.584166
O O5 0.220272 0.534025 0.586285
O O6 0.058811 0.397968 0.853428
#
# Coordination Sequence:
#
# PCOD8157925 Si02
#       3
#     4   4   4
#     4  12  29  50  82 116 156 202 262 320 395 465
#     4  12  29  50  82 116 156 202 262 320 395 465
#     4  12  26  48  76 114 152 206 252 318 382 458
#
# _framework density 26.017351999999999
#
# number of rings (size 3 to 8) (size 9 to 14) (size 15 to 20)
#    0.000    0.000    6.667    0.000    9.333    5.333 
#    0.000    0.000    0.000    0.000    0.000    0.000 
#    0.000    0.000    0.000    0.000    0.000    0.000 
#
# Total GULP energy -148946.230586 kJ/mol
# GULP energy per Si atom -12412.185882 kJ/mol
# Density = 2.595814 g / cm^3
# Si number density = 26.017352 Si / 1000 Ang^3
#
#
#
# Elastic Constant Matrix: (Units=GPa)
#
#
# Indices 1 2 3 4 5 6 
#
# 1 21.5943 3.2959 19.2215 0.0000 0.0000 0.0000
# 2 3.2959 52.3218 4.2960 0.0000 0.0000 0.0000
# 3 19.2215 4.2960 217.3666 0.0000 0.0000 0.0000
# 4 0.0000 0.0000 0.0000 33.9592 0.0000 0.0000
# 5 0.0000 0.0000 0.0000 0.0000 31.0847 0.0000
# 6 0.0000 0.0000 0.0000 0.0000 0.0000 30.7204
#
#
#
# Elastic Compliance Matrix: (Units=1/GPa)
#
#
# Indices 1 2 3 4 5 6 
#
# 1 0.050680 -0.002829 -0.004426 0.000000 0.000000 0.000000
# 2 -0.002829 0.019301 -0.000131 0.000000 0.000000 0.000000
# 3 -0.004426 -0.000131 0.004994 0.000000 0.000000 0.000000
# 4 0.000000 0.000000 0.000000 0.029447 0.000000 0.000000
# 5 0.000000 0.000000 0.000000 0.000000 0.032170 0.000000
# 6 0.000000 0.000000 0.000000 0.000000 0.000000 0.032552
#
#
# Mechanical properties :
#
#
# Convention : Reuss Voigt Hill
#
# Bulk Modulus (GPa) = 16.61032 38.32327 27.46680
# Shear Modulus (GPa) = 24.51168 36.78414 30.64791
#
# Velocity S-wave (km/s) = 3.07274 3.76417 3.43589
# Velocity P-wave (km/s) = 4.35743 5.80120 5.13035
#
# Compressibility (1/GPa) = 0.06020354
#
# Stress axis : x y z
#
# Youngs Moduli (GPa) = 19.73180 51.80945 200.22141
#
# Poissons Ratio (x) = 0.14657 0.88610
# Poissons Ratio (y) = 0.05582 0.02629
# Poissons Ratio (z) = 0.08733 0.00680
#
# Static dielectric constant tensor:
#      x y z
#    x 4.519270 0.000000 0.000000 
#    y 0.000000 4.802560 0.000000 
#    z 0.000000 0.000000 5.365930 
# 
# 
# High freq. dielectric constant tensor:
#      x y z
#    x 2.031820 0.000000 0.000000 
#    y 0.000000 2.062960 0.000000 
#    z 0.000000 0.000000 2.065500 
# 
# From -- ./inp_files/2529.got.cif
#   From: 2010.03.12/outbox.cif.g09.slc.cpg/sg19_2_cif.got.tgz:2529.got - 2010.04.10 18:59:41.
