data_PCOD8157760
_publ_section_title
;
Structure prediction by ZEFSAII (Michael W. Deem and Ramdas Pophale) SiO2 
 PCOD8157760
Probable space group: P 21 21 21
;
_chemical_formula_sum "Si O2"
_cell_formula_units_Z 32
_cell_length_a 11.588067
_cell_length_b 15.026568
_cell_length_c 8.863671
_cell_angle_alpha 90.000000
_cell_angle_beta 90.000000
_cell_angle_gamma 90.000000
_cell_volume 1543.421075
_symmetry_space_group_name_H-M "P 21 21 21"
_symmetry_group_IT_number 19
_symmetry_cell_setting 'orthorhombic'
loop_
_space_group_symop_operation_xyz
x,y,z
1/2-x,-y,1/2+z
1/2+x,1/2-y,-z
-x,1/2+y,1/2-z
loop_
_atom_site_type_symbol
_atom_site_label
_atom_site_fract_x
_atom_site_fract_y
_atom_site_fract_z
Si Si1 0.730599 0.608937 0.899589
Si Si2 0.468807 0.793561 0.107571
Si Si3 0.289349 0.067091 0.259527
Si Si4 0.114014 0.185725 0.088605
Si Si5 0.576991 0.759941 0.799223
Si Si6 0.937978 0.093341 0.881344
Si Si7 0.257881 0.664970 0.419731
Si Si8 0.040072 0.401050 0.741817
O O1 0.839673 0.672901 0.913133
O O2 0.754828 0.532202 0.780679
O O3 0.621136 0.661476 0.835247
O O4 0.697620 0.569044 0.060890
O O5 0.539344 0.849607 0.231039
O O6 0.458488 0.689261 0.144963
O O7 0.537914 0.808315 0.952552
O O8 0.196311 0.137642 0.206425
O O9 0.413091 0.089799 0.183745
O O10 0.029606 0.250366 0.183086
O O11 0.189418 0.240566 0.969721
O O12 0.039468 0.112784 0.999946
O O13 0.676911 0.820051 0.725146
O O14 0.935195 0.987754 0.858796
O O15 0.812676 0.121167 0.943786
O O16 0.364057 0.601448 0.373342
#
# Coordination Sequence:
#
# PCOD8157760 Si02
#       8
#     4   4   4   4   4   4   4   4
#     4  12  25  44  70 105 143 185 229 301 348 431
#     4  12  23  47  69 104 144 185 233 293 358 416
#     4  12  26  42  71 107 139 186 242 291 357 423
#     4  11  24  46  71 105 136 187 239 292 357 422
#     4  11  25  44  73 102 136 187 233 286 363 420
#     4  11  25  47  71 103 143 183 240 294 347 432
#     4  11  26  46  71  99 142 191 229 298 350 421
#     4  12  24  44  70 101 143 188 233 289 358 413
#
# _framework density 20.733163999999999
#
# number of rings (size 3 to 8) (size 9 to 14) (size 15 to 20)
#    0.000    0.500    6.250    1.500    3.500    1.000 
#    2.250    0.000    0.000    0.000    0.000    0.000 
#    0.000    0.000    0.000    0.000    0.000    0.000 
#
# Total GULP energy -396948.795953 kJ/mol
# GULP energy per Si atom -12404.649874 kJ/mol
# Density = 2.068597 g / cm^3
# Si number density = 20.733164 Si / 1000 Ang^3
#
#
#
# Elastic Constant Matrix: (Units=GPa)
#
#
# Indices 1 2 3 4 5 6 
#
# 1 120.2843 52.2749 42.6204 0.0000 0.0000 0.0000
# 2 52.2749 133.2711 44.6943 0.0000 0.0000 0.0000
# 3 42.6204 44.6943 104.4913 0.0000 0.0000 0.0000
# 4 0.0000 0.0000 0.0000 29.0251 0.0000 0.0000
# 5 0.0000 0.0000 0.0000 0.0000 39.9276 0.0000
# 6 0.0000 0.0000 0.0000 0.0000 0.0000 32.1982
#
#
#
# Elastic Compliance Matrix: (Units=1/GPa)
#
#
# Indices 1 2 3 4 5 6 
#
# 1 0.010782 -0.003216 -0.003022 0.000000 0.000000 0.000000
# 2 -0.003216 0.009719 -0.002846 0.000000 0.000000 0.000000
# 3 -0.003022 -0.002846 0.012020 0.000000 0.000000 0.000000
# 4 0.000000 0.000000 0.000000 0.034453 0.000000 0.000000
# 5 0.000000 0.000000 0.000000 0.000000 0.025045 0.000000
# 6 0.000000 0.000000 0.000000 0.000000 0.000000 0.031058
#
#
# Mechanical properties :
#
#
# Convention : Reuss Voigt Hill
#
# Bulk Modulus (GPa) = 69.66658 70.80287 70.23473
# Shear Modulus (GPa) = 34.23976 34.79399 34.51687
#
# Velocity S-wave (km/s) = 4.06821 4.10100 4.08464
# Velocity P-wave (km/s) = 7.46603 7.52649 7.49632
#
# Compressibility (1/GPa) = 0.01435409
#
# Stress axis : x y z
#
# Youngs Moduli (GPa) = 92.74667 102.89004 83.19378
#
# Poissons Ratio (x) = 0.33085 0.25145
# Poissons Ratio (y) = 0.29824 0.23674
# Poissons Ratio (z) = 0.28032 0.29278
#
# Static dielectric constant tensor:
#      x y z
#    x 4.190110 0.000000 0.000000 
#    y 0.000000 3.673010 0.000000 
#    z 0.000000 0.000000 3.859660 
# 
# 
# High freq. dielectric constant tensor:
#      x y z
#    x 1.831460 0.000000 0.000000 
#    y 0.000000 1.806910 0.000000 
#    z 0.000000 0.000000 1.814620 
# 
# From -- ./inp_files/3652.got.cif
#   From: 2010.03.12/outbox.cif.g09.slc.cpg/sg19_2_cif.got.tgz:3652.got - 2010.04.10 18:59:41.
