data_PCOD8157940
_publ_section_title
;
Structure prediction by ZEFSAII (Michael W. Deem and Ramdas Pophale) SiO2 
 PCOD8157940
Probable space group: P 21 21 21
;
_chemical_formula_sum "Si O2"
_cell_formula_units_Z 16
_cell_length_a 16.333358
_cell_length_b 5.060324
_cell_length_c 7.538611
_cell_angle_alpha 90.000000
_cell_angle_beta 90.000000
_cell_angle_gamma 90.000000
_cell_volume 623.081906
_symmetry_space_group_name_H-M "P 21 21 21"
_symmetry_group_IT_number 19
_symmetry_cell_setting 'orthorhombic'
loop_
_space_group_symop_operation_xyz
x,y,z
1/2-x,-y,1/2+z
1/2+x,1/2-y,-z
-x,1/2+y,1/2-z
loop_
_atom_site_type_symbol
_atom_site_label
_atom_site_fract_x
_atom_site_fract_y
_atom_site_fract_z
Si Si1 0.444906 0.098224 0.737658
Si Si2 0.447101 0.533738 0.232865
Si Si3 0.841483 0.609667 0.960664
Si Si4 0.336819 0.182005 0.413521
O O1 0.483490 0.387888 0.733936
O O2 0.397487 0.040408 0.552978
O O3 0.376378 0.089646 0.892742
O O4 0.508821 0.753559 0.312689
O O5 0.593975 0.145929 0.447228
O O6 0.374715 0.473197 0.374298
O O7 0.835426 0.481043 0.767756
O O8 0.753607 0.724606 0.012943
#
# Coordination Sequence:
#
# PCOD8157940 Si02
#       4
#     4   4   4   4
#     4  12  32  50  84 126 164 218 286 340 418 504
#     4  12  28  52  88 118 164 226 274 344 418 486
#     4  12  29  55  84 123 173 222 276 347 421 499
#     4  12  29  55  84 123 173 222 276 347 421 499
#
# _framework density 25.678808
#
# number of rings (size 3 to 8) (size 9 to 14) (size 15 to 20)
#    0.000    0.000    5.000    1.500   14.000    4.000 
#    0.000    0.000    0.000    0.000    0.000    0.000 
#    0.000    0.000    0.000    0.000    0.000    0.000 
#
# Total GULP energy -198399.217223 kJ/mol
# GULP energy per Si atom -12399.951076 kJ/mol
# Density = 2.562036 g / cm^3
# Si number density = 25.678808 Si / 1000 Ang^3
#
#
#
# Elastic Constant Matrix: (Units=GPa)
#
#
# Indices 1 2 3 4 5 6 
#
# 1 89.8124 28.5055 -5.7359 0.0000 0.0000 0.0000
# 2 28.5055 115.2449 16.4354 0.0000 0.0000 0.0000
# 3 -5.7359 16.4354 124.5993 0.0000 0.0000 0.0000
# 4 0.0000 0.0000 0.0000 36.1812 0.0000 0.0000
# 5 0.0000 0.0000 0.0000 0.0000 46.3880 0.0000
# 6 0.0000 0.0000 0.0000 0.0000 0.0000 19.4384
#
#
#
# Elastic Compliance Matrix: (Units=1/GPa)
#
#
# Indices 1 2 3 4 5 6 
#
# 1 0.012199 -0.003157 0.000978 0.000000 0.000000 0.000000
# 2 -0.003157 0.009660 -0.001420 0.000000 0.000000 0.000000
# 3 0.000978 -0.001420 0.008258 0.000000 0.000000 0.000000
# 4 0.000000 0.000000 0.000000 0.027639 0.000000 0.000000
# 5 0.000000 0.000000 0.000000 0.000000 0.021557 0.000000
# 6 0.000000 0.000000 0.000000 0.000000 0.000000 0.051444
#
#
# Mechanical properties :
#
#
# Convention : Reuss Voigt Hill
#
# Bulk Modulus (GPa) = 43.62942 45.34075 44.48508
# Shear Modulus (GPa) = 34.34195 39.76497 37.05346
#
# Velocity S-wave (km/s) = 3.66097 3.93943 3.80275
# Velocity P-wave (km/s) = 5.90742 6.19576 6.05330
#
# Compressibility (1/GPa) = 0.02292032
#
# Stress axis : x y z
#
# Youngs Moduli (GPa) = 81.97592 103.51488 121.09472
#
# Poissons Ratio (x) = 0.32677 -0.11843
# Poissons Ratio (y) = 0.25878 0.17191
# Poissons Ratio (z) = -0.08017 0.14695
#
# Static dielectric constant tensor:
#      x y z
#    x 5.195050 0.000000 0.000000 
#    y 0.000000 4.555370 0.000000 
#    z 0.000000 0.000000 4.903880 
# 
# 
# High freq. dielectric constant tensor:
#      x y z
#    x 2.048450 0.000000 0.000000 
#    y 0.000000 2.018160 0.000000 
#    z 0.000000 0.000000 2.037930 
# 
# From -- ./inp_files/1362.got.cif
#   From: 2010.03.12/outbox.cif.g09.slc.cpg/sg19_1_cif.got.tgz:1362.got - 2010.04.10 18:59:41.
