data_PCOD8157749
_publ_section_title
;
Structure prediction by ZEFSAII (Michael W. Deem and Ramdas Pophale) SiO2 
 PCOD8157749
Probable space group: P 21 21 21
;
_chemical_formula_sum "Si O2"
_cell_formula_units_Z 20
_cell_length_a 11.666168
_cell_length_b 4.961326
_cell_length_c 13.647168
_cell_angle_alpha 90.000000
_cell_angle_beta 90.000000
_cell_angle_gamma 90.000000
_cell_volume 789.893480
_symmetry_space_group_name_H-M "P 21 21 21"
_symmetry_group_IT_number 19
_symmetry_cell_setting 'orthorhombic'
loop_
_space_group_symop_operation_xyz
x,y,z
1/2-x,-y,1/2+z
1/2+x,1/2-y,-z
-x,1/2+y,1/2-z
loop_
_atom_site_type_symbol
_atom_site_label
_atom_site_fract_x
_atom_site_fract_y
_atom_site_fract_z
Si Si1 0.480268 0.727119 0.560854
Si Si2 0.722569 0.874487 0.914791
Si Si3 0.795843 0.188231 0.636758
Si Si4 0.169941 0.819879 0.286306
Si Si5 0.472071 0.726543 0.067661
O O1 0.345188 0.658624 0.576537
O O2 0.546170 0.719408 0.664477
O O3 0.540519 0.515756 0.486019
O O4 0.486550 0.024079 0.517062
O O5 0.654949 0.709486 0.830854
O O6 0.856131 0.888516 0.882136
O O7 0.725656 0.743440 0.022241
O O8 0.717883 0.380840 0.701330
O O9 0.931931 0.241564 0.653172
O O10 0.761773 0.885585 0.665894
#
# Coordination Sequence:
#
# PCOD8157749 Si02
#       5
#     4   4   4   4   4
#     4  11  24  45  70 106 145 182 244 298 353 431
#     4  11  26  45  77 103 144 200 231 302 370 421
#     4  11  25  46  66 106 145 185 240 299 351 436
#     4  12  25  45  73 106 145 184 244 295 361 432
#     4  11  24  45  74  99 149 191 235 294 367 428
#
# _framework density 25.319870999999999
#
# number of rings (size 3 to 8) (size 9 to 14) (size 15 to 20)
#    0.000    0.800    4.000    2.400    0.000   12.800 
#    0.000    0.000    0.000    0.000    0.000    0.000 
#    0.000    0.000    0.000    0.000    0.000    0.000 
#
# Total GULP energy -247945.179826 kJ/mol
# GULP energy per Si atom -12397.258991 kJ/mol
# Density = 2.526224 g / cm^3
# Si number density = 25.319871 Si / 1000 Ang^3
#
#
#
# Elastic Constant Matrix: (Units=GPa)
#
#
# Indices 1 2 3 4 5 6 
#
# 1 130.3975 -5.2117 -18.2404 0.0000 0.0000 0.0000
# 2 -5.2117 66.3541 5.2856 0.0000 0.0000 0.0000
# 3 -18.2404 5.2856 83.9400 0.0000 0.0000 0.0000
# 4 0.0000 0.0000 0.0000 28.5235 0.0000 0.0000
# 5 0.0000 0.0000 0.0000 0.0000 24.6636 0.0000
# 6 0.0000 0.0000 0.0000 0.0000 0.0000 29.1503
#
#
#
# Elastic Compliance Matrix: (Units=1/GPa)
#
#
# Indices 1 2 3 4 5 6 
#
# 1 0.007925 0.000488 0.001691 0.000000 0.000000 0.000000
# 2 0.000488 0.015177 -0.000850 0.000000 0.000000 0.000000
# 3 0.001691 -0.000850 0.012334 0.000000 0.000000 0.000000
# 4 0.000000 0.000000 0.000000 0.035059 0.000000 0.000000
# 5 0.000000 0.000000 0.000000 0.000000 0.040546 0.000000
# 6 0.000000 0.000000 0.000000 0.000000 0.000000 0.034305
#
#
# Mechanical properties :
#
#
# Convention : Reuss Voigt Hill
#
# Bulk Modulus (GPa) = 26.25028 27.15095 26.70062
# Shear Modulus (GPa) = 32.17821 36.39135 34.28478
#
# Velocity S-wave (km/s) = 3.56879 3.79524 3.68376
# Velocity P-wave (km/s) = 5.23179 5.47280 5.35366
#
# Compressibility (1/GPa) = 0.03809483
#
# Stress axis : x y z
#
# Youngs Moduli (GPa) = 126.18374 65.89070 81.07459
#
# Poissons Ratio (x) = -0.03214 -0.13713
# Poissons Ratio (y) = -0.06154 0.06889
# Poissons Ratio (z) = -0.21343 0.05598
#
# Static dielectric constant tensor:
#      x y z
#    x 5.073390 0.000000 0.000000 
#    y 0.000000 4.329090 0.000000 
#    z 0.000000 0.000000 4.398330 
# 
# 
# High freq. dielectric constant tensor:
#      x y z
#    x 2.023610 0.000000 0.000000 
#    y 0.000000 2.007030 0.000000 
#    z 0.000000 0.000000 1.997860 
# 
# From -- ./inp_files/4426.got.cif
#   From: 2010.03.12/outbox.cif.g09.slc.cpg/sg19_3_cif.got.tgz:4426.got - 2010.04.10 18:59:41.
