data_PCOD8157794
_publ_section_title
;
Structure prediction by ZEFSAII (Michael W. Deem and Ramdas Pophale) SiO2 
 PCOD8157794
Probable space group: P 21 21 21
;
_chemical_formula_sum "Si O2"
_cell_formula_units_Z 20
_cell_length_a 8.127798
_cell_length_b 9.814024
_cell_length_c 10.888018
_cell_angle_alpha 90.000000
_cell_angle_beta 90.000000
_cell_angle_gamma 90.000000
_cell_volume 868.498050
_symmetry_space_group_name_H-M "P 21 21 21"
_symmetry_group_IT_number 19
_symmetry_cell_setting 'orthorhombic'
loop_
_space_group_symop_operation_xyz
x,y,z
1/2-x,-y,1/2+z
1/2+x,1/2-y,-z
-x,1/2+y,1/2-z
loop_
_atom_site_type_symbol
_atom_site_label
_atom_site_fract_x
_atom_site_fract_y
_atom_site_fract_z
Si Si1 0.999589 0.598161 0.527055
Si Si2 0.885712 0.710988 0.876302
Si Si3 0.497375 0.157094 0.621260
Si Si4 0.073116 0.946734 0.749769
Si Si5 0.804783 0.766327 0.356766
O O1 0.166526 0.627696 0.601189
O O2 0.034028 0.498709 0.413621
O O3 0.877000 0.519460 0.621191
O O4 0.918165 0.736279 0.476045
O O5 0.692890 0.689908 0.859651
O O6 0.982799 0.570445 0.841062
O O7 0.936720 0.831156 0.780625
O O8 0.929230 0.743772 0.016720
O O9 0.588060 0.170453 0.749784
O O10 0.231202 0.876579 0.690128
#
# Coordination Sequence:
#
# PCOD8157794 Si02
#       5
#     4   4   4   4   4
#     4  11  27  46  73 112 145 196 258 304 377 446
#     4  11  24  50  79 107 154 193 254 303 383 442
#     4  11  26  50  76 108 150 205 246 313 373 456
#     4  11  24  50  73 107 151 190 244 315 365 451
#     4  12  27  46  75 106 152 196 250 311 378 441
#
# _framework density 23.028262000000002
#
# number of rings (size 3 to 8) (size 9 to 14) (size 15 to 20)
#    0.000    0.800    4.000    2.400    2.800    4.800 
#    7.200    0.000    0.000    0.000    0.000    0.000 
#    0.000    0.000    0.000    0.000    0.000    0.000 
#
# Total GULP energy -247971.023910 kJ/mol
# GULP energy per Si atom -12398.551195 kJ/mol
# Density = 2.297585 g / cm^3
# Si number density = 23.028262 Si / 1000 Ang^3
#
#
#
# Elastic Constant Matrix: (Units=GPa)
#
#
# Indices 1 2 3 4 5 6 
#
# 1 126.4214 49.7771 65.2564 0.0000 0.0000 0.0000
# 2 49.7771 110.8169 37.6061 0.0000 0.0000 0.0000
# 3 65.2564 37.6061 89.8994 0.0000 0.0000 0.0000
# 4 0.0000 0.0000 0.0000 50.0971 0.0000 0.0000
# 5 0.0000 0.0000 0.0000 0.0000 49.3160 0.0000
# 6 0.0000 0.0000 0.0000 0.0000 0.0000 28.9183
#
#
#
# Elastic Compliance Matrix: (Units=1/GPa)
#
#
# Indices 1 2 3 4 5 6 
#
# 1 0.013561 -0.003206 -0.008503 0.000000 0.000000 0.000000
# 2 -0.003206 0.011275 -0.002389 0.000000 0.000000 0.000000
# 3 -0.008503 -0.002389 0.018295 0.000000 0.000000 0.000000
# 4 0.000000 0.000000 0.000000 0.019961 0.000000 0.000000
# 5 0.000000 0.000000 0.000000 0.000000 0.020277 0.000000
# 6 0.000000 0.000000 0.000000 0.000000 0.000000 0.034580
#
#
# Mechanical properties :
#
#
# Convention : Reuss Voigt Hill
#
# Bulk Modulus (GPa) = 66.95652 70.26852 68.61252
# Shear Modulus (GPa) = 33.08528 37.29948 35.19238
#
# Velocity S-wave (km/s) = 3.79453 4.02895 3.91349
# Velocity P-wave (km/s) = 6.95247 7.22658 7.09085
#
# Compressibility (1/GPa) = 0.01493506
#
# Stress axis : x y z
#
# Youngs Moduli (GPa) = 73.73847 88.69348 54.65962
#
# Poissons Ratio (x) = 0.28436 0.46476
# Poissons Ratio (y) = 0.23641 0.13059
# Poissons Ratio (z) = 0.62699 0.21190
#
# Static dielectric constant tensor:
#      x y z
#    x 3.890870 0.000000 0.000000 
#    y 0.000000 4.434370 0.000000 
#    z 0.000000 0.000000 4.387640 
# 
# 
# High freq. dielectric constant tensor:
#      x y z
#    x 1.891090 0.000000 0.000000 
#    y 0.000000 1.923750 0.000000 
#    z 0.000000 0.000000 1.925230 
# 
# From -- ./inp_files/2614.got.cif
#   From: 2010.03.12/outbox.cif.g09.slc.cpg/sg19_2_cif.got.tgz:2614.got - 2010.04.10 18:59:41.
