data_PCOD8157673
_publ_section_title
;
Structure prediction by ZEFSAII (Michael W. Deem and Ramdas Pophale) SiO2 
 PCOD8157673
Probable space group: P 21 21 21
;
_chemical_formula_sum "Si O2"
_cell_formula_units_Z 16
_cell_length_a 6.596155
_cell_length_b 9.090887
_cell_length_c 12.888232
_cell_angle_alpha 90.000000
_cell_angle_beta 90.000000
_cell_angle_gamma 90.000000
_cell_volume 772.841540
_symmetry_space_group_name_H-M "P 21 21 21"
_symmetry_group_IT_number 19
_symmetry_cell_setting 'orthorhombic'
loop_
_space_group_symop_operation_xyz
x,y,z
1/2-x,-y,1/2+z
1/2+x,1/2-y,-z
-x,1/2+y,1/2-z
loop_
_atom_site_type_symbol
_atom_site_label
_atom_site_fract_x
_atom_site_fract_y
_atom_site_fract_z
Si Si1 0.592408 0.516447 0.840410
Si Si2 0.517055 0.659191 0.368910
Si Si3 0.688610 0.938286 0.473635
Si Si4 0.190575 0.657792 0.194088
O O1 0.473551 0.452964 0.741838
O O2 0.578249 0.691849 0.835033
O O3 0.824882 0.466042 0.835829
O O4 0.494970 0.460538 0.947051
O O5 0.634664 0.808695 0.394303
O O6 0.396323 0.601477 0.468631
O O7 0.369812 0.692567 0.273798
O O8 0.719506 0.087832 0.410130
#
# Coordination Sequence:
#
# PCOD8157673 Si02
#       4
#     4   4   4   4
#     4  11  25  44  69  97 135 172 218 275 323 393
#     4  11  23  44  69  94 131 181 213 277 325 380
#     4  11  24  43  68  98 134 173 222 265 332 386
#     4  11  26  43  68 101 132 174 221 267 330 395
#
# _framework density 20.702819999999999
#
# number of rings (size 3 to 8) (size 9 to 14) (size 15 to 20)
#    0.000    1.000    2.500    3.000    7.000    4.000 
#    0.000    0.000    0.000    0.000    0.000    0.000 
#    0.000    0.000    0.000    0.000    0.000    0.000 
#
# Total GULP energy -198561.678139 kJ/mol
# GULP energy per Si atom -12410.104884 kJ/mol
# Density = 2.065570 g / cm^3
# Si number density = 20.702820 Si / 1000 Ang^3
#
#
#
# Elastic Constant Matrix: (Units=GPa)
#
#
# Indices 1 2 3 4 5 6 
#
# 1 92.2733 13.7773 16.1863 0.0000 0.0000 0.0000
# 2 13.7773 115.4689 15.6738 0.0000 0.0000 0.0000
# 3 16.1863 15.6738 59.1610 0.0000 0.0000 0.0000
# 4 0.0000 0.0000 0.0000 40.2525 0.0000 0.0000
# 5 0.0000 0.0000 0.0000 0.0000 14.9493 0.0000
# 6 0.0000 0.0000 0.0000 0.0000 0.0000 41.0803
#
#
#
# Elastic Compliance Matrix: (Units=1/GPa)
#
#
# Indices 1 2 3 4 5 6 
#
# 1 0.011490 -0.000979 -0.002884 0.000000 0.000000 0.000000
# 2 -0.000979 0.009067 -0.002134 0.000000 0.000000 0.000000
# 3 -0.002884 -0.002134 0.018257 0.000000 0.000000 0.000000
# 4 0.000000 0.000000 0.000000 0.024843 0.000000 0.000000
# 5 0.000000 0.000000 0.000000 0.000000 0.066893 0.000000
# 6 0.000000 0.000000 0.000000 0.000000 0.000000 0.024343
#
#
# Mechanical properties :
#
#
# Convention : Reuss Voigt Hill
#
# Bulk Modulus (GPa) = 37.28739 39.79755 38.54247
# Shear Modulus (GPa) = 28.43702 34.00750 31.22226
#
# Velocity S-wave (km/s) = 3.71021 4.05736 3.88766
# Velocity P-wave (km/s) = 6.03358 6.41985 6.22971
#
# Compressibility (1/GPa) = 0.02681872
#
# Stress axis : x y z
#
# Youngs Moduli (GPa) = 87.03595 110.29139 54.77205
#
# Poissons Ratio (x) = 0.10802 0.15796
# Poissons Ratio (y) = 0.08524 0.11689
# Poissons Ratio (z) = 0.25101 0.23538
#
# Static dielectric constant tensor:
#      x y z
#    x 3.782700 0.000000 0.000000 
#    y 0.000000 3.663830 0.000000 
#    z 0.000000 0.000000 3.722510 
# 
# 
# High freq. dielectric constant tensor:
#      x y z
#    x 1.820200 0.000000 0.000000 
#    y 0.000000 1.818820 0.000000 
#    z 0.000000 0.000000 1.815550 
# 
# From -- ./inp_files/258.got.cif
#   From: 2010.03.12/outbox.cif.g09.slc.cpg/sg19_1_cif.got.tgz:258.got - 2010.04.10 18:59:41.
