data_PCOD8157867
_publ_section_title
;
Structure prediction by ZEFSAII (Michael W. Deem and Ramdas Pophale) SiO2 
 PCOD8157867
Probable space group: P 21 21 21
;
_chemical_formula_sum "Si O2"
_cell_formula_units_Z 28
_cell_length_a 13.930117
_cell_length_b 5.937727
_cell_length_c 14.416053
_cell_angle_alpha 90.000000
_cell_angle_beta 90.000000
_cell_angle_gamma 90.000000
_cell_volume 1192.398334
_symmetry_space_group_name_H-M "P 21 21 21"
_symmetry_group_IT_number 19
_symmetry_cell_setting 'orthorhombic'
loop_
_space_group_symop_operation_xyz
x,y,z
1/2-x,-y,1/2+z
1/2+x,1/2-y,-z
-x,1/2+y,1/2-z
loop_
_atom_site_type_symbol
_atom_site_label
_atom_site_fract_x
_atom_site_fract_y
_atom_site_fract_z
Si Si1 0.354709 0.189507 0.436986
Si Si2 0.955414 0.196097 0.729400
Si Si3 0.247588 0.168693 0.831040
Si Si4 0.772454 0.047026 0.806550
Si Si5 0.009853 0.904488 0.096635
Si Si6 0.101443 0.167022 0.251039
Si Si7 0.312637 0.503101 0.981059
O O1 0.432336 0.337777 0.380333
O O2 0.393952 0.161668 0.541042
O O3 0.247775 0.294004 0.435405
O O4 0.341917 0.963389 0.376308
O O5 0.854159 0.231313 0.783774
O O6 0.004015 0.445959 0.742306
O O7 0.200242 0.324550 0.751883
O O8 0.295589 0.284760 0.919808
O O9 0.330572 0.037627 0.777419
O O10 0.666801 0.116558 0.771443
O O11 0.772259 0.016631 0.916098
O O12 0.972651 0.710046 0.165292
O O13 0.926722 0.953724 0.021189
O O14 0.038180 0.117294 0.159829
#
# Coordination Sequence:
#
# PCOD8157867 Si02
#       7
#     4   4   4   4   4   4   4
#     4  12  26  48  73 110 157 200 265 335 403 488
#     4  12  26  48  77 113 158 208 269 334 410 499
#     4  12  22  51  77 104 162 204 263 332 410 491
#     4  12  26  48  78 108 154 211 262 330 422 474
#     4  12  26  48  73 116 148 203 270 328 405 490
#     4  12  26  49  76 108 155 204 259 339 399 486
#     4  12  26  48  74 111 148 204 262 326 405 486
#
# _framework density 23.482085000000001
#
# number of rings (size 3 to 8) (size 9 to 14) (size 15 to 20)
#    0.000    0.000    5.714    4.286    2.000    1.143 
#    7.714    0.000    0.000    0.000    0.000    0.000 
#    0.000    0.000    0.000    0.000    0.000    0.000 
#
# Total GULP energy -346968.709804 kJ/mol
# GULP energy per Si atom -12391.739636 kJ/mol
# Density = 2.342864 g / cm^3
# Si number density = 23.482085 Si / 1000 Ang^3
#
#
#
# Elastic Constant Matrix: (Units=GPa)
#
#
# Indices 1 2 3 4 5 6 
#
# 1 114.1872 41.0172 33.3696 0.0000 0.0000 0.0000
# 2 41.0172 96.2916 40.8103 0.0000 0.0000 0.0000
# 3 33.3696 40.8103 141.3257 0.0000 0.0000 0.0000
# 4 0.0000 0.0000 0.0000 34.0341 0.0000 0.0000
# 5 0.0000 0.0000 0.0000 0.0000 48.1709 0.0000
# 6 0.0000 0.0000 0.0000 0.0000 0.0000 33.6121
#
#
#
# Elastic Compliance Matrix: (Units=1/GPa)
#
#
# Indices 1 2 3 4 5 6 
#
# 1 0.010565 -0.003923 -0.001362 0.000000 0.000000 0.000000
# 2 -0.003923 0.013290 -0.002911 0.000000 0.000000 0.000000
# 3 -0.001362 -0.002911 0.008238 0.000000 0.000000 0.000000
# 4 0.000000 0.000000 0.000000 0.029382 0.000000 0.000000
# 5 0.000000 0.000000 0.000000 0.000000 0.020759 0.000000
# 6 0.000000 0.000000 0.000000 0.000000 0.000000 0.029751
#
#
# Mechanical properties :
#
#
# Convention : Reuss Voigt Hill
#
# Bulk Modulus (GPa) = 63.69218 64.68874 64.19046
# Shear Modulus (GPa) = 37.42182 38.93725 38.17954
#
# Velocity S-wave (km/s) = 3.99636 4.07648 4.03662
# Velocity P-wave (km/s) = 6.96256 7.05442 7.00864
#
# Compressibility (1/GPa) = 0.01570051
#
# Stress axis : x y z
#
# Youngs Moduli (GPa) = 94.65480 75.24347 121.38723
#
# Poissons Ratio (x) = 0.29519 0.16529
# Poissons Ratio (y) = 0.37134 0.35341
# Poissons Ratio (z) = 0.12889 0.21907
#
# Static dielectric constant tensor:
#      x y z
#    x 4.408990 0.000000 0.000000 
#    y 0.000000 4.296190 0.000000 
#    z 0.000000 0.000000 4.432710 
# 
# 
# High freq. dielectric constant tensor:
#      x y z
#    x 1.944340 0.000000 0.000000 
#    y 0.000000 1.920580 0.000000 
#    z 0.000000 0.000000 1.942830 
# 
# From -- ./inp_files/5693.got.cif
#   From: 2010.03.12/outbox.cif.g09.slc.cpg/sg19_3_cif.got.tgz:5693.got - 2010.04.10 18:59:41.
