data_PCOD8157136
_publ_section_title
;
Structure prediction by ZEFSAII (Michael W. Deem and Ramdas Pophale) SiO2 
 PCOD8157136
Probable space group: P 21 21 21
;
_chemical_formula_sum "Si O2"
_cell_formula_units_Z 32
_cell_length_a 12.079641
_cell_length_b 23.347101
_cell_length_c 5.182521
_cell_angle_alpha 90.000000
_cell_angle_beta 90.000000
_cell_angle_gamma 90.000000
_cell_volume 1461.598404
_symmetry_space_group_name_H-M "P 21 21 21"
_symmetry_group_IT_number 19
_symmetry_cell_setting 'orthorhombic'
loop_
_space_group_symop_operation_xyz
x,y,z
1/2-x,-y,1/2+z
1/2+x,1/2-y,-z
-x,1/2+y,1/2-z
loop_
_atom_site_type_symbol
_atom_site_label
_atom_site_fract_x
_atom_site_fract_y
_atom_site_fract_z
Si Si1 0.873918 0.940446 0.600042
Si Si2 0.486255 0.683003 0.943416
Si Si3 0.522259 0.813963 0.988354
Si Si4 0.835637 0.048575 0.840677
Si Si5 0.267698 0.960925 0.510917
Si Si6 0.573579 0.626343 0.464998
Si Si7 0.023796 0.117361 0.004873
Si Si8 0.247875 0.361259 0.537914
O O1 0.786698 0.972486 0.417571
O O2 0.984050 0.922002 0.453036
O O3 0.906726 0.990269 0.801574
O O4 0.807627 0.884158 0.699291
O O5 0.483101 0.749144 0.015269
O O6 0.563073 0.674281 0.688581
O O7 0.359160 0.663309 0.881237
O O8 0.542666 0.648980 0.180605
O O9 0.455630 0.842665 0.751273
O O10 0.481196 0.844995 0.246506
O O11 0.655668 0.813395 0.930930
O O12 0.815636 0.087189 0.590065
O O13 0.904883 0.086169 0.046204
O O14 0.190776 0.904714 0.537458
O O15 0.388065 0.933515 0.479287
O O16 0.238394 0.999162 0.262791
#
# Coordination Sequence:
#
# PCOD8157136 Si02
#       8
#     4   4   4   4   4   4   4   4
#     4  11  20  35  61  93 126 165 197 258 324 391
#     4  11  24  43  67  95 128 175 220 278 333 382
#     4  11  24  43  67  95 128 175 220 278 333 382
#     4  11  20  35  61  93 126 165 197 258 324 391
#     4  12  26  46  69  96 137 186 222 274 330 396
#     4  11  25  43  65  97 132 168 228 269 322 398
#     4  11  25  43  65  97 132 168 228 269 322 398
#     4  10  22  38  59  92 131 158 210 268 318 390
#
# _framework density 21.893837999999999
#
# number of rings (size 3 to 8) (size 9 to 14) (size 15 to 20)
#    0.000    1.000    3.750    3.000    0.000    5.000 
#    0.000    0.000    0.000    0.000    0.000    0.000 
#    0.000    0.000    0.000    0.000    0.000    0.000 
#
# Total GULP energy -396541.248887 kJ/mol
# GULP energy per Si atom -12391.914028 kJ/mol
# Density = 2.184401 g / cm^3
# Si number density = 21.893838 Si / 1000 Ang^3
#
#
#
# Elastic Constant Matrix: (Units=GPa)
#
#
# Indices 1 2 3 4 5 6 
#
# 1 73.6889 23.5765 13.7658 0.0000 0.0000 0.0000
# 2 23.5765 93.6649 22.4725 0.0000 0.0000 0.0000
# 3 13.7658 22.4725 106.0421 0.0000 0.0000 0.0000
# 4 0.0000 0.0000 0.0000 36.4344 0.0000 0.0000
# 5 0.0000 0.0000 0.0000 0.0000 23.0393 0.0000
# 6 0.0000 0.0000 0.0000 0.0000 0.0000 29.2883
#
#
#
# Elastic Compliance Matrix: (Units=1/GPa)
#
#
# Indices 1 2 3 4 5 6 
#
# 1 0.014903 -0.003463 -0.001201 0.000000 0.000000 0.000000
# 2 -0.003463 0.012053 -0.002105 0.000000 0.000000 0.000000
# 3 -0.001201 -0.002105 0.010032 0.000000 0.000000 0.000000
# 4 0.000000 0.000000 0.000000 0.027447 0.000000 0.000000
# 5 0.000000 0.000000 0.000000 0.000000 0.043404 0.000000
# 6 0.000000 0.000000 0.000000 0.000000 0.000000 0.034143
#
#
# Mechanical properties :
#
#
# Convention : Reuss Voigt Hill
#
# Bulk Modulus (GPa) = 42.64226 43.66950 43.15588
# Shear Modulus (GPa) = 30.61173 31.99115 31.30144
#
# Velocity S-wave (km/s) = 3.74329 3.82670 3.78523
# Velocity P-wave (km/s) = 6.18079 6.28603 6.23363
#
# Compressibility (1/GPa) = 0.02345092
#
# Stress axis : x y z
#
# Youngs Moduli (GPa) = 67.10114 82.96661 99.67986
#
# Poissons Ratio (x) = 0.28732 0.11969
# Poissons Ratio (y) = 0.23238 0.20980
# Poissons Ratio (z) = 0.08057 0.17462
#
# Static dielectric constant tensor:
#      x y z
#    x 4.200770 0.000000 0.000000 
#    y 0.000000 3.989920 0.000000 
#    z 0.000000 0.000000 3.851460 
# 
# 
# High freq. dielectric constant tensor:
#      x y z
#    x 1.861230 0.000000 0.000000 
#    y 0.000000 1.861570 0.000000 
#    z 0.000000 0.000000 1.860900 
# 
# From -- ./inp_files/1215.got.cif
#   From: 2010.03.12/outbox.cif.g09.slc.cpg/sg19_1_cif.got.tgz:1215.got - 2010.04.10 18:59:41.
