data_PCOD8157035
_publ_section_title
;
Structure prediction by ZEFSAII (Michael W. Deem and Ramdas Pophale) SiO2 
 PCOD8157035
Probable space group: P 21 21 21
;
_chemical_formula_sum "Si O2"
_cell_formula_units_Z 32
_cell_length_a 8.718278
_cell_length_b 7.315759
_cell_length_c 23.457873
_cell_angle_alpha 90.000000
_cell_angle_beta 90.000000
_cell_angle_gamma 90.000000
_cell_volume 1496.162393
_symmetry_space_group_name_H-M "P 21 21 21"
_symmetry_group_IT_number 19
_symmetry_cell_setting 'orthorhombic'
loop_
_space_group_symop_operation_xyz
x,y,z
1/2-x,-y,1/2+z
1/2+x,1/2-y,-z
-x,1/2+y,1/2-z
loop_
_atom_site_type_symbol
_atom_site_label
_atom_site_fract_x
_atom_site_fract_y
_atom_site_fract_z
Si Si1 0.236307 0.334781 0.043427
Si Si2 0.825479 0.253080 0.570975
Si Si3 0.413897 0.975713 0.613284
Si Si4 0.159663 0.989769 0.698556
Si Si5 0.268491 0.348867 0.914830
Si Si6 0.463971 0.151487 0.309316
Si Si7 0.516740 0.817492 0.368169
Si Si8 0.515927 0.818005 0.959107
O O1 0.181010 0.143074 0.068423
O O2 0.385332 0.394634 0.078960
O O3 0.104106 0.489314 0.047216
O O4 0.299871 0.296105 0.980383
O O5 0.666616 0.343558 0.548760
O O6 0.878754 0.341912 0.629897
O O7 0.951821 0.273980 0.520778
O O8 0.816224 0.040973 0.584783
O O9 0.333978 0.994239 0.675380
O O10 0.575929 0.872119 0.621489
O O11 0.428080 0.180413 0.589862
O O12 0.060845 0.885560 0.651116
O O13 0.156562 0.876016 0.757663
O O14 0.086595 0.191477 0.704176
O O15 0.162393 0.194203 0.886339
O O16 0.549041 0.955501 0.315383
#
# Coordination Sequence:
#
# PCOD8157035 Si02
#       8
#     4   4   4   4   4   4   4   4
#     4  10  22  37  61  96 131 171 212 254 320 403
#     4  10  24  38  67  92 138 169 218 269 334 407
#     4  10  23  39  63  90 134 169 217 267 329 378
#     4  11  24  45  66  92 121 170 227 278 313 401
#     4  10  21  40  58  98 135 166 208 265 324 398
#     4  12  24  43  68  93 123 174 224 274 333 381
#     4  11  23  39  67  91 126 172 214 264 324 384
#     4  10  23  41  60 102 134 173 212 271 333 400
#
# _framework density 21.388054
#
# number of rings (size 3 to 8) (size 9 to 14) (size 15 to 20)
#    0.000    1.500    2.500    1.500   10.500    1.000 
#    0.000    2.500    0.000    0.000    0.000    0.000 
#    0.000    0.000    0.000    0.000    0.000    0.000 
#
# Total GULP energy -396617.515515 kJ/mol
# GULP energy per Si atom -12394.297360 kJ/mol
# Density = 2.133937 g / cm^3
# Si number density = 21.388054 Si / 1000 Ang^3
#
#
#
# Elastic Constant Matrix: (Units=GPa)
#
#
# Indices 1 2 3 4 5 6 
#
# 1 102.1011 10.8645 38.9272 0.0000 0.0000 0.0000
# 2 10.8645 65.1725 7.0093 0.0000 0.0000 0.0000
# 3 38.9272 7.0093 89.7765 0.0000 0.0000 0.0000
# 4 0.0000 0.0000 0.0000 31.1541 0.0000 0.0000
# 5 0.0000 0.0000 0.0000 0.0000 30.1420 0.0000
# 6 0.0000 0.0000 0.0000 0.0000 0.0000 25.5698
#
#
#
# Elastic Compliance Matrix: (Units=1/GPa)
#
#
# Indices 1 2 3 4 5 6 
#
# 1 0.011866 -0.001437 -0.005033 0.000000 0.000000 0.000000
# 2 -0.001437 0.015648 -0.000599 0.000000 0.000000 0.000000
# 3 -0.005033 -0.000599 0.013368 0.000000 0.000000 0.000000
# 4 0.000000 0.000000 0.000000 0.032099 0.000000 0.000000
# 5 0.000000 0.000000 0.000000 0.000000 0.033176 0.000000
# 6 0.000000 0.000000 0.000000 0.000000 0.000000 0.039109
#
#
# Mechanical properties :
#
#
# Convention : Reuss Voigt Hill
#
# Bulk Modulus (GPa) = 37.39057 41.18356 39.28707
# Shear Modulus (GPa) = 29.70589 30.72312 30.21451
#
# Velocity S-wave (km/s) = 3.73084 3.79418 3.76264
# Velocity P-wave (km/s) = 6.00657 6.20416 6.10616
#
# Compressibility (1/GPa) = 0.02674471
#
# Stress axis : x y z
#
# Youngs Moduli (GPa) = 84.27466 63.90674 74.80662
#
# Poissons Ratio (x) = 0.09182 0.37650
# Poissons Ratio (y) = 0.12109 0.04479
# Poissons Ratio (z) = 0.42415 0.03826
#
# Static dielectric constant tensor:
#      x y z
#    x 3.808400 0.000000 0.000000 
#    y 0.000000 4.087000 0.000000 
#    z 0.000000 0.000000 3.817500 
# 
# 
# High freq. dielectric constant tensor:
#      x y z
#    x 1.826500 0.000000 0.000000 
#    y 0.000000 1.857660 0.000000 
#    z 0.000000 0.000000 1.828940 
# 
# From -- ./inp_files/7357.got.cif
#   From: 2010.03.12/outbox.cif.g09.slc.cpg/sg19_4_cif.got.tgz:7357.got - 2010.04.10 18:59:41.
