data_PCOD8157730
_publ_section_title
;
Structure prediction by ZEFSAII (Michael W. Deem and Ramdas Pophale) SiO2 
 PCOD8157730
Probable space group: P 21 21 21
;
_chemical_formula_sum "Si O2"
_cell_formula_units_Z 20
_cell_length_a 16.766788
_cell_length_b 4.994763
_cell_length_c 8.716770
_cell_angle_alpha 90.000000
_cell_angle_beta 90.000000
_cell_angle_gamma 90.000000
_cell_volume 729.995774
_symmetry_space_group_name_H-M "P 21 21 21"
_symmetry_group_IT_number 19
_symmetry_cell_setting 'orthorhombic'
loop_
_space_group_symop_operation_xyz
x,y,z
1/2-x,-y,1/2+z
1/2+x,1/2-y,-z
-x,1/2+y,1/2-z
loop_
_atom_site_type_symbol
_atom_site_label
_atom_site_fract_x
_atom_site_fract_y
_atom_site_fract_z
Si Si1 0.295761 0.831266 0.430319
Si Si2 0.689340 0.920605 0.809021
Si Si3 0.551296 0.621207 0.737233
Si Si4 0.344328 0.806161 0.963881
Si Si5 0.554443 0.279200 0.248018
O O1 0.260392 0.751304 0.264516
O O2 0.276462 0.596672 0.551954
O O3 0.249362 0.100727 0.490423
O O4 0.390212 0.866661 0.398135
O O5 0.649920 0.104375 0.677311
O O6 0.615879 0.727734 0.864257
O O7 0.512891 0.349771 0.802156
O O8 0.603716 0.567471 0.584158
O O9 0.387733 0.688202 0.112739
O O10 0.498656 0.525056 0.297524
#
# Coordination Sequence:
#
# PCOD8157730 Si02
#       5
#     4   4   4   4   4
#     4  11  27  49  79 115 157 217 270 333 405 491
#     4  11  25  47  79 111 155 208 274 328 394 495
#     4  11  24  43  72 113 145 192 251 325 392 466
#     4  11  26  49  80 110 159 205 273 322 402 489
#     4  12  32  52  78 121 168 210 268 346 419 477
#
# _framework density 27.397421000000001
#
# number of rings (size 3 to 8) (size 9 to 14) (size 15 to 20)
#    0.000    0.800    2.000    2.400   14.000    3.200 
#    0.000    0.000    0.000    0.000    0.000    0.000 
#    0.000    0.000    0.000    0.000    0.000    0.000 
#
# Total GULP energy -247974.206983 kJ/mol
# GULP energy per Si atom -12398.710349 kJ/mol
# Density = 2.733506 g / cm^3
# Si number density = 27.397421 Si / 1000 Ang^3
#
#
#
# Elastic Constant Matrix: (Units=GPa)
#
#
# Indices 1 2 3 4 5 6 
#
# 1 135.5711 14.9398 22.5404 0.0000 0.0000 0.0000
# 2 14.9398 81.6404 -11.0442 0.0000 0.0000 0.0000
# 3 22.5404 -11.0442 63.6774 0.0000 0.0000 0.0000
# 4 0.0000 0.0000 0.0000 31.2562 0.0000 0.0000
# 5 0.0000 0.0000 0.0000 0.0000 39.3479 0.0000
# 6 0.0000 0.0000 0.0000 0.0000 0.0000 49.4635
#
#
#
# Elastic Compliance Matrix: (Units=1/GPa)
#
#
# Indices 1 2 3 4 5 6 
#
# 1 0.008121 -0.001920 -0.003208 0.000000 0.000000 0.000000
# 2 -0.001920 0.012997 0.002934 0.000000 0.000000 0.000000
# 3 -0.003208 0.002934 0.017348 0.000000 0.000000 0.000000
# 4 0.000000 0.000000 0.000000 0.031994 0.000000 0.000000
# 5 0.000000 0.000000 0.000000 0.000000 0.025414 0.000000
# 6 0.000000 0.000000 0.000000 0.000000 0.000000 0.020217
#
#
# Mechanical properties :
#
#
# Convention : Reuss Voigt Hill
#
# Bulk Modulus (GPa) = 29.34369 37.08454 33.21411
# Shear Modulus (GPa) = 37.92504 40.97704 39.45104
#
# Velocity S-wave (km/s) = 3.72460 3.87156 3.79879
# Velocity P-wave (km/s) = 5.40652 5.79228 5.60272
#
# Compressibility (1/GPa) = 0.03407888
#
# Stress axis : x y z
#
# Youngs Moduli (GPa) = 123.13580 76.94029 57.64197
#
# Poissons Ratio (x) = 0.14773 0.18490
# Poissons Ratio (y) = 0.23643 -0.16911
# Poissons Ratio (z) = 0.39498 -0.22573
#
# Static dielectric constant tensor:
#      x y z
#    x 5.445910 0.000000 0.000000 
#    y 0.000000 5.008400 0.000000 
#    z 0.000000 0.000000 4.671610 
# 
# 
# High freq. dielectric constant tensor:
#      x y z
#    x 2.134500 0.000000 0.000000 
#    y 0.000000 2.109120 0.000000 
#    z 0.000000 0.000000 2.093140 
# 
# From -- ./inp_files/4081.got.cif
#   From: 2010.03.12/outbox.cif.g09.slc.cpg/sg19_3_cif.got.tgz:4081.got - 2010.04.10 18:59:41.
