data_PCOD8157989
_publ_section_title
;
Structure prediction by ZEFSAII (Michael W. Deem and Ramdas Pophale) SiO2 
 PCOD8157989
Probable space group: C 2 2 21
;
_chemical_formula_sum "Si O2"
_cell_formula_units_Z 56
_cell_length_a 17.036698
_cell_length_b 20.098643
_cell_length_c 9.067991
_cell_angle_alpha 90.000000
_cell_angle_beta 90.000000
_cell_angle_gamma 90.000000
_cell_volume 3105.011704
_symmetry_space_group_name_H-M "C 2 2 21"
_symmetry_group_IT_number 20
_symmetry_cell_setting 'orthorhombic'
loop_
_space_group_symop_operation_xyz
x,y,z
-x,-y,1/2+z
x,-y,-z
-x,y,1/2-z
1/2+x,1/2+y,z
1/2-x,1/2-y,1/2+z
1/2+x,1/2-y,-z
1/2-x,1/2+y,1/2-z
loop_
_atom_site_type_symbol
_atom_site_label
_atom_site_fract_x
_atom_site_fract_y
_atom_site_fract_z
Si Si1 0.142114 0.705033 0.080571
Si Si2 0.655208 0.806120 0.594355
Si Si3 0.984009 0.732734 0.909148
Si Si4 0.780256 0.842954 0.087387
Si Si5 0.919522 0.929140 0.561584
Si Si6 0.081371 0.881610 0.607542
Si Si7 0.291906 0.654493 0.587810
O O1 0.129373 0.671454 0.241042
O O2 0.199495 0.766862 0.106017
O O3 0.192008 0.654611 0.978390
O O4 0.062306 0.730551 0.007036
O O5 0.579635 0.812429 0.490537
O O6 0.684883 0.730695 0.597539
O O7 0.720717 0.856595 0.528333
O O8 0.950399 0.806406 0.878156
O O9 0.000000 0.699957 0.750000
O O10 0.773854 0.875373 0.250163
O O11 0.839084 0.886737 0.986667
O O12 0.902658 0.915568 0.734094
O O13 0.872603 0.874599 0.470684
O O14 0.012104 0.922182 0.525948
O O15 0.890395 0.000000 0.500000
#
# Coordination Sequence:
#
# PCOD8157989 Si02
#       7
#     8   8   8   8   8   8   8
#     4  10  17  30  47  73 101 130 163 194 251 321
#     4   9  19  28  46  72 100 130 162 197 250 317
#     4  11  17  29  49  71 102 134 163 197 254 312
#     4   9  19  29  50  70  95 131 162 201 256 314
#     4  11  22  35  52  69  94 140 186 221 255 293
#     4  10  20  36  47  68  98 134 169 220 263 290
#     4  10  18  33  46  69  97 128 168 212 252 295
#
# _framework density 18.035357999999999
#
# number of rings (size 3 to 8) (size 9 to 14) (size 15 to 20)
#    0.000    2.000    2.857    2.143    0.000    7.429 
#    0.000    0.000    0.000    0.000    0.000    0.000 
#    0.000   14.857    0.000    0.000    0.000    0.286 
#
# Total GULP energy -347013.493890 kJ/mol
# GULP energy per Si atom -12393.339067 kJ/mol
# Density = 1.799431 g / cm^3
# Si number density = 18.035358 Si / 1000 Ang^3
#
#
#
# Elastic Constant Matrix: (Units=GPa)
#
#
# Indices 1 2 3 4 5 6 
#
# 1 82.6296 19.4483 60.6582 0.0000 0.0000 0.0000
# 2 19.4483 26.7431 28.4416 0.0000 0.0000 0.0000
# 3 60.6582 28.4416 159.9259 0.0000 0.0000 0.0000
# 4 0.0000 0.0000 0.0000 17.0819 0.0000 0.0000
# 5 0.0000 0.0000 0.0000 0.0000 36.3989 0.0000
# 6 0.0000 0.0000 0.0000 0.0000 0.0000 9.4417
#
#
#
# Elastic Compliance Matrix: (Units=1/GPa)
#
#
# Indices 1 2 3 4 5 6 
#
# 1 0.017805 -0.007111 -0.005489 0.000000 0.000000 0.000000
# 2 -0.007111 0.048955 -0.006009 0.000000 0.000000 0.000000
# 3 -0.005489 -0.006009 0.009403 0.000000 0.000000 0.000000
# 4 0.000000 0.000000 0.000000 0.058541 0.000000 0.000000
# 5 0.000000 0.000000 0.000000 0.000000 0.027473 0.000000
# 6 0.000000 0.000000 0.000000 0.000000 0.000000 0.105913
#
#
# Mechanical properties :
#
#
# Convention : Reuss Voigt Hill
#
# Bulk Modulus (GPa) = 25.67674 54.04386 39.86030
# Shear Modulus (GPa) = 15.70890 23.30120 19.50505
#
# Velocity S-wave (km/s) = 2.95448 3.59830 3.29217
# Velocity P-wave (km/s) = 5.08983 6.87708 6.04982
#
# Compressibility (1/GPa) = 0.03894576
#
# Stress axis : x y z
#
# Youngs Moduli (GPa) = 56.16363 20.42691 106.34514
#
# Poissons Ratio (x) = 0.14526 0.58369
# Poissons Ratio (y) = 0.39939 0.63904
# Poissons Ratio (z) = 0.30826 0.12275
#
# Static dielectric constant tensor:
#      x y z
#    x 3.386080 0.000000 0.000000 
#    y 0.000000 2.707150 0.000000 
#    z 0.000000 0.000000 3.687250 
# 
# 
# High freq. dielectric constant tensor:
#      x y z
#    x 1.701690 0.000000 0.000000 
#    y 0.000000 1.616140 0.000000 
#    z 0.000000 0.000000 1.721540 
# 
# From -- ./inp_files/8745.got.cif
#   From: 2010.03.12/outbox.cif.g09.slc.cpg/sg20_5_cif.got.tgz:8745.got - 2010.04.14 01:38:04.
