data_PCOD8157078
_publ_section_title
;
Structure prediction by ZEFSAII (Michael W. Deem and Ramdas Pophale) SiO2 
 PCOD8157078
Probable space group: P 21 21 21
;
_chemical_formula_sum "Si O2"
_cell_formula_units_Z 32
_cell_length_a 6.871464
_cell_length_b 10.270788
_cell_length_c 21.808069
_cell_angle_alpha 90.000000
_cell_angle_beta 90.000000
_cell_angle_gamma 90.000000
_cell_volume 1539.112102
_symmetry_space_group_name_H-M "P 21 21 21"
_symmetry_group_IT_number 19
_symmetry_cell_setting 'orthorhombic'
loop_
_space_group_symop_operation_xyz
x,y,z
1/2-x,-y,1/2+z
1/2+x,1/2-y,-z
-x,1/2+y,1/2-z
loop_
_atom_site_type_symbol
_atom_site_label
_atom_site_fract_x
_atom_site_fract_y
_atom_site_fract_z
Si Si1 0.262423 0.462240 0.844023
Si Si2 0.993448 0.984475 0.761868
Si Si3 0.272995 0.163247 0.823826
Si Si4 0.762552 0.062102 0.522053
Si Si5 0.980347 0.516452 0.083257
Si Si6 0.795994 0.810618 0.855132
Si Si7 0.096484 0.844101 0.962846
Si Si8 0.156285 0.940466 0.200109
O O1 0.152980 0.542071 0.789989
O O2 0.216840 0.309898 0.839664
O O3 0.193376 0.514071 0.909808
O O4 0.489101 0.483467 0.834106
O O5 0.888193 0.860364 0.791139
O O6 0.063200 0.088610 0.813909
O O7 0.188028 0.949456 0.722221
O O8 0.399988 0.145380 0.761023
O O9 0.400869 0.107608 0.879841
O O10 0.528759 0.068793 0.511022
O O11 0.851337 0.205015 0.507990
O O12 0.874800 0.971182 0.472120
O O13 0.795781 0.588037 0.054639
O O14 0.099199 0.610032 0.129557
O O15 0.746255 0.659183 0.849220
O O16 0.963257 0.825921 0.904144
#
# Coordination Sequence:
#
# PCOD8157078 Si02
#       8
#     4   4   4   4   4   4   4   4
#     4  12  24  46  63 102 137 172 231 272 346 413
#     4  10  21  42  64 100 134 168 219 265 343 413
#     4  10  24  44  64  98 134 176 211 273 345 411
#     4  11  25  38  69  94 128 177 225 284 326 399
#     4  11  23  44  65  93 134 175 226 277 337 391
#     4  11  21  40  69  98 126 174 218 275 341 389
#     4  11  21  41  66  96 127 166 233 283 329 391
#     4  10  23  39  68  99 132 170 211 283 335 407
#
# _framework density 20.791208999999998
#
# number of rings (size 3 to 8) (size 9 to 14) (size 15 to 20)
#    0.750    0.500    3.750    2.250    1.750    1.000 
#   15.750    0.000    0.000    0.000    0.000    0.000 
#    0.000    0.000    0.000    0.000    0.000    0.000 
#
# Total GULP energy -396521.973889 kJ/mol
# GULP energy per Si atom -12391.311684 kJ/mol
# Density = 2.074389 g / cm^3
# Si number density = 20.791209 Si / 1000 Ang^3
#
#
#
# Elastic Constant Matrix: (Units=GPa)
#
#
# Indices 1 2 3 4 5 6 
#
# 1 119.2154 32.3179 34.2597 0.0000 0.0000 0.0000
# 2 32.3179 57.1225 12.8561 0.0000 0.0000 0.0000
# 3 34.2597 12.8561 86.7932 0.0000 0.0000 0.0000
# 4 0.0000 0.0000 0.0000 29.5468 0.0000 0.0000
# 5 0.0000 0.0000 0.0000 0.0000 38.2147 0.0000
# 6 0.0000 0.0000 0.0000 0.0000 0.0000 21.9587
#
#
#
# Elastic Compliance Matrix: (Units=1/GPa)
#
#
# Indices 1 2 3 4 5 6 
#
# 1 0.010840 -0.005348 -0.003487 0.000000 0.000000 0.000000
# 2 -0.005348 0.020749 -0.000962 0.000000 0.000000 0.000000
# 3 -0.003487 -0.000962 0.013040 0.000000 0.000000 0.000000
# 4 0.000000 0.000000 0.000000 0.033845 0.000000 0.000000
# 5 0.000000 0.000000 0.000000 0.000000 0.026168 0.000000
# 6 0.000000 0.000000 0.000000 0.000000 0.000000 0.045540
#
#
# Mechanical properties :
#
#
# Convention : Reuss Voigt Hill
#
# Bulk Modulus (GPa) = 39.94432 46.88872 43.41652
# Shear Modulus (GPa) = 28.07086 30.19055 29.13070
#
# Velocity S-wave (km/s) = 3.67840 3.81475 3.74720
# Velocity P-wave (km/s) = 6.10693 6.48107 6.29678
#
# Compressibility (1/GPa) = 0.02503485
#
# Stress axis : x y z
#
# Youngs Moduli (GPa) = 92.25109 48.19599 76.68446
#
# Poissons Ratio (x) = 0.25776 0.26737
# Poissons Ratio (y) = 0.49337 0.07379
# Poissons Ratio (z) = 0.32165 0.04638
#
# Static dielectric constant tensor:
#      x y z
#    x 3.976000 0.000000 0.000000 
#    y 0.000000 3.397540 0.000000 
#    z 0.000000 0.000000 3.956490 
# 
# 
# High freq. dielectric constant tensor:
#      x y z
#    x 1.823620 0.000000 0.000000 
#    y 0.000000 1.771970 0.000000 
#    z 0.000000 0.000000 1.827280 
# 
# From -- ./inp_files/7294.got.cif
#   From: 2010.03.12/outbox.cif.g09.slc.cpg/sg19_4_cif.got.tgz:7294.got - 2010.04.10 18:59:41.
