data_PCOD8157461
_publ_section_title
;
Structure prediction by ZEFSAII (Michael W. Deem and Ramdas Pophale) SiO2 
 PCOD8157461
Probable space group: P 21 21 21
;
_chemical_formula_sum "Si O2"
_cell_formula_units_Z 20
_cell_length_a 10.202559
_cell_length_b 11.666397
_cell_length_c 7.330362
_cell_angle_alpha 90.000000
_cell_angle_beta 90.000000
_cell_angle_gamma 90.000000
_cell_volume 872.511758
_symmetry_space_group_name_H-M "P 21 21 21"
_symmetry_group_IT_number 19
_symmetry_cell_setting 'orthorhombic'
loop_
_space_group_symop_operation_xyz
x,y,z
1/2-x,-y,1/2+z
1/2+x,1/2-y,-z
-x,1/2+y,1/2-z
loop_
_atom_site_type_symbol
_atom_site_label
_atom_site_fract_x
_atom_site_fract_y
_atom_site_fract_z
Si Si1 0.658630 0.080496 0.933256
Si Si2 0.380986 0.026998 0.881199
Si Si3 0.895518 0.523457 0.500719
Si Si4 0.143123 0.383489 0.489014
Si Si5 0.703586 0.278686 0.207251
O O1 0.511693 0.044828 0.001364
O O2 0.651568 0.131811 0.728358
O O3 0.747626 0.968796 0.933798
O O4 0.719382 0.171606 0.071171
O O5 0.257054 0.976109 0.993226
O O6 0.340759 0.151911 0.794684
O O7 0.418266 0.943587 0.711784
O O8 0.910188 0.635898 0.628263
O O9 0.001339 0.428651 0.557730
O O10 0.165758 0.261638 0.588954
#
# Coordination Sequence:
#
# PCOD8157461 Si02
#       5
#     4   4   4   4   4
#     4  11  23  41  67  97 137 171 228 275 333 400
#     4   9  23  42  64  96 134 174 223 276 326 405
#     4   9  23  43  66  96 135 171 231 265 334 402
#     4  11  23  44  67 102 132 179 226 279 327 410
#     4  10  24  42  68  95 138 179 218 271 350 379
#
# _framework density 22.922329000000001
#
# number of rings (size 3 to 8) (size 9 to 14) (size 15 to 20)
#    1.200    0.800    2.000    0.000    5.600    1.600 
#    7.200    0.000    0.000    0.000    0.000    0.000 
#    0.000    0.000    0.000    0.000    0.000    0.000 
#
# Total GULP energy -247825.729171 kJ/mol
# GULP energy per Si atom -12391.286459 kJ/mol
# Density = 2.287016 g / cm^3
# Si number density = 22.922329 Si / 1000 Ang^3
#
#
#
# Elastic Constant Matrix: (Units=GPa)
#
#
# Indices 1 2 3 4 5 6 
#
# 1 121.0660 12.0744 5.7852 0.0000 0.0000 0.0000
# 2 12.0744 23.1526 -7.3019 0.0000 0.0000 0.0000
# 3 5.7852 -7.3019 71.7993 0.0000 0.0000 0.0000
# 4 0.0000 0.0000 0.0000 41.6855 0.0000 0.0000
# 5 0.0000 0.0000 0.0000 0.0000 23.9279 0.0000
# 6 0.0000 0.0000 0.0000 0.0000 0.0000 21.6307
#
#
#
# Elastic Compliance Matrix: (Units=1/GPa)
#
#
# Indices 1 2 3 4 5 6 
#
# 1 0.008815 -0.004981 -0.001217 0.000000 0.000000 0.000000
# 2 -0.004981 0.047437 0.005226 0.000000 0.000000 0.000000
# 3 -0.001217 0.005226 0.014557 0.000000 0.000000 0.000000
# 4 0.000000 0.000000 0.000000 0.023989 0.000000 0.000000
# 5 0.000000 0.000000 0.000000 0.000000 0.041792 0.000000
# 6 0.000000 0.000000 0.000000 0.000000 0.000000 0.046231
#
#
# Mechanical properties :
#
#
# Convention : Reuss Voigt Hill
#
# Bulk Modulus (GPa) = 14.52111 26.34816 20.43463
# Shear Modulus (GPa) = 24.07084 31.14618 27.60851
#
# Velocity S-wave (km/s) = 3.24405 3.69015 3.47427
# Velocity P-wave (km/s) = 4.51447 5.44755 5.00281
#
# Compressibility (1/GPa) = 0.06886527
#
# Stress axis : x y z
#
# Youngs Moduli (GPa) = 113.44488 21.08049 68.69464
#
# Poissons Ratio (x) = 0.10500 0.08359
# Poissons Ratio (y) = 0.56505 -0.35897
# Poissons Ratio (z) = 0.13804 -0.11016
#
# Static dielectric constant tensor:
#      x y z
#    x 4.099930 0.000000 0.000000 
#    y 0.000000 3.820390 0.000000 
#    z 0.000000 0.000000 3.996400 
# 
# 
# High freq. dielectric constant tensor:
#      x y z
#    x 1.902770 0.000000 0.000000 
#    y 0.000000 1.879640 0.000000 
#    z 0.000000 0.000000 1.910220 
# 
# From -- ./inp_files/3333.got.cif
#   From: 2010.03.12/outbox.cif.g09.slc.cpg/sg19_2_cif.got.tgz:3333.got - 2010.04.10 18:59:41.
