data_PCOD8157933
_publ_section_title
;
Structure prediction by ZEFSAII (Michael W. Deem and Ramdas Pophale) SiO2 
 PCOD8157933
Probable space group: P 21 21 21
;
_chemical_formula_sum "Si O2"
_cell_formula_units_Z 16
_cell_length_a 5.039716
_cell_length_b 5.016398
_cell_length_c 24.049101
_cell_angle_alpha 90.000000
_cell_angle_beta 90.000000
_cell_angle_gamma 90.000000
_cell_volume 607.990644
_symmetry_space_group_name_H-M "P 21 21 21"
_symmetry_group_IT_number 19
_symmetry_cell_setting 'orthorhombic'
loop_
_space_group_symop_operation_xyz
x,y,z
1/2-x,-y,1/2+z
1/2+x,1/2-y,-z
-x,1/2+y,1/2-z
loop_
_atom_site_type_symbol
_atom_site_label
_atom_site_fract_x
_atom_site_fract_y
_atom_site_fract_z
Si Si1 0.147736 0.242168 0.036345
Si Si2 0.922928 0.251271 0.391273
Si Si3 0.264917 0.612022 0.696343
Si Si4 0.785071 0.946853 0.681495
O O1 0.035099 0.482367 0.073728
O O2 0.215434 0.980350 0.072484
O O3 0.417774 0.334856 0.007098
O O4 0.208588 0.356420 0.369144
O O5 0.751296 0.175605 0.335441
O O6 0.560627 0.722074 0.689535
O O7 0.183548 0.604046 0.760561
O O8 0.060288 0.807234 0.664999
#
# Coordination Sequence:
#
# PCOD8157933 Si02
#       4
#     4   4   4   4
#     4  12  30  53  80 114 154 205 278 344 394 466
#     4  12  28  53  84 114 160 215 264 328 416 468
#     4  12  27  47  77 121 167 213 261 321 396 494
#     4  12  27  47  77 121 167 213 261 321 396 494
#
# _framework density 26.316193999999999
#
# number of rings (size 3 to 8) (size 9 to 14) (size 15 to 20)
#    0.000    0.000    5.000    3.000    3.500    4.000 
#    0.000    0.000    0.000    0.000    0.000    0.000 
#    0.000    0.000    0.000    0.000    0.000    0.000 
#
# Total GULP energy -198495.128188 kJ/mol
# GULP energy per Si atom -12405.945512 kJ/mol
# Density = 2.625630 g / cm^3
# Si number density = 26.316194 Si / 1000 Ang^3
#
#
#
# Elastic Constant Matrix: (Units=GPa)
#
#
# Indices 1 2 3 4 5 6 
#
# 1 69.6387 -2.3050 0.8063 0.0000 0.0000 0.0000
# 2 -2.3050 137.2156 28.1270 0.0000 0.0000 0.0000
# 3 0.8063 28.1270 94.9872 0.0000 0.0000 0.0000
# 4 0.0000 0.0000 0.0000 53.1911 0.0000 0.0000
# 5 0.0000 0.0000 0.0000 0.0000 31.0793 0.0000
# 6 0.0000 0.0000 0.0000 0.0000 0.0000 40.5014
#
#
#
# Elastic Compliance Matrix: (Units=1/GPa)
#
#
# Indices 1 2 3 4 5 6 
#
# 1 0.014372 0.000284 -0.000206 0.000000 0.000000 0.000000
# 2 0.000284 0.007764 -0.002302 0.000000 0.000000 0.000000
# 3 -0.000206 -0.002302 0.011211 0.000000 0.000000 0.000000
# 4 0.000000 0.000000 0.000000 0.018800 0.000000 0.000000
# 5 0.000000 0.000000 0.000000 0.000000 0.032176 0.000000
# 6 0.000000 0.000000 0.000000 0.000000 0.000000 0.024690
#
#
# Mechanical properties :
#
#
# Convention : Reuss Voigt Hill
#
# Bulk Modulus (GPa) = 34.60306 39.45536 37.02921
# Shear Modulus (GPa) = 40.61932 43.30191 41.96061
#
# Velocity S-wave (km/s) = 3.93302 4.06081 3.99742
# Velocity P-wave (km/s) = 5.81398 6.08377 5.95040
#
# Compressibility (1/GPa) = 0.02889917
#
# Stress axis : x y z
#
# Youngs Moduli (GPa) = 69.58170 128.79392 89.19817
#
# Poissons Ratio (x) = -0.03653 0.01837
# Poissons Ratio (y) = -0.01974 0.20529
# Poissons Ratio (z) = 0.01433 0.29642
#
# Static dielectric constant tensor:
#      x y z
#    x 4.454210 0.000000 0.000000 
#    y 0.000000 4.868020 0.000000 
#    z 0.000000 0.000000 5.085750 
# 
# 
# High freq. dielectric constant tensor:
#      x y z
#    x 2.047600 0.000000 0.000000 
#    y 0.000000 2.069370 0.000000 
#    z 0.000000 0.000000 2.066170 
# 
# From -- ./inp_files/6862.got.cif
#   From: 2010.03.12/outbox.cif.g09.slc.cpg/sg19_4_cif.got.tgz:6862.got - 2010.04.10 18:59:41.
