data_PCOD8157327
_publ_section_title
;
Structure prediction by ZEFSAII (Michael W. Deem and Ramdas Pophale) SiO2 
 PCOD8157327
Probable space group: P 21 21 21
;
_chemical_formula_sum "Si O2"
_cell_formula_units_Z 32
_cell_length_a 9.004168
_cell_length_b 13.307986
_cell_length_c 13.308139
_cell_angle_alpha 90.000000
_cell_angle_beta 90.000000
_cell_angle_gamma 90.000000
_cell_volume 1594.678919
_symmetry_space_group_name_H-M "P 21 21 21"
_symmetry_group_IT_number 19
_symmetry_cell_setting 'orthorhombic'
loop_
_space_group_symop_operation_xyz
x,y,z
1/2-x,-y,1/2+z
1/2+x,1/2-y,-z
-x,1/2+y,1/2-z
loop_
_atom_site_type_symbol
_atom_site_label
_atom_site_fract_x
_atom_site_fract_y
_atom_site_fract_z
Si Si1 0.475174 0.743421 0.892324
Si Si2 0.306380 0.946911 0.887006
Si Si3 0.945908 0.368127 0.738353
Si Si4 0.195911 0.011643 0.618127
Si Si5 0.443619 0.362995 0.303096
Si Si6 0.774399 0.977984 0.804348
Si Si7 0.475602 0.054350 0.727984
Si Si8 0.725176 0.857678 0.993419
O O1 0.395228 0.845408 0.858324
O O2 0.486686 0.671165 0.794683
O O3 0.636533 0.768163 0.937371
O O4 0.386534 0.687371 0.981839
O O5 0.136714 0.928294 0.852587
O O6 0.377909 0.041506 0.828604
O O7 0.326791 0.975194 0.001244
O O8 0.874998 0.406322 0.843674
O O9 0.923202 0.251245 0.725182
O O10 0.122867 0.387344 0.736898
O O11 0.372869 0.013101 0.637346
O O12 0.113285 0.102587 0.678287
O O13 0.372094 0.421396 0.208499
O O14 0.354769 0.391682 0.404596
O O15 0.736690 0.955319 0.921162
O O16 0.625000 0.988204 0.738205
#
# Coordination Sequence:
#
# PCOD8157327 Si02
#       8
#     4   4   4   4   4   4   4   4
#     4  12  23  37  67  96 127 169 218 270 314 384
#     4  11  21  41  61  94 131 165 214 265 326 381
#     4  10  23  37  63  89 129 170 211 268 324 386
#     4  10  23  37  63  89 129 170 211 268 324 386
#     4  11  21  41  61  94 131 165 214 265 326 381
#     4  11  23  38  60  97 132 163 211 271 322 380
#     4  11  23  38  60  97 132 163 211 271 322 380
#     4  12  23  37  67  96 127 169 218 270 314 384
#
# _framework density 20.066735000000001
#
# number of rings (size 3 to 8) (size 9 to 14) (size 15 to 20)
#    0.000    1.000    5.000    1.500    3.500    0.000 
#    0.000    0.000    5.500    4.500    0.000    0.000 
#    0.000    0.000    0.000    0.000    0.000    0.000 
#
# Total GULP energy -396666.964902 kJ/mol
# GULP energy per Si atom -12395.842653 kJ/mol
# Density = 2.002106 g / cm^3
# Si number density = 20.066735 Si / 1000 Ang^3
#
#
#
# Elastic Constant Matrix: (Units=GPa)
#
#
# Indices 1 2 3 4 5 6 
#
# 1 115.7780 46.8051 46.8126 0.0000 0.0000 0.0000
# 2 46.8051 100.4821 89.3730 0.0000 0.0000 0.0000
# 3 46.8126 89.3730 100.5098 0.0000 0.0000 0.0000
# 4 0.0000 0.0000 0.0000 34.6013 0.0000 0.0000
# 5 0.0000 0.0000 0.0000 0.0000 25.4716 0.0000
# 6 0.0000 0.0000 0.0000 0.0000 0.0000 25.4693
#
#
#
# Elastic Compliance Matrix: (Units=1/GPa)
#
#
# Indices 1 2 3 4 5 6 
#
# 1 0.010788 -0.002659 -0.002660 0.000000 0.000000 0.000000
# 2 -0.002659 0.048248 -0.041663 0.000000 0.000000 0.000000
# 3 -0.002660 -0.041663 0.048235 0.000000 0.000000 0.000000
# 4 0.000000 0.000000 0.000000 0.028901 0.000000 0.000000
# 5 0.000000 0.000000 0.000000 0.000000 0.039259 0.000000
# 6 0.000000 0.000000 0.000000 0.000000 0.000000 0.039263
#
#
# Mechanical properties :
#
#
# Convention : Reuss Voigt Hill
#
# Bulk Modulus (GPa) = 75.15500 75.86128 75.50814
# Shear Modulus (GPa) = 15.96971 26.02705 20.99838
#
# Velocity S-wave (km/s) = 2.82411 3.60533 3.23836
# Velocity P-wave (km/s) = 6.94031 7.43087 7.18977
#
# Compressibility (1/GPa) = 0.01330583
#
# Stress axis : x y z
#
# Youngs Moduli (GPa) = 92.69821 20.72642 20.73191
#
# Poissons Ratio (x) = 0.05512 0.05514
# Poissons Ratio (y) = 0.24650 0.86376
# Poissons Ratio (z) = 0.24656 0.86353
#
# Static dielectric constant tensor:
#      x y z
#    x 4.120730 0.000000 0.000000 
#    y 0.000000 3.650170 0.000000 
#    z 0.000000 0.000000 3.650220 
# 
# 
# High freq. dielectric constant tensor:
#      x y z
#    x 1.810940 0.000000 0.000000 
#    y 0.000000 1.764100 0.000000 
#    z 0.000000 0.000000 1.764100 
# 
# From -- ./inp_files/5941.got.cif
#   From: 2010.03.12/outbox.cif.g09.slc.cpg/sg19_3_cif.got.tgz:5941.got - 2010.04.10 18:59:41.
