data_PCOD8157251
_publ_section_title
;
Structure prediction by ZEFSAII (Michael W. Deem and Ramdas Pophale) SiO2 
 PCOD8157251
Probable space group: P 21 21 21
;
_chemical_formula_sum "Si O2"
_cell_formula_units_Z 28
_cell_length_a 8.954595
_cell_length_b 7.013651
_cell_length_c 21.760351
_cell_angle_alpha 90.000000
_cell_angle_beta 90.000000
_cell_angle_gamma 90.000000
_cell_volume 1366.645879
_symmetry_space_group_name_H-M "P 21 21 21"
_symmetry_group_IT_number 19
_symmetry_cell_setting 'orthorhombic'
loop_
_space_group_symop_operation_xyz
x,y,z
1/2-x,-y,1/2+z
1/2+x,1/2-y,-z
-x,1/2+y,1/2-z
loop_
_atom_site_type_symbol
_atom_site_label
_atom_site_fract_x
_atom_site_fract_y
_atom_site_fract_z
Si Si1 0.638877 0.139100 0.981498
Si Si2 0.811722 0.417009 0.059947
Si Si3 0.886502 0.136581 0.161077
Si Si4 0.777469 0.719926 0.351916
Si Si5 0.048298 0.101472 0.664676
Si Si6 0.225652 0.652035 0.922209
Si Si7 0.830352 0.953766 0.765408
O O1 0.460918 0.125136 0.978422
O O2 0.709500 0.159517 0.914256
O O3 0.673692 0.323058 0.023651
O O4 0.709568 0.950938 0.012071
O O5 0.824093 0.327041 0.128022
O O6 0.785696 0.639066 0.066090
O O7 0.811700 0.122711 0.227626
O O8 0.063103 0.142388 0.170572
O O9 0.848338 0.953874 0.119282
O O10 0.671051 0.539859 0.363463
O O11 0.711089 0.851916 0.299103
O O12 0.126095 0.295531 0.685328
O O13 0.933130 0.154342 0.611343
O O14 0.969062 0.995149 0.721100
#
# Coordination Sequence:
#
# PCOD8157251 Si02
#       7
#     4   4   4   4   4   4   4
#     4  10  23  42  63  99 128 171 216 269 326 384
#     4  10  22  42  67  90 137 167 215 273 321 383
#     4   9  24  42  62  96 128 169 215 270 327 379
#     4  11  24  42  63  94 132 163 216 275 317 393
#     4  11  24  41  66  95 126 174 221 261 329 395
#     4  10  23  42  69  94 130 176 215 265 330 392
#     4  11  24  41  64  92 129 170 214 267 328 390
#
# _framework density 20.488118
#
# number of rings (size 3 to 8) (size 9 to 14) (size 15 to 20)
#    0.000    1.714    1.429    0.857    4.000   10.286 
#    2.571    0.000    0.000    0.000    0.000    0.000 
#    0.000    0.000    0.000    0.000    0.000    0.000 
#
# Total GULP energy -347371.712368 kJ/mol
# GULP energy per Si atom -12406.132585 kJ/mol
# Density = 2.044149 g / cm^3
# Si number density = 20.488118 Si / 1000 Ang^3
#
#
#
# Elastic Constant Matrix: (Units=GPa)
#
#
# Indices 1 2 3 4 5 6 
#
# 1 122.4399 54.0884 32.1453 0.0000 0.0000 0.0000
# 2 54.0884 127.7475 14.3517 0.0000 0.0000 0.0000
# 3 32.1453 14.3517 45.8732 0.0000 0.0000 0.0000
# 4 0.0000 0.0000 0.0000 20.3595 0.0000 0.0000
# 5 0.0000 0.0000 0.0000 0.0000 30.1596 0.0000
# 6 0.0000 0.0000 0.0000 0.0000 0.0000 28.0990
#
#
#
# Elastic Compliance Matrix: (Units=1/GPa)
#
#
# Indices 1 2 3 4 5 6 
#
# 1 0.011879 -0.004243 -0.006996 0.000000 0.000000 0.000000
# 2 -0.004243 0.009629 -0.000039 0.000000 0.000000 0.000000
# 3 -0.006996 -0.000039 0.026714 0.000000 0.000000 0.000000
# 4 0.000000 0.000000 0.000000 0.049117 0.000000 0.000000
# 5 0.000000 0.000000 0.000000 0.000000 0.033157 0.000000
# 6 0.000000 0.000000 0.000000 0.000000 0.000000 0.035588
#
#
# Mechanical properties :
#
#
# Convention : Reuss Voigt Hill
#
# Bulk Modulus (GPa) = 38.96459 55.24792 47.10626
# Shear Modulus (GPa) = 25.35548 28.75531 27.05539
#
# Velocity S-wave (km/s) = 3.52173 3.75041 3.63787
# Velocity P-wave (km/s) = 5.96625 6.76598 6.37866
#
# Compressibility (1/GPa) = 0.02566432
#
# Stress axis : x y z
#
# Youngs Moduli (GPa) = 84.18490 103.85314 37.43358
#
# Poissons Ratio (x) = 0.44069 0.26190
# Poissons Ratio (y) = 0.35723 0.00146
# Poissons Ratio (z) = 0.58898 0.00404
#
# Static dielectric constant tensor:
#      x y z
#    x 3.777470 0.000000 0.000000 
#    y 0.000000 3.628700 0.000000 
#    z 0.000000 0.000000 3.725720 
# 
# 
# High freq. dielectric constant tensor:
#      x y z
#    x 1.809330 0.000000 0.000000 
#    y 0.000000 1.803850 0.000000 
#    z 0.000000 0.000000 1.805450 
# 
# From -- ./inp_files/521.got.cif
#   From: 2010.03.12/outbox.cif.g09.slc.cpg/sg19_1_cif.got.tgz:521.got - 2010.04.10 18:59:41.
