data_PCOD8157332
_publ_section_title
;
Structure prediction by ZEFSAII (Michael W. Deem and Ramdas Pophale) SiO2 
 PCOD8157332
Probable space group: P 21 21 21
;
_chemical_formula_sum "Si O2"
_cell_formula_units_Z 32
_cell_length_a 19.233811
_cell_length_b 5.419986
_cell_length_c 12.774003
_cell_angle_alpha 90.000000
_cell_angle_beta 90.000000
_cell_angle_gamma 90.000000
_cell_volume 1331.651316
_symmetry_space_group_name_H-M "P 21 21 21"
_symmetry_group_IT_number 19
_symmetry_cell_setting 'orthorhombic'
loop_
_space_group_symop_operation_xyz
x,y,z
1/2-x,-y,1/2+z
1/2+x,1/2-y,-z
-x,1/2+y,1/2-z
loop_
_atom_site_type_symbol
_atom_site_label
_atom_site_fract_x
_atom_site_fract_y
_atom_site_fract_z
Si Si1 0.457326 0.819652 0.269187
Si Si2 0.114207 0.247669 0.977706
Si Si3 0.766951 0.430409 0.477952
Si Si4 0.924618 0.925450 0.310019
Si Si5 0.659454 0.798836 0.541148
Si Si6 0.275517 0.434610 0.352699
Si Si7 0.667680 0.112403 0.353581
Si Si8 0.916700 0.423451 0.218225
O O1 0.499756 0.561699 0.263658
O O2 0.436966 0.862592 0.390207
O O3 0.388246 0.800972 0.196713
O O4 0.168917 0.429659 0.925894
O O5 0.155039 0.029913 0.040872
O O6 0.071050 0.394634 0.064952
O O7 0.711092 0.645410 0.468702
O O8 0.766357 0.337649 0.599417
O O9 0.740502 0.231391 0.393573
O O10 0.885281 0.688686 0.255523
O O11 0.001433 0.942340 0.262834
O O12 0.887592 0.186751 0.283630
O O13 0.600925 0.628610 0.595429
O O14 0.701377 0.929294 0.636178
O O15 0.628736 0.987859 0.453784
O O16 0.305098 0.421193 0.234980
#
# Coordination Sequence:
#
# PCOD8157332 Si02
#       8
#     4   4   4   4   4   4   4   4
#     4  11  28  47  73 109 144 197 241 306 366 438
#     4  10  24  43  69  99 137 185 240 285 361 432
#     4  10  23  42  67 100 134 187 230 297 356 424
#     4  10  24  43  66  93 134 176 222 283 336 404
#     4  10  23  39  65  99 129 180 228 285 352 417
#     4   9  22  42  59  98 135 171 231 288 342 422
#     4  10  24  43  69  99 145 182 242 296 366 435
#     4  10  24  43  62  99 130 170 228 280 337 408
#
# _framework density 24.030314000000001
#
# number of rings (size 3 to 8) (size 9 to 14) (size 15 to 20)
#    0.000    2.000    0.000    0.000   14.000    4.000 
#    2.250    0.000    0.000    0.000    0.000    0.000 
#    0.000    0.000    0.000    0.000    0.000    0.000 
#
# Total GULP energy -396502.976859 kJ/mol
# GULP energy per Si atom -12390.718027 kJ/mol
# Density = 2.397562 g / cm^3
# Si number density = 24.030314 Si / 1000 Ang^3
#
#
#
# Elastic Constant Matrix: (Units=GPa)
#
#
# Indices 1 2 3 4 5 6 
#
# 1 43.9854 18.1345 22.5323 0.0000 0.0000 0.0000
# 2 18.1345 110.0359 19.1373 0.0000 0.0000 0.0000
# 3 22.5323 19.1373 110.7649 0.0000 0.0000 0.0000
# 4 0.0000 0.0000 0.0000 21.6750 0.0000 0.0000
# 5 0.0000 0.0000 0.0000 0.0000 28.9353 0.0000
# 6 0.0000 0.0000 0.0000 0.0000 0.0000 18.4127
#
#
#
# Elastic Compliance Matrix: (Units=1/GPa)
#
#
# Indices 1 2 3 4 5 6 
#
# 1 0.026666 -0.003558 -0.004810 0.000000 0.000000 0.000000
# 2 -0.003558 0.009844 -0.000977 0.000000 0.000000 0.000000
# 3 -0.004810 -0.000977 0.010175 0.000000 0.000000 0.000000
# 4 0.000000 0.000000 0.000000 0.046136 0.000000 0.000000
# 5 0.000000 0.000000 0.000000 0.000000 0.034560 0.000000
# 6 0.000000 0.000000 0.000000 0.000000 0.000000 0.054310
#
#
# Mechanical properties :
#
#
# Convention : Reuss Voigt Hill
#
# Bulk Modulus (GPa) = 35.72000 42.71049 39.21524
# Shear Modulus (GPa) = 23.84210 27.47008 25.65609
#
# Velocity S-wave (km/s) = 3.15329 3.38471 3.27104
# Velocity P-wave (km/s) = 5.30608 5.75214 5.53361
#
# Compressibility (1/GPa) = 0.02799552
#
# Stress axis : x y z
#
# Youngs Moduli (GPa) = 37.50146 101.58192 98.27680
#
# Poissons Ratio (x) = 0.36144 0.47268
# Poissons Ratio (y) = 0.13344 0.09602
# Poissons Ratio (z) = 0.18037 0.09925
#
# Static dielectric constant tensor:
#      x y z
#    x 4.143940 0.000000 0.000000 
#    y 0.000000 4.513930 0.000000 
#    z 0.000000 0.000000 4.193920 
# 
# 
# High freq. dielectric constant tensor:
#      x y z
#    x 1.936510 0.000000 0.000000 
#    y 0.000000 1.953650 0.000000 
#    z 0.000000 0.000000 1.953430 
# 
# From -- ./inp_files/1198.got.cif
#   From: 2010.03.12/outbox.cif.g09.slc.cpg/sg19_1_cif.got.tgz:1198.got - 2010.04.10 18:59:41.
