data_PCOD8157019
_publ_section_title
;
Structure prediction by ZEFSAII (Michael W. Deem and Ramdas Pophale) SiO2 
 PCOD8157019
Probable space group: P 21 21 21
;
_chemical_formula_sum "Si O2"
_cell_formula_units_Z 32
_cell_length_a 16.878494
_cell_length_b 17.851453
_cell_length_c 5.162036
_cell_angle_alpha 90.000000
_cell_angle_beta 90.000000
_cell_angle_gamma 90.000000
_cell_volume 1555.350573
_symmetry_space_group_name_H-M "P 21 21 21"
_symmetry_group_IT_number 19
_symmetry_cell_setting 'orthorhombic'
loop_
_space_group_symop_operation_xyz
x,y,z
1/2-x,-y,1/2+z
1/2+x,1/2-y,-z
-x,1/2+y,1/2-z
loop_
_atom_site_type_symbol
_atom_site_label
_atom_site_fract_x
_atom_site_fract_y
_atom_site_fract_z
Si Si1 0.196234 0.492549 0.261431
Si Si2 0.932309 0.695706 0.162812
Si Si3 0.649109 0.514416 0.134979
Si Si4 0.018869 0.875560 0.765876
Si Si5 0.411531 0.363577 0.832180
Si Si6 0.426014 0.281392 0.339351
Si Si7 0.687940 0.423475 0.634121
Si Si8 0.078151 0.361976 0.233737
O O1 0.247711 0.486449 0.521762
O O2 0.125910 0.554095 0.295560
O O3 0.157593 0.411297 0.202164
O O4 0.846431 0.660007 0.119243
O O5 0.912448 0.772862 0.315309
O O6 0.991567 0.639785 0.325723
O O7 0.978524 0.708214 0.888459
O O8 0.563851 0.551119 0.140869
O O9 0.655433 0.466691 0.390532
O O10 0.717018 0.578628 0.131275
O O11 0.655072 0.462209 0.889085
O O12 0.081634 0.806526 0.774652
O O13 0.986444 0.888801 0.476373
O O14 0.947892 0.869690 0.969202
O O15 0.380600 0.307420 0.603033
O O16 0.387611 0.330821 0.111332
#
# Coordination Sequence:
#
# PCOD8157019 Si02
#       8
#     4   4   4   4   4   4   4   4
#     4  12  27  47  64  95 135 173 217 267 328 390
#     4   9  22  38  65  91 121 162 209 255 306 372
#     4  10  23  37  58  90 127 157 195 253 306 376
#     4  11  20  38  64  94 124 160 205 263 312 366
#     4  10  21  39  65  90 120 164 210 264 306 369
#     4   9  19  36  60  93 121 149 216 258 298 366
#     4  10  22  39  56  89 126 160 199 243 308 376
#     4  11  24  42  64  94 124 161 217 263 306 375
#
# _framework density 20.57414
#
# number of rings (size 3 to 8) (size 9 to 14) (size 15 to 20)
#    0.750    1.000    1.250    2.250    5.250    0.000 
#    4.500    0.000    0.000    0.000    0.000    0.000 
#    0.000    0.000    0.000    0.000    0.000    0.000 
#
# Total GULP energy -396475.108837 kJ/mol
# GULP energy per Si atom -12389.847151 kJ/mol
# Density = 2.052731 g / cm^3
# Si number density = 20.574140 Si / 1000 Ang^3
#
#
#
# Elastic Constant Matrix: (Units=GPa)
#
#
# Indices 1 2 3 4 5 6 
#
# 1 62.0092 50.7848 14.5363 0.0000 0.0000 0.0000
# 2 50.7848 84.8595 22.8823 0.0000 0.0000 0.0000
# 3 14.5363 22.8823 131.0010 0.0000 0.0000 0.0000
# 4 0.0000 0.0000 0.0000 42.3992 0.0000 0.0000
# 5 0.0000 0.0000 0.0000 0.0000 31.8536 0.0000
# 6 0.0000 0.0000 0.0000 0.0000 0.0000 31.1736
#
#
#
# Elastic Compliance Matrix: (Units=1/GPa)
#
#
# Indices 1 2 3 4 5 6 
#
# 1 0.031635 -0.018874 -0.000213 0.000000 0.000000 0.000000
# 2 -0.018874 0.023628 -0.002033 0.000000 0.000000 0.000000
# 3 -0.000213 -0.002033 0.008012 0.000000 0.000000 0.000000
# 4 0.000000 0.000000 0.000000 0.023585 0.000000 0.000000
# 5 0.000000 0.000000 0.000000 0.000000 0.031394 0.000000
# 6 0.000000 0.000000 0.000000 0.000000 0.000000 0.032078
#
#
# Mechanical properties :
#
#
# Convention : Reuss Voigt Hill
#
# Bulk Modulus (GPa) = 47.54322 50.47515 49.00919
# Shear Modulus (GPa) = 25.05203 33.72970 29.39087
#
# Velocity S-wave (km/s) = 3.49327 4.05337 3.78370
# Velocity P-wave (km/s) = 6.27925 6.81858 6.55446
#
# Compressibility (1/GPa) = 0.02103349
#
# Stress axis : x y z
#
# Youngs Moduli (GPa) = 31.61096 42.32289 124.80834
#
# Poissons Ratio (x) = 0.79882 0.02664
# Poissons Ratio (y) = 0.59664 0.25371
# Poissons Ratio (z) = 0.00675 0.08603
#
# Static dielectric constant tensor:
#      x y z
#    x 3.459390 0.000000 0.000000 
#    y 0.000000 3.672990 0.000000 
#    z 0.000000 0.000000 3.795370 
# 
# 
# High freq. dielectric constant tensor:
#      x y z
#    x 1.774260 0.000000 0.000000 
#    y 0.000000 1.800340 0.000000 
#    z 0.000000 0.000000 1.819130 
# 
# From -- ./inp_files/1558.got.cif
#   From: 2010.03.12/outbox.cif.g09.slc.cpg/sg19_1_cif.got.tgz:1558.got - 2010.04.10 18:59:41.
