data_PCOD8157282
_publ_section_title
;
Structure prediction by ZEFSAII (Michael W. Deem and Ramdas Pophale) SiO2 
 PCOD8157282
Probable space group: P 21 21 21
;
_chemical_formula_sum "Si O2"
_cell_formula_units_Z 20
_cell_length_a 8.951483
_cell_length_b 7.173530
_cell_length_c 13.337977
_cell_angle_alpha 90.000000
_cell_angle_beta 90.000000
_cell_angle_gamma 90.000000
_cell_volume 856.481278
_symmetry_space_group_name_H-M "P 21 21 21"
_symmetry_group_IT_number 19
_symmetry_cell_setting 'orthorhombic'
loop_
_space_group_symop_operation_xyz
x,y,z
1/2-x,-y,1/2+z
1/2+x,1/2-y,-z
-x,1/2+y,1/2-z
loop_
_atom_site_type_symbol
_atom_site_label
_atom_site_fract_x
_atom_site_fract_y
_atom_site_fract_z
Si Si1 0.209031 0.174903 0.716150
Si Si2 0.189388 0.376459 0.342032
Si Si3 0.915191 0.277360 0.808943
Si Si4 0.517052 0.495081 0.680605
Si Si5 0.751036 0.001120 0.437478
O O1 0.142134 0.984689 0.670605
O O2 0.354008 0.133023 0.783824
O O3 0.240920 0.300725 0.619428
O O4 0.093148 0.277168 0.791290
O O5 0.341073 0.304033 0.291996
O O6 0.076757 0.203995 0.354545
O O7 0.230291 0.471428 0.445695
O O8 0.106644 0.528426 0.270943
O O9 0.874678 0.145446 0.902603
O O10 0.418234 0.579649 0.587934
#
# Coordination Sequence:
#
# PCOD8157282 Si02
#       5
#     4   4   4   4   4
#     4  11  21  41  67  97 140 184 225 295 352 411
#     4  10  23  42  69  97 136 187 232 291 357 417
#     4  10  23  41  63 101 138 177 230 293 351 406
#     4  10  22  43  68  96 141 183 227 298 348 411
#     4  11  23  43  67  97 139 183 242 277 352 435
#
# _framework density 23.351358000000001
#
# number of rings (size 3 to 8) (size 9 to 14) (size 15 to 20)
#    0.000    1.600    4.000    0.000    2.800    0.000 
#    3.600    2.000    0.000    0.000    0.000    0.000 
#    0.000    0.000    0.000    0.000    0.000    0.000 
#
# Total GULP energy -247958.139716 kJ/mol
# GULP energy per Si atom -12397.906986 kJ/mol
# Density = 2.329821 g / cm^3
# Si number density = 23.351358 Si / 1000 Ang^3
#
#
#
# Elastic Constant Matrix: (Units=GPa)
#
#
# Indices 1 2 3 4 5 6 
#
# 1 120.1298 -3.4115 32.2737 0.0000 0.0000 0.0000
# 2 -3.4115 84.9967 14.2891 0.0000 0.0000 0.0000
# 3 32.2737 14.2891 87.6920 0.0000 0.0000 0.0000
# 4 0.0000 0.0000 0.0000 34.0690 0.0000 0.0000
# 5 0.0000 0.0000 0.0000 0.0000 18.4523 0.0000
# 6 0.0000 0.0000 0.0000 0.0000 0.0000 30.0826
#
#
#
# Elastic Compliance Matrix: (Units=1/GPa)
#
#
# Indices 1 2 3 4 5 6 
#
# 1 0.009316 0.000977 -0.003588 0.000000 0.000000 0.000000
# 2 0.000977 0.012199 -0.002347 0.000000 0.000000 0.000000
# 3 -0.003588 -0.002347 0.013106 0.000000 0.000000 0.000000
# 4 0.000000 0.000000 0.000000 0.029352 0.000000 0.000000
# 5 0.000000 0.000000 0.000000 0.000000 0.054194 0.000000
# 6 0.000000 0.000000 0.000000 0.000000 0.000000 0.033242
#
#
# Mechanical properties :
#
#
# Convention : Reuss Voigt Hill
#
# Bulk Modulus (GPa) = 40.47726 42.12456 41.30091
# Shear Modulus (GPa) = 29.48797 33.16526 31.32662
#
# Velocity S-wave (km/s) = 3.55744 3.77274 3.66667
# Velocity P-wave (km/s) = 5.85196 6.08742 5.97085
#
# Compressibility (1/GPa) = 0.02470523
#
# Stress axis : x y z
#
# Youngs Moduli (GPa) = 107.34253 81.97386 76.29810
#
# Poissons Ratio (x) = -0.08009 0.27374
# Poissons Ratio (y) = -0.10488 0.17910
# Poissons Ratio (z) = 0.38513 0.19242
#
# Static dielectric constant tensor:
#      x y z
#    x 4.645020 0.000000 0.000000 
#    y 0.000000 4.331520 0.000000 
#    z 0.000000 0.000000 3.782980 
# 
# 
# High freq. dielectric constant tensor:
#      x y z
#    x 1.946470 0.000000 0.000000 
#    y 0.000000 1.940230 0.000000 
#    z 0.000000 0.000000 1.888550 
# 
# From -- ./inp_files/2578.got.cif
#   From: 2010.03.12/outbox.cif.g09.slc.cpg/sg19_2_cif.got.tgz:2578.got - 2010.04.10 18:59:41.
