data_PCOD8157531
_publ_section_title
;
Structure prediction by ZEFSAII (Michael W. Deem and Ramdas Pophale) SiO2 
 PCOD8157531
Probable space group: P 21 21 21
;
_chemical_formula_sum "Si O2"
_cell_formula_units_Z 32
_cell_length_a 12.447965
_cell_length_b 19.860096
_cell_length_c 5.404662
_cell_angle_alpha 90.000000
_cell_angle_beta 90.000000
_cell_angle_gamma 90.000000
_cell_volume 1336.128541
_symmetry_space_group_name_H-M "P 21 21 21"
_symmetry_group_IT_number 19
_symmetry_cell_setting 'orthorhombic'
loop_
_space_group_symop_operation_xyz
x,y,z
1/2-x,-y,1/2+z
1/2+x,1/2-y,-z
-x,1/2+y,1/2-z
loop_
_atom_site_type_symbol
_atom_site_label
_atom_site_fract_x
_atom_site_fract_y
_atom_site_fract_z
Si Si1 0.358686 0.449118 0.811661
Si Si2 0.826228 0.277914 0.839581
Si Si3 0.532926 0.620335 0.059519
Si Si4 0.326383 0.835245 0.290040
Si Si5 0.886738 0.973962 0.685392
Si Si6 0.518827 0.820756 0.607825
Si Si7 0.275179 0.040914 0.593731
Si Si8 0.624528 0.229059 0.579378
O O1 0.404276 0.490178 0.577121
O O2 0.231005 0.441959 0.803877
O O3 0.400339 0.373878 0.775397
O O4 0.399654 0.478638 0.072626
O O5 0.881330 0.322129 0.626467
O O6 0.732853 0.227563 0.742276
O O7 0.777180 0.331296 0.031767
O O8 0.919831 0.234388 0.951216
O O9 0.477806 0.583870 0.295757
O O10 0.599356 0.564419 0.903637
O O11 0.431644 0.655452 0.917186
O O12 0.431866 0.858584 0.437125
O O13 0.301756 0.892991 0.088417
O O14 0.342664 0.759028 0.187702
O O15 0.459772 0.784307 0.830418
O O16 0.247598 0.000956 0.342897
#
# Coordination Sequence:
#
# PCOD8157531 Si02
#       8
#     4   4   4   4   4   4   4   4
#     4  10  25  49  70 109 145 196 253 312 363 454
#     4  11  25  47  72 115 149 190 251 319 383 464
#     4  12  26  49  78 110 149 204 254 314 396 462
#     4  11  25  49  69 111 150 194 254 310 381 461
#     4  10  26  47  74 102 150 196 255 305 371 450
#     4  11  26  42  79 103 146 195 239 314 388 442
#     4  12  29  50  79 110 156 204 258 323 374 463
#     4  11  26  45  75 110 147 191 252 311 386 462
#
# _framework density 23.949791999999999
#
# number of rings (size 3 to 8) (size 9 to 14) (size 15 to 20)
#    0.000    1.000    2.500    1.500    7.000    6.000 
#    0.000    0.000    0.000    0.000    0.000    0.000 
#    0.000    0.000    0.000    0.000    0.000    0.000 
#
# Total GULP energy -396748.212059 kJ/mol
# GULP energy per Si atom -12398.381627 kJ/mol
# Density = 2.389528 g / cm^3
# Si number density = 23.949792 Si / 1000 Ang^3
#
#
#
# Elastic Constant Matrix: (Units=GPa)
#
#
# Indices 1 2 3 4 5 6 
#
# 1 98.2296 43.5193 25.6800 0.0000 0.0000 0.0000
# 2 43.5193 78.0337 17.9070 0.0000 0.0000 0.0000
# 3 25.6800 17.9070 100.1562 0.0000 0.0000 0.0000
# 4 0.0000 0.0000 0.0000 39.6012 0.0000 0.0000
# 5 0.0000 0.0000 0.0000 0.0000 23.4030 0.0000
# 6 0.0000 0.0000 0.0000 0.0000 0.0000 45.1887
#
#
#
# Elastic Compliance Matrix: (Units=1/GPa)
#
#
# Indices 1 2 3 4 5 6 
#
# 1 0.014007 -0.007286 -0.002289 0.000000 0.000000 0.000000
# 2 -0.007286 0.017154 -0.001199 0.000000 0.000000 0.000000
# 3 -0.002289 -0.001199 0.010786 0.000000 0.000000 0.000000
# 4 0.000000 0.000000 0.000000 0.025252 0.000000 0.000000
# 5 0.000000 0.000000 0.000000 0.000000 0.042730 0.000000
# 6 0.000000 0.000000 0.000000 0.000000 0.000000 0.022129
#
#
# Mechanical properties :
#
#
# Convention : Reuss Voigt Hill
#
# Bulk Modulus (GPa) = 49.02297 50.07023 49.54660
# Shear Modulus (GPa) = 31.17145 34.25945 32.71545
#
# Velocity S-wave (km/s) = 3.61159 3.78626 3.69996
# Velocity P-wave (km/s) = 6.15670 6.32977 6.24384
#
# Compressibility (1/GPa) = 0.02039860
#
# Stress axis : x y z
#
# Youngs Moduli (GPa) = 71.39486 58.29673 92.71697
#
# Poissons Ratio (x) = 0.42477 0.21219
# Poissons Ratio (y) = 0.52020 0.11114
# Poissons Ratio (z) = 0.16339 0.06988
#
# Static dielectric constant tensor:
#      x y z
#    x 4.535450 0.000000 0.000000 
#    y 0.000000 4.299600 0.000000 
#    z 0.000000 0.000000 4.245210 
# 
# 
# High freq. dielectric constant tensor:
#      x y z
#    x 1.971470 0.000000 0.000000 
#    y 0.000000 1.941940 0.000000 
#    z 0.000000 0.000000 1.947010 
# 
# From -- ./inp_files/1199.got.cif
#   From: 2010.03.12/outbox.cif.g09.slc.cpg/sg19_1_cif.got.tgz:1199.got - 2010.04.10 18:59:41.
