data_PCOD8157484
_publ_section_title
;
Structure prediction by ZEFSAII (Michael W. Deem and Ramdas Pophale) SiO2 
 PCOD8157484
Probable space group: P 21 21 21
;
_chemical_formula_sum "Si O2"
_cell_formula_units_Z 24
_cell_length_a 8.607116
_cell_length_b 11.704415
_cell_length_c 10.800378
_cell_angle_alpha 90.000000
_cell_angle_beta 90.000000
_cell_angle_gamma 90.000000
_cell_volume 1088.043662
_symmetry_space_group_name_H-M "P 21 21 21"
_symmetry_group_IT_number 19
_symmetry_cell_setting 'orthorhombic'
loop_
_space_group_symop_operation_xyz
x,y,z
1/2-x,-y,1/2+z
1/2+x,1/2-y,-z
-x,1/2+y,1/2-z
loop_
_atom_site_type_symbol
_atom_site_label
_atom_site_fract_x
_atom_site_fract_y
_atom_site_fract_z
Si Si1 0.749185 0.960644 0.757763
Si Si2 0.572744 0.554778 0.681297
Si Si3 0.145080 0.691343 0.658410
Si Si4 0.137519 0.761390 0.127175
Si Si5 0.602304 0.163515 0.035124
Si Si6 0.708668 0.324225 0.620040
O O1 0.738966 0.852161 0.848778
O O2 0.812286 0.926688 0.623620
O O3 0.578314 0.015360 0.740155
O O4 0.862762 0.054559 0.820204
O O5 0.653695 0.659444 0.751734
O O6 0.523730 0.592908 0.543541
O O7 0.696341 0.452880 0.671079
O O8 0.274549 0.722887 0.556070
O O9 0.187385 0.751674 0.786517
O O10 0.978464 0.735530 0.612805
O O11 0.959775 0.730257 0.102885
O O12 0.205041 0.828070 0.010674
#
# Coordination Sequence:
#
# PCOD8157484 Si02
#       6
#     4   4   4   4   4   4
#     4  10  24  44  75 102 141 185 229 294 354 414
#     4  10  24  46  70 103 139 183 237 294 351 413
#     4  11  26  47  71 106 138 187 240 287 358 418
#     4  11  24  48  70 103 144 185 233 296 350 420
#     4  11  24  47  71 101 142 183 234 289 352 423
#     4  11  26  44  69 103 140 185 241 284 353 424
#
# _framework density 22.057939000000001
#
# number of rings (size 3 to 8) (size 9 to 14) (size 15 to 20)
#    0.000    1.333    3.333    1.000   14.000    0.000 
#    3.000    0.000    0.000    0.000    0.000    0.000 
#    0.000    0.000    0.000    0.000    0.000    0.000 
#
# Total GULP energy -297739.879641 kJ/mol
# GULP energy per Si atom -12405.828318 kJ/mol
# Density = 2.200773 g / cm^3
# Si number density = 22.057939 Si / 1000 Ang^3
#
#
#
# Elastic Constant Matrix: (Units=GPa)
#
#
# Indices 1 2 3 4 5 6 
#
# 1 30.6182 28.9562 36.8108 0.0000 0.0000 0.0000
# 2 28.9562 127.6070 40.0379 0.0000 0.0000 0.0000
# 3 36.8108 40.0379 124.5431 0.0000 0.0000 0.0000
# 4 0.0000 0.0000 0.0000 31.8384 0.0000 0.0000
# 5 0.0000 0.0000 0.0000 0.0000 46.8113 0.0000
# 6 0.0000 0.0000 0.0000 0.0000 0.0000 29.6585
#
#
#
# Elastic Compliance Matrix: (Units=1/GPa)
#
#
# Indices 1 2 3 4 5 6 
#
# 1 0.058197 -0.008685 -0.014409 0.000000 0.000000 0.000000
# 2 -0.008685 0.010012 -0.000652 0.000000 0.000000 0.000000
# 3 -0.014409 -0.000652 0.012498 0.000000 0.000000 0.000000
# 4 0.000000 0.000000 0.000000 0.031409 0.000000 0.000000
# 5 0.000000 0.000000 0.000000 0.000000 0.021362 0.000000
# 6 0.000000 0.000000 0.000000 0.000000 0.000000 0.033717
#
#
# Mechanical properties :
#
#
# Convention : Reuss Voigt Hill
#
# Bulk Modulus (GPa) = 30.10655 54.93090 42.51872
# Shear Modulus (GPa) = 22.14760 33.45920 27.80340
#
# Velocity S-wave (km/s) = 3.17214 3.89894 3.55416
# Velocity P-wave (km/s) = 5.20529 6.72503 6.01336
#
# Compressibility (1/GPa) = 0.03321536
#
# Stress axis : x y z
#
# Youngs Moduli (GPa) = 17.18292 99.88246 80.01487
#
# Poissons Ratio (x) = 0.86748 1.15295
# Poissons Ratio (y) = 0.14923 0.05214
# Poissons Ratio (z) = 0.24759 0.06508
#
# Static dielectric constant tensor:
#      x y z
#    x 3.872850 0.000000 0.000000 
#    y 0.000000 4.135390 0.000000 
#    z 0.000000 0.000000 3.932970 
# 
# 
# High freq. dielectric constant tensor:
#      x y z
#    x 1.856210 0.000000 0.000000 
#    y 0.000000 1.876120 0.000000 
#    z 0.000000 0.000000 1.871870 
# 
# From -- ./inp_files/3322.got.cif
#   From: 2010.03.12/outbox.cif.g09.slc.cpg/sg19_2_cif.got.tgz:3322.got - 2010.04.10 18:59:41.
