data_PCOD8157128
_publ_section_title
;
Structure prediction by ZEFSAII (Michael W. Deem and Ramdas Pophale) SiO2 
 PCOD8157128
Probable space group: P 21 21 21
;
_chemical_formula_sum "Si O2"
_cell_formula_units_Z 20
_cell_length_a 16.712881
_cell_length_b 7.585268
_cell_length_c 7.503814
_cell_angle_alpha 90.000000
_cell_angle_beta 90.000000
_cell_angle_gamma 90.000000
_cell_volume 951.271118
_symmetry_space_group_name_H-M "P 21 21 21"
_symmetry_group_IT_number 19
_symmetry_cell_setting 'orthorhombic'
loop_
_space_group_symop_operation_xyz
x,y,z
1/2-x,-y,1/2+z
1/2+x,1/2-y,-z
-x,1/2+y,1/2-z
loop_
_atom_site_type_symbol
_atom_site_label
_atom_site_fract_x
_atom_site_fract_y
_atom_site_fract_z
Si Si1 0.037262 0.475204 0.885182
Si Si2 0.304280 0.636998 0.255187
Si Si3 0.123961 0.187868 0.069442
Si Si4 0.262688 0.718120 0.866076
Si Si5 0.589006 0.646814 0.121682
O O1 0.106741 0.447888 0.734728
O O2 0.056144 0.342114 0.050143
O O3 0.042042 0.679095 0.947647
O O4 0.951760 0.434443 0.798685
O O5 0.307326 0.778173 0.417856
O O6 0.240178 0.485887 0.304945
O O7 0.278372 0.734492 0.076221
O O8 0.084621 0.996687 0.037023
O O9 0.164182 0.189204 0.263192
O O10 0.179870 0.814409 0.823391
#
# Coordination Sequence:
#
# PCOD8157128 Si02
#       5
#     4   4   4   4   4
#     4   9  19  38  63  83 119 163 191 247 296 356
#     4   9  19  37  61  86 122 149 195 243 293 345
#     4  10  22  36  61  85 119 156 198 239 296 353
#     4  11  20  37  63  92 118 157 194 251 291 353
#     4  11  20  36  64  86 116 161 200 236 308 343
#
# _framework density 21.024501000000001
#
# number of rings (size 3 to 8) (size 9 to 14) (size 15 to 20)
#    1.200    0.800    4.000    0.000    2.800    0.000 
#    0.000    0.000   17.600    0.000    0.000    0.000 
#    0.000    0.000    0.000    0.000    0.000    0.000 
#
# Total GULP energy -247878.376398 kJ/mol
# GULP energy per Si atom -12393.918820 kJ/mol
# Density = 2.097665 g / cm^3
# Si number density = 21.024501 Si / 1000 Ang^3
#
#
#
# Elastic Constant Matrix: (Units=GPa)
#
#
# Indices 1 2 3 4 5 6 
#
# 1 32.6024 0.7739 -2.1591 0.0000 0.0000 0.0000
# 2 0.7739 127.9091 -0.6260 0.0000 0.0000 0.0000
# 3 -2.1591 -0.6260 58.2831 0.0000 0.0000 0.0000
# 4 0.0000 0.0000 0.0000 16.2817 0.0000 0.0000
# 5 0.0000 0.0000 0.0000 0.0000 20.4381 0.0000
# 6 0.0000 0.0000 0.0000 0.0000 0.0000 32.5842
#
#
#
# Elastic Compliance Matrix: (Units=1/GPa)
#
#
# Indices 1 2 3 4 5 6 
#
# 1 0.030752 -0.000181 0.001137 0.000000 0.000000 0.000000
# 2 -0.000181 0.007820 0.000077 0.000000 0.000000 0.000000
# 3 0.001137 0.000077 0.017201 0.000000 0.000000 0.000000
# 4 0.000000 0.000000 0.000000 0.061419 0.000000 0.000000
# 5 0.000000 0.000000 0.000000 0.000000 0.048928 0.000000
# 6 0.000000 0.000000 0.000000 0.000000 0.000000 0.030690
#
#
# Mechanical properties :
#
#
# Convention : Reuss Voigt Hill
#
# Bulk Modulus (GPa) = 17.28893 23.86359 20.57626
# Shear Modulus (GPa) = 23.36221 28.58119 25.97170
#
# Velocity S-wave (km/s) = 3.33707 3.69104 3.51851
# Velocity P-wave (km/s) = 4.80511 5.43507 5.12977
#
# Compressibility (1/GPa) = 0.05784047
#
# Stress axis : x y z
#
# Youngs Moduli (GPa) = 32.51800 127.88507 58.13754
#
# Poissons Ratio (x) = 0.02308 -0.06612
# Poissons Ratio (y) = 0.00587 -0.00449
# Poissons Ratio (z) = -0.03698 -0.00989
#
# Static dielectric constant tensor:
#      x y z
#    x 3.545830 0.000000 0.000000 
#    y 0.000000 3.930540 0.000000 
#    z 0.000000 0.000000 3.228260 
# 
# 
# High freq. dielectric constant tensor:
#      x y z
#    x 1.804540 0.000000 0.000000 
#    y 0.000000 1.834390 0.000000 
#    z 0.000000 0.000000 1.778540 
# 
# From -- ./inp_files/2873.got.cif
#   From: 2010.03.12/outbox.cif.g09.slc.cpg/sg19_2_cif.got.tgz:2873.got - 2010.04.10 18:59:41.
