data_PCOD8157058
_publ_section_title
;
Structure prediction by ZEFSAII (Michael W. Deem and Ramdas Pophale) SiO2 
 PCOD8157058
Probable space group: P 21 21 21
;
_chemical_formula_sum "Si O2"
_cell_formula_units_Z 32
_cell_length_a 14.204961
_cell_length_b 13.284306
_cell_length_c 8.842011
_cell_angle_alpha 90.000000
_cell_angle_beta 90.000000
_cell_angle_gamma 90.000000
_cell_volume 1668.514432
_symmetry_space_group_name_H-M "P 21 21 21"
_symmetry_group_IT_number 19
_symmetry_cell_setting 'orthorhombic'
loop_
_space_group_symop_operation_xyz
x,y,z
1/2-x,-y,1/2+z
1/2+x,1/2-y,-z
-x,1/2+y,1/2-z
loop_
_atom_site_type_symbol
_atom_site_label
_atom_site_fract_x
_atom_site_fract_y
_atom_site_fract_z
Si Si1 0.798387 0.426296 0.719772
Si Si2 0.601687 0.766462 0.272558
Si Si3 0.459066 0.365426 0.925098
Si Si4 0.020447 0.920557 0.634849
Si Si5 0.870045 0.486464 0.402205
Si Si6 0.660258 0.016093 0.767312
Si Si7 0.349982 0.446109 0.398255
Si Si8 0.989100 0.351434 0.194979
O O1 0.805771 0.306685 0.763427
O O2 0.807600 0.446942 0.541117
O O3 0.699497 0.467334 0.777288
O O4 0.889380 0.481317 0.798191
O O5 0.595602 0.835899 0.421788
O O6 0.512805 0.689073 0.280498
O O7 0.601182 0.836615 0.123861
O O8 0.554329 0.429083 0.953993
O O9 0.384044 0.431257 0.836603
O O10 0.484249 0.268510 0.822642
O O11 0.042441 0.907481 0.457874
O O12 0.922485 0.972903 0.667953
O O13 0.921914 0.389943 0.329465
O O14 0.759606 0.051954 0.706960
O O15 0.596372 0.115889 0.772324
O O16 0.675630 0.965633 0.929971
#
# Coordination Sequence:
#
# PCOD8157058 Si02
#       8
#     4   4   4   4   4   4   4   4
#     4  10  22  37  61  90 118 158 202 244 307 359
#     4   9  21  38  60  83 119 155 202 249 297 367
#     4  10  21  41  63  87 118 163 202 248 316 353
#     4   8  19  38  58  83 114 156 197 249 300 350
#     4  11  22  38  64  90 126 158 200 259 301 368
#     4  10  23  36  61  91 116 164 198 252 302 362
#     4  11  20  39  60  86 126 153 203 252 302 359
#     4   9  20  39  61  82 121 155 204 243 303 366
#
# _framework density 19.178735
#
# number of rings (size 3 to 8) (size 9 to 14) (size 15 to 20)
#    0.750    1.500    0.000    2.250    3.500    1.000 
#    2.250    1.250    2.750    0.000    0.000    0.000 
#    0.000    0.000    0.000    0.000    0.000    0.000 
#
# Total GULP energy -396502.604677 kJ/mol
# GULP energy per Si atom -12390.706396 kJ/mol
# Density = 1.913508 g / cm^3
# Si number density = 19.178735 Si / 1000 Ang^3
#
#
#
# Elastic Constant Matrix: (Units=GPa)
#
#
# Indices 1 2 3 4 5 6 
#
# 1 71.6309 20.7809 34.9655 0.0000 0.0000 0.0000
# 2 20.7809 85.9862 24.7108 0.0000 0.0000 0.0000
# 3 34.9655 24.7108 74.9496 0.0000 0.0000 0.0000
# 4 0.0000 0.0000 0.0000 30.6989 0.0000 0.0000
# 5 0.0000 0.0000 0.0000 0.0000 30.5557 0.0000
# 6 0.0000 0.0000 0.0000 0.0000 0.0000 21.9182
#
#
#
# Elastic Compliance Matrix: (Units=1/GPa)
#
#
# Indices 1 2 3 4 5 6 
#
# 1 0.018444 -0.002192 -0.007882 0.000000 0.000000 0.000000
# 2 -0.002192 0.013108 -0.003299 0.000000 0.000000 0.000000
# 3 -0.007882 -0.003299 0.018107 0.000000 0.000000 0.000000
# 4 0.000000 0.000000 0.000000 0.032574 0.000000 0.000000
# 5 0.000000 0.000000 0.000000 0.000000 0.032727 0.000000
# 6 0.000000 0.000000 0.000000 0.000000 0.000000 0.045624
#
#
# Mechanical properties :
#
#
# Convention : Reuss Voigt Hill
#
# Bulk Modulus (GPa) = 43.64385 43.72010 43.68198
# Shear Modulus (GPa) = 25.64537 26.77519 26.21028
#
# Velocity S-wave (km/s) = 3.66071 3.74048 3.70081
# Velocity P-wave (km/s) = 6.37758 6.44209 6.40992
#
# Compressibility (1/GPa) = 0.02291273
#
# Stress axis : x y z
#
# Youngs Moduli (GPa) = 54.21892 76.29136 55.22788
#
# Poissons Ratio (x) = 0.16726 0.43528
# Poissons Ratio (y) = 0.11887 0.18218
# Poissons Ratio (z) = 0.42733 0.25167
#
# Static dielectric constant tensor:
#      x y z
#    x 3.373400 0.000000 0.000000 
#    y 0.000000 3.521670 0.000000 
#    z 0.000000 0.000000 3.486860 
# 
# 
# High freq. dielectric constant tensor:
#      x y z
#    x 1.735780 0.000000 0.000000 
#    y 0.000000 1.742900 0.000000 
#    z 0.000000 0.000000 1.749870 
# 
# From -- ./inp_files/4055.got.cif
#   From: 2010.03.12/outbox.cif.g09.slc.cpg/sg19_3_cif.got.tgz:4055.got - 2010.04.10 18:59:41.
