data_PCOD8157081
_publ_section_title
;
Structure prediction by ZEFSAII (Michael W. Deem and Ramdas Pophale) SiO2 
 PCOD8157081
Probable space group: P 21 21 21
;
_chemical_formula_sum "Si O2"
_cell_formula_units_Z 28
_cell_length_a 7.573563
_cell_length_b 9.228985
_cell_length_c 17.112173
_cell_angle_alpha 90.000000
_cell_angle_beta 90.000000
_cell_angle_gamma 90.000000
_cell_volume 1196.077566
_symmetry_space_group_name_H-M "P 21 21 21"
_symmetry_group_IT_number 19
_symmetry_cell_setting 'orthorhombic'
loop_
_space_group_symop_operation_xyz
x,y,z
1/2-x,-y,1/2+z
1/2+x,1/2-y,-z
-x,1/2+y,1/2-z
loop_
_atom_site_type_symbol
_atom_site_label
_atom_site_fract_x
_atom_site_fract_y
_atom_site_fract_z
Si Si1 0.532469 0.802539 0.904333
Si Si2 0.415445 0.312020 0.770035
Si Si3 0.626291 0.604315 0.593961
Si Si4 0.758520 0.780403 0.467870
Si Si5 0.727172 0.075979 0.534186
Si Si6 0.321943 0.188814 0.198151
Si Si7 0.880083 0.038542 0.694963
O O1 0.608424 0.763939 0.819414
O O2 0.446151 0.659758 0.939030
O O3 0.387068 0.931584 0.896122
O O4 0.695157 0.847632 0.957762
O O5 0.342806 0.178810 0.822124
O O6 0.618139 0.351906 0.788420
O O7 0.300577 0.454977 0.784415
O O8 0.775123 0.647757 0.530317
O O9 0.450741 0.668150 0.555356
O O10 0.646925 0.737046 0.391433
O O11 0.663998 0.913874 0.513160
O O12 0.874416 0.076303 0.602883
O O13 0.444960 0.051256 0.215786
O O14 0.384961 0.316022 0.254999
#
# Coordination Sequence:
#
# PCOD8157081 Si02
#       7
#     4   4   4   4   4   4   4
#     4  11  25  44  69 102 143 182 241 300 368 428
#     4  11  23  47  73 102 143 193 239 297 363 443
#     4  10  22  40  69  96 134 183 235 289 355 431
#     4  10  21  42  65  98 134 183 232 287 358 429
#     4  11  24  46  68 103 148 184 242 305 363 440
#     4  11  26  45  74 106 145 189 246 302 362 444
#     4  12  25  48  72 109 147 190 247 300 371 433
#
# _framework density 23.409849999999999
#
# number of rings (size 3 to 8) (size 9 to 14) (size 15 to 20)
#    0.000    1.143    2.857    4.286    0.000    5.714 
#    2.571    0.000    0.000    0.000    0.000    0.000 
#    0.000    0.000    0.000    0.000    0.000    0.000 
#
# Total GULP energy -347308.448943 kJ/mol
# GULP energy per Si atom -12403.873177 kJ/mol
# Density = 2.335657 g / cm^3
# Si number density = 23.409850 Si / 1000 Ang^3
#
#
#
# Elastic Constant Matrix: (Units=GPa)
#
#
# Indices 1 2 3 4 5 6 
#
# 1 58.9993 1.2050 10.6379 0.0000 0.0000 0.0000
# 2 1.2050 38.4316 18.1706 0.0000 0.0000 0.0000
# 3 10.6379 18.1706 170.7507 0.0000 0.0000 0.0000
# 4 0.0000 0.0000 0.0000 31.5138 0.0000 0.0000
# 5 0.0000 0.0000 0.0000 0.0000 29.9418 0.0000
# 6 0.0000 0.0000 0.0000 0.0000 0.0000 39.5258
#
#
#
# Elastic Compliance Matrix: (Units=1/GPa)
#
#
# Indices 1 2 3 4 5 6 
#
# 1 0.017142 -0.000034 -0.001064 0.000000 0.000000 0.000000
# 2 -0.000034 0.027399 -0.002914 0.000000 0.000000 0.000000
# 3 -0.001064 -0.002914 0.006233 0.000000 0.000000 0.000000
# 4 0.000000 0.000000 0.000000 0.031732 0.000000 0.000000
# 5 0.000000 0.000000 0.000000 0.000000 0.033398 0.000000
# 6 0.000000 0.000000 0.000000 0.000000 0.000000 0.025300
#
#
# Mechanical properties :
#
#
# Convention : Reuss Voigt Hill
#
# Bulk Modulus (GPa) = 23.39210 36.46762 29.92986
# Shear Modulus (GPa) = 30.58518 36.07416 33.32967
#
# Velocity S-wave (km/s) = 3.61849 3.92979 3.77735
# Velocity P-wave (km/s) = 5.24138 6.01687 5.64246
#
# Compressibility (1/GPa) = 0.04274947
#
# Stress axis : x y z
#
# Youngs Moduli (GPa) = 58.33642 36.49783 160.44038
#
# Poissons Ratio (x) = 0.00125 0.17076
# Poissons Ratio (y) = 0.00200 0.46745
# Poissons Ratio (z) = 0.06209 0.10634
#
# Static dielectric constant tensor:
#      x y z
#    x 3.905910 0.000000 0.000000 
#    y 0.000000 4.381540 0.000000 
#    z 0.000000 0.000000 4.677130 
# 
# 
# High freq. dielectric constant tensor:
#      x y z
#    x 1.906030 0.000000 0.000000 
#    y 0.000000 1.927470 0.000000 
#    z 0.000000 0.000000 1.951240 
# 
# From -- ./inp_files/4191.got.cif
#   From: 2010.03.12/outbox.cif.g09.slc.cpg/sg19_3_cif.got.tgz:4191.got - 2010.04.10 18:59:41.
