data_PCOD8157791
_publ_section_title
;
Structure prediction by ZEFSAII (Michael W. Deem and Ramdas Pophale) SiO2 
 PCOD8157791
Probable space group: P 21 21 21
;
_chemical_formula_sum "Si O2"
_cell_formula_units_Z 28
_cell_length_a 9.946200
_cell_length_b 8.420467
_cell_length_c 13.618032
_cell_angle_alpha 90.000000
_cell_angle_beta 90.000000
_cell_angle_gamma 90.000000
_cell_volume 1140.532634
_symmetry_space_group_name_H-M "P 21 21 21"
_symmetry_group_IT_number 19
_symmetry_cell_setting 'orthorhombic'
loop_
_space_group_symop_operation_xyz
x,y,z
1/2-x,-y,1/2+z
1/2+x,1/2-y,-z
-x,1/2+y,1/2-z
loop_
_atom_site_type_symbol
_atom_site_label
_atom_site_fract_x
_atom_site_fract_y
_atom_site_fract_z
Si Si1 0.854290 0.233055 0.553057
Si Si2 0.131758 0.483718 0.114143
Si Si3 0.561510 0.252349 0.287266
Si Si4 0.398971 0.298853 0.106962
Si Si5 0.758349 0.034578 0.183920
Si Si6 0.751315 0.526934 0.902600
Si Si7 0.999770 0.167525 0.087248
O O1 0.767310 0.374585 0.504606
O O2 0.985480 0.301407 0.611946
O O3 0.907181 0.119096 0.464786
O O4 0.766910 0.137003 0.633781
O O5 0.278106 0.418648 0.086832
O O6 0.138393 0.543566 0.225255
O O7 0.022638 0.346540 0.120276
O O8 0.450628 0.335084 0.217191
O O9 0.616586 0.110585 0.217812
O O10 0.688143 0.362147 0.316580
O O11 0.353966 0.117858 0.085078
O O12 0.518577 0.338306 0.031190
O O13 0.842376 0.135015 0.105200
O O14 0.606204 0.458326 0.867286
#
# Coordination Sequence:
#
# PCOD8157791 Si02
#       7
#     4   4   4   4   4   4   4
#     4  12  26  49  79 114 156 199 264 323 377 472
#     4  11  24  49  72 111 151 200 253 316 393 448
#     4  12  26  48  77 115 148 205 260 312 389 464
#     4  11  25  50  76 111 155 201 256 319 390 467
#     4  12  26  47  75 110 156 202 254 326 386 456
#     4  11  28  46  78 116 146 207 260 316 399 452
#     4  11  27  49  73 109 158 202 253 330 386 455
#
# _framework density 24.549935000000001
#
# number of rings (size 3 to 8) (size 9 to 14) (size 15 to 20)
#    0.000    0.571    4.286    2.571    8.000    0.000 
#    2.571    0.000    0.000    0.000    0.000    0.000 
#    0.000    0.000    0.000    0.000    0.000    0.000 
#
# Total GULP energy -347003.641381 kJ/mol
# GULP energy per Si atom -12392.987192 kJ/mol
# Density = 2.449406 g / cm^3
# Si number density = 24.549935 Si / 1000 Ang^3
#
#
#
# Elastic Constant Matrix: (Units=GPa)
#
#
# Indices 1 2 3 4 5 6 
#
# 1 98.2552 37.2727 37.4816 0.0000 0.0000 0.0000
# 2 37.2727 69.9124 40.5565 0.0000 0.0000 0.0000
# 3 37.4816 40.5565 122.9275 0.0000 0.0000 0.0000
# 4 0.0000 0.0000 0.0000 34.1007 0.0000 0.0000
# 5 0.0000 0.0000 0.0000 0.0000 45.6335 0.0000
# 6 0.0000 0.0000 0.0000 0.0000 0.0000 24.6048
#
#
#
# Elastic Compliance Matrix: (Units=1/GPa)
#
#
# Indices 1 2 3 4 5 6 
#
# 1 0.013183 -0.005808 -0.002103 0.000000 0.000000 0.000000
# 2 -0.005808 0.020248 -0.004909 0.000000 0.000000 0.000000
# 3 -0.002103 -0.004909 0.010396 0.000000 0.000000 0.000000
# 4 0.000000 0.000000 0.000000 0.029325 0.000000 0.000000
# 5 0.000000 0.000000 0.000000 0.000000 0.021914 0.000000
# 6 0.000000 0.000000 0.000000 0.000000 0.000000 0.040642
#
#
# Mechanical properties :
#
#
# Convention : Reuss Voigt Hill
#
# Bulk Modulus (GPa) = 54.98938 57.96855 56.47896
# Shear Modulus (GPa) = 29.86638 32.58674 31.22656
#
# Velocity S-wave (km/s) = 3.49170 3.64726 3.57033
# Velocity P-wave (km/s) = 6.22122 6.43431 6.32866
#
# Compressibility (1/GPa) = 0.01818533
#
# Stress axis : x y z
#
# Youngs Moduli (GPa) = 75.85335 49.38728 96.19156
#
# Poissons Ratio (x) = 0.28686 0.20233
# Poissons Ratio (y) = 0.44058 0.47223
# Poissons Ratio (z) = 0.15955 0.24246
#
# Static dielectric constant tensor:
#      x y z
#    x 4.362220 0.000000 0.000000 
#    y 0.000000 4.445820 0.000000 
#    z 0.000000 0.000000 4.694010 
# 
# 
# High freq. dielectric constant tensor:
#      x y z
#    x 1.969090 0.000000 0.000000 
#    y 0.000000 1.974610 0.000000 
#    z 0.000000 0.000000 1.988320 
# 
# From -- ./inp_files/6065.got.cif
#   From: 2010.03.12/outbox.cif.g09.slc.cpg/sg19_4_cif.got.tgz:6065.got - 2010.04.10 18:59:41.
