data_PCOD8157799
_publ_section_title
;
Structure prediction by ZEFSAII (Michael W. Deem and Ramdas Pophale) SiO2 
 PCOD8157799
Probable space group: P 21 21 21
;
_chemical_formula_sum "Si O2"
_cell_formula_units_Z 32
_cell_length_a 21.757659
_cell_length_b 5.922395
_cell_length_c 10.523781
_cell_angle_alpha 90.000000
_cell_angle_beta 90.000000
_cell_angle_gamma 90.000000
_cell_volume 1356.067593
_symmetry_space_group_name_H-M "P 21 21 21"
_symmetry_group_IT_number 19
_symmetry_cell_setting 'orthorhombic'
loop_
_space_group_symop_operation_xyz
x,y,z
1/2-x,-y,1/2+z
1/2+x,1/2-y,-z
-x,1/2+y,1/2-z
loop_
_atom_site_type_symbol
_atom_site_label
_atom_site_fract_x
_atom_site_fract_y
_atom_site_fract_z
Si Si1 0.792059 0.872435 0.108482
Si Si2 0.969938 0.269553 0.911610
Si Si3 0.088881 0.410743 0.764908
Si Si4 0.142288 0.078445 0.583421
Si Si5 0.267557 0.876206 0.641130
Si Si6 0.480335 0.213321 0.802611
Si Si7 0.348042 0.268697 0.740486
Si Si8 0.329657 0.520810 0.499463
O O1 0.769660 0.806017 0.247908
O O2 0.823857 0.114524 0.130038
O O3 0.732975 0.877369 0.017644
O O4 0.842559 0.708554 0.047270
O O5 0.926384 0.484743 0.929824
O O6 0.026163 0.301375 0.815371
O O7 0.927416 0.077016 0.850479
O O8 0.996658 0.219820 0.051787
O O9 0.138195 0.236590 0.707592
O O10 0.124318 0.523019 0.883020
O O11 0.196100 0.897528 0.604772
O O12 0.308070 0.781698 0.521743
O O13 0.295342 0.106424 0.690525
O O14 0.489658 0.465980 0.735034
O O15 0.409640 0.143348 0.782105
O O16 0.364415 0.439940 0.626019
#
# Coordination Sequence:
#
# PCOD8157799 Si02
#       8
#     4   4   4   4   4   4   4   4
#     4  11  25  44  70 109 147 194 253 314 403 463
#     4  12  28  50  78 111 157 206 267 323 402 483
#     4  12  27  48  74 111 154 204 257 327 399 482
#     4  12  26  45  75 109 150 201 251 324 394 484
#     4  11  26  44  73 109 147 202 253 324 397 479
#     4  12  31  52  83 114 157 215 272 338 395 474
#     4  11  25  47  72 105 151 199 258 323 395 479
#     4  11  26  44  73 110 153 195 255 325 391 486
#
# _framework density 23.597643999999999
#
# number of rings (size 3 to 8) (size 9 to 14) (size 15 to 20)
#    0.000    0.500    2.500    3.750   17.500    2.000 
#    0.000    0.000    0.000    0.000    0.000    0.000 
#    0.000    0.000    0.000    0.000    0.000    0.000 
#
# Total GULP energy -396546.249467 kJ/mol
# GULP energy per Si atom -12392.070296 kJ/mol
# Density = 2.354393 g / cm^3
# Si number density = 23.597644 Si / 1000 Ang^3
#
#
#
# Elastic Constant Matrix: (Units=GPa)
#
#
# Indices 1 2 3 4 5 6 
#
# 1 86.9813 19.6297 14.0934 0.0000 0.0000 0.0000
# 2 19.6297 78.6244 21.5256 0.0000 0.0000 0.0000
# 3 14.0934 21.5256 109.5988 0.0000 0.0000 0.0000
# 4 0.0000 0.0000 0.0000 44.2467 0.0000 0.0000
# 5 0.0000 0.0000 0.0000 0.0000 44.9995 0.0000
# 6 0.0000 0.0000 0.0000 0.0000 0.0000 42.0845
#
#
#
# Elastic Compliance Matrix: (Units=1/GPa)
#
#
# Indices 1 2 3 4 5 6 
#
# 1 0.012293 -0.002786 -0.001034 0.000000 0.000000 0.000000
# 2 -0.002786 0.014073 -0.002406 0.000000 0.000000 0.000000
# 3 -0.001034 -0.002406 0.009730 0.000000 0.000000 0.000000
# 4 0.000000 0.000000 0.000000 0.022601 0.000000 0.000000
# 5 0.000000 0.000000 0.000000 0.000000 0.022222 0.000000
# 6 0.000000 0.000000 0.000000 0.000000 0.000000 0.023762
#
#
# Mechanical properties :
#
#
# Convention : Reuss Voigt Hill
#
# Bulk Modulus (GPa) = 42.29283 42.85575 42.57429
# Shear Modulus (GPa) = 39.99597 40.92985 40.46291
#
# Velocity S-wave (km/s) = 4.12140 4.16924 4.14539
# Velocity P-wave (km/s) = 6.37254 6.43251 6.40260
#
# Compressibility (1/GPa) = 0.02364467
#
# Stress axis : x y z
#
# Youngs Moduli (GPa) = 81.34736 71.05840 102.77931
#
# Poissons Ratio (x) = 0.19798 0.10623
# Poissons Ratio (y) = 0.22665 0.24726
# Poissons Ratio (z) = 0.08408 0.17094
#
# Static dielectric constant tensor:
#      x y z
#    x 4.201510 0.000000 0.000000 
#    y 0.000000 4.295430 0.000000 
#    z 0.000000 0.000000 4.413600 
# 
# 
# High freq. dielectric constant tensor:
#      x y z
#    x 1.941930 0.000000 0.000000 
#    y 0.000000 1.929090 0.000000 
#    z 0.000000 0.000000 1.950130 
# 
# From -- ./inp_files/5464.got.cif
#   From: 2010.03.12/outbox.cif.g09.slc.cpg/sg19_3_cif.got.tgz:5464.got - 2010.04.10 18:59:41.
