data_PCOD8157697
_publ_section_title
;
Structure prediction by ZEFSAII (Michael W. Deem and Ramdas Pophale) SiO2 
 PCOD8157697
Probable space group: P 21 21 21
;
_chemical_formula_sum "Si O2"
_cell_formula_units_Z 32
_cell_length_a 7.827896
_cell_length_b 15.352357
_cell_length_c 11.377738
_cell_angle_alpha 90.000000
_cell_angle_beta 90.000000
_cell_angle_gamma 90.000000
_cell_volume 1367.338482
_symmetry_space_group_name_H-M "P 21 21 21"
_symmetry_group_IT_number 19
_symmetry_cell_setting 'orthorhombic'
loop_
_space_group_symop_operation_xyz
x,y,z
1/2-x,-y,1/2+z
1/2+x,1/2-y,-z
-x,1/2+y,1/2-z
loop_
_atom_site_type_symbol
_atom_site_label
_atom_site_fract_x
_atom_site_fract_y
_atom_site_fract_z
Si Si1 0.748605 0.831100 0.028992
Si Si2 0.188374 0.424635 0.253394
Si Si3 0.516219 0.431905 0.851196
Si Si4 0.540486 0.670504 0.598327
Si Si5 0.242871 0.007881 0.942009
Si Si6 0.915268 0.658049 0.109441
Si Si7 0.924239 0.929462 0.837588
Si Si8 0.800390 0.824784 0.619402
O O1 0.693532 0.892882 0.138051
O O2 0.794104 0.739134 0.086032
O O3 0.603932 0.817925 0.932342
O O4 0.904821 0.878245 0.960946
O O5 0.119774 0.337471 0.188005
O O6 0.287850 0.492307 0.170772
O O7 0.019544 0.473238 0.300364
O O8 0.577604 0.365694 0.748425
O O9 0.340968 0.397674 0.914085
O O10 0.661893 0.442348 0.947593
O O11 0.622253 0.575666 0.606975
O O12 0.686985 0.737763 0.638093
O O13 0.450223 0.693385 0.474450
O O14 0.350049 0.921363 0.972385
O O15 0.108700 0.976380 0.841202
O O16 0.902394 0.858234 0.734480
#
# Coordination Sequence:
#
# PCOD8157697 Si02
#       8
#     4   4   4   4   4   4   4   4
#     4  12  25  49  72 107 149 191 246 317 381 441
#     4  11  24  44  78  99 145 190 244 301 383 442
#     4  11  23  46  75 103 151 193 242 322 366 462
#     4  12  26  47  71 109 146 199 242 310 375 465
#     4  12  26  45  75 107 149 195 262 299 385 450
#     4  12  27  47  70 113 151 195 253 315 384 449
#     4  11  25  47  74 109 144 195 247 316 371 458
#     4  11  26  47  75 105 155 188 254 308 389 451
#
# _framework density 23.403130999999998
#
# number of rings (size 3 to 8) (size 9 to 14) (size 15 to 20)
#    0.000    0.500    5.000    3.000    7.000    0.000 
#    6.750    0.000    0.000    0.000    0.000    0.000 
#    0.000    0.000    0.000    0.000    0.000    0.000 
#
# Total GULP energy -396599.104873 kJ/mol
# GULP energy per Si atom -12393.722027 kJ/mol
# Density = 2.334986 g / cm^3
# Si number density = 23.403131 Si / 1000 Ang^3
#
#
#
# Elastic Constant Matrix: (Units=GPa)
#
#
# Indices 1 2 3 4 5 6 
#
# 1 78.3383 23.2099 25.7649 0.0000 0.0000 0.0000
# 2 23.2099 116.8550 37.3164 0.0000 0.0000 0.0000
# 3 25.7649 37.3164 102.6615 0.0000 0.0000 0.0000
# 4 0.0000 0.0000 0.0000 29.8530 0.0000 0.0000
# 5 0.0000 0.0000 0.0000 0.0000 39.3237 0.0000
# 6 0.0000 0.0000 0.0000 0.0000 0.0000 45.6897
#
#
#
# Elastic Compliance Matrix: (Units=1/GPa)
#
#
# Indices 1 2 3 4 5 6 
#
# 1 0.014282 -0.001914 -0.002889 0.000000 0.000000 0.000000
# 2 -0.001914 0.009938 -0.003132 0.000000 0.000000 0.000000
# 3 -0.002889 -0.003132 0.011604 0.000000 0.000000 0.000000
# 4 0.000000 0.000000 0.000000 0.033498 0.000000 0.000000
# 5 0.000000 0.000000 0.000000 0.000000 0.025430 0.000000
# 6 0.000000 0.000000 0.000000 0.000000 0.000000 0.021887
#
#
# Mechanical properties :
#
#
# Convention : Reuss Voigt Hill
#
# Bulk Modulus (GPa) = 50.11334 52.27081 51.19208
# Shear Modulus (GPa) = 35.92987 37.07752 36.50369
#
# Velocity S-wave (km/s) = 3.92249 3.98464 3.95369
# Velocity P-wave (km/s) = 6.47875 6.59949 6.53940
#
# Compressibility (1/GPa) = 0.01995477
#
# Stress axis : x y z
#
# Youngs Moduli (GPa) = 70.01639 100.62402 86.17629
#
# Poissons Ratio (x) = 0.19263 0.24893
# Poissons Ratio (y) = 0.13404 0.26990
# Poissons Ratio (z) = 0.20225 0.31515
#
# Static dielectric constant tensor:
#      x y z
#    x 4.190450 0.000000 0.000000 
#    y 0.000000 4.318110 0.000000 
#    z 0.000000 0.000000 4.215760 
# 
# 
# High freq. dielectric constant tensor:
#      x y z
#    x 1.923600 0.000000 0.000000 
#    y 0.000000 1.936520 0.000000 
#    z 0.000000 0.000000 1.922240 
# 
# From -- ./inp_files/4674.got.cif
#   From: 2010.03.12/outbox.cif.g09.slc.cpg/sg19_3_cif.got.tgz:4674.got - 2010.04.10 18:59:41.
