data_PCOD8157403
_publ_section_title
;
Structure prediction by ZEFSAII (Michael W. Deem and Ramdas Pophale) SiO2 
 PCOD8157403
Probable space group: P 21 21 21
;
_chemical_formula_sum "Si O2"
_cell_formula_units_Z 28
_cell_length_a 12.531838
_cell_length_b 11.460562
_cell_length_c 9.475481
_cell_angle_alpha 90.000000
_cell_angle_beta 90.000000
_cell_angle_gamma 90.000000
_cell_volume 1360.886645
_symmetry_space_group_name_H-M "P 21 21 21"
_symmetry_group_IT_number 19
_symmetry_cell_setting 'orthorhombic'
loop_
_space_group_symop_operation_xyz
x,y,z
1/2-x,-y,1/2+z
1/2+x,1/2-y,-z
-x,1/2+y,1/2-z
loop_
_atom_site_type_symbol
_atom_site_label
_atom_site_fract_x
_atom_site_fract_y
_atom_site_fract_z
Si Si1 0.370769 0.694660 0.807960
Si Si2 0.319080 0.291156 0.123089
Si Si3 0.195832 0.559602 0.354260
Si Si4 0.419735 0.443614 0.353553
Si Si5 0.235549 0.870648 0.973620
Si Si6 0.913585 0.202219 0.378679
Si Si7 0.145206 0.959663 0.684287
O O1 0.307146 0.708415 0.660709
O O2 0.374744 0.557907 0.847979
O O3 0.486409 0.752072 0.787320
O O4 0.311439 0.762678 0.933837
O O5 0.385372 0.334543 0.258252
O O6 0.355829 0.159605 0.093715
O O7 0.342669 0.373678 0.992782
O O8 0.322079 0.535077 0.358199
O O9 0.173821 0.643210 0.222027
O O10 0.448568 0.396081 0.508760
O O11 0.523375 0.504122 0.287836
O O12 0.130927 0.816422 0.044267
O O13 0.292823 0.947166 0.091193
O O14 0.204071 0.945239 0.835053
#
# Coordination Sequence:
#
# PCOD8157403 Si02
#       7
#     4   4   4   4   4   4   4
#     4  10  23  44  68  95 144 172 232 283 345 406
#     4  10  24  44  61 104 137 171 234 285 322 425
#     4  11  25  41  70 101 138 178 233 283 337 416
#     4  11  22  44  70  94 132 183 228 279 341 403
#     4  11  25  45  66 100 136 180 227 288 340 420
#     4  12  24  43  72 101 136 187 223 285 355 399
#     4  11  25  45  69  95 143 175 225 283 350 405
#
# _framework density 20.574821
#
# number of rings (size 3 to 8) (size 9 to 14) (size 15 to 20)
#    0.000    1.143    5.714    1.714    4.000    5.714 
#    0.000    0.000    0.000    0.000    0.000    0.000 
#    0.000    0.000    0.000    0.000    0.000    0.000 
#
# Total GULP energy -347264.693594 kJ/mol
# GULP energy per Si atom -12402.310486 kJ/mol
# Density = 2.052799 g / cm^3
# Si number density = 20.574821 Si / 1000 Ang^3
#
#
#
# Elastic Constant Matrix: (Units=GPa)
#
#
# Indices 1 2 3 4 5 6 
#
# 1 99.2050 35.3499 21.5982 0.0000 0.0000 0.0000
# 2 35.3499 97.6281 39.4630 0.0000 0.0000 0.0000
# 3 21.5982 39.4630 96.2248 0.0000 0.0000 0.0000
# 4 0.0000 0.0000 0.0000 39.9809 0.0000 0.0000
# 5 0.0000 0.0000 0.0000 0.0000 21.4473 0.0000
# 6 0.0000 0.0000 0.0000 0.0000 0.0000 27.4107
#
#
#
# Elastic Compliance Matrix: (Units=1/GPa)
#
#
# Indices 1 2 3 4 5 6 
#
# 1 0.011663 -0.003794 -0.001062 0.000000 0.000000 0.000000
# 2 -0.003794 0.013512 -0.004690 0.000000 0.000000 0.000000
# 3 -0.001062 -0.004690 0.012554 0.000000 0.000000 0.000000
# 4 0.000000 0.000000 0.000000 0.025012 0.000000 0.000000
# 5 0.000000 0.000000 0.000000 0.000000 0.046626 0.000000
# 6 0.000000 0.000000 0.000000 0.000000 0.000000 0.036482
#
#
# Mechanical properties :
#
#
# Convention : Reuss Voigt Hill
#
# Bulk Modulus (GPa) = 53.65369 53.98668 53.82018
# Shear Modulus (GPa) = 29.21342 30.87756 30.04549
#
# Velocity S-wave (km/s) = 3.77219 3.87815 3.82554
# Velocity P-wave (km/s) = 6.71614 6.80805 6.76225
#
# Compressibility (1/GPa) = 0.01863805
#
# Stress axis : x y z
#
# Youngs Moduli (GPa) = 85.73964 74.00573 79.65494
#
# Poissons Ratio (x) = 0.28077 0.08459
# Poissons Ratio (y) = 0.32528 0.37359
# Poissons Ratio (z) = 0.09105 0.34709
#
# Static dielectric constant tensor:
#      x y z
#    x 3.705640 0.000000 0.000000 
#    y 0.000000 3.807610 0.000000 
#    z 0.000000 0.000000 3.679540 
# 
# 
# High freq. dielectric constant tensor:
#      x y z
#    x 1.800050 0.000000 0.000000 
#    y 0.000000 1.814760 0.000000 
#    z 0.000000 0.000000 1.801550 
# 
# From -- ./inp_files/3472.got.cif
#   From: 2010.03.12/outbox.cif.g09.slc.cpg/sg19_2_cif.got.tgz:3472.got - 2010.04.10 18:59:41.
