data_PCOD8157879
_publ_section_title
;
Structure prediction by ZEFSAII (Michael W. Deem and Ramdas Pophale) SiO2 
 PCOD8157879
Probable space group: P 21 21 21
;
_chemical_formula_sum "Si O2"
_cell_formula_units_Z 28
_cell_length_a 13.704143
_cell_length_b 6.915499
_cell_length_c 13.667858
_cell_angle_alpha 90.000000
_cell_angle_beta 90.000000
_cell_angle_gamma 90.000000
_cell_volume 1295.316396
_symmetry_space_group_name_H-M "P 21 21 21"
_symmetry_group_IT_number 19
_symmetry_cell_setting 'orthorhombic'
loop_
_space_group_symop_operation_xyz
x,y,z
1/2-x,-y,1/2+z
1/2+x,1/2-y,-z
-x,1/2+y,1/2-z
loop_
_atom_site_type_symbol
_atom_site_label
_atom_site_fract_x
_atom_site_fract_y
_atom_site_fract_z
Si Si1 0.177180 0.182404 0.451954
Si Si2 0.573105 0.298308 0.049923
Si Si3 0.708984 0.478180 0.205476
Si Si4 0.363311 0.160510 0.096485
Si Si5 0.631822 0.810620 0.765218
Si Si6 0.787124 0.984068 0.444525
Si Si7 0.487479 0.553621 0.882416
O O1 0.254526 0.315194 0.507791
O O2 0.072024 0.282887 0.441184
O O3 0.217496 0.131226 0.344390
O O4 0.167020 0.983755 0.510497
O O5 0.621302 0.429114 0.132810
O O6 0.477413 0.201515 0.093912
O O7 0.645400 0.127227 0.020608
O O8 0.553715 0.433542 0.956723
O O9 0.661691 0.573403 0.299477
O O10 0.765851 0.284592 0.235889
O O11 0.308220 0.361767 0.081439
O O12 0.557339 0.646732 0.801597
O O13 0.650099 0.971665 0.847737
O O14 0.589020 0.910781 0.668894
#
# Coordination Sequence:
#
# PCOD8157879 Si02
#       7
#     4   4   4   4   4   4   4
#     4  12  24  48  74 103 149 195 239 308 366 430
#     4  12  26  45  73 107 147 192 244 304 375 437
#     4  12  26  45  73 107 147 192 244 304 375 437
#     4  12  26  48  72 106 148 190 254 294 366 458
#     4  12  24  44  73 109 145 195 254 308 368 435
#     4  12  24  48  74 103 149 195 239 308 366 430
#     4  12  24  44  73 109 145 195 254 308 368 435
#
# _framework density 21.616343000000001
#
# number of rings (size 3 to 8) (size 9 to 14) (size 15 to 20)
#    0.000    0.000    4.286    6.857    0.000    3.429 
#    0.000    0.000    0.000    0.000    0.000    0.000 
#    0.000    0.000    0.000    0.000    0.000    0.000 
#
# Total GULP energy -347520.005547 kJ/mol
# GULP energy per Si atom -12411.428770 kJ/mol
# Density = 2.156714 g / cm^3
# Si number density = 21.616343 Si / 1000 Ang^3
#
#
#
# Elastic Constant Matrix: (Units=GPa)
#
#
# Indices 1 2 3 4 5 6 
#
# 1 91.0019 18.6320 18.3038 0.0000 0.0000 0.0000
# 2 18.6320 80.9820 20.2569 0.0000 0.0000 0.0000
# 3 18.3038 20.2569 92.8722 0.0000 0.0000 0.0000
# 4 0.0000 0.0000 0.0000 24.4315 0.0000 0.0000
# 5 0.0000 0.0000 0.0000 0.0000 49.3158 0.0000
# 6 0.0000 0.0000 0.0000 0.0000 0.0000 42.6350
#
#
#
# Elastic Compliance Matrix: (Units=1/GPa)
#
#
# Indices 1 2 3 4 5 6 
#
# 1 0.011821 -0.002260 -0.001837 0.000000 0.000000 0.000000
# 2 -0.002260 0.013493 -0.002498 0.000000 0.000000 0.000000
# 3 -0.001837 -0.002498 0.011674 0.000000 0.000000 0.000000
# 4 0.000000 0.000000 0.000000 0.040931 0.000000 0.000000
# 5 0.000000 0.000000 0.000000 0.000000 0.020277 0.000000
# 6 0.000000 0.000000 0.000000 0.000000 0.000000 0.023455
#
#
# Mechanical properties :
#
#
# Convention : Reuss Voigt Hill
#
# Bulk Modulus (GPa) = 42.01826 42.13794 42.07810
# Shear Modulus (GPa) = 35.02040 37.12069 36.07055
#
# Velocity S-wave (km/s) = 4.02940 4.14847 4.08937
# Velocity P-wave (km/s) = 6.41315 6.51784 6.46571
#
# Compressibility (1/GPa) = 0.02379918
#
# Stress axis : x y z
#
# Youngs Moduli (GPa) = 84.59526 74.11134 85.65865
#
# Poissons Ratio (x) = 0.16751 0.15733
# Poissons Ratio (y) = 0.19121 0.21394
# Poissons Ratio (z) = 0.15538 0.18510
#
# Static dielectric constant tensor:
#      x y z
#    x 3.994080 0.000000 0.000000 
#    y 0.000000 3.977100 0.000000 
#    z 0.000000 0.000000 4.053660 
# 
# 
# High freq. dielectric constant tensor:
#      x y z
#    x 1.861920 0.000000 0.000000 
#    y 0.000000 1.861630 0.000000 
#    z 0.000000 0.000000 1.860870 
# 
# From -- ./inp_files/1470.got.cif
#   From: 2010.03.12/outbox.cif.g09.slc.cpg/sg19_1_cif.got.tgz:1470.got - 2010.04.10 18:59:41.
