data_PCOD8157016
_publ_section_title
;
Structure prediction by ZEFSAII (Michael W. Deem and Ramdas Pophale) SiO2 
 PCOD8157016
Probable space group: P 21 21 21
;
_chemical_formula_sum "Si O2"
_cell_formula_units_Z 24
_cell_length_a 5.023449
_cell_length_b 14.383996
_cell_length_c 13.315453
_cell_angle_alpha 90.000000
_cell_angle_beta 90.000000
_cell_angle_gamma 90.000000
_cell_volume 962.138287
_symmetry_space_group_name_H-M "P 21 21 21"
_symmetry_group_IT_number 19
_symmetry_cell_setting 'orthorhombic'
loop_
_space_group_symop_operation_xyz
x,y,z
1/2-x,-y,1/2+z
1/2+x,1/2-y,-z
-x,1/2+y,1/2-z
loop_
_atom_site_type_symbol
_atom_site_label
_atom_site_fract_x
_atom_site_fract_y
_atom_site_fract_z
Si Si1 0.983306 0.690615 0.998298
Si Si2 0.406991 0.803363 0.651987
Si Si3 0.541583 0.643161 0.514686
Si Si4 0.439156 0.301400 0.286991
Si Si5 0.479070 0.434468 0.113041
Si Si6 0.777187 0.117835 0.313138
O O1 0.076891 0.642350 0.892590
O O2 0.173175 0.781966 0.007118
O O3 0.022251 0.621022 0.091525
O O4 0.578390 0.744430 0.570018
O O5 0.126845 0.838694 0.601915
O O6 0.347330 0.733132 0.745406
O O7 0.568120 0.888350 0.705010
O O8 0.247467 0.603341 0.535779
O O9 0.749112 0.563152 0.550200
O O10 0.561851 0.364371 0.201089
O O11 0.607838 0.210523 0.311247
O O12 0.409255 0.529314 0.169154
#
# Coordination Sequence:
#
# PCOD8157016 Si02
#       6
#     4   4   4   4   4   4
#     4  10  21  39  64  94 128 180 231 284 347 421
#     4  11  22  44  72  99 135 197 229 295 359 433
#     4  11  25  43  68 101 142 178 240 291 355 416
#     4  10  22  43  68  97 140 180 239 287 356 420
#     4  11  26  43  66 108 142 180 238 299 344 433
#     4  11  24  42  72  99 145 189 237 290 365 427
#
# _framework density 24.94444
#
# number of rings (size 3 to 8) (size 9 to 14) (size 15 to 20)
#    0.000    1.333    3.333    2.000    4.667    1.333 
#    0.000    0.000    0.000    0.000    0.000    0.000 
#    0.000    0.000    0.000    0.000    0.000    0.000 
#
# Total GULP energy -297318.708360 kJ/mol
# GULP energy per Si atom -12388.279515 kJ/mol
# Density = 2.488767 g / cm^3
# Si number density = 24.944440 Si / 1000 Ang^3
#
#
#
# Elastic Constant Matrix: (Units=GPa)
#
#
# Indices 1 2 3 4 5 6 
#
# 1 75.6530 1.9052 23.5939 0.0000 0.0000 0.0000
# 2 1.9052 61.5400 6.2558 0.0000 0.0000 0.0000
# 3 23.5939 6.2558 122.5951 0.0000 0.0000 0.0000
# 4 0.0000 0.0000 0.0000 26.4136 0.0000 0.0000
# 5 0.0000 0.0000 0.0000 0.0000 36.0752 0.0000
# 6 0.0000 0.0000 0.0000 0.0000 0.0000 22.5919
#
#
#
# Elastic Compliance Matrix: (Units=1/GPa)
#
#
# Indices 1 2 3 4 5 6 
#
# 1 0.014064 -0.000161 -0.002698 0.000000 0.000000 0.000000
# 2 -0.000161 0.016336 -0.000803 0.000000 0.000000 0.000000
# 3 -0.002698 -0.000803 0.008717 0.000000 0.000000 0.000000
# 4 0.000000 0.000000 0.000000 0.037859 0.000000 0.000000
# 5 0.000000 0.000000 0.000000 0.000000 0.027720 0.000000
# 6 0.000000 0.000000 0.000000 0.000000 0.000000 0.044264
#
#
# Mechanical properties :
#
#
# Convention : Reuss Voigt Hill
#
# Bulk Modulus (GPa) = 31.45349 35.92201 33.68775
# Shear Modulus (GPa) = 29.96131 32.21836 31.08984
#
# Velocity S-wave (km/s) = 3.46948 3.59779 3.53422
# Velocity P-wave (km/s) = 5.35598 5.62946 5.49442
#
# Compressibility (1/GPa) = 0.03179298
#
# Stress axis : x y z
#
# Youngs Moduli (GPa) = 71.10425 61.21391 114.71563
#
# Poissons Ratio (x) = 0.00986 0.30955
# Poissons Ratio (y) = 0.01146 0.09207
# Poissons Ratio (z) = 0.19187 0.04913
#
# Static dielectric constant tensor:
#      x y z
#    x 4.384490 0.000000 0.000000 
#    y 0.000000 4.078110 0.000000 
#    z 0.000000 0.000000 5.424290 
# 
# 
# High freq. dielectric constant tensor:
#      x y z
#    x 1.993980 0.000000 0.000000 
#    y 0.000000 1.941040 0.000000 
#    z 0.000000 0.000000 2.019930 
# 
# From -- ./inp_files/1452.got.cif
#   From: 2010.03.12/outbox.cif.g09.slc.cpg/sg19_1_cif.got.tgz:1452.got - 2010.04.10 18:59:41.
