data_PCOD8157172
_publ_section_title
;
Structure prediction by ZEFSAII (Michael W. Deem and Ramdas Pophale) SiO2 
 PCOD8157172
Probable space group: P 21 21 21
;
_chemical_formula_sum "Si O2"
_cell_formula_units_Z 24
_cell_length_a 5.154503
_cell_length_b 23.465299
_cell_length_c 9.430437
_cell_angle_alpha 90.000000
_cell_angle_beta 90.000000
_cell_angle_gamma 90.000000
_cell_volume 1140.629783
_symmetry_space_group_name_H-M "P 21 21 21"
_symmetry_group_IT_number 19
_symmetry_cell_setting 'orthorhombic'
loop_
_space_group_symop_operation_xyz
x,y,z
1/2-x,-y,1/2+z
1/2+x,1/2-y,-z
-x,1/2+y,1/2-z
loop_
_atom_site_type_symbol
_atom_site_label
_atom_site_fract_x
_atom_site_fract_y
_atom_site_fract_z
Si Si1 0.412948 0.674512 0.986147
Si Si2 0.601674 0.031713 0.921228
Si Si3 0.412186 0.794027 0.850928
Si Si4 0.409745 0.785266 0.528230
Si Si5 0.200390 0.563045 0.860671
Si Si6 0.910224 0.596417 0.605939
O O1 0.690586 0.673442 0.061862
O O2 0.188935 0.681367 0.103044
O O3 0.395349 0.726038 0.873796
O O4 0.383901 0.615482 0.903371
O O5 0.639381 0.022960 0.750754
O O6 0.328872 0.060629 0.954805
O O7 0.832260 0.073534 0.975638
O O8 0.612697 0.971430 0.000988
O O9 0.367983 0.807472 0.686942
O O10 0.700574 0.762271 0.511880
O O11 0.367352 0.837157 0.420631
O O12 0.947827 0.587502 0.776318
#
# Coordination Sequence:
#
# PCOD8157172 Si02
#       6
#     4   4   4   4   4   4
#     4  10  22  40  64  91 130 171 213 271 325 393
#     4  10  25  42  67  95 128 172 226 271 332 385
#     4  10  23  39  61  98 130 167 220 262 330 399
#     4  12  24  41  69  98 136 176 215 273 332 407
#     4  10  25  43  71  93 132 179 221 280 330 391
#     4  10  25  41  64  99 130 171 217 271 335 385
#
# _framework density 21.041005999999999
#
# number of rings (size 3 to 8) (size 9 to 14) (size 15 to 20)
#    1.000    0.667    0.000    3.000    7.000    4.000 
#    0.000    0.000    0.000    0.000    0.000    0.000 
#    0.000    0.000    0.000    0.000    0.000    0.000 
#
# Total GULP energy -297584.864034 kJ/mol
# GULP energy per Si atom -12399.369335 kJ/mol
# Density = 2.099312 g / cm^3
# Si number density = 21.041006 Si / 1000 Ang^3
#
#
#
# Elastic Constant Matrix: (Units=GPa)
#
#
# Indices 1 2 3 4 5 6 
#
# 1 80.4851 -7.3976 10.6391 0.0000 0.0000 0.0000
# 2 -7.3976 74.3402 48.9226 0.0000 0.0000 0.0000
# 3 10.6391 48.9226 107.8217 0.0000 0.0000 0.0000
# 4 0.0000 0.0000 0.0000 36.2881 0.0000 0.0000
# 5 0.0000 0.0000 0.0000 0.0000 19.3601 0.0000
# 6 0.0000 0.0000 0.0000 0.0000 0.0000 28.0878
#
#
#
# Elastic Compliance Matrix: (Units=1/GPa)
#
#
# Indices 1 2 3 4 5 6 
#
# 1 0.013060 0.003062 -0.002678 0.000000 0.000000 0.000000
# 2 0.003062 0.019896 -0.009330 0.000000 0.000000 0.000000
# 3 -0.002678 -0.009330 0.013772 0.000000 0.000000 0.000000
# 4 0.000000 0.000000 0.000000 0.027557 0.000000 0.000000
# 5 0.000000 0.000000 0.000000 0.000000 0.051653 0.000000
# 6 0.000000 0.000000 0.000000 0.000000 0.000000 0.035603
#
#
# Mechanical properties :
#
#
# Convention : Reuss Voigt Hill
#
# Bulk Modulus (GPa) = 34.67790 40.77501 37.72645
# Shear Modulus (GPa) = 26.44874 30.77937 28.61406
#
# Velocity S-wave (km/s) = 3.54928 3.82884 3.69171
# Velocity P-wave (km/s) = 5.77178 6.24240 6.01170
#
# Compressibility (1/GPa) = 0.02883681
#
# Stress axis : x y z
#
# Youngs Moduli (GPa) = 76.56908 50.26083 72.61077
#
# Poissons Ratio (x) = -0.15390 0.19445
# Poissons Ratio (y) = -0.23445 0.67744
# Poissons Ratio (z) = 0.20505 0.46892
#
# Static dielectric constant tensor:
#      x y z
#    x 3.860130 0.000000 0.000000 
#    y 0.000000 3.572940 0.000000 
#    z 0.000000 0.000000 3.645280 
# 
# 
# High freq. dielectric constant tensor:
#      x y z
#    x 1.836760 0.000000 0.000000 
#    y 0.000000 1.811100 0.000000 
#    z 0.000000 0.000000 1.816150 
# 
# From -- ./inp_files/2410.got.cif
#   From: 2010.03.12/outbox.cif.g09.slc.cpg/sg19_2_cif.got.tgz:2410.got - 2010.04.10 18:59:41.
