data_PCOD8157525
_publ_section_title
;
Structure prediction by ZEFSAII (Michael W. Deem and Ramdas Pophale) SiO2 
 PCOD8157525
Probable space group: P 21 21 21
;
_chemical_formula_sum "Si O2"
_cell_formula_units_Z 28
_cell_length_a 11.805477
_cell_length_b 18.480280
_cell_length_c 5.299767
_cell_angle_alpha 90.000000
_cell_angle_beta 90.000000
_cell_angle_gamma 90.000000
_cell_volume 1156.242325
_symmetry_space_group_name_H-M "P 21 21 21"
_symmetry_group_IT_number 19
_symmetry_cell_setting 'orthorhombic'
loop_
_space_group_symop_operation_xyz
x,y,z
1/2-x,-y,1/2+z
1/2+x,1/2-y,-z
-x,1/2+y,1/2-z
loop_
_atom_site_type_symbol
_atom_site_label
_atom_site_fract_x
_atom_site_fract_y
_atom_site_fract_z
Si Si1 0.268766 0.452922 0.647691
Si Si2 0.498831 0.405723 0.871640
Si Si3 0.557420 0.770236 0.355632
Si Si4 0.942116 0.858380 0.835724
Si Si5 0.369594 0.205777 0.633112
Si Si6 0.191209 0.101647 0.460047
Si Si7 0.094784 0.981199 0.787312
O O1 0.269032 0.499902 0.391345
O O2 0.390847 0.418050 0.693649
O O3 0.184572 0.384290 0.607328
O O4 0.472662 0.354516 0.113523
O O5 0.600194 0.361866 0.729422
O O6 0.543269 0.484840 0.955268
O O7 0.447158 0.716922 0.323812
O O8 0.635915 0.761186 0.106557
O O9 0.626358 0.747427 0.605066
O O10 0.020160 0.846638 0.089805
O O11 0.005873 0.922505 0.679905
O O12 0.252353 0.160294 0.636963
O O13 0.108386 0.047720 0.603228
O O14 0.284372 0.056718 0.309306
#
# Coordination Sequence:
#
# PCOD8157525 Si02
#       7
#     4   4   4   4   4   4   4
#     4  12  27  45  71  99 138 189 237 288 340 414
#     4  12  27  44  69 108 139 180 242 291 344 419
#     4  10  25  45  70 101 143 181 229 281 350 419
#     4   9  23  45  71  95 141 185 229 283 352 412
#     4   9  24  45  69 100 137 185 224 275 360 412
#     4  11  24  38  73 103 139 179 229 301 348 412
#     4  11  22  42  71 104 135 177 238 291 356 404
#
# _framework density 24.216377000000001
#
# number of rings (size 3 to 8) (size 9 to 14) (size 15 to 20)
#    0.857    0.571    2.857    0.857    8.000    1.143 
#    2.571    0.000    0.000    0.000    0.000    0.000 
#    0.000    0.000    0.000    0.000    0.000    0.000 
#
# Total GULP energy -346934.717813 kJ/mol
# GULP energy per Si atom -12390.525636 kJ/mol
# Density = 2.416126 g / cm^3
# Si number density = 24.216377 Si / 1000 Ang^3
#
#
#
# Elastic Constant Matrix: (Units=GPa)
#
#
# Indices 1 2 3 4 5 6 
#
# 1 113.9994 22.5937 -6.4799 0.0000 0.0000 0.0000
# 2 22.5937 66.3844 -1.6788 0.0000 0.0000 0.0000
# 3 -6.4799 -1.6788 62.8316 0.0000 0.0000 0.0000
# 4 0.0000 0.0000 0.0000 34.8534 0.0000 0.0000
# 5 0.0000 0.0000 0.0000 0.0000 16.3556 0.0000
# 6 0.0000 0.0000 0.0000 0.0000 0.0000 16.7590
#
#
#
# Elastic Compliance Matrix: (Units=1/GPa)
#
#
# Indices 1 2 3 4 5 6 
#
# 1 0.009456 -0.003196 0.000890 0.000000 0.000000 0.000000
# 2 -0.003196 0.016154 0.000102 0.000000 0.000000 0.000000
# 3 0.000890 0.000102 0.016010 0.000000 0.000000 0.000000
# 4 0.000000 0.000000 0.000000 0.028692 0.000000 0.000000
# 5 0.000000 0.000000 0.000000 0.000000 0.061141 0.000000
# 6 0.000000 0.000000 0.000000 0.000000 0.000000 0.059670
#
#
# Mechanical properties :
#
#
# Convention : Reuss Voigt Hill
#
# Bulk Modulus (GPa) = 26.87295 30.23170 28.55232
# Shear Modulus (GPa) = 24.04608 28.84562 26.44585
#
# Velocity S-wave (km/s) = 3.15456 3.45507 3.30823
# Velocity P-wave (km/s) = 4.93856 5.33177 5.13893
#
# Compressibility (1/GPa) = 0.03721215
#
# Stress axis : x y z
#
# Youngs Moduli (GPa) = 105.75368 61.90403 62.46072
#
# Poissons Ratio (x) = 0.19783 -0.05558
# Poissons Ratio (y) = 0.33797 -0.00637
# Poissons Ratio (z) = -0.09410 -0.00632
#
# Static dielectric constant tensor:
#      x y z
#    x 4.340500 0.000000 0.000000 
#    y 0.000000 4.434300 0.000000 
#    z 0.000000 0.000000 4.154580 
# 
# 
# High freq. dielectric constant tensor:
#      x y z
#    x 1.958900 0.000000 0.000000 
#    y 0.000000 1.963370 0.000000 
#    z 0.000000 0.000000 1.942640 
# 
# From -- ./inp_files/1131.got.cif
#   From: 2010.03.12/outbox.cif.g09.slc.cpg/sg19_1_cif.got.tgz:1131.got - 2010.04.10 18:59:41.
