data_PCOD8157872
_publ_section_title
;
Structure prediction by ZEFSAII (Michael W. Deem and Ramdas Pophale) SiO2 
 PCOD8157872
Probable space group: P 21 21 21
;
_chemical_formula_sum "Si O2"
_cell_formula_units_Z 28
_cell_length_a 21.863873
_cell_length_b 5.884665
_cell_length_c 9.089247
_cell_angle_alpha 90.000000
_cell_angle_beta 90.000000
_cell_angle_gamma 90.000000
_cell_volume 1169.436773
_symmetry_space_group_name_H-M "P 21 21 21"
_symmetry_group_IT_number 19
_symmetry_cell_setting 'orthorhombic'
loop_
_space_group_symop_operation_xyz
x,y,z
1/2-x,-y,1/2+z
1/2+x,1/2-y,-z
-x,1/2+y,1/2-z
loop_
_atom_site_type_symbol
_atom_site_label
_atom_site_fract_x
_atom_site_fract_y
_atom_site_fract_z
Si Si1 0.670036 0.533632 0.699009
Si Si2 0.934699 0.800700 0.116564
Si Si3 0.136902 0.659320 0.565013
Si Si4 0.324147 0.393858 0.578819
Si Si5 0.458045 0.512855 0.574998
Si Si6 0.243561 0.650355 0.790331
Si Si7 0.484879 0.218049 0.178998
O O1 0.608772 0.387830 0.687770
O O2 0.669666 0.716596 0.569299
O O3 0.669759 0.636677 0.863569
O O4 0.735712 0.409762 0.687324
O O5 0.994567 0.692356 0.039774
O O6 0.957861 0.959741 0.249216
O O7 0.897091 0.932895 0.991667
O O8 0.187657 0.598423 0.684017
O O9 0.087342 0.815140 0.648863
O O10 0.390081 0.462797 0.516734
O O11 0.304337 0.532001 0.725212
O O12 0.274062 0.436972 0.452516
O O13 0.480996 0.730068 0.480392
O O14 0.495304 0.471501 0.249345
#
# Coordination Sequence:
#
# PCOD8157872 Si02
#       7
#     4   4   4   4   4   4   4
#     4  12  23  48  74 106 147 197 263 324 397 478
#     4  12  24  47  77 112 154 196 261 339 408 475
#     4  12  26  50  77 110 159 205 260 340 402 481
#     4  12  26  48  72 111 148 201 262 321 403 485
#     4  12  24  46  78 111 148 202 262 326 403 490
#     4  12  27  48  75 106 154 204 260 328 396 491
#     4  12  28  51  75 118 166 211 266 332 415 486
#
# _framework density 23.943149999999999
#
# number of rings (size 3 to 8) (size 9 to 14) (size 15 to 20)
#    0.000    0.000    4.286    6.000    0.000    2.286 
#    7.714    0.000    0.000    0.000    0.000    0.000 
#    0.000    0.000    0.000    0.000    0.000    0.000 
#
# Total GULP energy -347020.577133 kJ/mol
# GULP energy per Si atom -12393.592040 kJ/mol
# Density = 2.388865 g / cm^3
# Si number density = 23.943150 Si / 1000 Ang^3
#
#
#
# Elastic Constant Matrix: (Units=GPa)
#
#
# Indices 1 2 3 4 5 6 
#
# 1 114.4661 40.8126 44.1603 0.0000 0.0000 0.0000
# 2 40.8126 99.9789 43.8148 0.0000 0.0000 0.0000
# 3 44.1603 43.8148 102.5471 0.0000 0.0000 0.0000
# 4 0.0000 0.0000 0.0000 34.7612 0.0000 0.0000
# 5 0.0000 0.0000 0.0000 0.0000 53.8282 0.0000
# 6 0.0000 0.0000 0.0000 0.0000 0.0000 47.5776
#
#
#
# Elastic Compliance Matrix: (Units=1/GPa)
#
#
# Indices 1 2 3 4 5 6 
#
# 1 0.011170 -0.003017 -0.003521 0.000000 0.000000 0.000000
# 2 -0.003017 0.013121 -0.004307 0.000000 0.000000 0.000000
# 3 -0.003521 -0.004307 0.013108 0.000000 0.000000 0.000000
# 4 0.000000 0.000000 0.000000 0.028768 0.000000 0.000000
# 5 0.000000 0.000000 0.000000 0.000000 0.018578 0.000000
# 6 0.000000 0.000000 0.000000 0.000000 0.000000 0.021018
#
#
# Mechanical properties :
#
#
# Convention : Reuss Voigt Hill
#
# Bulk Modulus (GPa) = 63.65612 63.84084 63.74848
# Shear Modulus (GPa) = 37.68176 39.78037 38.73106
#
# Velocity S-wave (km/s) = 3.97142 4.08051 4.02634
# Velocity P-wave (km/s) = 6.90461 6.99444 6.94967
#
# Compressibility (1/GPa) = 0.01570941
#
# Stress axis : x y z
#
# Youngs Moduli (GPa) = 89.52295 76.21315 76.28726
#
# Poissons Ratio (x) = 0.22991 0.26864
# Poissons Ratio (y) = 0.27006 0.32858
# Poissons Ratio (z) = 0.31525 0.32826
#
# Static dielectric constant tensor:
#      x y z
#    x 4.446340 0.000000 0.000000 
#    y 0.000000 4.386010 0.000000 
#    z 0.000000 0.000000 4.467390 
# 
# 
# High freq. dielectric constant tensor:
#      x y z
#    x 1.966650 0.000000 0.000000 
#    y 0.000000 1.940650 0.000000 
#    z 0.000000 0.000000 1.960020 
# 
# From -- ./inp_files/4344.got.cif
#   From: 2010.03.12/outbox.cif.g09.slc.cpg/sg19_3_cif.got.tgz:4344.got - 2010.04.10 18:59:41.
