data_PCOD8157098
_publ_section_title
;
Structure prediction by ZEFSAII (Michael W. Deem and Ramdas Pophale) SiO2 
 PCOD8157098
Probable space group: P 21 21 21
;
_chemical_formula_sum "Si O2"
_cell_formula_units_Z 20
_cell_length_a 9.406054
_cell_length_b 10.851674
_cell_length_c 9.299724
_cell_angle_alpha 90.000000
_cell_angle_beta 90.000000
_cell_angle_gamma 90.000000
_cell_volume 949.236142
_symmetry_space_group_name_H-M "P 21 21 21"
_symmetry_group_IT_number 19
_symmetry_cell_setting 'orthorhombic'
loop_
_space_group_symop_operation_xyz
x,y,z
1/2-x,-y,1/2+z
1/2+x,1/2-y,-z
-x,1/2+y,1/2-z
loop_
_atom_site_type_symbol
_atom_site_label
_atom_site_fract_x
_atom_site_fract_y
_atom_site_fract_z
Si Si1 0.657720 0.595948 0.862186
Si Si2 0.556436 0.254337 0.086268
Si Si3 0.323389 0.092387 0.964156
Si Si4 0.243238 0.354271 0.698284
Si Si5 0.613760 0.970715 0.520282
O O1 0.671883 0.548665 0.699697
O O2 0.664947 0.743999 0.869611
O O3 0.507176 0.563833 0.929723
O O4 0.786792 0.529043 0.944977
O O5 0.703818 0.300088 0.010036
O O6 0.593255 0.205207 0.246823
O O7 0.480225 0.143018 0.001843
O O8 0.450253 0.369916 0.089308
O O9 0.227899 0.455043 0.574073
O O10 0.317182 0.410064 0.839771
#
# Coordination Sequence:
#
# PCOD8157098 Si02
#       5
#     4   4   4   4   4
#     4  10  24  44  65 100 132 178 225 277 343 397
#     4  10  21  43  66  93 134 177 220 270 338 392
#     4  10  22  42  69  92 137 178 221 276 335 399
#     4  11  26  43  67 104 131 182 228 274 343 402
#     4  11  25  44  69  97 138 177 230 279 339 400
#
# _framework density 21.069572999999998
#
# number of rings (size 3 to 8) (size 9 to 14) (size 15 to 20)
#    0.000    1.600    4.000    0.000   11.200    3.200 
#    0.000    0.000    0.000    0.000    0.000    0.000 
#    0.000    0.000    0.000    0.000    0.000    0.000 
#
# Total GULP energy -247911.957715 kJ/mol
# GULP energy per Si atom -12395.597886 kJ/mol
# Density = 2.102162 g / cm^3
# Si number density = 21.069573 Si / 1000 Ang^3
#
#
#
# Elastic Constant Matrix: (Units=GPa)
#
#
# Indices 1 2 3 4 5 6 
#
# 1 63.3601 34.7765 23.2927 0.0000 0.0000 0.0000
# 2 34.7765 109.3602 35.7373 0.0000 0.0000 0.0000
# 3 23.2927 35.7373 54.3163 0.0000 0.0000 0.0000
# 4 0.0000 0.0000 0.0000 48.0907 0.0000 0.0000
# 5 0.0000 0.0000 0.0000 0.0000 32.6286 0.0000
# 6 0.0000 0.0000 0.0000 0.0000 0.0000 27.9604
#
#
#
# Elastic Compliance Matrix: (Units=1/GPa)
#
#
# Indices 1 2 3 4 5 6 
#
# 1 0.020423 -0.004627 -0.005713 0.000000 0.000000 0.000000
# 2 -0.004627 0.012697 -0.006370 0.000000 0.000000 0.000000
# 3 -0.005713 -0.006370 0.025052 0.000000 0.000000 0.000000
# 4 0.000000 0.000000 0.000000 0.020794 0.000000 0.000000
# 5 0.000000 0.000000 0.000000 0.000000 0.030648 0.000000
# 6 0.000000 0.000000 0.000000 0.000000 0.000000 0.035765
#
#
# Mechanical properties :
#
#
# Convention : Reuss Voigt Hill
#
# Bulk Modulus (GPa) = 40.40281 46.07218 43.23750
# Shear Modulus (GPa) = 26.73080 30.61795 28.67438
#
# Velocity S-wave (km/s) = 3.56573 3.81620 3.69309
# Velocity P-wave (km/s) = 6.01416 6.42900 6.22504
#
# Compressibility (1/GPa) = 0.02475075
#
# Stress axis : x y z
#
# Youngs Moduli (GPa) = 48.96417 78.75803 39.91747
#
# Poissons Ratio (x) = 0.36445 0.22807
# Poissons Ratio (y) = 0.22658 0.25426
# Poissons Ratio (z) = 0.27976 0.50166
#
# Static dielectric constant tensor:
#      x y z
#    x 3.918080 0.000000 0.000000 
#    y 0.000000 3.942470 0.000000 
#    z 0.000000 0.000000 3.670830 
# 
# 
# High freq. dielectric constant tensor:
#      x y z
#    x 1.823680 0.000000 0.000000 
#    y 0.000000 1.835310 0.000000 
#    z 0.000000 0.000000 1.812900 
# 
# From -- ./inp_files/2579.got.cif
#   From: 2010.03.12/outbox.cif.g09.slc.cpg/sg19_2_cif.got.tgz:2579.got - 2010.04.10 18:59:41.
