data_PCOD8157462
_publ_section_title
;
Structure prediction by ZEFSAII (Michael W. Deem and Ramdas Pophale) SiO2 
 PCOD8157462
Probable space group: P 21 21 21
;
_chemical_formula_sum "Si O2"
_cell_formula_units_Z 28
_cell_length_a 9.330818
_cell_length_b 7.524802
_cell_length_c 17.635833
_cell_angle_alpha 90.000000
_cell_angle_beta 90.000000
_cell_angle_gamma 90.000000
_cell_volume 1238.256946
_symmetry_space_group_name_H-M "P 21 21 21"
_symmetry_group_IT_number 19
_symmetry_cell_setting 'orthorhombic'
loop_
_space_group_symop_operation_xyz
x,y,z
1/2-x,-y,1/2+z
1/2+x,1/2-y,-z
-x,1/2+y,1/2-z
loop_
_atom_site_type_symbol
_atom_site_label
_atom_site_fract_x
_atom_site_fract_y
_atom_site_fract_z
Si Si1 0.180504 0.371266 0.681438
Si Si2 0.193085 0.620843 0.015979
Si Si3 0.668497 0.369517 0.714421
Si Si4 0.406278 0.464675 0.797984
Si Si5 0.757685 0.222970 0.072814
Si Si6 0.926051 0.609203 0.704573
Si Si7 0.624004 0.418281 0.550976
O O1 0.226810 0.340505 0.595086
O O2 0.323970 0.359806 0.731642
O O3 0.078184 0.218559 0.716546
O O4 0.090448 0.554810 0.687777
O O5 0.022929 0.653131 0.015870
O O6 0.207074 0.417732 0.989738
O O7 0.255931 0.765807 0.958202
O O8 0.576598 0.449527 0.784189
O O9 0.657330 0.160069 0.706417
O O10 0.832443 0.431626 0.720195
O O11 0.598681 0.456494 0.639686
O O12 0.381659 0.375266 0.879330
O O13 0.631127 0.280571 0.131186
O O14 0.818434 0.388999 0.022935
#
# Coordination Sequence:
#
# PCOD8157462 Si02
#       7
#     4   4   4   4   4   4   4
#     4  11  24  43  65 103 132 181 231 279 344 420
#     4  12  27  44  70 102 144 181 234 288 353 419
#     4  11  21  42  68  98 129 174 225 285 330 408
#     4  11  21  42  72  95 132 172 233 278 332 404
#     4  10  25  46  70  98 137 183 229 286 350 404
#     4  10  24  42  68  95 140 179 226 281 354 403
#     4  11  26  45  67 101 136 186 228 281 353 410
#
# _framework density 22.612431999999998
#
# number of rings (size 3 to 8) (size 9 to 14) (size 15 to 20)
#    0.000    1.143    2.857    3.429    6.000    2.286 
#    2.571    0.000    0.000    0.000    0.000    0.000 
#    0.000    0.000    0.000    0.000    0.000    0.000 
#
# Total GULP energy -347108.247092 kJ/mol
# GULP energy per Si atom -12396.723110 kJ/mol
# Density = 2.256096 g / cm^3
# Si number density = 22.612432 Si / 1000 Ang^3
#
#
#
# Elastic Constant Matrix: (Units=GPa)
#
#
# Indices 1 2 3 4 5 6 
#
# 1 90.0230 16.6229 18.1390 0.0000 0.0000 0.0000
# 2 16.6229 122.2322 11.1550 0.0000 0.0000 0.0000
# 3 18.1390 11.1550 56.5484 0.0000 0.0000 0.0000
# 4 0.0000 0.0000 0.0000 30.1833 0.0000 0.0000
# 5 0.0000 0.0000 0.0000 0.0000 20.1207 0.0000
# 6 0.0000 0.0000 0.0000 0.0000 0.0000 34.1595
#
#
#
# Elastic Compliance Matrix: (Units=1/GPa)
#
#
# Indices 1 2 3 4 5 6 
#
# 1 0.012079 -0.001313 -0.003616 0.000000 0.000000 0.000000
# 2 -0.001313 0.008474 -0.001250 0.000000 0.000000 0.000000
# 3 -0.003616 -0.001250 0.019090 0.000000 0.000000 0.000000
# 4 0.000000 0.000000 0.000000 0.033131 0.000000 0.000000
# 5 0.000000 0.000000 0.000000 0.000000 0.049700 0.000000
# 6 0.000000 0.000000 0.000000 0.000000 0.000000 0.029274
#
#
# Mechanical properties :
#
#
# Convention : Reuss Voigt Hill
#
# Bulk Modulus (GPa) = 36.64936 40.07084 38.36010
# Shear Modulus (GPa) = 28.86804 31.75181 30.30992
#
# Velocity S-wave (km/s) = 3.57689 3.75130 3.66513
# Velocity P-wave (km/s) = 5.77076 6.04336 5.90863
#
# Compressibility (1/GPa) = 0.02728561
#
# Stress axis : x y z
#
# Youngs Moduli (GPa) = 82.78685 118.01090 52.38224
#
# Poissons Ratio (x) = 0.15492 0.18940
# Poissons Ratio (y) = 0.10868 0.06550
# Poissons Ratio (z) = 0.29933 0.14757
#
# Static dielectric constant tensor:
#      x y z
#    x 3.932180 0.000000 0.000000 
#    y 0.000000 4.181870 0.000000 
#    z 0.000000 0.000000 3.870450 
# 
# 
# High freq. dielectric constant tensor:
#      x y z
#    x 1.888340 0.000000 0.000000 
#    y 0.000000 1.904130 0.000000 
#    z 0.000000 0.000000 1.875570 
# 
# From -- ./inp_files/6585.got.cif
#   From: 2010.03.12/outbox.cif.g09.slc.cpg/sg19_4_cif.got.tgz:6585.got - 2010.04.10 18:59:41.
