data_PCOD8157353
_publ_section_title
;
Structure prediction by ZEFSAII (Michael W. Deem and Ramdas Pophale) SiO2 
 PCOD8157353
Probable space group: P 21 21 21
;
_chemical_formula_sum "Si O2"
_cell_formula_units_Z 32
_cell_length_a 9.869392
_cell_length_b 18.105284
_cell_length_c 8.907537
_cell_angle_alpha 90.000000
_cell_angle_beta 90.000000
_cell_angle_gamma 90.000000
_cell_volume 1591.671264
_symmetry_space_group_name_H-M "P 21 21 21"
_symmetry_group_IT_number 19
_symmetry_cell_setting 'orthorhombic'
loop_
_space_group_symop_operation_xyz
x,y,z
1/2-x,-y,1/2+z
1/2+x,1/2-y,-z
-x,1/2+y,1/2-z
loop_
_atom_site_type_symbol
_atom_site_label
_atom_site_fract_x
_atom_site_fract_y
_atom_site_fract_z
Si Si1 0.106518 0.488803 0.424738
Si Si2 0.238287 0.787171 0.072804
Si Si3 0.559008 0.181516 0.576777
Si Si4 0.854263 0.556606 0.928481
Si Si5 0.606519 0.011197 0.924738
Si Si6 0.761714 0.287171 0.072803
Si Si7 0.354262 0.943394 0.428481
Si Si8 0.440990 0.681517 0.576778
O O1 0.055630 0.405796 0.448456
O O2 0.114011 0.509728 0.250000
O O3 0.249999 0.499999 0.500001
O O4 0.003722 0.543439 0.507937
O O5 0.313273 0.861393 0.020028
O O6 0.236750 0.783028 0.250001
O O7 0.083233 0.786722 0.013812
O O8 0.314993 0.715952 0.010784
O O9 0.578575 0.201416 0.749999
O O10 0.851457 0.547272 0.750000
O O11 0.750000 0.500001 0.000001
O O12 0.003723 0.543438 0.992062
O O13 0.555634 0.094204 0.948456
O O14 0.686730 0.361394 0.020028
O O15 0.916769 0.286722 0.013812
O O16 0.685009 0.215953 0.010781
#
# Coordination Sequence:
#
# PCOD8157353 Si02
#       8
#     4   4   4   4   4   4   4   4
#     4  11  24  43  64  92 127 162 206 259 310 368
#     4  10  23  42  62  89 124 161 204 252 304 365
#     4  10  23  43  62  88 125 162 202 252 305 362
#     4  11  22  41  66  92 122 161 206 255 307 365
#     4  11  24  43  64  92 127 162 206 259 310 368
#     4  10  23  42  62  89 124 161 204 252 304 365
#     4  11  22  41  66  92 122 161 206 255 307 365
#     4  10  23  43  62  88 125 162 202 252 305 362
#
# _framework density 20.104652999999999
#
# number of rings (size 3 to 8) (size 9 to 14) (size 15 to 20)
#    0.000    1.500    2.500    1.500    3.500    5.000 
#    0.000    0.000    0.000    0.000    0.000    0.000 
#    0.000    0.000    0.000    0.000    0.000    0.000 
#
# Total GULP energy -396955.833745 kJ/mol
# GULP energy per Si atom -12404.869805 kJ/mol
# Density = 2.005889 g / cm^3
# Si number density = 20.104653 Si / 1000 Ang^3
#
#
#
# Elastic Constant Matrix: (Units=GPa)
#
#
# Indices 1 2 3 4 5 6 
#
# 1 131.1504 3.0652 25.3739 0.0000 0.0000 0.0000
# 2 3.0652 31.1507 15.5699 0.0000 0.0000 0.0000
# 3 25.3739 15.5699 57.8039 0.0000 0.0000 0.0000
# 4 0.0000 0.0000 0.0000 35.5596 0.0000 0.0000
# 5 0.0000 0.0000 0.0000 0.0000 40.9917 0.0000
# 6 0.0000 0.0000 0.0000 0.0000 0.0000 42.8627
#
#
#
# Elastic Compliance Matrix: (Units=1/GPa)
#
#
# Indices 1 2 3 4 5 6 
#
# 1 0.008369 0.001170 -0.003989 0.000000 0.000000 0.000000
# 2 0.001170 0.037260 -0.010550 0.000000 0.000000 0.000000
# 3 -0.003989 -0.010550 0.021893 0.000000 0.000000 0.000000
# 4 0.000000 0.000000 0.000000 0.028122 0.000000 0.000000
# 5 0.000000 0.000000 0.000000 0.000000 0.024395 0.000000
# 6 0.000000 0.000000 0.000000 0.000000 0.000000 0.023330
#
#
# Mechanical properties :
#
#
# Convention : Reuss Voigt Hill
#
# Bulk Modulus (GPa) = 24.51914 34.23588 29.37751
# Shear Modulus (GPa) = 27.21808 35.62254 31.42031
#
# Velocity S-wave (km/s) = 3.68342 4.21391 3.95756
# Velocity P-wave (km/s) = 5.50567 6.38293 5.96046
#
# Compressibility (1/GPa) = 0.04078446
#
# Stress axis : x y z
#
# Youngs Moduli (GPa) = 119.48501 26.83843 45.67743
#
# Poissons Ratio (x) = -0.03141 0.18221
# Poissons Ratio (y) = -0.13983 0.48190
# Poissons Ratio (z) = 0.47663 0.28314
#
# Static dielectric constant tensor:
#      x y z
#    x 3.862220 0.000000 0.000000 
#    y 0.000000 3.796070 0.000000 
#    z 0.000000 0.000000 3.499010 
# 
# 
# High freq. dielectric constant tensor:
#      x y z
#    x 1.804720 0.000000 0.000000 
#    y 0.000000 1.787330 0.000000 
#    z 0.000000 0.000000 1.782830 
# 
# From -- ./inp_files/3042.got.cif
#   From: 2010.03.12/outbox.cif.g09.slc.cpg/sg19_2_cif.got.tgz:3042.got - 2010.04.10 18:59:41.
