data_PCOD8157748
_publ_section_title
;
Structure prediction by ZEFSAII (Michael W. Deem and Ramdas Pophale) SiO2 
 PCOD8157748
Probable space group: P 21 21 21
;
_chemical_formula_sum "Si O2"
_cell_formula_units_Z 28
_cell_length_a 12.509640
_cell_length_b 9.018835
_cell_length_c 10.905003
_cell_angle_alpha 90.000000
_cell_angle_beta 90.000000
_cell_angle_gamma 90.000000
_cell_volume 1230.328382
_symmetry_space_group_name_H-M "P 21 21 21"
_symmetry_group_IT_number 19
_symmetry_cell_setting 'orthorhombic'
loop_
_space_group_symop_operation_xyz
x,y,z
1/2-x,-y,1/2+z
1/2+x,1/2-y,-z
-x,1/2+y,1/2-z
loop_
_atom_site_type_symbol
_atom_site_label
_atom_site_fract_x
_atom_site_fract_y
_atom_site_fract_z
Si Si1 0.940784 0.991686 0.717598
Si Si2 0.485738 0.621516 0.847367
Si Si3 0.674936 0.986487 0.464488
Si Si4 0.379508 0.841319 0.671573
Si Si5 0.865440 0.198890 0.510052
Si Si6 0.180573 0.944438 0.805091
Si Si7 0.313160 0.752951 0.416359
O O1 0.872316 0.055259 0.831853
O O2 0.887434 0.839253 0.675111
O O3 0.061637 0.958627 0.753563
O O4 0.937582 0.112583 0.609711
O O5 0.413609 0.692072 0.741458
O O6 0.546938 0.480234 0.791687
O O7 0.414573 0.571611 0.960794
O O8 0.564834 0.748387 0.895604
O O9 0.777010 0.092740 0.450932
O O10 0.710322 0.837413 0.535298
O O11 0.256251 0.876544 0.701222
O O12 0.388620 0.807152 0.527707
O O13 0.813470 0.342068 0.574263
O O14 0.228083 0.104356 0.842521
#
# Coordination Sequence:
#
# PCOD8157748 Si02
#       7
#     4   4   4   4   4   4   4
#     4  11  25  45  77 105 147 189 240 298 366 422
#     4  12  28  48  71 105 145 190 236 299 367 427
#     4  11  25  47  74 104 147 186 240 296 362 433
#     4  12  29  47  73 106 148 189 242 297 366 438
#     4  11  24  45  70 106 143 186 239 291 356 426
#     4  12  24  47  71 107 141 190 244 297 348 435
#     4  11  27  45  74 111 141 192 241 298 363 429
#
# _framework density 22.758151999999999
#
# number of rings (size 3 to 8) (size 9 to 14) (size 15 to 20)
#    0.000    0.571    4.286    1.714   10.000    2.286 
#    0.000    0.000    0.000    0.000    0.000    0.000 
#    0.000    0.000    0.000    0.000    0.000    0.000 
#
# Total GULP energy -347417.657811 kJ/mol
# GULP energy per Si atom -12407.773493 kJ/mol
# Density = 2.270635 g / cm^3
# Si number density = 22.758152 Si / 1000 Ang^3
#
#
#
# Elastic Constant Matrix: (Units=GPa)
#
#
# Indices 1 2 3 4 5 6 
#
# 1 102.9589 14.8711 17.2327 0.0000 0.0000 0.0000
# 2 14.8711 72.8755 -3.2239 0.0000 0.0000 0.0000
# 3 17.2327 -3.2239 61.3146 0.0000 0.0000 0.0000
# 4 0.0000 0.0000 0.0000 33.3439 0.0000 0.0000
# 5 0.0000 0.0000 0.0000 0.0000 27.8241 0.0000
# 6 0.0000 0.0000 0.0000 0.0000 0.0000 28.0430
#
#
#
# Elastic Compliance Matrix: (Units=1/GPa)
#
#
# Indices 1 2 3 4 5 6 
#
# 1 0.010561 -0.002292 -0.003089 0.000000 0.000000 0.000000
# 2 -0.002292 0.014251 0.001393 0.000000 0.000000 0.000000
# 3 -0.003089 0.001393 0.017251 0.000000 0.000000 0.000000
# 4 0.000000 0.000000 0.000000 0.029990 0.000000 0.000000
# 5 0.000000 0.000000 0.000000 0.000000 0.035940 0.000000
# 6 0.000000 0.000000 0.000000 0.000000 0.000000 0.035659
#
#
# Mechanical properties :
#
#
# Convention : Reuss Voigt Hill
#
# Bulk Modulus (GPa) = 29.33508 32.76765 31.05137
# Shear Modulus (GPa) = 30.67688 31.72681 31.20185
#
# Velocity S-wave (km/s) = 3.67543 3.73780 3.70674
# Velocity P-wave (km/s) = 5.56144 5.74958 5.65629
#
# Compressibility (1/GPa) = 0.03408888
#
# Stress axis : x y z
#
# Youngs Moduli (GPa) = 94.69192 70.16899 57.96884
#
# Poissons Ratio (x) = 0.16080 0.17904
# Poissons Ratio (y) = 0.21700 -0.08077
# Poissons Ratio (z) = 0.29246 -0.09777
#
# Static dielectric constant tensor:
#      x y z
#    x 4.055530 0.000000 0.000000 
#    y 0.000000 4.359510 0.000000 
#    z 0.000000 0.000000 4.012810 
# 
# 
# High freq. dielectric constant tensor:
#      x y z
#    x 1.896220 0.000000 0.000000 
#    y 0.000000 1.918250 0.000000 
#    z 0.000000 0.000000 1.899220 
# 
# From -- ./inp_files/4611.got.cif
#   From: 2010.03.12/outbox.cif.g09.slc.cpg/sg19_3_cif.got.tgz:4611.got - 2010.04.10 18:59:41.
