data_PCOD8157087
_publ_section_title
;
Structure prediction by ZEFSAII (Michael W. Deem and Ramdas Pophale) SiO2 
 PCOD8157087
Probable space group: P 21 21 21
;
_chemical_formula_sum "Si O2"
_cell_formula_units_Z 28
_cell_length_a 17.617959
_cell_length_b 7.931573
_cell_length_c 8.516055
_cell_angle_alpha 90.000000
_cell_angle_beta 90.000000
_cell_angle_gamma 90.000000
_cell_volume 1190.017583
_symmetry_space_group_name_H-M "P 21 21 21"
_symmetry_group_IT_number 19
_symmetry_cell_setting 'orthorhombic'
loop_
_space_group_symop_operation_xyz
x,y,z
1/2-x,-y,1/2+z
1/2+x,1/2-y,-z
-x,1/2+y,1/2-z
loop_
_atom_site_type_symbol
_atom_site_label
_atom_site_fract_x
_atom_site_fract_y
_atom_site_fract_z
Si Si1 0.736365 0.382534 0.414034
Si Si2 0.649318 0.879613 0.812602
Si Si3 0.509850 0.759256 0.650375
Si Si4 0.644792 0.444132 0.119819
Si Si5 0.380747 0.713092 0.876123
Si Si6 0.578769 0.070053 0.071156
Si Si7 0.516036 0.042447 0.400274
O O1 0.772339 0.223500 0.319190
O O2 0.683674 0.475638 0.288053
O O3 0.799165 0.512925 0.476290
O O4 0.689519 0.325459 0.568134
O O5 0.581821 0.747212 0.766230
O O6 0.652722 0.035780 0.691025
O O7 0.638647 0.944834 0.991529
O O8 0.431791 0.804722 0.743657
O O9 0.491400 0.586430 0.555444
O O10 0.531164 0.896471 0.523467
O O11 0.614648 0.254018 0.101236
O O12 0.574039 0.575262 0.114151
O O13 0.435986 0.696696 0.029058
O O14 0.549065 0.988770 0.231392
#
# Coordination Sequence:
#
# PCOD8157087 Si02
#       7
#     4   4   4   4   4   4   4
#     4  12  27  43  68 100 148 185 221 287 358 427
#     4  10  24  43  72 100 135 188 231 285 348 424
#     4   9  21  39  67  99 132 172 227 289 340 400
#     4  11  27  43  65 103 144 181 230 285 359 417
#     4  10  22  44  71  99 138 180 235 290 346 411
#     4  10  22  44  72 101 136 179 245 292 333 422
#     4  10  21  42  69  96 129 181 235 286 332 405
#
# _framework density 23.529066
#
# number of rings (size 3 to 8) (size 9 to 14) (size 15 to 20)
#    0.000    1.714    1.429    0.857   10.000    4.571 
#    0.000    2.857    0.000    0.000    0.000    0.000 
#    0.000    0.000    0.000    0.000    0.000    0.000 
#
# Total GULP energy -347042.453394 kJ/mol
# GULP energy per Si atom -12394.373335 kJ/mol
# Density = 2.347551 g / cm^3
# Si number density = 23.529066 Si / 1000 Ang^3
#
#
#
# Elastic Constant Matrix: (Units=GPa)
#
#
# Indices 1 2 3 4 5 6 
#
# 1 101.9639 17.4246 45.3876 0.0000 0.0000 0.0000
# 2 17.4246 34.0177 15.0380 0.0000 0.0000 0.0000
# 3 45.3876 15.0380 136.1469 0.0000 0.0000 0.0000
# 4 0.0000 0.0000 0.0000 28.4029 0.0000 0.0000
# 5 0.0000 0.0000 0.0000 0.0000 48.2719 0.0000
# 6 0.0000 0.0000 0.0000 0.0000 0.0000 22.7190
#
#
#
# Elastic Compliance Matrix: (Units=1/GPa)
#
#
# Indices 1 2 3 4 5 6 
#
# 1 0.012184 -0.004674 -0.003546 0.000000 0.000000 0.000000
# 2 -0.004674 0.032698 -0.002054 0.000000 0.000000 0.000000
# 3 -0.003546 -0.002054 0.008754 0.000000 0.000000 0.000000
# 4 0.000000 0.000000 0.000000 0.035208 0.000000 0.000000
# 5 0.000000 0.000000 0.000000 0.000000 0.020716 0.000000
# 6 0.000000 0.000000 0.000000 0.000000 0.000000 0.044016
#
#
# Mechanical properties :
#
#
# Convention : Reuss Voigt Hill
#
# Bulk Modulus (GPa) = 30.22012 47.53652 38.87832
# Shear Modulus (GPa) = 27.00479 32.83063 29.91771
#
# Velocity S-wave (km/s) = 3.39148 3.73945 3.56971
# Velocity P-wave (km/s) = 5.31110 6.23633 5.79222
#
# Compressibility (1/GPa) = 0.03309054
#
# Stress axis : x y z
#
# Youngs Moduli (GPa) = 82.07219 30.58274 114.23511
#
# Poissons Ratio (x) = 0.14293 0.40504
# Poissons Ratio (y) = 0.38358 0.23459
# Poissons Ratio (z) = 0.29100 0.06280
#
# Static dielectric constant tensor:
#      x y z
#    x 4.502370 0.000000 0.000000 
#    y 0.000000 4.051060 0.000000 
#    z 0.000000 0.000000 4.447820 
# 
# 
# High freq. dielectric constant tensor:
#      x y z
#    x 1.927310 0.000000 0.000000 
#    y 0.000000 1.902760 0.000000 
#    z 0.000000 0.000000 1.953060 
# 
# From -- ./inp_files/4168.got.cif
#   From: 2010.03.12/outbox.cif.g09.slc.cpg/sg19_3_cif.got.tgz:4168.got - 2010.04.10 18:59:41.
