data_PCOD8157828
_publ_section_title
;
Structure prediction by ZEFSAII (Michael W. Deem and Ramdas Pophale) SiO2 
 PCOD8157828
Probable space group: P 21 21 21
;
_chemical_formula_sum "Si O2"
_cell_formula_units_Z 20
_cell_length_a 8.798488
_cell_length_b 9.947322
_cell_length_c 9.668920
_cell_angle_alpha 90.000000
_cell_angle_beta 90.000000
_cell_angle_gamma 90.000000
_cell_volume 846.237350
_symmetry_space_group_name_H-M "P 21 21 21"
_symmetry_group_IT_number 19
_symmetry_cell_setting 'orthorhombic'
loop_
_space_group_symop_operation_xyz
x,y,z
1/2-x,-y,1/2+z
1/2+x,1/2-y,-z
-x,1/2+y,1/2-z
loop_
_atom_site_type_symbol
_atom_site_label
_atom_site_fract_x
_atom_site_fract_y
_atom_site_fract_z
Si Si1 0.843282 0.332841 0.625575
Si Si2 0.007160 0.119549 0.457112
Si Si3 0.429227 0.454271 0.029721
Si Si4 0.230102 0.568094 0.260941
Si Si5 0.986774 0.337114 0.903439
O O1 0.670960 0.319932 0.576946
O O2 0.936919 0.198317 0.587158
O O3 0.918466 0.460593 0.549414
O O4 0.851627 0.352371 0.791011
O O5 0.899679 0.145258 0.324739
O O6 0.016837 0.961894 0.491905
O O7 0.316742 0.463165 0.161466
O O8 0.469565 0.297894 0.007310
O O9 0.345227 0.508892 0.891586
O O10 0.353510 0.673486 0.320191
#
# Coordination Sequence:
#
# PCOD8157828 Si02
#       5
#     4   4   4   4   4
#     4  11  26  45  73 106 149 193 245 306 369 444
#     4  12  27  46  74 107 146 200 246 302 378 440
#     4  11  26  47  78 107 150 194 247 306 373 438
#     4  11  25  48  75 108 151 197 242 311 369 441
#     4  11  26  48  72 108 152 188 252 305 363 447
#
# _framework density 23.634032999999999
#
# number of rings (size 3 to 8) (size 9 to 14) (size 15 to 20)
#    0.000    0.800    2.000    4.800    8.400    1.600 
#    0.000    0.000    0.000    0.000    0.000    0.000 
#    0.000    0.000    0.000    0.000    0.000    0.000 
#
# Total GULP energy -248092.959410 kJ/mol
# GULP energy per Si atom -12404.647971 kJ/mol
# Density = 2.358024 g / cm^3
# Si number density = 23.634033 Si / 1000 Ang^3
#
#
#
# Elastic Constant Matrix: (Units=GPa)
#
#
# Indices 1 2 3 4 5 6 
#
# 1 143.6807 20.3424 28.0840 0.0000 0.0000 0.0000
# 2 20.3424 110.8396 1.8020 0.0000 0.0000 0.0000
# 3 28.0840 1.8020 97.3391 0.0000 0.0000 0.0000
# 4 0.0000 0.0000 0.0000 29.7712 0.0000 0.0000
# 5 0.0000 0.0000 0.0000 0.0000 38.9556 0.0000
# 6 0.0000 0.0000 0.0000 0.0000 0.0000 21.1872
#
#
#
# Elastic Compliance Matrix: (Units=1/GPa)
#
#
# Indices 1 2 3 4 5 6 
#
# 1 0.007574 -0.001355 -0.002160 0.000000 0.000000 0.000000
# 2 -0.001355 0.009267 0.000219 0.000000 0.000000 0.000000
# 3 -0.002160 0.000219 0.010893 0.000000 0.000000 0.000000
# 4 0.000000 0.000000 0.000000 0.033589 0.000000 0.000000
# 5 0.000000 0.000000 0.000000 0.000000 0.025670 0.000000
# 6 0.000000 0.000000 0.000000 0.000000 0.000000 0.047198
#
#
# Mechanical properties :
#
#
# Convention : Reuss Voigt Hill
#
# Bulk Modulus (GPa) = 47.29870 50.25736 48.77803
# Shear Modulus (GPa) = 33.82253 38.09153 35.95703
#
# Velocity S-wave (km/s) = 3.78708 4.01898 3.90476
# Velocity P-wave (km/s) = 6.25932 6.54578 6.40415
#
# Compressibility (1/GPa) = 0.02114223
#
# Stress axis : x y z
#
# Youngs Moduli (GPa) = 132.03189 107.90803 91.80600
#
# Poissons Ratio (x) = 0.14621 0.19831
# Poissons Ratio (y) = 0.17889 -0.02014
# Poissons Ratio (z) = 0.28521 -0.02367
#
# Static dielectric constant tensor:
#      x y z
#    x 4.422610 0.000000 0.000000 
#    y 0.000000 3.922740 0.000000 
#    z 0.000000 0.000000 4.324950 
# 
# 
# High freq. dielectric constant tensor:
#      x y z
#    x 1.945220 0.000000 0.000000 
#    y 0.000000 1.922440 0.000000 
#    z 0.000000 0.000000 1.940260 
# 
# From -- ./inp_files/2562.got.cif
#   From: 2010.03.12/outbox.cif.g09.slc.cpg/sg19_2_cif.got.tgz:2562.got - 2010.04.10 18:59:41.
