data_PCOD8157815
_publ_section_title
;
Structure prediction by ZEFSAII (Michael W. Deem and Ramdas Pophale) SiO2 
 PCOD8157815
Probable space group: P 21 21 21
;
_chemical_formula_sum "Si O2"
_cell_formula_units_Z 28
_cell_length_a 5.140940
_cell_length_b 9.736403
_cell_length_c 23.358689
_cell_angle_alpha 90.000000
_cell_angle_beta 90.000000
_cell_angle_gamma 90.000000
_cell_volume 1169.201977
_symmetry_space_group_name_H-M "P 21 21 21"
_symmetry_group_IT_number 19
_symmetry_cell_setting 'orthorhombic'
loop_
_space_group_symop_operation_xyz
x,y,z
1/2-x,-y,1/2+z
1/2+x,1/2-y,-z
-x,1/2+y,1/2-z
loop_
_atom_site_type_symbol
_atom_site_label
_atom_site_fract_x
_atom_site_fract_y
_atom_site_fract_z
Si Si1 0.209811 0.697259 0.531706
Si Si2 0.620421 0.162237 0.319213
Si Si3 0.945728 0.081700 0.466566
Si Si4 0.138237 0.006079 0.352206
Si Si5 0.746592 0.210772 0.193644
Si Si6 0.231838 0.120489 0.138145
Si Si7 0.207499 0.149488 0.579471
O O1 0.427790 0.749224 0.486829
O O2 0.210971 0.530175 0.536251
O O3 0.284194 0.752448 0.594317
O O4 0.345145 0.088003 0.314160
O O5 0.686053 0.238463 0.260063
O O6 0.568219 0.275508 0.367812
O O7 0.846555 0.052941 0.334895
O O8 0.887751 0.239821 0.451751
O O9 0.166886 0.032343 0.420997
O O10 0.021441 0.081465 0.532687
O O11 0.206796 0.849880 0.340544
O O12 0.518437 0.118818 0.165825
O O13 0.018860 0.130826 0.188412
O O14 0.146805 0.981261 0.105795
#
# Coordination Sequence:
#
# PCOD8157815 Si02
#       7
#     4   4   4   4   4   4   4
#     4  12  26  46  75 109 151 195 248 302 370 448
#     4  11  27  46  73 104 146 192 253 301 380 439
#     4  11  25  46  76 107 158 188 243 308 375 449
#     4  11  25  48  72 109 140 198 245 304 378 441
#     4  12  27  47  77 101 149 198 249 321 358 445
#     4  12  27  48  73 112 144 194 253 303 372 441
#     4  11  27  45  74 114 146 199 239 311 371 451
#
# _framework density 23.947956999999999
#
# number of rings (size 3 to 8) (size 9 to 14) (size 15 to 20)
#    0.000    0.571    2.857    3.429    8.000    2.286 
#    0.000    0.000    0.000    0.000    0.000    0.000 
#    0.000    0.000    0.000    0.000    0.000    0.000 
#
# Total GULP energy -347088.539812 kJ/mol
# GULP energy per Si atom -12396.019279 kJ/mol
# Density = 2.389345 g / cm^3
# Si number density = 23.947957 Si / 1000 Ang^3
#
#
#
# Elastic Constant Matrix: (Units=GPa)
#
#
# Indices 1 2 3 4 5 6 
#
# 1 92.7090 18.3698 14.7552 0.0000 0.0000 0.0000
# 2 18.3698 117.3170 22.7681 0.0000 0.0000 0.0000
# 3 14.7552 22.7681 113.9317 0.0000 0.0000 0.0000
# 4 0.0000 0.0000 0.0000 25.9255 0.0000 0.0000
# 5 0.0000 0.0000 0.0000 0.0000 36.2104 0.0000
# 6 0.0000 0.0000 0.0000 0.0000 0.0000 23.9930
#
#
#
# Elastic Compliance Matrix: (Units=1/GPa)
#
#
# Indices 1 2 3 4 5 6 
#
# 1 0.011275 -0.001542 -0.001152 0.000000 0.000000 0.000000
# 2 -0.001542 0.009079 -0.001615 0.000000 0.000000 0.000000
# 3 -0.001152 -0.001615 0.009249 0.000000 0.000000 0.000000
# 4 0.000000 0.000000 0.000000 0.038572 0.000000 0.000000
# 5 0.000000 0.000000 0.000000 0.000000 0.027616 0.000000
# 6 0.000000 0.000000 0.000000 0.000000 0.000000 0.041679
#
#
# Mechanical properties :
#
#
# Convention : Reuss Voigt Hill
#
# Bulk Modulus (GPa) = 47.65124 48.41599 48.03362
# Shear Modulus (GPa) = 32.66203 35.09674 33.87939
#
# Velocity S-wave (km/s) = 3.69707 3.83239 3.76534
# Velocity P-wave (km/s) = 6.17782 6.31221 6.24538
#
# Compressibility (1/GPa) = 0.02098581
#
# Stress axis : x y z
#
# Youngs Moduli (GPa) = 88.68923 110.14796 108.11906
#
# Poissons Ratio (x) = 0.16984 0.12457
# Poissons Ratio (y) = 0.13675 0.17457
# Poissons Ratio (z) = 0.10218 0.17784
#
# Static dielectric constant tensor:
#      x y z
#    x 4.189810 0.000000 0.000000 
#    y 0.000000 4.452170 0.000000 
#    z 0.000000 0.000000 4.557330 
# 
# 
# High freq. dielectric constant tensor:
#      x y z
#    x 1.934640 0.000000 0.000000 
#    y 0.000000 1.959150 0.000000 
#    z 0.000000 0.000000 1.965230 
# 
# From -- ./inp_files/7271.got.cif
#   From: 2010.03.12/outbox.cif.g09.slc.cpg/sg19_4_cif.got.tgz:7271.got - 2010.04.10 18:59:41.
