data_PCOD8157163
_publ_section_title
;
Structure prediction by ZEFSAII (Michael W. Deem and Ramdas Pophale) SiO2 
 PCOD8157163
Probable space group: P 21 21 21
;
_chemical_formula_sum "Si O2"
_cell_formula_units_Z 32
_cell_length_a 17.296826
_cell_length_b 5.320877
_cell_length_c 15.014462
_cell_angle_alpha 90.000000
_cell_angle_beta 90.000000
_cell_angle_gamma 90.000000
_cell_volume 1381.845254
_symmetry_space_group_name_H-M "P 21 21 21"
_symmetry_group_IT_number 19
_symmetry_cell_setting 'orthorhombic'
loop_
_space_group_symop_operation_xyz
x,y,z
1/2-x,-y,1/2+z
1/2+x,1/2-y,-z
-x,1/2+y,1/2-z
loop_
_atom_site_type_symbol
_atom_site_label
_atom_site_fract_x
_atom_site_fract_y
_atom_site_fract_z
Si Si1 0.119092 0.487380 0.976196
Si Si2 0.435407 0.441575 0.829869
Si Si3 0.595370 0.442581 0.743438
Si Si4 0.378277 0.376362 0.279934
Si Si5 0.537979 0.204721 0.337993
Si Si6 0.532003 0.804656 0.475858
Si Si7 0.840921 0.417807 0.881571
Si Si8 0.826756 0.489455 0.429743
O O1 0.159045 0.224392 0.004121
O O2 0.137084 0.722389 0.041114
O O3 0.152623 0.572771 0.879257
O O4 0.026581 0.438855 0.972116
O O5 0.503107 0.449419 0.756647
O O6 0.384602 0.695538 0.816217
O O7 0.381945 0.195694 0.810982
O O8 0.473819 0.425927 0.926693
O O9 0.640407 0.426775 0.835395
O O10 0.467040 0.281868 0.275911
O O11 0.387790 0.630026 0.223512
O O12 0.326021 0.186995 0.219640
O O13 0.579929 0.423822 0.391584
O O14 0.498983 0.004859 0.405327
O O15 0.624425 0.787203 0.451367
O O16 0.765199 0.550221 0.919776
#
# Coordination Sequence:
#
# PCOD8157163 Si02
#       8
#     4   4   4   4   4   4   4   4
#     4  12  26  45  78 105 145 193 254 289 364 449
#     4  10  22  39  70  99 129 174 250 295 337 412
#     4  10  22  41  66  96 133 185 235 292 350 421
#     4  11  22  42  73 106 135 189 241 299 349 444
#     4  11  21  41  74 108 141 179 243 302 367 418
#     4  11  24  42  74 108 140 189 244 314 346 433
#     4  11  27  45  71 104 156 185 236 306 380 423
#     4  12  28  49  68 106 153 198 231 309 381 430
#
# _framework density 23.157444000000002
#
# number of rings (size 3 to 8) (size 9 to 14) (size 15 to 20)
#    0.000    1.000    3.750    2.250   10.500    0.000 
#    4.500    0.000    0.000    0.000    0.000    0.000 
#    0.000    0.000    0.000    0.000    0.000    0.000 
#
# Total GULP energy -396436.225063 kJ/mol
# GULP energy per Si atom -12388.632033 kJ/mol
# Density = 2.310474 g / cm^3
# Si number density = 23.157444 Si / 1000 Ang^3
#
#
#
# Elastic Constant Matrix: (Units=GPa)
#
#
# Indices 1 2 3 4 5 6 
#
# 1 71.5555 19.3354 17.0066 0.0000 0.0000 0.0000
# 2 19.3354 127.8789 33.6571 0.0000 0.0000 0.0000
# 3 17.0066 33.6571 98.6157 0.0000 0.0000 0.0000
# 4 0.0000 0.0000 0.0000 22.0151 0.0000 0.0000
# 5 0.0000 0.0000 0.0000 0.0000 23.6816 0.0000
# 6 0.0000 0.0000 0.0000 0.0000 0.0000 17.7952
#
#
#
# Elastic Compliance Matrix: (Units=1/GPa)
#
#
# Indices 1 2 3 4 5 6 
#
# 1 0.014914 -0.001734 -0.001980 0.000000 0.000000 0.000000
# 2 -0.001734 0.008793 -0.002702 0.000000 0.000000 0.000000
# 3 -0.001980 -0.002702 0.011404 0.000000 0.000000 0.000000
# 4 0.000000 0.000000 0.000000 0.045423 0.000000 0.000000
# 5 0.000000 0.000000 0.000000 0.000000 0.042227 0.000000
# 6 0.000000 0.000000 0.000000 0.000000 0.000000 0.056195
#
#
# Mechanical properties :
#
#
# Convention : Reuss Voigt Hill
#
# Bulk Modulus (GPa) = 44.88486 48.67204 46.77845
# Shear Modulus (GPa) = 25.09843 27.90177 26.50010
#
# Velocity S-wave (km/s) = 3.29571 3.47489 3.38649
# Velocity P-wave (km/s) = 5.82296 6.09618 5.96113
#
# Compressibility (1/GPa) = 0.02227923
#
# Stress axis : x y z
#
# Youngs Moduli (GPa) = 67.04960 113.72374 87.68788
#
# Poissons Ratio (x) = 0.19718 0.17364
# Poissons Ratio (y) = 0.11626 0.23694
# Poissons Ratio (z) = 0.13278 0.30729
#
# Static dielectric constant tensor:
#      x y z
#    x 3.644370 0.000000 0.000000 
#    y 0.000000 4.521050 0.000000 
#    z 0.000000 0.000000 4.164550 
# 
# 
# High freq. dielectric constant tensor:
#      x y z
#    x 1.870050 0.000000 0.000000 
#    y 0.000000 1.932570 0.000000 
#    z 0.000000 0.000000 1.920980 
# 
# From -- ./inp_files/5771.got.cif
#   From: 2010.03.12/outbox.cif.g09.slc.cpg/sg19_3_cif.got.tgz:5771.got - 2010.04.10 18:59:41.
