data_PCOD8157129
_publ_section_title
;
Structure prediction by ZEFSAII (Michael W. Deem and Ramdas Pophale) SiO2 
 PCOD8157129
Probable space group: P 21 21 21
;
_chemical_formula_sum "Si O2"
_cell_formula_units_Z 28
_cell_length_a 9.948871
_cell_length_b 6.718774
_cell_length_c 21.040941
_cell_angle_alpha 90.000000
_cell_angle_beta 90.000000
_cell_angle_gamma 90.000000
_cell_volume 1406.465201
_symmetry_space_group_name_H-M "P 21 21 21"
_symmetry_group_IT_number 19
_symmetry_cell_setting 'orthorhombic'
loop_
_space_group_symop_operation_xyz
x,y,z
1/2-x,-y,1/2+z
1/2+x,1/2-y,-z
-x,1/2+y,1/2-z
loop_
_atom_site_type_symbol
_atom_site_label
_atom_site_fract_x
_atom_site_fract_y
_atom_site_fract_z
Si Si1 0.655967 0.748687 0.905592
Si Si2 0.772108 0.411749 0.986477
Si Si3 0.879202 0.490453 0.674973
Si Si4 0.613305 0.328435 0.306400
Si Si5 0.695613 0.003970 0.025286
Si Si6 0.987394 0.345809 0.892423
Si Si7 0.643635 0.306770 0.594273
O O1 0.666947 0.547737 0.947476
O O2 0.761762 0.753227 0.847967
O O3 0.505889 0.777152 0.877140
O O4 0.684169 0.928642 0.953622
O O5 0.863952 0.288519 0.937607
O O6 0.859736 0.539212 0.035931
O O7 0.697371 0.243342 0.025966
O O8 0.836955 0.627289 0.734953
O O9 0.746896 0.377317 0.648933
O O10 0.994464 0.332895 0.693022
O O11 0.934413 0.642279 0.622123
O O12 0.564470 0.544986 0.329383
O O13 0.817546 0.905392 0.063760
O O14 0.565613 0.975122 0.070169
#
# Coordination Sequence:
#
# PCOD8157129 Si02
#       7
#     4   4   4   4   4   4   4
#     4  10  24  41  60  96 135 164 204 267 327 378
#     4  10  22  36  62  93 131 166 200 251 324 389
#     4  12  23  42  68  89 120 170 226 266 307 382
#     4  11  24  44  65  90 124 172 222 263 310 381
#     4  11  21  36  63  95 129 163 200 256 322 382
#     4  11  21  38  64  93 120 165 214 258 312 378
#     4  11  23  37  62  96 131 160 206 265 320 378
#
# _framework density 19.908064
#
# number of rings (size 3 to 8) (size 9 to 14) (size 15 to 20)
#    0.000    1.143    5.714    0.857    2.000    0.000 
#    0.000    2.857    0.000    0.000    0.000    0.000 
#    0.000    0.000    0.000    0.000    0.000    0.000 
#
# Total GULP energy -347030.660918 kJ/mol
# GULP energy per Si atom -12393.952176 kJ/mol
# Density = 1.986275 g / cm^3
# Si number density = 19.908064 Si / 1000 Ang^3
#
#
#
# Elastic Constant Matrix: (Units=GPa)
#
#
# Indices 1 2 3 4 5 6 
#
# 1 134.8087 37.7756 52.1897 0.0000 0.0000 0.0000
# 2 37.7756 86.3101 33.8536 0.0000 0.0000 0.0000
# 3 52.1897 33.8536 106.9101 0.0000 0.0000 0.0000
# 4 0.0000 0.0000 0.0000 30.6024 0.0000 0.0000
# 5 0.0000 0.0000 0.0000 0.0000 26.4568 0.0000
# 6 0.0000 0.0000 0.0000 0.0000 0.0000 21.4975
#
#
#
# Elastic Compliance Matrix: (Units=1/GPa)
#
#
# Indices 1 2 3 4 5 6 
#
# 1 0.009675 -0.002720 -0.003862 0.000000 0.000000 0.000000
# 2 -0.002720 0.013994 -0.003103 0.000000 0.000000 0.000000
# 3 -0.003862 -0.003103 0.012222 0.000000 0.000000 0.000000
# 4 0.000000 0.000000 0.000000 0.032677 0.000000 0.000000
# 5 0.000000 0.000000 0.000000 0.000000 0.037797 0.000000
# 6 0.000000 0.000000 0.000000 0.000000 0.000000 0.046517
#
#
# Mechanical properties :
#
#
# Convention : Reuss Voigt Hill
#
# Bulk Modulus (GPa) = 60.53164 63.96298 62.24731
# Shear Modulus (GPa) = 28.12796 29.32535 28.72665
#
# Velocity S-wave (km/s) = 3.76292 3.84218 3.80276
# Velocity P-wave (km/s) = 7.02503 7.20292 7.11453
#
# Compressibility (1/GPa) = 0.01652029
#
# Stress axis : x y z
#
# Youngs Moduli (GPa) = 103.35798 71.46017 81.82243
#
# Poissons Ratio (x) = 0.19436 0.31598
# Poissons Ratio (y) = 0.28111 0.25394
# Poissons Ratio (z) = 0.39915 0.22178
#
# Static dielectric constant tensor:
#      x y z
#    x 3.492280 0.000000 0.000000 
#    y 0.000000 3.521270 0.000000 
#    z 0.000000 0.000000 3.553360 
# 
# 
# High freq. dielectric constant tensor:
#      x y z
#    x 1.767960 0.000000 0.000000 
#    y 0.000000 1.781090 0.000000 
#    z 0.000000 0.000000 1.774120 
# 
# From -- ./inp_files/7117.got.cif
#   From: 2010.03.12/outbox.cif.g09.slc.cpg/sg19_4_cif.got.tgz:7117.got - 2010.04.10 18:59:41.
