data_PCOD8157708
_publ_section_title
;
Structure prediction by ZEFSAII (Michael W. Deem and Ramdas Pophale) SiO2 
 PCOD8157708
Probable space group: P 21 21 21
;
_chemical_formula_sum "Si O2"
_cell_formula_units_Z 20
_cell_length_a 12.059150
_cell_length_b 12.621544
_cell_length_c 5.833694
_cell_angle_alpha 90.000000
_cell_angle_beta 90.000000
_cell_angle_gamma 90.000000
_cell_volume 887.917934
_symmetry_space_group_name_H-M "P 21 21 21"
_symmetry_group_IT_number 19
_symmetry_cell_setting 'orthorhombic'
loop_
_space_group_symop_operation_xyz
x,y,z
1/2-x,-y,1/2+z
1/2+x,1/2-y,-z
-x,1/2+y,1/2-z
loop_
_atom_site_type_symbol
_atom_site_label
_atom_site_fract_x
_atom_site_fract_y
_atom_site_fract_z
Si Si1 0.339971 0.124687 0.030546
Si Si2 0.006580 0.912151 0.133023
Si Si3 0.759459 0.945473 0.080706
Si Si4 0.426371 0.288062 0.354027
Si Si5 0.383196 0.927905 0.325983
O O1 0.375717 0.240656 0.119598
O O2 0.325332 0.029374 0.209949
O O3 0.443574 0.082654 0.884704
O O4 0.220393 0.141675 0.913720
O O5 0.876149 0.891639 0.136364
O O6 0.062438 0.812678 0.014343
O O7 0.034856 0.025710 0.019543
O O8 0.662974 0.862814 0.026362
O O9 0.727344 0.998980 0.328534
O O10 0.543016 0.349073 0.327310
#
# Coordination Sequence:
#
# PCOD8157708 Si02
#       5
#     4   4   4   4   4
#     4  11  25  43  74 102 139 193 243 298 374 429
#     4  11  26  45  73 102 145 195 243 301 371 435
#     4  12  28  51  76 108 153 197 244 307 377 434
#     4  11  28  43  72 109 143 193 246 304 363 445
#     4  11  23  48  67 103 144 184 242 302 361 441
#
# _framework density 22.524604
#
# number of rings (size 3 to 8) (size 9 to 14) (size 15 to 20)
#    0.000    0.800    4.000    1.200   11.200    1.600 
#    0.000    0.000    0.000    0.000    0.000    0.000 
#    0.000    0.000    0.000    0.000    0.000    0.000 
#
# Total GULP energy -247815.700997 kJ/mol
# GULP energy per Si atom -12390.785050 kJ/mol
# Density = 2.247334 g / cm^3
# Si number density = 22.524604 Si / 1000 Ang^3
#
#
#
# Elastic Constant Matrix: (Units=GPa)
#
#
# Indices 1 2 3 4 5 6 
#
# 1 149.3161 19.7417 5.8743 0.0000 0.0000 0.0000
# 2 19.7417 74.6740 7.5819 0.0000 0.0000 0.0000
# 3 5.8743 7.5819 68.4901 0.0000 0.0000 0.0000
# 4 0.0000 0.0000 0.0000 10.3954 0.0000 0.0000
# 5 0.0000 0.0000 0.0000 0.0000 39.9503 0.0000
# 6 0.0000 0.0000 0.0000 0.0000 0.0000 33.3354
#
#
#
# Elastic Compliance Matrix: (Units=1/GPa)
#
#
# Indices 1 2 3 4 5 6 
#
# 1 0.006950 -0.001797 -0.000397 0.000000 0.000000 0.000000
# 2 -0.001797 0.014008 -0.001397 0.000000 0.000000 0.000000
# 3 -0.000397 -0.001397 0.014789 0.000000 0.000000 0.000000
# 4 0.000000 0.000000 0.000000 0.096197 0.000000 0.000000
# 5 0.000000 0.000000 0.000000 0.000000 0.025031 0.000000
# 6 0.000000 0.000000 0.000000 0.000000 0.000000 0.029998
#
#
# Mechanical properties :
#
#
# Convention : Reuss Voigt Hill
#
# Bulk Modulus (GPa) = 35.00627 39.87510 37.44069
# Shear Modulus (GPa) = 24.54854 34.02169 29.28512
#
# Velocity S-wave (km/s) = 3.30488 3.89063 3.60966
# Velocity P-wave (km/s) = 5.48981 6.15825 5.83361
#
# Compressibility (1/GPa) = 0.02856631
#
# Stress axis : x y z
#
# Youngs Moduli (GPa) = 143.87578 71.38542 67.61640
#
# Poissons Ratio (x) = 0.12829 0.02686
# Poissons Ratio (y) = 0.25857 0.09443
# Poissons Ratio (z) = 0.05714 0.09970
#
# Static dielectric constant tensor:
#      x y z
#    x 4.138370 0.000000 0.000000 
#    y 0.000000 4.024220 0.000000 
#    z 0.000000 0.000000 4.324800 
# 
# 
# High freq. dielectric constant tensor:
#      x y z
#    x 1.908700 0.000000 0.000000 
#    y 0.000000 1.882630 0.000000 
#    z 0.000000 0.000000 1.887720 
# 
# From -- ./inp_files/773.got.cif
#   From: 2010.03.12/outbox.cif.g09.slc.cpg/sg19_1_cif.got.tgz:773.got - 2010.04.10 18:59:41.
