data_PCOD8157497
_publ_section_title
;
Structure prediction by ZEFSAII (Michael W. Deem and Ramdas Pophale) SiO2 
 PCOD8157497
Probable space group: P 21 21 21
;
_chemical_formula_sum "Si O2"
_cell_formula_units_Z 28
_cell_length_a 9.658158
_cell_length_b 5.509025
_cell_length_c 22.798721
_cell_angle_alpha 90.000000
_cell_angle_beta 90.000000
_cell_angle_gamma 90.000000
_cell_volume 1213.052321
_symmetry_space_group_name_H-M "P 21 21 21"
_symmetry_group_IT_number 19
_symmetry_cell_setting 'orthorhombic'
loop_
_space_group_symop_operation_xyz
x,y,z
1/2-x,-y,1/2+z
1/2+x,1/2-y,-z
-x,1/2+y,1/2-z
loop_
_atom_site_type_symbol
_atom_site_label
_atom_site_fract_x
_atom_site_fract_y
_atom_site_fract_z
Si Si1 0.766208 0.697243 0.519700
Si Si2 0.165827 0.802956 0.720259
Si Si3 0.967395 0.619262 0.063552
Si Si4 0.752300 0.880555 0.399157
Si Si5 0.254148 0.435587 0.393345
Si Si6 0.511372 0.643294 0.061113
Si Si7 0.160066 0.305952 0.784986
O O1 0.644395 0.592523 0.559417
O O2 0.740153 0.680407 0.450428
O O3 0.916513 0.594210 0.534751
O O4 0.769577 0.978424 0.538738
O O5 0.248076 0.782514 0.659200
O O6 0.207992 0.556484 0.753949
O O7 0.003708 0.802427 0.707356
O O8 0.210298 0.054223 0.753746
O O9 0.106290 0.530987 0.094820
O O10 0.897893 0.813563 0.108624
O O11 0.983446 0.695490 0.995933
O O12 0.626537 0.073022 0.403055
O O13 0.387413 0.256500 0.388373
O O14 0.268311 0.663205 0.348701
#
# Coordination Sequence:
#
# PCOD8157497 Si02
#       7
#     4   4   4   4   4   4   4
#     4  11  23  41  65 102 142 188 234 284 371 446
#     4  10  25  43  72 108 135 184 251 319 353 410
#     4  11  24  41  62 107 151 185 231 289 372 461
#     4  12  23  41  70 108 146 185 240 307 363 439
#     4  11  24  42  71  98 143 195 225 293 368 446
#     4  11  23  40  66 107 144 188 234 289 371 446
#     4  10  24  46  70 104 139 183 255 305 360 422
#
# _framework density 23.082266000000001
#
# number of rings (size 3 to 8) (size 9 to 14) (size 15 to 20)
#    0.000    1.143    2.857    2.571   12.000    1.143 
#    0.000    0.000    3.143    0.000    0.000    0.000 
#    0.000    0.000    0.000    0.000    0.000    0.000 
#
# Total GULP energy -346923.328506 kJ/mol
# GULP energy per Si atom -12390.118875 kJ/mol
# Density = 2.302973 g / cm^3
# Si number density = 23.082266 Si / 1000 Ang^3
#
#
#
# Elastic Constant Matrix: (Units=GPa)
#
#
# Indices 1 2 3 4 5 6 
#
# 1 117.5614 38.6642 37.1622 0.0000 0.0000 0.0000
# 2 38.6642 120.6253 52.9739 0.0000 0.0000 0.0000
# 3 37.1622 52.9739 117.9674 0.0000 0.0000 0.0000
# 4 0.0000 0.0000 0.0000 51.3500 0.0000 0.0000
# 5 0.0000 0.0000 0.0000 0.0000 27.4452 0.0000
# 6 0.0000 0.0000 0.0000 0.0000 0.0000 25.8377
#
#
#
# Elastic Compliance Matrix: (Units=1/GPa)
#
#
# Indices 1 2 3 4 5 6 
#
# 1 0.009914 -0.002250 -0.002113 0.000000 0.000000 0.000000
# 2 -0.002250 0.010837 -0.004158 0.000000 0.000000 0.000000
# 3 -0.002113 -0.004158 0.011010 0.000000 0.000000 0.000000
# 4 0.000000 0.000000 0.000000 0.019474 0.000000 0.000000
# 5 0.000000 0.000000 0.000000 0.000000 0.036436 0.000000
# 6 0.000000 0.000000 0.000000 0.000000 0.000000 0.038703
#
#
# Mechanical properties :
#
#
# Convention : Reuss Voigt Hill
#
# Bulk Modulus (GPa) = 67.93518 68.19495 68.06507
# Shear Modulus (GPa) = 33.71047 36.08350 34.89698
#
# Velocity S-wave (km/s) = 3.82573 3.95809 3.89247
# Velocity P-wave (km/s) = 7.00076 7.10613 7.05364
#
# Compressibility (1/GPa) = 0.01471991
#
# Stress axis : x y z
#
# Youngs Moduli (GPa) = 100.86720 92.27457 90.83022
#
# Poissons Ratio (x) = 0.20761 0.19191
# Poissons Ratio (y) = 0.22694 0.37765
# Poissons Ratio (z) = 0.21311 0.38365
#
# Static dielectric constant tensor:
#      x y z
#    x 4.229360 0.000000 0.000000 
#    y 0.000000 4.309690 0.000000 
#    z 0.000000 0.000000 4.054840 
# 
# 
# High freq. dielectric constant tensor:
#      x y z
#    x 1.901210 0.000000 0.000000 
#    y 0.000000 1.921590 0.000000 
#    z 0.000000 0.000000 1.902140 
# 
# From -- ./inp_files/7333.got.cif
#   From: 2010.03.12/outbox.cif.g09.slc.cpg/sg19_4_cif.got.tgz:7333.got - 2010.04.10 18:59:41.
