data_PCOD8157830
_publ_section_title
;
Structure prediction by ZEFSAII (Michael W. Deem and Ramdas Pophale) SiO2 
 PCOD8157830
Probable space group: P 21 21 21
;
_chemical_formula_sum "Si O2"
_cell_formula_units_Z 16
_cell_length_a 6.448929
_cell_length_b 7.835997
_cell_length_c 11.701299
_cell_angle_alpha 90.000000
_cell_angle_beta 90.000000
_cell_angle_gamma 90.000000
_cell_volume 591.310966
_symmetry_space_group_name_H-M "P 21 21 21"
_symmetry_group_IT_number 19
_symmetry_cell_setting 'orthorhombic'
loop_
_space_group_symop_operation_xyz
x,y,z
1/2-x,-y,1/2+z
1/2+x,1/2-y,-z
-x,1/2+y,1/2-z
loop_
_atom_site_type_symbol
_atom_site_label
_atom_site_fract_x
_atom_site_fract_y
_atom_site_fract_z
Si Si1 0.490069 0.974756 0.489213
Si Si2 0.046256 0.138872 0.229958
Si Si3 0.179214 0.680882 0.901602
Si Si4 0.828384 0.662714 0.732140
O O1 0.354821 0.147514 0.474889
O O2 0.728378 0.033712 0.516069
O O3 0.399413 0.864752 0.594816
O O4 0.478167 0.853202 0.378102
O O5 0.155871 0.293545 0.298276
O O6 0.792583 0.155021 0.241660
O O7 0.139171 0.968632 0.286499
O O8 0.960355 0.626480 0.845645
#
# Coordination Sequence:
#
# PCOD8157830 Si02
#       4
#     4   4   4   4
#     4  11  26  46  78 106 156 200 254 312 392 441
#     4  11  25  50  73 115 148 197 255 320 373 456
#     4  11  26  49  74 113 152 207 249 320 379 467
#     4  11  27  49  79 114 154 198 260 318 380 462
#
# _framework density 27.058519
#
# number of rings (size 3 to 8) (size 9 to 14) (size 15 to 20)
#    0.000    1.000    2.500    1.500   10.500    0.000 
#    4.500    0.000    0.000    0.000    0.000    0.000 
#    0.000    0.000    0.000    0.000    0.000    0.000 
#
# Total GULP energy -198259.043212 kJ/mol
# GULP energy per Si atom -12391.190201 kJ/mol
# Density = 2.699693 g / cm^3
# Si number density = 27.058519 Si / 1000 Ang^3
#
#
#
# Elastic Constant Matrix: (Units=GPa)
#
#
# Indices 1 2 3 4 5 6 
#
# 1 164.7975 53.1050 80.2264 0.0000 0.0000 0.0000
# 2 53.1050 42.0124 32.5013 0.0000 0.0000 0.0000
# 3 80.2264 32.5013 136.3724 0.0000 0.0000 0.0000
# 4 0.0000 0.0000 0.0000 41.0361 0.0000 0.0000
# 5 0.0000 0.0000 0.0000 0.0000 56.9166 0.0000
# 6 0.0000 0.0000 0.0000 0.0000 0.0000 39.7645
#
#
#
# Elastic Compliance Matrix: (Units=1/GPa)
#
#
# Indices 1 2 3 4 5 6 
#
# 1 0.011920 -0.011822 -0.004195 0.000000 0.000000 0.000000
# 2 -0.011822 0.040907 -0.002795 0.000000 0.000000 0.000000
# 3 -0.004195 -0.002795 0.010467 0.000000 0.000000 0.000000
# 4 0.000000 0.000000 0.000000 0.024369 0.000000 0.000000
# 5 0.000000 0.000000 0.000000 0.000000 0.017570 0.000000
# 6 0.000000 0.000000 0.000000 0.000000 0.000000 0.025148
#
#
# Mechanical properties :
#
#
# Convention : Reuss Voigt Hill
#
# Bulk Modulus (GPa) = 38.95396 74.98308 56.96852
# Shear Modulus (GPa) = 28.31904 39.36674 33.84289
#
# Velocity S-wave (km/s) = 3.23861 3.81842 3.54040
# Velocity P-wave (km/s) = 5.33031 6.87110 6.14916
#
# Compressibility (1/GPa) = 0.02567133
#
# Stress axis : x y z
#
# Youngs Moduli (GPa) = 83.89566 24.44542 95.54130
#
# Poissons Ratio (x) = 0.28898 0.40077
# Poissons Ratio (y) = 0.99178 0.26702
# Poissons Ratio (z) = 0.35192 0.06832
#
# Static dielectric constant tensor:
#      x y z
#    x 4.974440 0.000000 0.000000 
#    y 0.000000 4.721330 0.000000 
#    z 0.000000 0.000000 5.015150 
# 
# 
# High freq. dielectric constant tensor:
#      x y z
#    x 2.087830 0.000000 0.000000 
#    y 0.000000 2.069530 0.000000 
#    z 0.000000 0.000000 2.094090 
# 
# From -- ./inp_files/269.got.cif
#   From: 2010.03.12/outbox.cif.g09.slc.cpg/sg19_1_cif.got.tgz:269.got - 2010.04.10 18:59:41.
