data_PCOD8157414
_publ_section_title
;
Structure prediction by ZEFSAII (Michael W. Deem and Ramdas Pophale) SiO2 
 PCOD8157414
Probable space group: P 21 21 21
;
_chemical_formula_sum "Si O2"
_cell_formula_units_Z 28
_cell_length_a 6.683889
_cell_length_b 12.226411
_cell_length_c 16.461252
_cell_angle_alpha 90.000000
_cell_angle_beta 90.000000
_cell_angle_gamma 90.000000
_cell_volume 1345.213085
_symmetry_space_group_name_H-M "P 21 21 21"
_symmetry_group_IT_number 19
_symmetry_cell_setting 'orthorhombic'
loop_
_space_group_symop_operation_xyz
x,y,z
1/2-x,-y,1/2+z
1/2+x,1/2-y,-z
-x,1/2+y,1/2-z
loop_
_atom_site_type_symbol
_atom_site_label
_atom_site_fract_x
_atom_site_fract_y
_atom_site_fract_z
Si Si1 0.670264 0.870026 0.562333
Si Si2 0.552622 0.623387 0.148269
Si Si3 0.468356 0.131039 0.950138
Si Si4 0.584064 0.367855 0.340168
Si Si5 0.625708 0.534766 0.716032
Si Si6 0.845478 0.467893 0.478411
Si Si7 0.223696 0.459299 0.783529
O O1 0.559459 0.759874 0.537043
O O2 0.772462 0.857815 0.651921
O O3 0.826214 0.902292 0.492447
O O4 0.520854 0.972996 0.570940
O O5 0.528088 0.752278 0.159528
O O6 0.756037 0.575009 0.187560
O O7 0.364924 0.569585 0.195359
O O8 0.554131 0.598960 0.052439
O O9 0.478950 0.101158 0.855938
O O10 0.285607 0.066908 0.988648
O O11 0.728824 0.381172 0.262646
O O12 0.714223 0.387184 0.422030
O O13 0.405206 0.452667 0.332512
O O14 0.450240 0.497833 0.774621
#
# Coordination Sequence:
#
# PCOD8157414 Si02
#       7
#     4   4   4   4   4   4   4
#     4  12  22  39  69  94 133 176 215 275 334 384
#     4  10  25  43  66  95 135 176 221 271 328 390
#     4  11  23  40  65  97 129 172 218 269 333 391
#     4  11  23  44  67  96 132 176 220 272 328 388
#     4  10  23  45  65  96 133 167 222 275 325 393
#     4  11  23  44  63  96 137 170 226 274 315 399
#     4  11  23  43  67  98 131 171 224 274 321 401
#
# _framework density 20.814546
#
# number of rings (size 3 to 8) (size 9 to 14) (size 15 to 20)
#    0.000    1.143    4.286    1.714    0.000    3.429 
#    7.714    0.000    0.000    0.000    0.000    0.000 
#    0.000    0.000    0.000    0.000    0.000    0.000 
#
# Total GULP energy -347129.080644 kJ/mol
# GULP energy per Si atom -12397.467166 kJ/mol
# Density = 2.076717 g / cm^3
# Si number density = 20.814546 Si / 1000 Ang^3
#
#
#
# Elastic Constant Matrix: (Units=GPa)
#
#
# Indices 1 2 3 4 5 6 
#
# 1 85.3100 24.2524 32.8872 0.0000 0.0000 0.0000
# 2 24.2524 78.7187 34.9291 0.0000 0.0000 0.0000
# 3 32.8872 34.9291 128.0494 0.0000 0.0000 0.0000
# 4 0.0000 0.0000 0.0000 27.4227 0.0000 0.0000
# 5 0.0000 0.0000 0.0000 0.0000 35.0689 0.0000
# 6 0.0000 0.0000 0.0000 0.0000 0.0000 19.3002
#
#
#
# Elastic Compliance Matrix: (Units=1/GPa)
#
#
# Indices 1 2 3 4 5 6 
#
# 1 0.013608 -0.003005 -0.002675 0.000000 0.000000 0.000000
# 2 -0.003005 0.015117 -0.003352 0.000000 0.000000 0.000000
# 3 -0.002675 -0.003352 0.009411 0.000000 0.000000 0.000000
# 4 0.000000 0.000000 0.000000 0.036466 0.000000 0.000000
# 5 0.000000 0.000000 0.000000 0.000000 0.028515 0.000000
# 6 0.000000 0.000000 0.000000 0.000000 0.000000 0.051813
#
#
# Mechanical properties :
#
#
# Convention : Reuss Voigt Hill
#
# Bulk Modulus (GPa) = 49.82350 52.91284 51.36817
# Shear Modulus (GPa) = 27.82667 29.69230 28.75948
#
# Velocity S-wave (km/s) = 3.66031 3.78102 3.72116
# Velocity P-wave (km/s) = 6.46936 6.67366 6.57231
#
# Compressibility (1/GPa) = 0.02007085
#
# Stress axis : x y z
#
# Youngs Moduli (GPa) = 73.48844 66.15266 106.26116
#
# Poissons Ratio (x) = 0.19881 0.28426
# Poissons Ratio (y) = 0.22086 0.35614
# Poissons Ratio (z) = 0.19659 0.22172
#
# Static dielectric constant tensor:
#      x y z
#    x 3.771270 0.000000 0.000000 
#    y 0.000000 3.596330 0.000000 
#    z 0.000000 0.000000 4.009510 
# 
# 
# High freq. dielectric constant tensor:
#      x y z
#    x 1.822880 0.000000 0.000000 
#    y 0.000000 1.800330 0.000000 
#    z 0.000000 0.000000 1.832930 
# 
# From -- ./inp_files/1053.got.cif
#   From: 2010.03.12/outbox.cif.g09.slc.cpg/sg19_1_cif.got.tgz:1053.got - 2010.04.10 18:59:41.
