data_PCOD8157580
_publ_section_title
;
Structure prediction by ZEFSAII (Michael W. Deem and Ramdas Pophale) SiO2 
 PCOD8157580
Probable space group: P 21 21 21
;
_chemical_formula_sum "Si O2"
_cell_formula_units_Z 32
_cell_length_a 16.362779
_cell_length_b 6.522981
_cell_length_c 13.864547
_cell_angle_alpha 90.000000
_cell_angle_beta 90.000000
_cell_angle_gamma 90.000000
_cell_volume 1479.819898
_symmetry_space_group_name_H-M "P 21 21 21"
_symmetry_group_IT_number 19
_symmetry_cell_setting 'orthorhombic'
loop_
_space_group_symop_operation_xyz
x,y,z
1/2-x,-y,1/2+z
1/2+x,1/2-y,-z
-x,1/2+y,1/2-z
loop_
_atom_site_type_symbol
_atom_site_label
_atom_site_fract_x
_atom_site_fract_y
_atom_site_fract_z
Si Si1 0.736597 0.967049 0.142024
Si Si2 0.661634 0.389880 0.894765
Si Si3 0.416373 0.393071 0.850279
Si Si4 0.412129 0.553234 0.493613
Si Si5 0.954898 0.282283 0.348966
Si Si6 0.082212 0.868398 0.535826
Si Si7 0.283235 0.812029 0.014184
Si Si8 0.298235 0.416510 0.148700
O O1 0.683286 0.962412 0.239643
O O2 0.817637 0.102382 0.158359
O O3 0.673571 0.052364 0.062813
O O4 0.770539 0.754281 0.097136
O O5 0.613954 0.545281 0.825146
O O6 0.714338 0.519734 0.969825
O O7 0.719237 0.229076 0.839962
O O8 0.590362 0.263928 0.946925
O O9 0.458206 0.611955 0.878662
O O10 0.460852 0.344787 0.749199
O O11 0.432345 0.217117 0.928382
O O12 0.423333 0.355544 0.562029
O O13 0.491761 0.574075 0.424169
O O14 0.124701 0.699369 0.602980
O O15 0.130012 0.081854 0.531114
O O16 0.277336 0.617433 0.086696
#
# Coordination Sequence:
#
# PCOD8157580 Si02
#       8
#     4   4   4   4   4   4   4   4
#     4  12  24  44  72  99 136 187 232 286 352 423
#     4  11  21  43  70  96 138 175 228 292 353 414
#     4  12  25  42  73 107 139 186 235 289 368 420
#     4  12  24  47  67 100 142 184 236 286 354 423
#     4  12  26  43  69 108 146 180 230 306 354 425
#     4  11  25  45  68  99 140 186 233 291 350 425
#     4  11  22  46  70  97 137 184 229 300 348 405
#     4  11  25  46  65 102 140 176 241 288 349 433
#
# _framework density 21.624251999999998
#
# number of rings (size 3 to 8) (size 9 to 14) (size 15 to 20)
#    0.000    0.500    5.000    3.750    3.500    0.000 
#    6.750    0.000    0.000    0.000    0.000    0.000 
#    0.000    0.000    0.000    0.000    0.000    0.000 
#
# Total GULP energy -396601.699772 kJ/mol
# GULP energy per Si atom -12393.803118 kJ/mol
# Density = 2.157503 g / cm^3
# Si number density = 21.624252 Si / 1000 Ang^3
#
#
#
# Elastic Constant Matrix: (Units=GPa)
#
#
# Indices 1 2 3 4 5 6 
#
# 1 122.6177 35.8835 14.1324 0.0000 0.0000 0.0000
# 2 35.8835 105.4412 27.9681 0.0000 0.0000 0.0000
# 3 14.1324 27.9681 93.5564 0.0000 0.0000 0.0000
# 4 0.0000 0.0000 0.0000 24.5811 0.0000 0.0000
# 5 0.0000 0.0000 0.0000 0.0000 24.1712 0.0000
# 6 0.0000 0.0000 0.0000 0.0000 0.0000 38.0617
#
#
#
# Elastic Compliance Matrix: (Units=1/GPa)
#
#
# Indices 1 2 3 4 5 6 
#
# 1 0.009078 -0.002960 -0.000486 0.000000 0.000000 0.000000
# 2 -0.002960 0.011266 -0.002921 0.000000 0.000000 0.000000
# 3 -0.000486 -0.002921 0.011635 0.000000 0.000000 0.000000
# 4 0.000000 0.000000 0.000000 0.040682 0.000000 0.000000
# 5 0.000000 0.000000 0.000000 0.000000 0.041372 0.000000
# 6 0.000000 0.000000 0.000000 0.000000 0.000000 0.026273
#
#
# Mechanical properties :
#
#
# Convention : Reuss Voigt Hill
#
# Bulk Modulus (GPa) = 51.96293 53.06481 52.51387
# Shear Modulus (GPa) = 31.35675 33.60487 32.48081
#
# Velocity S-wave (km/s) = 3.81211 3.94640 3.87984
# Velocity P-wave (km/s) = 6.59230 6.73485 6.66396
#
# Compressibility (1/GPa) = 0.01924449
#
# Stress axis : x y z
#
# Youngs Moduli (GPa) = 110.15869 88.76147 85.94499
#
# Poissons Ratio (x) = 0.26276 0.04179
# Poissons Ratio (y) = 0.32611 0.25103
# Poissons Ratio (z) = 0.05357 0.25925
#
# Static dielectric constant tensor:
#      x y z
#    x 4.157000 0.000000 0.000000 
#    y 0.000000 4.071850 0.000000 
#    z 0.000000 0.000000 3.624710 
# 
# 
# High freq. dielectric constant tensor:
#      x y z
#    x 1.870800 0.000000 0.000000 
#    y 0.000000 1.859470 0.000000 
#    z 0.000000 0.000000 1.821430 
# 
# From -- ./inp_files/5739.got.cif
#   From: 2010.03.12/outbox.cif.g09.slc.cpg/sg19_3_cif.got.tgz:5739.got - 2010.04.10 18:59:41.
