data_PCOD8157889
_publ_section_title
;
Structure prediction by ZEFSAII (Michael W. Deem and Ramdas Pophale) SiO2 
 PCOD8157889
Probable space group: P 21 21 21
;
_chemical_formula_sum "Si O2"
_cell_formula_units_Z 24
_cell_length_a 12.083005
_cell_length_b 8.184322
_cell_length_c 9.841327
_cell_angle_alpha 90.000000
_cell_angle_beta 90.000000
_cell_angle_gamma 90.000000
_cell_volume 973.220673
_symmetry_space_group_name_H-M "P 21 21 21"
_symmetry_group_IT_number 19
_symmetry_cell_setting 'orthorhombic'
loop_
_space_group_symop_operation_xyz
x,y,z
1/2-x,-y,1/2+z
1/2+x,1/2-y,-z
-x,1/2+y,1/2-z
loop_
_atom_site_type_symbol
_atom_site_label
_atom_site_fract_x
_atom_site_fract_y
_atom_site_fract_z
Si Si1 0.407438 0.260459 0.993348
Si Si2 0.181233 0.577939 0.740907
Si Si3 0.444678 0.925909 0.129169
Si Si4 0.261477 0.210795 0.732073
Si Si5 0.559485 0.507783 0.851797
Si Si6 0.378122 0.751847 0.861774
O O1 0.338823 0.202583 0.863762
O O2 0.511906 0.382604 0.964779
O O3 0.316838 0.344224 0.090894
O O4 0.458060 0.103307 0.065519
O O5 0.221751 0.395200 0.713313
O O6 0.256602 0.674994 0.848381
O O7 0.058668 0.606524 0.796612
O O8 0.346176 0.907850 0.240713
O O9 0.412576 0.787244 0.017414
O O10 0.340105 0.135323 0.608625
O O11 0.457723 0.614903 0.797590
O O12 0.611345 0.414457 0.724441
#
# Coordination Sequence:
#
# PCOD8157889 Si02
#       6
#     4   4   4   4   4   4
#     4  12  27  53  80 117 159 212 262 344 394 490
#     4  12  29  50  76 119 163 209 275 334 411 474
#     4  12  29  49  77 118 161 213 269 340 402 483
#     4  12  27  50  79 117 158 217 272 332 411 491
#     4  12  24  48  79 113 153 209 270 318 411 476
#     4  12  24  48  79 114 156 212 262 336 397 488
#
# _framework density 24.660388000000001
#
# number of rings (size 3 to 8) (size 9 to 14) (size 15 to 20)
#    0.000    0.000    5.000    3.000    2.333    6.667 
#    0.000    0.000    0.000    0.000    0.000    0.000 
#    0.000    0.000    0.000    0.000    0.000    0.000 
#
# Total GULP energy -297444.263239 kJ/mol
# GULP energy per Si atom -12393.510968 kJ/mol
# Density = 2.460426 g / cm^3
# Si number density = 24.660388 Si / 1000 Ang^3
#
#
#
# Elastic Constant Matrix: (Units=GPa)
#
#
# Indices 1 2 3 4 5 6 
#
# 1 191.1165 74.5288 48.2068 0.0000 0.0000 0.0000
# 2 74.5288 142.0058 47.0196 0.0000 0.0000 0.0000
# 3 48.2068 47.0196 63.1941 0.0000 0.0000 0.0000
# 4 0.0000 0.0000 0.0000 30.1460 0.0000 0.0000
# 5 0.0000 0.0000 0.0000 0.0000 31.3837 0.0000
# 6 0.0000 0.0000 0.0000 0.0000 0.0000 59.3431
#
#
#
# Elastic Compliance Matrix: (Units=1/GPa)
#
#
# Indices 1 2 3 4 5 6 
#
# 1 0.007124 -0.002573 -0.003519 0.000000 0.000000 0.000000
# 2 -0.002573 0.010274 -0.005681 0.000000 0.000000 0.000000
# 3 -0.003519 -0.005681 0.022736 0.000000 0.000000 0.000000
# 4 0.000000 0.000000 0.000000 0.033172 0.000000 0.000000
# 5 0.000000 0.000000 0.000000 0.000000 0.031864 0.000000
# 6 0.000000 0.000000 0.000000 0.000000 0.000000 0.016851
#
#
# Mechanical properties :
#
#
# Convention : Reuss Voigt Hill
#
# Bulk Modulus (GPa) = 60.29347 81.75853 71.02600
# Shear Modulus (GPa) = 33.09148 39.27862 36.18505
#
# Velocity S-wave (km/s) = 3.66715 3.99530 3.83474
# Velocity P-wave (km/s) = 6.51408 7.38302 6.96212
#
# Compressibility (1/GPa) = 0.01658554
#
# Stress axis : x y z
#
# Youngs Moduli (GPa) = 140.37671 97.33699 43.98312
#
# Poissons Ratio (x) = 0.25048 0.15480
# Poissons Ratio (y) = 0.36124 0.24987
# Poissons Ratio (z) = 0.49406 0.55297
#
# Static dielectric constant tensor:
#      x y z
#    x 4.648180 0.000000 0.000000 
#    y 0.000000 4.799640 0.000000 
#    z 0.000000 0.000000 4.353380 
# 
# 
# High freq. dielectric constant tensor:
#      x y z
#    x 1.994430 0.000000 0.000000 
#    y 0.000000 2.010020 0.000000 
#    z 0.000000 0.000000 1.959510 
# 
# From -- ./inp_files/4932.got.cif
#   From: 2010.03.12/outbox.cif.g09.slc.cpg/sg19_3_cif.got.tgz:4932.got - 2010.04.10 18:59:41.
