data_PCOD8157645
_publ_section_title
;
Structure prediction by ZEFSAII (Michael W. Deem and Ramdas Pophale) SiO2 
 PCOD8157645
Probable space group: P 21 21 21
;
_chemical_formula_sum "Si O2"
_cell_formula_units_Z 32
_cell_length_a 8.396554
_cell_length_b 20.905289
_cell_length_c 8.079473
_cell_angle_alpha 90.000000
_cell_angle_beta 90.000000
_cell_angle_gamma 90.000000
_cell_volume 1418.209189
_symmetry_space_group_name_H-M "P 21 21 21"
_symmetry_group_IT_number 19
_symmetry_cell_setting 'orthorhombic'
loop_
_space_group_symop_operation_xyz
x,y,z
1/2-x,-y,1/2+z
1/2+x,1/2-y,-z
-x,1/2+y,1/2-z
loop_
_atom_site_type_symbol
_atom_site_label
_atom_site_fract_x
_atom_site_fract_y
_atom_site_fract_z
Si Si1 0.320315 0.382147 0.002113
Si Si2 0.693369 0.682448 0.126399
Si Si3 0.519745 0.612159 0.837566
Si Si4 0.533370 0.010813 0.423337
Si Si5 0.999426 0.402331 0.855405
Si Si6 0.313019 0.328695 0.339603
Si Si7 0.663982 0.518740 0.598171
Si Si8 0.488545 0.384794 0.649972
O O1 0.128606 0.375890 0.986273
O O2 0.400019 0.370568 0.824073
O O3 0.348393 0.452138 0.076425
O O4 0.386469 0.337520 0.153054
O O5 0.601705 0.657451 0.289035
O O6 0.656362 0.756790 0.101443
O O7 0.879939 0.670573 0.146048
O O8 0.642073 0.643913 0.964493
O O9 0.374362 0.660052 0.808997
O O10 0.620992 0.587909 0.681261
O O11 0.452482 0.544247 0.900050
O O12 0.350275 0.992297 0.389308
O O13 0.597396 0.063466 0.292869
O O14 0.885156 0.461266 0.912626
O O15 0.380287 0.375485 0.484509
O O16 0.566465 0.455509 0.653631
#
# Coordination Sequence:
#
# PCOD8157645 Si02
#       8
#     4   4   4   4   4   4   4   4
#     4  12  27  43  71 111 140 187 233 304 366 429
#     4  11  26  50  69 100 144 201 248 291 351 439
#     4  11  23  44  71 100 144 185 233 305 366 421
#     4  11  23  40  67 103 143 175 230 294 370 436
#     4  11  24  42  70 101 145 185 232 301 361 433
#     4  12  28  48  71 104 148 195 249 295 356 429
#     4  12  22  42  71 107 140 180 238 304 374 432
#     4  12  25  45  76 106 142 190 241 302 370 433
#
# _framework density 22.563669999999998
#
# number of rings (size 3 to 8) (size 9 to 14) (size 15 to 20)
#    0.000    0.500    5.000    4.500    7.000    1.000 
#    2.250    0.000    0.000    0.000    0.000    0.000 
#    0.000    0.000    0.000    0.000    0.000    0.000 
#
# Total GULP energy -396543.020804 kJ/mol
# GULP energy per Si atom -12391.969400 kJ/mol
# Density = 2.251231 g / cm^3
# Si number density = 22.563670 Si / 1000 Ang^3
#
#
#
# Elastic Constant Matrix: (Units=GPa)
#
#
# Indices 1 2 3 4 5 6 
#
# 1 67.7385 18.5592 33.9049 0.0000 0.0000 0.0000
# 2 18.5592 92.9821 17.4258 0.0000 0.0000 0.0000
# 3 33.9049 17.4258 111.0708 0.0000 0.0000 0.0000
# 4 0.0000 0.0000 0.0000 26.3752 0.0000 0.0000
# 5 0.0000 0.0000 0.0000 0.0000 29.3180 0.0000
# 6 0.0000 0.0000 0.0000 0.0000 0.0000 29.6141
#
#
#
# Elastic Compliance Matrix: (Units=1/GPa)
#
#
# Indices 1 2 3 4 5 6 
#
# 1 0.018035 -0.002646 -0.005090 0.000000 0.000000 0.000000
# 2 -0.002646 0.011469 -0.000992 0.000000 0.000000 0.000000
# 3 -0.005090 -0.000992 0.010713 0.000000 0.000000 0.000000
# 4 0.000000 0.000000 0.000000 0.037914 0.000000 0.000000
# 5 0.000000 0.000000 0.000000 0.000000 0.034109 0.000000
# 6 0.000000 0.000000 0.000000 0.000000 0.000000 0.033768
#
#
# Mechanical properties :
#
#
# Convention : Reuss Voigt Hill
#
# Bulk Modulus (GPa) = 43.93446 45.73012 44.83229
# Shear Modulus (GPa) = 29.23116 30.52156 29.87636
#
# Velocity S-wave (km/s) = 3.60321 3.68188 3.64275
# Velocity P-wave (km/s) = 6.06831 6.19565 6.13231
#
# Compressibility (1/GPa) = 0.02276118
#
# Stress axis : x y z
#
# Youngs Moduli (GPa) = 55.44648 87.19369 93.34735
#
# Poissons Ratio (x) = 0.23070 0.47516
# Poissons Ratio (y) = 0.14671 0.09257
# Poissons Ratio (z) = 0.28224 0.08647
#
# Static dielectric constant tensor:
#      x y z
#    x 3.981750 0.000000 0.000000 
#    y 0.000000 3.864560 0.000000 
#    z 0.000000 0.000000 4.570380 
# 
# 
# High freq. dielectric constant tensor:
#      x y z
#    x 1.888080 0.000000 0.000000 
#    y 0.000000 1.870570 0.000000 
#    z 0.000000 0.000000 1.911870 
# 
# From -- ./inp_files/3172.got.cif
#   From: 2010.03.12/outbox.cif.g09.slc.cpg/sg19_2_cif.got.tgz:3172.got - 2010.04.10 18:59:41.
