data_PCOD8157640
_publ_section_title
;
Structure prediction by ZEFSAII (Michael W. Deem and Ramdas Pophale) SiO2 
 PCOD8157640
Probable space group: P 21 21 21
;
_chemical_formula_sum "Si O2"
_cell_formula_units_Z 28
_cell_length_a 6.016101
_cell_length_b 14.615811
_cell_length_c 14.108237
_cell_angle_alpha 90.000000
_cell_angle_beta 90.000000
_cell_angle_gamma 90.000000
_cell_volume 1240.540033
_symmetry_space_group_name_H-M "P 21 21 21"
_symmetry_group_IT_number 19
_symmetry_cell_setting 'orthorhombic'
loop_
_space_group_symop_operation_xyz
x,y,z
1/2-x,-y,1/2+z
1/2+x,1/2-y,-z
-x,1/2+y,1/2-z
loop_
_atom_site_type_symbol
_atom_site_label
_atom_site_fract_x
_atom_site_fract_y
_atom_site_fract_z
Si Si1 0.516196 0.460399 0.705030
Si Si2 0.689760 0.885233 0.293358
Si Si3 0.522608 0.353698 0.399517
Si Si4 0.924646 0.478338 0.586113
Si Si5 0.368193 0.236936 0.047886
Si Si6 0.256495 0.326253 0.588889
Si Si7 0.761067 0.546231 0.403467
O O1 0.427862 0.564777 0.704998
O O2 0.676425 0.454493 0.615042
O O3 0.344151 0.379612 0.681814
O O4 0.613593 0.435887 0.806239
O O5 0.649390 0.849910 0.187281
O O6 0.674919 0.799459 0.361712
O O7 0.520418 0.964511 0.325775
O O8 0.413411 0.326460 0.498089
O O9 0.712319 0.278005 0.380035
O O10 0.617449 0.454986 0.402240
O O11 0.937562 0.538473 0.489921
O O12 0.034319 0.381243 0.561885
O O13 0.400568 0.131966 0.079043
O O14 0.617708 0.259140 0.004698
#
# Coordination Sequence:
#
# PCOD8157640 Si02
#       7
#     4   4   4   4   4   4   4
#     4  11  25  46  75 107 141 196 242 312 368 450
#     4  11  26  45  74 107 148 190 250 306 377 451
#     4  12  26  46  72 106 146 196 240 307 374 452
#     4  11  22  49  68 104 144 184 244 304 369 447
#     4  12  29  49  79 112 151 202 252 319 381 448
#     4  11  27  44  73 103 147 186 243 303 370 448
#     4  12  25  45  77 103 147 194 251 305 385 444
#
# _framework density 22.570815
#
# number of rings (size 3 to 8) (size 9 to 14) (size 15 to 20)
#    0.000    0.571    4.286    2.571    4.000    3.429 
#    0.000    0.000    0.000    0.000    0.000    0.000 
#    0.000    0.000    0.000    0.000    0.000    0.000 
#
# Total GULP energy -346917.190143 kJ/mol
# GULP energy per Si atom -12389.899648 kJ/mol
# Density = 2.251944 g / cm^3
# Si number density = 22.570815 Si / 1000 Ang^3
#
#
#
# Elastic Constant Matrix: (Units=GPa)
#
#
# Indices 1 2 3 4 5 6 
#
# 1 91.2642 35.8730 28.1787 0.0000 0.0000 0.0000
# 2 35.8730 164.3043 28.0110 0.0000 0.0000 0.0000
# 3 28.1787 28.0110 114.2804 0.0000 0.0000 0.0000
# 4 0.0000 0.0000 0.0000 32.5696 0.0000 0.0000
# 5 0.0000 0.0000 0.0000 0.0000 26.4988 0.0000
# 6 0.0000 0.0000 0.0000 0.0000 0.0000 36.4059
#
#
#
# Elastic Compliance Matrix: (Units=1/GPa)
#
#
# Indices 1 2 3 4 5 6 
#
# 1 0.012660 -0.002329 -0.002551 0.000000 0.000000 0.000000
# 2 -0.002329 0.006780 -0.001088 0.000000 0.000000 0.000000
# 3 -0.002551 -0.001088 0.009646 0.000000 0.000000 0.000000
# 4 0.000000 0.000000 0.000000 0.030704 0.000000 0.000000
# 5 0.000000 0.000000 0.000000 0.000000 0.037738 0.000000
# 6 0.000000 0.000000 0.000000 0.000000 0.000000 0.027468
#
#
# Mechanical properties :
#
#
# Convention : Reuss Voigt Hill
#
# Bulk Modulus (GPa) = 58.30480 61.55270 59.92875
# Shear Modulus (GPa) = 35.05131 37.61394 36.33262
#
# Velocity S-wave (km/s) = 3.94502 4.08669 4.01648
# Velocity P-wave (km/s) = 6.82927 7.04260 6.93675
#
# Compressibility (1/GPa) = 0.01715125
#
# Stress axis : x y z
#
# Youngs Moduli (GPa) = 78.98670 147.48746 103.67065
#
# Poissons Ratio (x) = 0.34354 0.26444
# Poissons Ratio (y) = 0.18398 0.11275
# Poissons Ratio (z) = 0.20148 0.16040
#
# Static dielectric constant tensor:
#      x y z
#    x 4.444460 0.000000 0.000000 
#    y 0.000000 4.252090 0.000000 
#    z 0.000000 0.000000 4.232460 
# 
# 
# High freq. dielectric constant tensor:
#      x y z
#    x 1.884890 0.000000 0.000000 
#    y 0.000000 1.909340 0.000000 
#    z 0.000000 0.000000 1.899420 
# 
# From -- ./inp_files/5718.got.cif
#   From: 2010.03.12/outbox.cif.g09.slc.cpg/sg19_3_cif.got.tgz:5718.got - 2010.04.10 18:59:41.
