data_PCOD8157646
_publ_section_title
;
Structure prediction by ZEFSAII (Michael W. Deem and Ramdas Pophale) SiO2 
 PCOD8157646
Probable space group: P 21 21 21
;
_chemical_formula_sum "Si O2"
_cell_formula_units_Z 32
_cell_length_a 8.945900
_cell_length_b 18.729339
_cell_length_c 8.159935
_cell_angle_alpha 90.000000
_cell_angle_beta 90.000000
_cell_angle_gamma 90.000000
_cell_volume 1367.203586
_symmetry_space_group_name_H-M "P 21 21 21"
_symmetry_group_IT_number 19
_symmetry_cell_setting 'orthorhombic'
loop_
_space_group_symop_operation_xyz
x,y,z
1/2-x,-y,1/2+z
1/2+x,1/2-y,-z
-x,1/2+y,1/2-z
loop_
_atom_site_type_symbol
_atom_site_label
_atom_site_fract_x
_atom_site_fract_y
_atom_site_fract_z
Si Si1 0.850874 0.864203 0.178788
Si Si2 0.049230 0.519943 0.315368
Si Si3 0.762373 0.874673 0.825665
Si Si4 0.539905 0.541958 0.255125
Si Si5 0.397339 0.830150 0.096687
Si Si6 0.177947 0.024905 0.445817
Si Si7 0.595859 0.744007 0.858711
Si Si8 0.928223 0.098762 0.856042
O O1 0.737527 0.868373 0.332238
O O2 0.977871 0.807814 0.235573
O O3 0.905546 0.942451 0.121154
O O4 0.768341 0.842048 0.010517
O O5 0.169555 0.551729 0.185595
O O6 0.040052 0.580253 0.455970
O O7 0.890932 0.504524 0.229943
O O8 0.667585 0.807987 0.744481
O O9 0.931077 0.887932 0.752340
O O10 0.639879 0.538307 0.422142
O O11 0.432337 0.473444 0.252290
O O12 0.644874 0.534871 0.090806
O O13 0.404336 0.902752 0.994546
O O14 0.227446 0.807028 0.084048
O O15 0.448105 0.845936 0.284848
O O16 0.508356 0.773244 0.017301
#
# Coordination Sequence:
#
# PCOD8157646 Si02
#       8
#     4   4   4   4   4   4   4   4
#     4  12  23  43  71 103 141 190 237 295 359 438
#     4  12  24  42  71 108 143 179 243 306 369 427
#     4  12  23  43  71 103 137 190 243 302 359 436
#     4  11  23  41  67 105 142 177 239 297 363 431
#     4  11  23  43  69  97 139 192 244 298 355 440
#     4  11  25  42  69 106 139 185 232 301 364 430
#     4  12  24  44  73  98 141 195 253 287 366 450
#     4  11  23  40  67 104 140 180 237 300 359 428
#
# _framework density 23.405439000000001
#
# number of rings (size 3 to 8) (size 9 to 14) (size 15 to 20)
#    0.000    0.500    6.250    2.250    5.250    0.000 
#    0.000    1.250    0.000    0.000    0.000    0.000 
#    0.000    0.000    0.000    0.000    0.000    0.000 
#
# Total GULP energy -396484.582240 kJ/mol
# GULP energy per Si atom -12390.143195 kJ/mol
# Density = 2.335217 g / cm^3
# Si number density = 23.405439 Si / 1000 Ang^3
#
#
#
# Elastic Constant Matrix: (Units=GPa)
#
#
# Indices 1 2 3 4 5 6 
#
# 1 131.4583 37.1283 27.4130 0.0000 0.0000 0.0000
# 2 37.1283 86.2427 17.3834 0.0000 0.0000 0.0000
# 3 27.4130 17.3834 65.0478 0.0000 0.0000 0.0000
# 4 0.0000 0.0000 0.0000 20.9405 0.0000 0.0000
# 5 0.0000 0.0000 0.0000 0.0000 29.3508 0.0000
# 6 0.0000 0.0000 0.0000 0.0000 0.0000 56.8483
#
#
#
# Elastic Compliance Matrix: (Units=1/GPa)
#
#
# Indices 1 2 3 4 5 6 
#
# 1 0.009173 -0.003350 -0.002970 0.000000 0.000000 0.000000
# 2 -0.003350 0.013479 -0.002190 0.000000 0.000000 0.000000
# 3 -0.002970 -0.002190 0.017210 0.000000 0.000000 0.000000
# 4 0.000000 0.000000 0.000000 0.047754 0.000000 0.000000
# 5 0.000000 0.000000 0.000000 0.000000 0.034071 0.000000
# 6 0.000000 0.000000 0.000000 0.000000 0.000000 0.017591
#
#
# Mechanical properties :
#
#
# Convention : Reuss Voigt Hill
#
# Bulk Modulus (GPa) = 43.78194 49.62204 46.70199
# Shear Modulus (GPa) = 30.50409 34.81619 32.66014
#
# Velocity S-wave (km/s) = 3.61403 3.86103 3.73957
# Velocity P-wave (km/s) = 6.01344 6.41279 6.21632
#
# Compressibility (1/GPa) = 0.02284047
#
# Stress axis : x y z
#
# Youngs Moduli (GPa) = 109.02063 74.18979 58.10441
#
# Poissons Ratio (x) = 0.24855 0.17259
# Poissons Ratio (y) = 0.36524 0.12726
# Poissons Ratio (z) = 0.32382 0.16249
#
# Static dielectric constant tensor:
#      x y z
#    x 4.494540 0.000000 0.000000 
#    y 0.000000 4.248810 0.000000 
#    z 0.000000 0.000000 3.819530 
# 
# 
# High freq. dielectric constant tensor:
#      x y z
#    x 1.950830 0.000000 0.000000 
#    y 0.000000 1.913540 0.000000 
#    z 0.000000 0.000000 1.889740 
# 
# From -- ./inp_files/3183.got.cif
#   From: 2010.03.12/outbox.cif.g09.slc.cpg/sg19_2_cif.got.tgz:3183.got - 2010.04.10 18:59:41.
