data_PCOD8157275
_publ_section_title
;
Structure prediction by ZEFSAII (Michael W. Deem and Ramdas Pophale) SiO2 
 PCOD8157275
Probable space group: P 21 21 21
;
_chemical_formula_sum "Si O2"
_cell_formula_units_Z 32
_cell_length_a 12.833837
_cell_length_b 14.221900
_cell_length_c 8.213620
_cell_angle_alpha 90.000000
_cell_angle_beta 90.000000
_cell_angle_gamma 90.000000
_cell_volume 1499.162624
_symmetry_space_group_name_H-M "P 21 21 21"
_symmetry_group_IT_number 19
_symmetry_cell_setting 'orthorhombic'
loop_
_space_group_symop_operation_xyz
x,y,z
1/2-x,-y,1/2+z
1/2+x,1/2-y,-z
-x,1/2+y,1/2-z
loop_
_atom_site_type_symbol
_atom_site_label
_atom_site_fract_x
_atom_site_fract_y
_atom_site_fract_z
Si Si1 0.375526 0.196505 0.043086
Si Si2 0.242740 0.368755 0.035661
Si Si3 0.852194 0.430471 0.680615
Si Si4 0.233763 0.434000 0.680618
Si Si5 0.051681 0.276259 0.181806
Si Si6 0.962681 0.082547 0.289149
Si Si7 0.953792 0.921024 0.043894
Si Si8 0.848703 0.501863 0.018008
O O1 0.493809 0.193174 0.982700
O O2 0.339158 0.300709 0.994239
O O3 0.368300 0.172906 0.236365
O O4 0.319890 0.108731 0.946323
O O5 0.269196 0.452954 0.158903
O O6 0.170089 0.296339 0.134918
O O7 0.200124 0.409971 0.865658
O O8 0.944887 0.449407 0.557405
O O9 0.854789 0.511491 0.820930
O O10 0.741200 0.431850 0.589234
O O11 0.349093 0.392081 0.632632
O O12 0.145160 0.389642 0.564666
O O13 0.030872 0.168532 0.225173
O O14 0.015814 0.336074 0.337866
O O15 0.037005 0.026435 0.412600
O O16 0.924534 0.015044 0.142485
#
# Coordination Sequence:
#
# PCOD8157275 Si02
#       8
#     4   4   4   4   4   4   4   4
#     4  10  22  43  66  96 133 180 224 278 341 413
#     4  12  23  45  71  98 139 180 234 279 352 413
#     4  10  23  41  69  99 133 179 229 280 348 409
#     4  12  24  44  70 101 135 184 226 288 345 415
#     4  12  24  45  67  98 139 182 230 290 345 420
#     4  12  24  46  70  98 141 186 230 287 363 404
#     4  12  24  45  68 101 138 181 232 293 346 418
#     4  10  22  43  67  99 134 180 225 289 342 414
#
# _framework density 21.34525
#
# number of rings (size 3 to 8) (size 9 to 14) (size 15 to 20)
#    0.750    0.000    5.000    2.250    3.500    0.000 
#    9.000    1.250    0.000    0.000    0.000    0.000 
#    0.000    0.000    0.000    0.000    0.000    0.000 
#
# Total GULP energy -396547.369026 kJ/mol
# GULP energy per Si atom -12392.105282 kJ/mol
# Density = 2.129667 g / cm^3
# Si number density = 21.345250 Si / 1000 Ang^3
#
#
#
# Elastic Constant Matrix: (Units=GPa)
#
#
# Indices 1 2 3 4 5 6 
#
# 1 106.1526 2.7418 37.4576 0.0000 0.0000 0.0000
# 2 2.7418 71.7351 14.6741 0.0000 0.0000 0.0000
# 3 37.4576 14.6741 96.0342 0.0000 0.0000 0.0000
# 4 0.0000 0.0000 0.0000 28.9684 0.0000 0.0000
# 5 0.0000 0.0000 0.0000 0.0000 31.8780 0.0000
# 6 0.0000 0.0000 0.0000 0.0000 0.0000 33.4743
#
#
#
# Elastic Compliance Matrix: (Units=1/GPa)
#
#
# Indices 1 2 3 4 5 6 
#
# 1 0.010939 0.000469 -0.004338 0.000000 0.000000 0.000000
# 2 0.000469 0.014410 -0.002385 0.000000 0.000000 0.000000
# 3 -0.004338 -0.002385 0.012470 0.000000 0.000000 0.000000
# 4 0.000000 0.000000 0.000000 0.034520 0.000000 0.000000
# 5 0.000000 0.000000 0.000000 0.000000 0.031370 0.000000
# 6 0.000000 0.000000 0.000000 0.000000 0.000000 0.029874
#
#
# Mechanical properties :
#
#
# Convention : Reuss Voigt Hill
#
# Bulk Modulus (GPa) = 39.50893 42.62987 41.06940
# Shear Modulus (GPa) = 32.35668 33.46736 32.91202
#
# Velocity S-wave (km/s) = 3.89765 3.96398 3.93095
# Velocity P-wave (km/s) = 6.22938 6.40045 6.31549
#
# Compressibility (1/GPa) = 0.02531073
#
# Stress axis : x y z
#
# Youngs Moduli (GPa) = 91.41462 69.39581 80.19522
#
# Poissons Ratio (x) = -0.03257 0.34792
# Poissons Ratio (y) = -0.04291 0.19126
# Poissons Ratio (z) = 0.39660 0.16550
#
# Static dielectric constant tensor:
#      x y z
#    x 3.804870 0.000000 0.000000 
#    y 0.000000 3.691230 0.000000 
#    z 0.000000 0.000000 3.860110 
# 
# 
# High freq. dielectric constant tensor:
#      x y z
#    x 1.844000 0.000000 0.000000 
#    y 0.000000 1.824090 0.000000 
#    z 0.000000 0.000000 1.834290 
# 
# From -- ./inp_files/3635.got.cif
#   From: 2010.03.12/outbox.cif.g09.slc.cpg/sg19_2_cif.got.tgz:3635.got - 2010.04.10 18:59:41.
