data_PCOD8157312
_publ_section_title
;
Structure prediction by ZEFSAII (Michael W. Deem and Ramdas Pophale) SiO2 
 PCOD8157312
Probable space group: P 21 21 21
;
_chemical_formula_sum "Si O2"
_cell_formula_units_Z 32
_cell_length_a 12.650914
_cell_length_b 10.205088
_cell_length_c 12.656665
_cell_angle_alpha 90.000000
_cell_angle_beta 90.000000
_cell_angle_gamma 90.000000
_cell_volume 1634.022163
_symmetry_space_group_name_H-M "P 21 21 21"
_symmetry_group_IT_number 19
_symmetry_cell_setting 'orthorhombic'
loop_
_space_group_symop_operation_xyz
x,y,z
1/2-x,-y,1/2+z
1/2+x,1/2-y,-z
-x,1/2+y,1/2-z
loop_
_atom_site_type_symbol
_atom_site_label
_atom_site_fract_x
_atom_site_fract_y
_atom_site_fract_z
Si Si1 0.594841 0.924590 0.334593
Si Si2 0.626172 0.654764 0.865386
Si Si3 0.391663 0.942603 0.452627
Si Si4 0.474116 0.206502 0.028676
Si Si5 0.571311 0.943977 0.093205
Si Si6 0.929951 0.709742 0.057846
Si Si7 0.837266 0.444554 0.136146
Si Si8 0.236227 0.377036 0.550300
O O1 0.481066 0.988179 0.367506
O O2 0.606817 0.783775 0.393484
O O3 0.602457 0.900150 0.210137
O O4 0.691105 0.017082 0.368340
O O5 0.516736 0.735251 0.860326
O O6 0.644355 0.575923 0.759204
O O7 0.722692 0.754576 0.881654
O O8 0.625401 0.554309 0.961915
O O9 0.432959 0.807509 0.507447
O O10 0.283372 0.914339 0.391767
O O11 0.524132 0.089277 0.096093
O O12 0.413390 0.154228 0.926498
O O13 0.485437 0.841777 0.049005
O O14 0.672610 0.944734 0.017622
O O15 0.864281 0.594799 0.112824
O O16 0.853772 0.829654 0.030075
#
# Coordination Sequence:
#
# PCOD8157312 Si02
#       8
#     4   4   4   4   4   4   4   4
#     4  10  24  39  69  93 127 173 208 273 318 371
#     4  11  24  42  68  93 132 172 208 273 325 383
#     4  10  23  42  64  97 128 166 219 268 308 386
#     4   9  24  42  61  94 135 154 225 266 298 405
#     4  10  24  42  65  95 127 176 207 264 331 370
#     4  10  22  45  62  95 135 159 221 263 310 399
#     4  11  24  42  69  95 128 179 207 267 336 373
#     4  11  23  42  64  96 134 163 219 262 314 397
#
# _framework density 19.583577999999999
#
# number of rings (size 3 to 8) (size 9 to 14) (size 15 to 20)
#    0.750    1.000    2.500    0.000    8.750    0.000 
#    9.000    0.000    0.000    0.000    0.000    0.000 
#    0.000    0.000    0.000    0.000    0.000    0.000 
#
# Total GULP energy -396815.176400 kJ/mol
# GULP energy per Si atom -12400.474263 kJ/mol
# Density = 1.953901 g / cm^3
# Si number density = 19.583578 Si / 1000 Ang^3
#
#
#
# Elastic Constant Matrix: (Units=GPa)
#
#
# Indices 1 2 3 4 5 6 
#
# 1 69.2374 -1.6162 11.5792 0.0000 0.0000 0.0000
# 2 -1.6162 61.6062 9.5065 0.0000 0.0000 0.0000
# 3 11.5792 9.5065 97.3845 0.0000 0.0000 0.0000
# 4 0.0000 0.0000 0.0000 18.4248 0.0000 0.0000
# 5 0.0000 0.0000 0.0000 0.0000 16.3236 0.0000
# 6 0.0000 0.0000 0.0000 0.0000 0.0000 43.3982
#
#
#
# Elastic Compliance Matrix: (Units=1/GPa)
#
#
# Indices 1 2 3 4 5 6 
#
# 1 0.014763 0.000668 -0.001821 0.000000 0.000000 0.000000
# 2 0.000668 0.016511 -0.001691 0.000000 0.000000 0.000000
# 3 -0.001821 -0.001691 0.010650 0.000000 0.000000 0.000000
# 4 0.000000 0.000000 0.000000 0.054275 0.000000 0.000000
# 5 0.000000 0.000000 0.000000 0.000000 0.061261 0.000000
# 6 0.000000 0.000000 0.000000 0.000000 0.000000 0.023042
#
#
# Mechanical properties :
#
#
# Convention : Reuss Voigt Hill
#
# Bulk Modulus (GPa) = 27.59626 29.68524 28.64075
# Shear Modulus (GPa) = 25.21838 29.54656 27.38247
#
# Velocity S-wave (km/s) = 3.59239 3.88847 3.74336
# Velocity P-wave (km/s) = 5.59724 5.94570 5.77410
#
# Compressibility (1/GPa) = 0.03623680
#
# Stress axis : x y z
#
# Youngs Moduli (GPa) = 67.73629 60.56708 93.89554
#
# Poissons Ratio (x) = -0.04047 0.17095
# Poissons Ratio (y) = -0.04526 0.15879
# Poissons Ratio (z) = 0.12332 0.10243
#
# Static dielectric constant tensor:
#      x y z
#    x 3.724250 0.000000 0.000000 
#    y 0.000000 3.606200 0.000000 
#    z 0.000000 0.000000 3.277750 
# 
# 
# High freq. dielectric constant tensor:
#      x y z
#    x 1.771180 0.000000 0.000000 
#    y 0.000000 1.771290 0.000000 
#    z 0.000000 0.000000 1.747890 
# 
# From -- ./inp_files/5071.got.cif
#   From: 2010.03.12/outbox.cif.g09.slc.cpg/sg19_3_cif.got.tgz:5071.got - 2010.04.10 18:59:41.
