data_PCOD8157083
_publ_section_title
;
Structure prediction by ZEFSAII (Michael W. Deem and Ramdas Pophale) SiO2 
 PCOD8157083
Probable space group: P 21 21 21
;
_chemical_formula_sum "Si O2"
_cell_formula_units_Z 32
_cell_length_a 14.025041
_cell_length_b 11.581275
_cell_length_c 8.589562
_cell_angle_alpha 90.000000
_cell_angle_beta 90.000000
_cell_angle_gamma 90.000000
_cell_volume 1395.184146
_symmetry_space_group_name_H-M "P 21 21 21"
_symmetry_group_IT_number 19
_symmetry_cell_setting 'orthorhombic'
loop_
_space_group_symop_operation_xyz
x,y,z
1/2-x,-y,1/2+z
1/2+x,1/2-y,-z
-x,1/2+y,1/2-z
loop_
_atom_site_type_symbol
_atom_site_label
_atom_site_fract_x
_atom_site_fract_y
_atom_site_fract_z
Si Si1 0.942542 0.076469 0.402286
Si Si2 0.978707 0.939490 0.875693
Si Si3 0.775182 0.167735 0.617810
Si Si4 0.796454 0.278949 0.947383
Si Si5 0.618787 0.368141 0.101201
Si Si6 0.338890 0.445030 0.902638
Si Si7 0.994450 0.856192 0.538844
Si Si8 0.895101 0.707740 0.950746
O O1 0.869080 0.139171 0.518785
O O2 0.914170 0.100982 0.224796
O O3 0.051073 0.117020 0.437703
O O4 0.944955 0.936055 0.408526
O O5 0.970874 0.932795 0.690770
O O6 0.973627 0.810334 0.941452
O O7 0.075719 0.004195 0.925508
O O8 0.890050 0.014255 0.938855
O O9 0.801433 0.244851 0.766434
O O10 0.703295 0.245973 0.518833
O O11 0.726908 0.046179 0.667742
O O12 0.893496 0.343372 0.989678
O O13 0.713879 0.367494 0.997189
O O14 0.775289 0.164844 0.050592
O O15 0.548025 0.271263 0.034924
O O16 0.632493 0.347345 0.285043
#
# Coordination Sequence:
#
# PCOD8157083 Si02
#       8
#     4   4   4   4   4   4   4   4
#     4  12  24  44  69  97 139 179 225 291 345 411
#     4  10  21  42  67  91 132 176 221 278 332 408
#     4  11  23  43  68 102 137 179 236 282 340 406
#     4  12  25  41  68 104 136 177 227 285 350 415
#     4  11  21  43  69  93 135 175 224 282 342 412
#     4  11  23  40  69 102 129 175 236 281 333 413
#     4  11  23  44  68  97 132 180 222 277 359 402
#     4  10  24  43  66 100 132 183 231 282 345 403
#
# _framework density 22.936040999999999
#
# number of rings (size 3 to 8) (size 9 to 14) (size 15 to 20)
#    0.000    1.000    2.500    5.250    1.750    4.000 
#    4.500    1.250    0.000    0.000    0.000    0.000 
#    0.000    0.000    0.000    0.000    0.000    0.000 
#
# Total GULP energy -396803.258352 kJ/mol
# GULP energy per Si atom -12400.101824 kJ/mol
# Density = 2.288384 g / cm^3
# Si number density = 22.936041 Si / 1000 Ang^3
#
#
#
# Elastic Constant Matrix: (Units=GPa)
#
#
# Indices 1 2 3 4 5 6 
#
# 1 102.1260 6.7692 21.1851 0.0000 0.0000 0.0000
# 2 6.7692 43.6926 18.1557 0.0000 0.0000 0.0000
# 3 21.1851 18.1557 57.6294 0.0000 0.0000 0.0000
# 4 0.0000 0.0000 0.0000 18.6061 0.0000 0.0000
# 5 0.0000 0.0000 0.0000 0.0000 36.4905 0.0000
# 6 0.0000 0.0000 0.0000 0.0000 0.0000 46.0765
#
#
#
# Elastic Compliance Matrix: (Units=1/GPa)
#
#
# Indices 1 2 3 4 5 6 
#
# 1 0.010600 -0.000027 -0.003888 0.000000 0.000000 0.000000
# 2 -0.000027 0.026335 -0.008287 0.000000 0.000000 0.000000
# 3 -0.003888 -0.008287 0.021392 0.000000 0.000000 0.000000
# 4 0.000000 0.000000 0.000000 0.053746 0.000000 0.000000
# 5 0.000000 0.000000 0.000000 0.000000 0.027404 0.000000
# 6 0.000000 0.000000 0.000000 0.000000 0.000000 0.021703
#
#
# Mechanical properties :
#
#
# Convention : Reuss Voigt Hill
#
# Bulk Modulus (GPa) = 29.47776 32.85199 31.16488
# Shear Modulus (GPa) = 25.39464 30.72381 28.05923
#
# Velocity S-wave (km/s) = 3.33106 3.66395 3.50146
# Velocity P-wave (km/s) = 5.26067 5.67924 5.47396
#
# Compressibility (1/GPa) = 0.03392388
#
# Stress axis : x y z
#
# Youngs Moduli (GPa) = 94.33793 37.97262 46.74563
#
# Poissons Ratio (x) = 0.00101 0.18176
# Poissons Ratio (y) = 0.00250 0.38737
# Poissons Ratio (z) = 0.36682 0.31467
#
# Static dielectric constant tensor:
#      x y z
#    x 3.989210 0.000000 0.000000 
#    y 0.000000 4.187300 0.000000 
#    z 0.000000 0.000000 4.001030 
# 
# 
# High freq. dielectric constant tensor:
#      x y z
#    x 1.904080 0.000000 0.000000 
#    y 0.000000 1.909160 0.000000 
#    z 0.000000 0.000000 1.897970 
# 
# From -- ./inp_files/3991.got.cif
#   From: 2010.03.12/outbox.cif.g09.slc.cpg/sg19_2_cif.got.tgz:3991.got - 2010.04.10 18:59:41.
