data_PCOD8157984
_publ_section_title
;
Structure prediction by ZEFSAII (Michael W. Deem and Ramdas Pophale) SiO2 
 PCOD8157984
Probable space group: C 2 2 21
;
_chemical_formula_sum "Si O2"
_cell_formula_units_Z 56
_cell_length_a 20.809357
_cell_length_b 30.501875
_cell_length_c 5.193237
_cell_angle_alpha 90.000000
_cell_angle_beta 90.000000
_cell_angle_gamma 90.000000
_cell_volume 3296.274270
_symmetry_space_group_name_H-M "C 2 2 21"
_symmetry_group_IT_number 20
_symmetry_cell_setting 'orthorhombic'
loop_
_space_group_symop_operation_xyz
x,y,z
-x,-y,1/2+z
x,-y,-z
-x,y,1/2-z
1/2+x,1/2+y,z
1/2-x,1/2-y,1/2+z
1/2+x,1/2-y,-z
1/2-x,1/2+y,1/2-z
loop_
_atom_site_type_symbol
_atom_site_label
_atom_site_fract_x
_atom_site_fract_y
_atom_site_fract_z
Si Si1 0.334666 0.745492 0.024221
Si Si2 0.243235 0.899243 0.998325
Si Si3 0.290840 0.699342 0.524347
Si Si4 0.603917 0.101240 0.498335
Si Si5 0.255899 0.549128 0.998683
Si Si6 0.957521 0.696256 0.999698
Si Si7 0.896869 0.549254 0.501778
O O1 0.331848 0.720133 0.293952
O O2 0.282203 0.783976 0.012988
O O3 0.323416 0.711366 0.794213
O O4 0.403950 0.766502 0.994361
O O5 0.319688 0.893657 0.998695
O O6 0.219102 0.925461 0.749044
O O7 0.208733 0.852645 0.996419
O O8 0.219322 0.925822 0.246775
O O9 0.574003 0.148829 0.504451
O O10 0.578795 0.074368 0.744932
O O11 0.578614 0.075541 0.247533
O O12 0.179475 0.547065 0.999899
O O13 0.284296 0.500000 0.000000
O O14 0.000000 0.702373 0.250000
O O15 0.000000 0.703504 0.750000
O O16 0.925267 0.500000 0.500000
#
# Coordination Sequence:
#
# PCOD8157984 Si02
#       7
#     8   8   8   8   8   8   8
#     4  10  21  35  51  75  96 126 160 204 259 293
#     4  10  17  29  48  70  96 127 161 201 247 282
#     4  10  19  33  54  74 101 121 159 210 250 298
#     4  10  19  32  48  69  92 117 165 204 249 300
#     4   9  17  26  41  68 100 129 161 192 230 296
#     4  12  24  38  54  71  97 129 167 205 253 305
#     4   9  17  29  48  67  88 119 155 208 256 296
#
# _framework density 16.988878
#
# number of rings (size 3 to 8) (size 9 to 14) (size 15 to 20)
#    0.000    2.000    1.429    3.429    0.000    3.429 
#    0.000    0.000    0.000    8.571    0.000    0.000 
#    0.000    0.000    0.000    0.000    0.000  180.000 
#
# Total GULP energy -347280.194500 kJ/mol
# GULP energy per Si atom -12402.864089 kJ/mol
# Density = 1.695021 g / cm^3
# Si number density = 16.988878 Si / 1000 Ang^3
#
#
#
# Elastic Constant Matrix: (Units=GPa)
#
#
# Indices 1 2 3 4 5 6 
#
# 1 31.3387 28.4698 17.2910 0.0000 0.0000 0.0000
# 2 28.4698 120.6750 40.1175 0.0000 0.0000 0.0000
# 3 17.2910 40.1175 132.1308 0.0000 0.0000 0.0000
# 4 0.0000 0.0000 0.0000 23.7217 0.0000 0.0000
# 5 0.0000 0.0000 0.0000 0.0000 11.1506 0.0000
# 6 0.0000 0.0000 0.0000 0.0000 0.0000 16.4853
#
#
#
# Elastic Compliance Matrix: (Units=1/GPa)
#
#
# Indices 1 2 3 4 5 6 
#
# 1 0.041483 -0.008878 -0.002733 0.000000 0.000000 0.000000
# 2 -0.008878 0.011117 -0.002214 0.000000 0.000000 0.000000
# 3 -0.002733 -0.002214 0.008598 0.000000 0.000000 0.000000
# 4 0.000000 0.000000 0.000000 0.042156 0.000000 0.000000
# 5 0.000000 0.000000 0.000000 0.000000 0.089682 0.000000
# 6 0.000000 0.000000 0.000000 0.000000 0.000000 0.060660
#
#
# Mechanical properties :
#
#
# Convention : Reuss Voigt Hill
#
# Bulk Modulus (GPa) = 29.80759 50.65566 40.23163
# Shear Modulus (GPa) = 17.09244 23.48926 20.29085
#
# Velocity S-wave (km/s) = 3.17534 3.72240 3.45970
# Velocity P-wave (km/s) = 5.57020 6.95390 6.30015
#
# Compressibility (1/GPa) = 0.03354850
#
# Stress axis : x y z
#
# Youngs Moduli (GPa) = 24.10651 89.95128 116.30631
#
# Poissons Ratio (x) = 0.79859 0.31786
# Poissons Ratio (y) = 0.21402 0.25745
# Poissons Ratio (z) = 0.06588 0.19911
#
# Static dielectric constant tensor:
#      x y z
#    x 2.706690 0.000000 0.000000 
#    y 0.000000 3.229660 0.000000 
#    z 0.000000 0.000000 3.486780 
# 
# 
# High freq. dielectric constant tensor:
#      x y z
#    x 1.593950 0.000000 0.000000 
#    y 0.000000 1.663060 0.000000 
#    z 0.000000 0.000000 1.680850 
# 
# From -- ./inp_files/3294.got.cif
#   From: 2010.03.12/outbox.cif.g09.slc.cpg/sg20_2_cif.got.tgz:3294.got - 2010.04.14 01:38:04.
