data_PCOD8157900
_publ_section_title
;
Structure prediction by ZEFSAII (Michael W. Deem and Ramdas Pophale) SiO2 
 PCOD8157900
Probable space group: P 21 21 21
;
_chemical_formula_sum "Si O2"
_cell_formula_units_Z 24
_cell_length_a 18.388941
_cell_length_b 9.093444
_cell_length_c 5.086032
_cell_angle_alpha 90.000000
_cell_angle_beta 90.000000
_cell_angle_gamma 90.000000
_cell_volume 850.480194
_symmetry_space_group_name_H-M "P 21 21 21"
_symmetry_group_IT_number 19
_symmetry_cell_setting 'orthorhombic'
loop_
_space_group_symop_operation_xyz
x,y,z
1/2-x,-y,1/2+z
1/2+x,1/2-y,-z
-x,1/2+y,1/2-z
loop_
_atom_site_type_symbol
_atom_site_label
_atom_site_fract_x
_atom_site_fract_y
_atom_site_fract_z
Si Si1 0.767615 0.084710 0.462948
Si Si2 0.127049 0.965165 0.563781
Si Si3 0.231478 0.160815 0.844147
Si Si4 0.026994 0.703007 0.676274
Si Si5 0.920957 0.055708 0.332612
Si Si6 0.894073 0.725023 0.330285
O O1 0.725892 0.238856 0.419473
O O2 0.852586 0.101314 0.519593
O O3 0.726120 0.992126 0.676344
O O4 0.183369 0.867507 0.389844
O O5 0.060247 0.870059 0.687165
O O6 0.181597 0.017297 0.797802
O O7 0.095566 0.098348 0.386776
O O8 0.191152 0.244446 0.086044
O O9 0.076486 0.631658 0.449022
O O10 0.942548 0.686454 0.588912
O O11 0.020622 0.621547 0.959683
O O12 0.926772 0.884016 0.252436
#
# Coordination Sequence:
#
# PCOD8157900 Si02
#       6
#     4   4   4   4   4   4
#     4  12  25  47  77 113 150 198 259 326 395 467
#     4  12  28  50  78 118 157 212 264 333 399 478
#     4  12  27  45  80 112 155 208 265 329 395 472
#     4  12  31  51  82 114 162 212 269 327 402 482
#     4  12  28  52  78 114 156 213 261 332 395 481
#     4  12  29  51  79 113 162 209 270 329 404 478
#
# _framework density 28.219352000000001
#
# number of rings (size 3 to 8) (size 9 to 14) (size 15 to 20)
#    0.000    0.000    5.000    3.000   11.667    0.000 
#    0.000    0.000    0.000    0.000    0.000    0.000 
#    0.000    0.000    0.000    0.000    0.000    0.000 
#
# Total GULP energy -297399.411807 kJ/mol
# GULP energy per Si atom -12391.642159 kJ/mol
# Density = 2.815512 g / cm^3
# Si number density = 28.219352 Si / 1000 Ang^3
#
#
#
# Elastic Constant Matrix: (Units=GPa)
#
#
# Indices 1 2 3 4 5 6 
#
# 1 99.2044 18.9182 -6.9207 0.0000 0.0000 0.0000
# 2 18.9182 137.0225 26.2598 0.0000 0.0000 0.0000
# 3 -6.9207 26.2598 75.7828 0.0000 0.0000 0.0000
# 4 0.0000 0.0000 0.0000 33.1992 0.0000 0.0000
# 5 0.0000 0.0000 0.0000 0.0000 39.8481 0.0000
# 6 0.0000 0.0000 0.0000 0.0000 0.0000 37.6772
#
#
#
# Elastic Compliance Matrix: (Units=1/GPa)
#
#
# Indices 1 2 3 4 5 6 
#
# 1 0.010524 -0.001754 0.001569 0.000000 0.000000 0.000000
# 2 -0.001754 0.008109 -0.002970 0.000000 0.000000 0.000000
# 3 0.001569 -0.002970 0.014368 0.000000 0.000000 0.000000
# 4 0.000000 0.000000 0.000000 0.030121 0.000000 0.000000
# 5 0.000000 0.000000 0.000000 0.000000 0.025095 0.000000
# 6 0.000000 0.000000 0.000000 0.000000 0.000000 0.026541
#
#
# Mechanical properties :
#
#
# Convention : Reuss Voigt Hill
#
# Bulk Modulus (GPa) = 37.46528 43.16937 40.31733
# Shear Modulus (GPa) = 38.47141 40.39505 39.43323
#
# Velocity S-wave (km/s) = 3.69629 3.78758 3.74221
# Velocity P-wave (km/s) = 5.61445 5.87015 5.74372
#
# Compressibility (1/GPa) = 0.02669138
#
# Stress axis : x y z
#
# Youngs Moduli (GPa) = 95.02034 123.31343 69.59876
#
# Poissons Ratio (x) = 0.21625 -0.10918
# Poissons Ratio (y) = 0.16663 0.20672
# Poissons Ratio (z) = -0.14906 0.36626
#
# Static dielectric constant tensor:
#      x y z
#    x 5.381220 0.000000 0.000000 
#    y 0.000000 5.311420 0.000000 
#    z 0.000000 0.000000 4.743830 
# 
# 
# High freq. dielectric constant tensor:
#      x y z
#    x 2.165070 0.000000 0.000000 
#    y 0.000000 2.149120 0.000000 
#    z 0.000000 0.000000 2.135690 
# 
# From -- ./inp_files/432.got.cif
#   From: 2010.03.12/outbox.cif.g09.slc.cpg/sg19_1_cif.got.tgz:432.got - 2010.04.10 18:59:41.
