data_PCOD8157609
_publ_section_title
;
Structure prediction by ZEFSAII (Michael W. Deem and Ramdas Pophale) SiO2 
 PCOD8157609
Probable space group: P 21 21 21
;
_chemical_formula_sum "Si O2"
_cell_formula_units_Z 32
_cell_length_a 12.744267
_cell_length_b 8.573980
_cell_length_c 13.667641
_cell_angle_alpha 90.000000
_cell_angle_beta 90.000000
_cell_angle_gamma 90.000000
_cell_volume 1493.450700
_symmetry_space_group_name_H-M "P 21 21 21"
_symmetry_group_IT_number 19
_symmetry_cell_setting 'orthorhombic'
loop_
_space_group_symop_operation_xyz
x,y,z
1/2-x,-y,1/2+z
1/2+x,1/2-y,-z
-x,1/2+y,1/2-z
loop_
_atom_site_type_symbol
_atom_site_label
_atom_site_fract_x
_atom_site_fract_y
_atom_site_fract_z
Si Si1 0.432913 0.929087 0.681760
Si Si2 0.119403 0.430052 0.211488
Si Si3 0.273637 0.616910 0.074599
Si Si4 0.709431 0.900717 0.130889
Si Si5 0.930225 0.351631 0.713677
Si Si6 0.895282 0.786258 0.640836
Si Si7 0.283222 0.899209 0.216597
Si Si8 0.506885 0.968912 0.465943
O O1 0.409795 0.745005 0.678759
O O2 0.475997 0.993231 0.578428
O O3 0.515521 0.968235 0.767356
O O4 0.330058 0.025748 0.708346
O O5 0.183860 0.516401 0.127019
O O6 0.183917 0.433267 0.311911
O O7 0.304790 0.770714 0.133751
O O8 0.370700 0.500063 0.053839
O O9 0.234248 0.685184 0.970729
O O10 0.635444 0.806501 0.204561
O O11 0.650995 0.057464 0.096196
O O12 0.871266 0.466016 0.789849
O O13 0.043623 0.317065 0.757470
O O14 0.939774 0.418764 0.604277
O O15 0.796642 0.679200 0.675498
O O16 0.974289 0.707922 0.563225
#
# Coordination Sequence:
#
# PCOD8157609 Si02
#       8
#     4   4   4   4   4   4   4   4
#     4  12  26  46  68 101 143 187 234 285 356 418
#     4  12  25  46  70  97 143 186 228 294 347 413
#     4  12  24  45  70 105 139 185 237 285 352 421
#     4  12  23  44  71  99 134 185 229 283 354 414
#     4  11  22  43  70 101 136 178 231 286 353 408
#     4  11  23  42  71 101 134 179 233 295 346 407
#     4  11  23  41  68 100 139 180 228 288 346 414
#     4  11  24  43  68 104 138 176 236 290 340 423
#
# _framework density 21.426886
#
# number of rings (size 3 to 8) (size 9 to 14) (size 15 to 20)
#    0.000    0.500    5.000    4.500    0.000    0.000 
#    0.000    1.250    0.000    0.000    0.000    0.000 
#    0.000    0.000    0.000    0.000    0.000    0.000 
#
# Total GULP energy -396778.132578 kJ/mol
# GULP energy per Si atom -12399.316643 kJ/mol
# Density = 2.137812 g / cm^3
# Si number density = 21.426886 Si / 1000 Ang^3
#
#
#
# Elastic Constant Matrix: (Units=GPa)
#
#
# Indices 1 2 3 4 5 6 
#
# 1 112.2987 34.4039 43.3324 0.0000 0.0000 0.0000
# 2 34.4039 94.1223 17.2662 0.0000 0.0000 0.0000
# 3 43.3324 17.2662 86.3893 0.0000 0.0000 0.0000
# 4 0.0000 0.0000 0.0000 30.2834 0.0000 0.0000
# 5 0.0000 0.0000 0.0000 0.0000 21.8973 0.0000
# 6 0.0000 0.0000 0.0000 0.0000 0.0000 37.4512
#
#
#
# Elastic Compliance Matrix: (Units=1/GPa)
#
#
# Indices 1 2 3 4 5 6 
#
# 1 0.012011 -0.003410 -0.005343 0.000000 0.000000 0.000000
# 2 -0.003410 0.011997 -0.000687 0.000000 0.000000 0.000000
# 3 -0.005343 -0.000687 0.014393 0.000000 0.000000 0.000000
# 4 0.000000 0.000000 0.000000 0.033021 0.000000 0.000000
# 5 0.000000 0.000000 0.000000 0.000000 0.045668 0.000000
# 6 0.000000 0.000000 0.000000 0.000000 0.000000 0.026701
#
#
# Mechanical properties :
#
#
# Convention : Reuss Voigt Hill
#
# Bulk Modulus (GPa) = 51.22957 53.64617 52.43787
# Shear Modulus (GPa) = 29.55428 31.11356 30.33392
#
# Velocity S-wave (km/s) = 3.71793 3.81475 3.76665
# Velocity P-wave (km/s) = 6.51088 6.67040 6.59113
#
# Compressibility (1/GPa) = 0.01951998
#
# Stress axis : x y z
#
# Youngs Moduli (GPa) = 83.25436 83.35370 69.47820
#
# Poissons Ratio (x) = 0.28426 0.37124
# Poissons Ratio (y) = 0.28392 0.04775
# Poissons Ratio (z) = 0.44485 0.05728
#
# Static dielectric constant tensor:
#      x y z
#    x 3.941460 0.000000 0.000000 
#    y 0.000000 4.012880 0.000000 
#    z 0.000000 0.000000 3.749350 
# 
# 
# High freq. dielectric constant tensor:
#      x y z
#    x 1.850970 0.000000 0.000000 
#    y 0.000000 1.846600 0.000000 
#    z 0.000000 0.000000 1.835350 
# 
# From -- ./inp_files/4689.got.cif
#   From: 2010.03.12/outbox.cif.g09.slc.cpg/sg19_3_cif.got.tgz:4689.got - 2010.04.10 18:59:41.
