data_PCOD8157966
_publ_section_title
;
Structure prediction by ZEFSAII (Michael W. Deem and Ramdas Pophale) SiO2 
 PCOD8157966
Probable space group: C 2 2 21
;
_chemical_formula_sum "Si O2"
_cell_formula_units_Z 32
_cell_length_a 18.426645
_cell_length_b 7.978102
_cell_length_c 10.576116
_cell_angle_alpha 90.000000
_cell_angle_beta 90.000000
_cell_angle_gamma 90.000000
_cell_volume 1554.791147
_symmetry_space_group_name_H-M "C 2 2 21"
_symmetry_group_IT_number 20
_symmetry_cell_setting 'orthorhombic'
loop_
_space_group_symop_operation_xyz
x,y,z
-x,-y,1/2+z
x,-y,-z
-x,y,1/2-z
1/2+x,1/2+y,z
1/2-x,1/2-y,1/2+z
1/2+x,1/2-y,-z
1/2-x,1/2+y,1/2-z
loop_
_atom_site_type_symbol
_atom_site_label
_atom_site_fract_x
_atom_site_fract_y
_atom_site_fract_z
Si Si1 0.479034 0.676406 0.379125
Si Si2 0.960132 0.196118 0.869534
Si Si3 0.189904 0.892330 0.879405
Si Si4 0.197693 0.104003 0.628030
O O1 0.500000 0.776063 0.250000
O O2 0.521710 0.500930 0.371564
O O3 0.509473 0.778409 0.500494
O O4 0.394269 0.648438 0.393983
O O5 0.873828 0.219643 0.856017
O O6 0.000000 0.282974 0.750000
O O7 0.231899 0.718192 0.880604
O O8 0.206731 0.985147 0.748830
O O9 0.215717 0.000000 0.000000
O O10 0.190118 0.000000 0.500000
#
# Coordination Sequence:
#
# PCOD8157966 Si02
#       4
#     8   8   8   8
#     4  10  16  32  59  83 101 147 213 231 255 341
#     4  10  16  32  59  83 101 147 213 231 255 341
#     4  12  23  38  60  92 121 154 193 248 296 348
#     4  12  23  38  60  92 121 154 193 248 296 348
#
# _framework density 20.581543
#
# number of rings (size 3 to 8) (size 9 to 14) (size 15 to 20)
#    0.000    1.000   10.000    1.500    0.000    0.000 
#    0.000    0.000    0.000    9.000    0.000    0.000 
#    0.000    0.000    0.000    0.000    0.000    0.000 
#
# Total GULP energy -198357.646690 kJ/mol
# GULP energy per Si atom -12397.352918 kJ/mol
# Density = 2.053470 g / cm^3
# Si number density = 20.581543 Si / 1000 Ang^3
#
#
#
# Elastic Constant Matrix: (Units=GPa)
#
#
# Indices 1 2 3 4 5 6 
#
# 1 74.9258 18.6057 9.5588 0.0000 0.0000 0.0000
# 2 18.6057 19.8497 12.9819 0.0000 0.0000 0.0000
# 3 9.5588 12.9819 206.6304 0.0000 0.0000 0.0000
# 4 0.0000 0.0000 0.0000 4.4527 0.0000 0.0000
# 5 0.0000 0.0000 0.0000 0.0000 14.4990 0.0000
# 6 0.0000 0.0000 0.0000 0.0000 0.0000 1.8422
#
#
#
# Elastic Compliance Matrix: (Units=1/GPa)
#
#
# Indices 1 2 3 4 5 6 
#
# 1 0.017406 -0.016465 0.000229 0.000000 0.000000 0.000000
# 2 -0.016465 0.068112 -0.003518 0.000000 0.000000 0.000000
# 3 0.000229 -0.003518 0.005050 0.000000 0.000000 0.000000
# 4 0.000000 0.000000 0.000000 0.224582 0.000000 0.000000
# 5 0.000000 0.000000 0.000000 0.000000 0.068970 0.000000
# 6 0.000000 0.000000 0.000000 0.000000 0.000000 0.542818
#
#
# Mechanical properties :
#
#
# Convention : Reuss Voigt Hill
#
# Bulk Modulus (GPa) = 19.58422 42.63317 31.10869
# Shear Modulus (GPa) = 5.08406 21.50942 13.29674
#
# Velocity S-wave (km/s) = 1.57339 3.23628 2.54451
# Velocity P-wave (km/s) = 3.58285 5.89270 4.87651
#
# Compressibility (1/GPa) = 0.05106153
#
# Stress axis : x y z
#
# Youngs Moduli (GPa) = 57.45176 14.68161 198.02156
#
# Poissons Ratio (x) = 0.24173 -0.04540
# Poissons Ratio (y) = 0.94594 0.69656
# Poissons Ratio (z) = -0.01317 0.05164
#
# Static dielectric constant tensor:
#      x y z
#    x 3.828350 0.000000 0.000000 
#    y 0.000000 2.983960 0.000000 
#    z 0.000000 0.000000 6.006200 
# 
# 
# High freq. dielectric constant tensor:
#      x y z
#    x 1.818080 0.000000 0.000000 
#    y 0.000000 1.726620 0.000000 
#    z 0.000000 0.000000 1.849050 
# 
# From -- ./inp_files/12562.got.cif
#   From: 2010.03.12/outbox.cif.g09.slc.cpg/sg20_7_cif.got.tgz:12562.got - 2010.04.14 01:38:04.
