data_PCOD8157752
_publ_section_title
;
Structure prediction by ZEFSAII (Michael W. Deem and Ramdas Pophale) SiO2 
 PCOD8157752
Probable space group: P 21 21 21
;
_chemical_formula_sum "Si O2"
_cell_formula_units_Z 32
_cell_length_a 11.614317
_cell_length_b 5.297309
_cell_length_c 22.425027
_cell_angle_alpha 90.000000
_cell_angle_beta 90.000000
_cell_angle_gamma 90.000000
_cell_volume 1379.691399
_symmetry_space_group_name_H-M "P 21 21 21"
_symmetry_group_IT_number 19
_symmetry_cell_setting 'orthorhombic'
loop_
_space_group_symop_operation_xyz
x,y,z
1/2-x,-y,1/2+z
1/2+x,1/2-y,-z
-x,1/2+y,1/2-z
loop_
_atom_site_type_symbol
_atom_site_label
_atom_site_fract_x
_atom_site_fract_y
_atom_site_fract_z
Si Si1 0.624298 0.729252 0.093025
Si Si2 0.743906 0.621928 0.852497
Si Si3 0.874641 0.963847 0.101716
Si Si4 0.517784 0.305869 0.288066
Si Si5 0.690442 0.106251 0.923446
Si Si6 0.015501 0.115671 0.482456
Si Si7 0.264924 0.145958 0.964104
Si Si8 0.017646 0.895789 0.215653
O O1 0.756255 0.809137 0.097618
O O2 0.567358 0.729571 0.157962
O O3 0.642122 0.455715 0.061139
O O4 0.547161 0.883881 0.046378
O O5 0.860418 0.606796 0.814605
O O6 0.714677 0.355653 0.884381
O O7 0.641880 0.688549 0.807470
O O8 0.752477 0.857416 0.897640
O O9 0.971318 0.881921 0.052646
O O10 0.922237 0.935840 0.166571
O O11 0.839588 0.252807 0.091550
O O12 0.469915 0.552868 0.252615
O O13 0.553934 0.061241 0.934648
O O14 0.742670 0.130809 0.989352
O O15 0.147064 0.041942 0.497277
O O16 0.967972 0.665816 0.253544
#
# Coordination Sequence:
#
# PCOD8157752 Si02
#       8
#     4   4   4   4   4   4   4   4
#     4  11  27  47  74 112 153 202 256 317 390 463
#     4  12  27  49  75 109 152 201 254 319 380 458
#     4  11  26  46  74 109 151 196 251 314 380 459
#     4  12  31  52  78 108 153 210 268 325 381 462
#     4  12  24  45  74 112 154 192 244 305 392 461
#     4  11  24  45  72 116 150 198 240 316 387 471
#     4  11  26  41  77 109 156 197 244 319 386 478
#     4  12  29  47  78 105 145 200 255 315 370 442
#
# _framework density 23.193594999999998
#
# number of rings (size 3 to 8) (size 9 to 14) (size 15 to 20)
#    0.000    0.500    2.500    3.750   14.000    0.000 
#    0.000    0.000    0.000    0.000    0.000    0.000 
#    0.000    0.000    0.000    0.000    0.000    0.000 
#
# Total GULP energy -396492.012958 kJ/mol
# GULP energy per Si atom -12390.375405 kJ/mol
# Density = 2.314080 g / cm^3
# Si number density = 23.193595 Si / 1000 Ang^3
#
#
#
# Elastic Constant Matrix: (Units=GPa)
#
#
# Indices 1 2 3 4 5 6 
#
# 1 118.5717 28.1255 57.5839 0.0000 0.0000 0.0000
# 2 28.1255 133.3372 50.7274 0.0000 0.0000 0.0000
# 3 57.5839 50.7274 132.8456 0.0000 0.0000 0.0000
# 4 0.0000 0.0000 0.0000 33.2229 0.0000 0.0000
# 5 0.0000 0.0000 0.0000 0.0000 39.6595 0.0000
# 6 0.0000 0.0000 0.0000 0.0000 0.0000 31.2810
#
#
#
# Elastic Compliance Matrix: (Units=1/GPa)
#
#
# Indices 1 2 3 4 5 6 
#
# 1 0.010720 -0.000577 -0.004426 0.000000 0.000000 0.000000
# 2 -0.000577 0.008806 -0.003112 0.000000 0.000000 0.000000
# 3 -0.004426 -0.003112 0.010635 0.000000 0.000000 0.000000
# 4 0.000000 0.000000 0.000000 0.030100 0.000000 0.000000
# 5 0.000000 0.000000 0.000000 0.000000 0.025215 0.000000
# 6 0.000000 0.000000 0.000000 0.000000 0.000000 0.031968
#
#
# Mechanical properties :
#
#
# Convention : Reuss Voigt Hill
#
# Bulk Modulus (GPa) = 71.79423 73.06980 72.43201
# Shear Modulus (GPa) = 36.14858 37.38717 36.76787
#
# Velocity S-wave (km/s) = 3.95214 4.01928 3.98585
# Velocity P-wave (km/s) = 7.20052 7.28781 7.24429
#
# Compressibility (1/GPa) = 0.01392870
#
# Stress axis : x y z
#
# Youngs Moduli (GPa) = 93.28060 113.56447 94.03226
#
# Poissons Ratio (x) = 0.06556 0.41623
# Poissons Ratio (y) = 0.05385 0.29265
# Poissons Ratio (z) = 0.41290 0.35343
#
# Static dielectric constant tensor:
#      x y z
#    x 4.272640 0.000000 0.000000 
#    y 0.000000 4.363320 0.000000 
#    z 0.000000 0.000000 4.230400 
# 
# 
# High freq. dielectric constant tensor:
#      x y z
#    x 1.931480 0.000000 0.000000 
#    y 0.000000 1.926240 0.000000 
#    z 0.000000 0.000000 1.918430 
# 
# From -- ./inp_files/2019.got.cif
#   From: 2010.03.12/outbox.cif.g09.slc.cpg/sg19_2_cif.got.tgz:2019.got - 2010.04.10 18:59:41.
