data_PCOD8157066
_publ_section_title
;
Structure prediction by ZEFSAII (Michael W. Deem and Ramdas Pophale) SiO2 
 PCOD8157066
Probable space group: P 21 21 21
;
_chemical_formula_sum "Si O2"
_cell_formula_units_Z 32
_cell_length_a 9.051166
_cell_length_b 12.449125
_cell_length_c 12.537716
_cell_angle_alpha 90.000000
_cell_angle_beta 90.000000
_cell_angle_gamma 90.000000
_cell_volume 1412.738516
_symmetry_space_group_name_H-M "P 21 21 21"
_symmetry_group_IT_number 19
_symmetry_cell_setting 'orthorhombic'
loop_
_space_group_symop_operation_xyz
x,y,z
1/2-x,-y,1/2+z
1/2+x,1/2-y,-z
-x,1/2+y,1/2-z
loop_
_atom_site_type_symbol
_atom_site_label
_atom_site_fract_x
_atom_site_fract_y
_atom_site_fract_z
Si Si1 0.670317 0.054850 0.859627
Si Si2 0.817087 0.529056 0.495230
Si Si3 0.925652 0.303813 0.051511
Si Si4 0.834003 0.669295 0.069298
Si Si5 0.401592 0.973131 0.734521
Si Si6 0.025362 0.644143 0.640393
Si Si7 0.830898 0.163690 0.459530
Si Si8 0.248638 0.798856 0.248069
O O1 0.588284 0.153915 0.917006
O O2 0.823134 0.098659 0.809071
O O3 0.568650 0.004047 0.766769
O O4 0.708178 0.961818 0.945888
O O5 0.666571 0.592992 0.514659
O O6 0.768970 0.404725 0.493320
O O7 0.896303 0.568549 0.386495
O O8 0.930557 0.546307 0.591776
O O9 0.843888 0.248128 0.152656
O O10 0.936401 0.222618 0.955754
O O11 0.839992 0.622145 0.189299
O O12 0.995889 0.677381 0.018833
O O13 0.759047 0.787568 0.061125
O O14 0.298280 0.076939 0.739904
O O15 0.925660 0.704253 0.729083
O O16 0.783378 0.228309 0.354095
#
# Coordination Sequence:
#
# PCOD8157066 Si02
#       8
#     4   4   4   4   4   4   4   4
#     4  10  22  42  65 104 139 169 230 296 328 416
#     4  11  21  43  70  89 133 187 215 282 350 404
#     4  10  21  44  68  96 132 175 235 280 343 405
#     4  11  23  44  67  97 133 186 222 285 343 414
#     4  10  21  43  66  95 134 180 227 273 346 402
#     4  11  23  41  71  99 133 173 230 286 338 413
#     4  11  24  42  69  98 142 178 227 284 350 409
#     4  10  21  41  66  94 130 176 220 274 340 411
#
# _framework density 22.651042
#
# number of rings (size 3 to 8) (size 9 to 14) (size 15 to 20)
#    0.000    1.500    6.250    1.500    5.250    0.000 
#    4.500    2.500    0.000    0.000    0.000    0.000 
#    0.000    0.000    0.000    0.000    0.000    0.000 
#
# Total GULP energy -396744.611040 kJ/mol
# GULP energy per Si atom -12398.269095 kJ/mol
# Density = 2.259949 g / cm^3
# Si number density = 22.651042 Si / 1000 Ang^3
#
#
#
# Elastic Constant Matrix: (Units=GPa)
#
#
# Indices 1 2 3 4 5 6 
#
# 1 135.7831 30.7142 21.2353 0.0000 0.0000 0.0000
# 2 30.7142 41.1181 9.3072 0.0000 0.0000 0.0000
# 3 21.2353 9.3072 72.6714 0.0000 0.0000 0.0000
# 4 0.0000 0.0000 0.0000 25.5038 0.0000 0.0000
# 5 0.0000 0.0000 0.0000 0.0000 20.4744 0.0000
# 6 0.0000 0.0000 0.0000 0.0000 0.0000 31.1821
#
#
#
# Elastic Compliance Matrix: (Units=1/GPa)
#
#
# Indices 1 2 3 4 5 6 
#
# 1 0.009095 -0.006377 -0.001841 0.000000 0.000000 0.000000
# 2 -0.006377 0.029518 -0.001917 0.000000 0.000000 0.000000
# 3 -0.001841 -0.001917 0.014544 0.000000 0.000000 0.000000
# 4 0.000000 0.000000 0.000000 0.039210 0.000000 0.000000
# 5 0.000000 0.000000 0.000000 0.000000 0.048841 0.000000
# 6 0.000000 0.000000 0.000000 0.000000 0.000000 0.032070
#
#
# Mechanical properties :
#
#
# Convention : Reuss Voigt Hill
#
# Bulk Modulus (GPa) = 30.40737 41.34289 35.87513
# Shear Modulus (GPa) = 24.44870 27.98646 26.21758
#
# Velocity S-wave (km/s) = 3.28893 3.51885 3.40583
# Velocity P-wave (km/s) = 5.27979 5.89928 5.59811
#
# Compressibility (1/GPa) = 0.03288676
#
# Stress axis : x y z
#
# Youngs Moduli (GPa) = 109.94926 33.87809 68.75677
#
# Poissons Ratio (x) = 0.21604 0.12658
# Poissons Ratio (y) = 0.70116 0.13180
# Poissons Ratio (z) = 0.20241 0.06494
#
# Static dielectric constant tensor:
#      x y z
#    x 4.335430 0.000000 0.000000 
#    y 0.000000 4.059930 0.000000 
#    z 0.000000 0.000000 4.079210 
# 
# 
# High freq. dielectric constant tensor:
#      x y z
#    x 1.900520 0.000000 0.000000 
#    y 0.000000 1.888470 0.000000 
#    z 0.000000 0.000000 1.876110 
# 
# From -- ./inp_files/5957.got.cif
#   From: 2010.03.12/outbox.cif.g09.slc.cpg/sg19_3_cif.got.tgz:5957.got - 2010.04.10 18:59:41.
