data_PCOD8157235
_publ_section_title
;
Structure prediction by ZEFSAII (Michael W. Deem and Ramdas Pophale) SiO2 
 PCOD8157235
Probable space group: P 21 21 21
;
_chemical_formula_sum "Si O2"
_cell_formula_units_Z 20
_cell_length_a 9.590009
_cell_length_b 18.148801
_cell_length_c 5.035114
_cell_angle_alpha 90.000000
_cell_angle_beta 90.000000
_cell_angle_gamma 90.000000
_cell_volume 876.347317
_symmetry_space_group_name_H-M "P 21 21 21"
_symmetry_group_IT_number 19
_symmetry_cell_setting 'orthorhombic'
loop_
_space_group_symop_operation_xyz
x,y,z
1/2-x,-y,1/2+z
1/2+x,1/2-y,-z
-x,1/2+y,1/2-z
loop_
_atom_site_type_symbol
_atom_site_label
_atom_site_fract_x
_atom_site_fract_y
_atom_site_fract_z
Si Si1 0.923580 0.221912 0.741469
Si Si2 0.866443 0.075479 0.455520
Si Si3 0.705170 0.311933 0.983332
Si Si4 0.067572 0.487455 0.546252
Si Si5 0.153947 0.865287 0.996877
O O1 0.901704 0.159423 0.521800
O O2 0.951936 0.297884 0.578240
O O3 0.047477 0.205049 0.944172
O O4 0.784724 0.234147 0.922375
O O5 0.700316 0.065702 0.482739
O O6 0.921096 0.054983 0.162509
O O7 0.943241 0.021827 0.662491
O O8 0.781208 0.355919 0.215722
O O9 0.718965 0.363924 0.720137
O O10 0.927442 0.441819 0.501080
#
# Coordination Sequence:
#
# PCOD8157235 Si02
#       5
#     4   4   4   4   4
#     4  10  26  40  69 101 132 171 228 273 327 403
#     4  10  23  38  69  95 136 169 230 264 333 399
#     4  10  25  38  66  98 131 170 220 268 338 379
#     4  10  22  42  63 100 130 179 212 282 329 388
#     4  10  24  40  67  92 137 169 218 271 333 385
#
# _framework density 22.822002999999999
#
# number of rings (size 3 to 8) (size 9 to 14) (size 15 to 20)
#    1.200    0.800    0.000    1.200   11.200    1.600 
#    0.000    4.000    0.000    0.000    0.000    0.000 
#    0.000    0.000    0.000    0.000    0.000    0.000 
#
# Total GULP energy -247935.832817 kJ/mol
# GULP energy per Si atom -12396.791641 kJ/mol
# Density = 2.277006 g / cm^3
# Si number density = 22.822003 Si / 1000 Ang^3
#
#
#
# Elastic Constant Matrix: (Units=GPa)
#
#
# Indices 1 2 3 4 5 6 
#
# 1 42.5820 5.9051 -7.4529 0.0000 0.0000 0.0000
# 2 5.9051 38.7070 -6.0773 0.0000 0.0000 0.0000
# 3 -7.4529 -6.0773 76.8078 0.0000 0.0000 0.0000
# 4 0.0000 0.0000 0.0000 27.0092 0.0000 0.0000
# 5 0.0000 0.0000 0.0000 0.0000 30.1253 0.0000
# 6 0.0000 0.0000 0.0000 0.0000 0.0000 24.7284
#
#
#
# Elastic Compliance Matrix: (Units=1/GPa)
#
#
# Indices 1 2 3 4 5 6 
#
# 1 0.024319 -0.003382 0.002092 0.000000 0.000000 0.000000
# 2 -0.003382 0.026630 0.001779 0.000000 0.000000 0.000000
# 3 0.002092 0.001779 0.013363 0.000000 0.000000 0.000000
# 4 0.000000 0.000000 0.000000 0.037024 0.000000 0.000000
# 5 0.000000 0.000000 0.000000 0.000000 0.033195 0.000000
# 6 0.000000 0.000000 0.000000 0.000000 0.000000 0.040439
#
#
# Mechanical properties :
#
#
# Convention : Reuss Voigt Hill
#
# Bulk Modulus (GPa) = 15.31583 15.87185 15.59384
# Shear Modulus (GPa) = 25.54197 27.42070 26.48133
#
# Velocity S-wave (km/s) = 3.34905 3.47003 3.41008
# Velocity P-wave (km/s) = 4.65622 4.79839 4.72784
#
# Compressibility (1/GPa) = 0.06529190
#
# Stress axis : x y z
#
# Youngs Moduli (GPa) = 41.11965 37.55119 74.83194
#
# Poissons Ratio (x) = 0.12698 -0.15656
# Poissons Ratio (y) = 0.13905 -0.13312
# Poissons Ratio (z) = -0.08603 -0.06680
#
# Static dielectric constant tensor:
#      x y z
#    x 3.910980 0.000000 0.000000 
#    y 0.000000 3.833360 0.000000 
#    z 0.000000 0.000000 4.160310 
# 
# 
# High freq. dielectric constant tensor:
#      x y z
#    x 1.887700 0.000000 0.000000 
#    y 0.000000 1.887990 0.000000 
#    z 0.000000 0.000000 1.916110 
# 
# From -- ./inp_files/397.got.cif
#   From: 2010.03.12/outbox.cif.g09.slc.cpg/sg19_1_cif.got.tgz:397.got - 2010.04.10 18:59:41.
