data_PCOD8157239
_publ_section_title
;
Structure prediction by ZEFSAII (Michael W. Deem and Ramdas Pophale) SiO2 
 PCOD8157239
Probable space group: P 21 21 21
;
_chemical_formula_sum "Si O2"
_cell_formula_units_Z 20
_cell_length_a 11.814174
_cell_length_b 7.616373
_cell_length_c 9.581144
_cell_angle_alpha 90.000000
_cell_angle_beta 90.000000
_cell_angle_gamma 90.000000
_cell_volume 862.122412
_symmetry_space_group_name_H-M "P 21 21 21"
_symmetry_group_IT_number 19
_symmetry_cell_setting 'orthorhombic'
loop_
_space_group_symop_operation_xyz
x,y,z
1/2-x,-y,1/2+z
1/2+x,1/2-y,-z
-x,1/2+y,1/2-z
loop_
_atom_site_type_symbol
_atom_site_label
_atom_site_fract_x
_atom_site_fract_y
_atom_site_fract_z
Si Si1 0.898766 0.403212 0.376325
Si Si2 0.465301 0.431207 0.119607
Si Si3 0.394812 0.807070 0.833957
Si Si4 0.491873 0.532088 0.430725
Si Si5 0.757222 0.102769 0.482567
O O1 0.854860 0.573428 0.294512
O O2 0.794996 0.270053 0.390525
O O3 0.949424 0.450048 0.528101
O O4 0.997786 0.309766 0.285371
O O5 0.504059 0.445107 0.278852
O O6 0.470037 0.232282 0.068324
O O7 0.336802 0.497073 0.103003
O O8 0.292736 0.675829 0.871298
O O9 0.425710 0.922416 0.969545
O O10 0.362657 0.523022 0.484885
#
# Coordination Sequence:
#
# PCOD8157239 Si02
#       5
#     4   4   4   4   4
#     4  10  22  42  64  92 126 162 204 254 306 366
#     4  11  24  43  64  91 126 164 206 255 306 365
#     4  10  22  42  64  92 126 162 204 254 306 366
#     4  11  24  43  64  91 126 164 206 255 306 365
#     4  10  24  40  64  94 124 162 208 252 308 366
#
# _framework density 23.198561000000002
#
# number of rings (size 3 to 8) (size 9 to 14) (size 15 to 20)
#    0.000    1.600    0.000    4.800    0.000   16.000 
#    0.000    0.000    0.000    0.000    0.000    0.000 
#    0.000    0.000    0.000    0.000    0.000    0.000 
#
# Total GULP energy -248113.967162 kJ/mol
# GULP energy per Si atom -12405.698358 kJ/mol
# Density = 2.314576 g / cm^3
# Si number density = 23.198561 Si / 1000 Ang^3
#
#
#
# Elastic Constant Matrix: (Units=GPa)
#
#
# Indices 1 2 3 4 5 6 
#
# 1 74.3424 -0.0470 -1.6774 0.0000 0.0000 0.0000
# 2 -0.0470 57.7766 -19.0085 0.0000 0.0000 0.0000
# 3 -1.6774 -19.0085 66.8112 0.0000 0.0000 0.0000
# 4 0.0000 0.0000 0.0000 40.6092 0.0000 0.0000
# 5 0.0000 0.0000 0.0000 0.0000 13.2498 0.0000
# 6 0.0000 0.0000 0.0000 0.0000 0.0000 41.6298
#
#
#
# Elastic Compliance Matrix: (Units=1/GPa)
#
#
# Indices 1 2 3 4 5 6 
#
# 1 0.013460 0.000135 0.000376 0.000000 0.000000 0.000000
# 2 0.000135 0.019097 0.005437 0.000000 0.000000 0.000000
# 3 0.000376 0.005437 0.016524 0.000000 0.000000 0.000000
# 4 0.000000 0.000000 0.000000 0.024625 0.000000 0.000000
# 5 0.000000 0.000000 0.000000 0.000000 0.075473 0.000000
# 6 0.000000 0.000000 0.000000 0.000000 0.000000 0.024021
#
#
# Mechanical properties :
#
#
# Convention : Reuss Voigt Hill
#
# Bulk Modulus (GPa) = 16.39997 17.49604 16.94800
# Shear Modulus (GPa) = 27.52856 33.74198 30.63527
#
# Velocity S-wave (km/s) = 3.44852 3.81791 3.63790
# Velocity P-wave (km/s) = 4.78968 5.19553 4.99673
#
# Compressibility (1/GPa) = 0.06097573
#
# Stress axis : x y z
#
# Youngs Moduli (GPa) = 74.29508 52.36473 60.51887
#
# Poissons Ratio (x) = -0.00706 -0.02277
# Poissons Ratio (y) = -0.01001 -0.32902
# Poissons Ratio (z) = -0.02795 -0.28469
#
# Static dielectric constant tensor:
#      x y z
#    x 4.079790 0.000000 0.000000 
#    y 0.000000 4.392000 0.000000 
#    z 0.000000 0.000000 4.028330 
# 
# 
# High freq. dielectric constant tensor:
#      x y z
#    x 1.911620 0.000000 0.000000 
#    y 0.000000 1.932600 0.000000 
#    z 0.000000 0.000000 1.912740 
# 
# From -- ./inp_files/2607.got.cif
#   From: 2010.03.12/outbox.cif.g09.slc.cpg/sg19_2_cif.got.tgz:2607.got - 2010.04.10 18:59:41.
