data_PCOD8157286
_publ_section_title
;
Structure prediction by ZEFSAII (Michael W. Deem and Ramdas Pophale) SiO2 
 PCOD8157286
Probable space group: P 21 21 21
;
_chemical_formula_sum "Si O2"
_cell_formula_units_Z 20
_cell_length_a 7.588209
_cell_length_b 6.931809
_cell_length_c 16.703437
_cell_angle_alpha 90.000000
_cell_angle_beta 90.000000
_cell_angle_gamma 90.000000
_cell_volume 878.601044
_symmetry_space_group_name_H-M "P 21 21 21"
_symmetry_group_IT_number 19
_symmetry_cell_setting 'orthorhombic'
loop_
_space_group_symop_operation_xyz
x,y,z
1/2-x,-y,1/2+z
1/2+x,1/2-y,-z
-x,1/2+y,1/2-z
loop_
_atom_site_type_symbol
_atom_site_label
_atom_site_fract_x
_atom_site_fract_y
_atom_site_fract_z
Si Si1 0.125687 0.139048 0.186480
Si Si2 0.895824 0.800503 0.475978
Si Si3 0.060581 0.056962 0.599745
Si Si4 0.191105 0.384185 0.332649
Si Si5 0.930972 0.930481 0.000434
O O1 0.087897 0.308108 0.120884
O O2 0.206271 0.212316 0.269405
O O3 0.268078 0.986668 0.152080
O O4 0.937691 0.043571 0.205865
O O5 0.895226 0.568137 0.498928
O O6 0.719956 0.908910 0.500028
O O7 0.052571 0.911261 0.523726
O O8 0.067162 0.280832 0.571793
O O9 0.886199 0.030065 0.653956
O O10 0.099787 0.314582 0.416334
#
# Coordination Sequence:
#
# PCOD8157286 Si02
#       5
#     4   4   4   4   4
#     4  11  25  47  67 105 147 189 230 302 357 418
#     4  10  22  43  70 100 139 178 237 286 345 424
#     4  11  25  47  74 103 138 198 235 289 355 426
#     4  10  27  44  66 107 141 184 234 290 362 413
#     4  10  23  43  73 103 137 185 234 293 345 427
#
# _framework density 22.763461
#
# number of rings (size 3 to 8) (size 9 to 14) (size 15 to 20)
#    0.000    1.600    2.000    0.000   14.000    3.200 
#    7.200    0.000    0.000    0.000    0.000    0.000 
#    0.000    0.000    0.000    0.000    0.000    0.000 
#
# Total GULP energy -247799.029292 kJ/mol
# GULP energy per Si atom -12389.951465 kJ/mol
# Density = 2.271165 g / cm^3
# Si number density = 22.763461 Si / 1000 Ang^3
#
#
#
# Elastic Constant Matrix: (Units=GPa)
#
#
# Indices 1 2 3 4 5 6 
#
# 1 111.3923 50.7326 53.9994 0.0000 0.0000 0.0000
# 2 50.7326 120.0392 72.8242 0.0000 0.0000 0.0000
# 3 53.9994 72.8242 110.0649 0.0000 0.0000 0.0000
# 4 0.0000 0.0000 0.0000 49.2950 0.0000 0.0000
# 5 0.0000 0.0000 0.0000 0.0000 26.0779 0.0000
# 6 0.0000 0.0000 0.0000 0.0000 0.0000 31.7741
#
#
#
# Elastic Compliance Matrix: (Units=1/GPa)
#
#
# Indices 1 2 3 4 5 6 
#
# 1 0.012230 -0.002554 -0.004311 0.000000 0.000000 0.000000
# 2 -0.002554 0.014450 -0.008308 0.000000 0.000000 0.000000
# 3 -0.004311 -0.008308 0.016697 0.000000 0.000000 0.000000
# 4 0.000000 0.000000 0.000000 0.020286 0.000000 0.000000
# 5 0.000000 0.000000 0.000000 0.000000 0.038347 0.000000
# 6 0.000000 0.000000 0.000000 0.000000 0.000000 0.031472
#
#
# Mechanical properties :
#
#
# Convention : Reuss Voigt Hill
#
# Bulk Modulus (GPa) = 76.72888 77.40100 77.06494
# Shear Modulus (GPa) = 29.73164 32.35875 31.04519
#
# Velocity S-wave (km/s) = 3.61794 3.77440 3.69700
# Velocity P-wave (km/s) = 7.15771 7.28498 7.22162
#
# Compressibility (1/GPa) = 0.01303290
#
# Stress axis : x y z
#
# Youngs Moduli (GPa) = 81.76636 69.20360 59.88980
#
# Poissons Ratio (x) = 0.17673 0.25816
# Poissons Ratio (y) = 0.20881 0.49756
# Poissons Ratio (z) = 0.35246 0.57494
#
# Static dielectric constant tensor:
#      x y z
#    x 4.279520 0.000000 0.000000 
#    y 0.000000 3.914950 0.000000 
#    z 0.000000 0.000000 4.179100 
# 
# 
# High freq. dielectric constant tensor:
#      x y z
#    x 1.916660 0.000000 0.000000 
#    y 0.000000 1.880920 0.000000 
#    z 0.000000 0.000000 1.888240 
# 
# From -- ./inp_files/4078.got.cif
#   From: 2010.03.12/outbox.cif.g09.slc.cpg/sg19_3_cif.got.tgz:4078.got - 2010.04.10 18:59:41.
