data_PCOD8157934
_publ_section_title
;
Structure prediction by ZEFSAII (Michael W. Deem and Ramdas Pophale) SiO2 
 PCOD8157934
Probable space group: P 21 21 21
;
_chemical_formula_sum "Si O2"
_cell_formula_units_Z 20
_cell_length_a 9.154642
_cell_length_b 8.613451
_cell_length_c 8.780006
_cell_angle_alpha 90.000000
_cell_angle_beta 90.000000
_cell_angle_gamma 90.000000
_cell_volume 692.330342
_symmetry_space_group_name_H-M "P 21 21 21"
_symmetry_group_IT_number 19
_symmetry_cell_setting 'orthorhombic'
loop_
_space_group_symop_operation_xyz
x,y,z
1/2-x,-y,1/2+z
1/2+x,1/2-y,-z
-x,1/2+y,1/2-z
loop_
_atom_site_type_symbol
_atom_site_label
_atom_site_fract_x
_atom_site_fract_y
_atom_site_fract_z
Si Si1 0.857897 0.970298 0.128936
Si Si2 0.635356 0.336923 0.813432
Si Si3 0.462150 0.563962 0.427326
Si Si4 0.083506 0.263573 0.650870
Si Si5 0.207090 0.878476 0.367003
O O1 0.835073 0.838689 0.256369
O O2 0.712695 0.062720 0.078290
O O3 0.916175 0.893789 0.975723
O O4 0.967266 0.101929 0.191209
O O5 0.725387 0.446760 0.697225
O O6 0.687824 0.353287 0.988510
O O7 0.519227 0.667268 0.285011
O O8 0.518576 0.389833 0.421540
O O9 0.535795 0.644975 0.577873
O O10 0.244871 0.230505 0.724384
#
# Coordination Sequence:
#
# PCOD8157934 Si02
#       5
#     4   4   4   4   4
#     4  12  31  51  86 121 169 223 292 353 438 517
#     4  12  28  52  82 123 167 222 282 354 434 521
#     4  12  29  51  84 121 163 224 285 357 429 517
#     4  12  29  53  82 119 169 221 291 358 427 517
#     4  12  27  49  82 114 168 220 280 346 430 500
#
# _framework density 28.887944999999998
#
# number of rings (size 3 to 8) (size 9 to 14) (size 15 to 20)
#    0.000    0.000    4.000    2.400   14.000    1.600 
#    0.000    0.000    0.000    0.000    0.000    0.000 
#    0.000    0.000    0.000    0.000    0.000    0.000 
#
# Total GULP energy -247891.437572 kJ/mol
# GULP energy per Si atom -12394.571879 kJ/mol
# Density = 2.882220 g / cm^3
# Si number density = 28.887945 Si / 1000 Ang^3
#
#
#
# Elastic Constant Matrix: (Units=GPa)
#
#
# Indices 1 2 3 4 5 6 
#
# 1 92.4057 0.8163 -6.8023 0.0000 0.0000 0.0000
# 2 0.8163 138.5952 22.9355 0.0000 0.0000 0.0000
# 3 -6.8023 22.9355 108.7193 0.0000 0.0000 0.0000
# 4 0.0000 0.0000 0.0000 70.1976 0.0000 0.0000
# 5 0.0000 0.0000 0.0000 0.0000 48.3626 0.0000
# 6 0.0000 0.0000 0.0000 0.0000 0.0000 42.9201
#
#
#
# Elastic Compliance Matrix: (Units=1/GPa)
#
#
# Indices 1 2 3 4 5 6 
#
# 1 0.010876 -0.000183 0.000719 0.000000 0.000000 0.000000
# 2 -0.000183 0.007479 -0.001589 0.000000 0.000000 0.000000
# 3 0.000719 -0.001589 0.009578 0.000000 0.000000 0.000000
# 4 0.000000 0.000000 0.000000 0.014245 0.000000 0.000000
# 5 0.000000 0.000000 0.000000 0.000000 0.020677 0.000000
# 6 0.000000 0.000000 0.000000 0.000000 0.000000 0.023299
#
#
# Mechanical properties :
#
#
# Convention : Reuss Voigt Hill
#
# Bulk Modulus (GPa) = 38.71837 41.51324 40.11580
# Shear Modulus (GPa) = 51.61483 53.81412 52.71448
#
# Velocity S-wave (km/s) = 4.23155 4.32077 4.27639
# Velocity P-wave (km/s) = 6.10793 6.26846 6.18872
#
# Compressibility (1/GPa) = 0.02582754
#
# Stress axis : x y z
#
# Youngs Moduli (GPa) = 91.94222 133.70161 104.40298
#
# Poissons Ratio (x) = 0.02448 -0.07508
# Poissons Ratio (y) = 0.01683 0.16593
# Poissons Ratio (z) = -0.06612 0.21249
#
# Static dielectric constant tensor:
#      x y z
#    x 5.680870 0.000000 0.000000 
#    y 0.000000 6.000600 0.000000 
#    z 0.000000 0.000000 5.728210 
# 
# 
# High freq. dielectric constant tensor:
#      x y z
#    x 2.173390 0.000000 0.000000 
#    y 0.000000 2.209410 0.000000 
#    z 0.000000 0.000000 2.191250 
# 
# From -- ./inp_files/2564.got.cif
#   From: 2010.03.12/outbox.cif.g09.slc.cpg/sg19_2_cif.got.tgz:2564.got - 2010.04.10 18:59:41.
