data_PCOD8157278
_publ_section_title
;
Structure prediction by ZEFSAII (Michael W. Deem and Ramdas Pophale) SiO2 
 PCOD8157278
Probable space group: P 21 21 21
;
_chemical_formula_sum "Si O2"
_cell_formula_units_Z 20
_cell_length_a 7.158140
_cell_length_b 8.906602
_cell_length_c 11.585991
_cell_angle_alpha 90.000000
_cell_angle_beta 90.000000
_cell_angle_gamma 90.000000
_cell_volume 738.661427
_symmetry_space_group_name_H-M "P 21 21 21"
_symmetry_group_IT_number 19
_symmetry_cell_setting 'orthorhombic'
loop_
_space_group_symop_operation_xyz
x,y,z
1/2-x,-y,1/2+z
1/2+x,1/2-y,-z
-x,1/2+y,1/2-z
loop_
_atom_site_type_symbol
_atom_site_label
_atom_site_fract_x
_atom_site_fract_y
_atom_site_fract_z
Si Si1 0.566438 0.457103 0.320176
Si Si2 0.669692 0.787702 0.914803
Si Si3 0.754469 0.624159 0.134154
Si Si4 0.300802 0.395704 0.123072
Si Si5 0.926588 0.359299 0.035853
O O1 0.735945 0.342776 0.340128
O O2 0.652985 0.607205 0.257559
O O3 0.400828 0.376901 0.247356
O O4 0.486477 0.522825 0.440411
O O5 0.470015 0.825294 0.858127
O O6 0.810688 0.928854 0.909823
O O7 0.640332 0.734618 0.048360
O O8 0.746756 0.448137 0.087407
O O9 0.386545 0.302084 0.016872
O O10 0.085342 0.341098 0.134402
#
# Coordination Sequence:
#
# PCOD8157278 Si02
#       5
#     4   4   4   4   4
#     4  11  23  44  69  96 133 178 224 273 333 398
#     4  10  23  42  68  98 132 180 225 272 335 398
#     4  10  22  43  67  96 135 175 222 278 331 396
#     4  11  22  42  67  95 133 170 219 273 328 395
#     4  10  24  41  65  97 129 171 220 276 333 391
#
# _framework density 27.076006
#
# number of rings (size 3 to 8) (size 9 to 14) (size 15 to 20)
#    0.000    1.600    0.000    3.600    0.000    8.000 
#    0.000   18.000    0.000    0.000    0.000    0.000 
#    0.000    0.000    0.000    0.000    0.000    0.000 
#
# Total GULP energy -247976.157905 kJ/mol
# GULP energy per Si atom -12398.807895 kJ/mol
# Density = 2.701438 g / cm^3
# Si number density = 27.076006 Si / 1000 Ang^3
#
#
#
# Elastic Constant Matrix: (Units=GPa)
#
#
# Indices 1 2 3 4 5 6 
#
# 1 29.7620 -0.4170 -11.0722 0.0000 0.0000 0.0000
# 2 -0.4170 85.3030 -13.0491 0.0000 0.0000 0.0000
# 3 -11.0722 -13.0491 67.1145 0.0000 0.0000 0.0000
# 4 0.0000 0.0000 0.0000 25.4554 0.0000 0.0000
# 5 0.0000 0.0000 0.0000 0.0000 28.7376 0.0000
# 6 0.0000 0.0000 0.0000 0.0000 0.0000 45.1639
#
#
#
# Elastic Compliance Matrix: (Units=1/GPa)
#
#
# Indices 1 2 3 4 5 6 
#
# 1 0.035900 0.001115 0.006139 0.000000 0.000000 0.000000
# 2 0.001115 0.012117 0.002540 0.000000 0.000000 0.000000
# 3 0.006139 0.002540 0.016407 0.000000 0.000000 0.000000
# 4 0.000000 0.000000 0.000000 0.039284 0.000000 0.000000
# 5 0.000000 0.000000 0.000000 0.000000 0.034798 0.000000
# 6 0.000000 0.000000 0.000000 0.000000 0.000000 0.022142
#
#
# Mechanical properties :
#
#
# Convention : Reuss Voigt Hill
#
# Bulk Modulus (GPa) = 11.90331 14.78921 13.34626
# Shear Modulus (GPa) = 29.57482 33.65256 31.61369
#
# Velocity S-wave (km/s) = 3.30857 3.52929 3.42071
# Velocity P-wave (km/s) = 4.35904 4.69913 4.53228
#
# Compressibility (1/GPa) = 0.08401026
#
# Stress axis : x y z
#
# Youngs Moduli (GPa) = 27.85552 82.52949 60.95128
#
# Poissons Ratio (x) = -0.09199 -0.37420
# Poissons Ratio (y) = -0.03105 -0.15480
# Poissons Ratio (z) = -0.17101 -0.20961
#
# Static dielectric constant tensor:
#      x y z
#    x 4.589570 0.000000 0.000000 
#    y 0.000000 5.225870 0.000000 
#    z 0.000000 0.000000 4.770740 
# 
# 
# High freq. dielectric constant tensor:
#      x y z
#    x 2.084280 0.000000 0.000000 
#    y 0.000000 2.122640 0.000000 
#    z 0.000000 0.000000 2.080670 
# 
# From -- ./inp_files/2630.got.cif
#   From: 2010.03.12/outbox.cif.g09.slc.cpg/sg19_2_cif.got.tgz:2630.got - 2010.04.10 18:59:41.
