data_PCOD8157578
_publ_section_title
;
Structure prediction by ZEFSAII (Michael W. Deem and Ramdas Pophale) SiO2 
 PCOD8157578
Probable space group: P 21 21 21
;
_chemical_formula_sum "Si O2"
_cell_formula_units_Z 24
_cell_length_a 13.897444
_cell_length_b 8.432228
_cell_length_c 9.444713
_cell_angle_alpha 90.000000
_cell_angle_beta 90.000000
_cell_angle_gamma 90.000000
_cell_volume 1106.792071
_symmetry_space_group_name_H-M "P 21 21 21"
_symmetry_group_IT_number 19
_symmetry_cell_setting 'orthorhombic'
loop_
_space_group_symop_operation_xyz
x,y,z
1/2-x,-y,1/2+z
1/2+x,1/2-y,-z
-x,1/2+y,1/2-z
loop_
_atom_site_type_symbol
_atom_site_label
_atom_site_fract_x
_atom_site_fract_y
_atom_site_fract_z
Si Si1 0.245100 0.571540 0.316630
Si Si2 0.440045 0.447278 0.364839
Si Si3 0.957487 0.596922 0.374267
Si Si4 0.773004 0.804448 0.380636
Si Si5 0.062572 0.759480 0.617033
Si Si6 0.090200 0.730407 0.147318
O O1 0.358242 0.547921 0.278395
O O2 0.244474 0.585570 0.485664
O O3 0.194026 0.412242 0.253571
O O4 0.189214 0.717616 0.240364
O O5 0.484969 0.318986 0.256979
O O6 0.520941 0.568014 0.416983
O O7 0.393958 0.358162 0.498985
O O8 0.859939 0.687950 0.416915
O O9 0.933697 0.412659 0.378603
O O10 0.041045 0.642247 0.485737
O O11 0.998694 0.647036 0.222132
O O12 0.675137 0.709117 0.349703
#
# Coordination Sequence:
#
# PCOD8157578 Si02
#       6
#     4   4   4   4   4   4
#     4  11  21  43  68  94 134 172 216 275 336 399
#     4  11  24  44  67  99 135 175 222 274 342 396
#     4  12  25  45  68  99 135 176 232 276 335 401
#     4  11  24  43  68  98 131 176 220 275 337 401
#     4  11  23  43  68  97 135 173 220 275 335 397
#     4  12  25  44  69  99 132 180 226 279 333 406
#
# _framework density 21.684289
#
# number of rings (size 3 to 8) (size 9 to 14) (size 15 to 20)
#    0.000    0.667    5.000    3.000    0.000    1.333 
#    6.000    1.667    0.000    0.000    0.000    0.000 
#    0.000    0.000    0.000    0.000    0.000    0.000 
#
# Total GULP energy -297464.100330 kJ/mol
# GULP energy per Si atom -12394.337514 kJ/mol
# Density = 2.163493 g / cm^3
# Si number density = 21.684289 Si / 1000 Ang^3
#
#
#
# Elastic Constant Matrix: (Units=GPa)
#
#
# Indices 1 2 3 4 5 6 
#
# 1 90.1700 46.9736 16.4314 0.0000 0.0000 0.0000
# 2 46.9736 97.5097 48.6904 0.0000 0.0000 0.0000
# 3 16.4314 48.6904 102.4408 0.0000 0.0000 0.0000
# 4 0.0000 0.0000 0.0000 31.7420 0.0000 0.0000
# 5 0.0000 0.0000 0.0000 0.0000 29.4788 0.0000
# 6 0.0000 0.0000 0.0000 0.0000 0.0000 26.1868
#
#
#
# Elastic Compliance Matrix: (Units=1/GPa)
#
#
# Indices 1 2 3 4 5 6 
#
# 1 0.014946 -0.007871 0.001344 0.000000 0.000000 0.000000
# 2 -0.007871 0.017592 -0.007099 0.000000 0.000000 0.000000
# 3 0.001344 -0.007099 0.012920 0.000000 0.000000 0.000000
# 4 0.000000 0.000000 0.000000 0.031504 0.000000 0.000000
# 5 0.000000 0.000000 0.000000 0.000000 0.033923 0.000000
# 6 0.000000 0.000000 0.000000 0.000000 0.000000 0.038187
#
#
# Mechanical properties :
#
#
# Convention : Reuss Voigt Hill
#
# Bulk Modulus (GPa) = 54.92773 57.14569 56.03671
# Shear Modulus (GPa) = 27.41348 29.34986 28.38167
#
# Velocity S-wave (km/s) = 3.55943 3.68300 3.62174
# Velocity P-wave (km/s) = 6.50218 6.67058 6.58692
#
# Compressibility (1/GPa) = 0.01820574
#
# Stress axis : x y z
#
# Youngs Moduli (GPa) = 66.90970 56.84475 77.39719
#
# Poissons Ratio (x) = 0.44741 -0.10400
# Poissons Ratio (y) = 0.52663 0.54944
# Poissons Ratio (z) = -0.08991 0.40354
#
# Static dielectric constant tensor:
#      x y z
#    x 4.004720 0.000000 0.000000 
#    y 0.000000 3.738610 0.000000 
#    z 0.000000 0.000000 3.986200 
# 
# 
# High freq. dielectric constant tensor:
#      x y z
#    x 1.856990 0.000000 0.000000 
#    y 0.000000 1.836510 0.000000 
#    z 0.000000 0.000000 1.859430 
# 
# From -- ./inp_files/2780.got.cif
#   From: 2010.03.12/outbox.cif.g09.slc.cpg/sg19_2_cif.got.tgz:2780.got - 2010.04.10 18:59:41.
