data_PCOD8157625
_publ_section_title
;
Structure prediction by ZEFSAII (Michael W. Deem and Ramdas Pophale) SiO2 
 PCOD8157625
Probable space group: P 21 21 21
;
_chemical_formula_sum "Si O2"
_cell_formula_units_Z 20
_cell_length_a 18.056668
_cell_length_b 6.628972
_cell_length_c 7.351076
_cell_angle_alpha 90.000000
_cell_angle_beta 90.000000
_cell_angle_gamma 90.000000
_cell_volume 879.902822
_symmetry_space_group_name_H-M "P 21 21 21"
_symmetry_group_IT_number 19
_symmetry_cell_setting 'orthorhombic'
loop_
_space_group_symop_operation_xyz
x,y,z
1/2-x,-y,1/2+z
1/2+x,1/2-y,-z
-x,1/2+y,1/2-z
loop_
_atom_site_type_symbol
_atom_site_label
_atom_site_fract_x
_atom_site_fract_y
_atom_site_fract_z
Si Si1 0.917415 0.096854 0.923352
Si Si2 0.328999 0.651672 0.794419
Si Si3 0.165741 0.586662 0.929924
Si Si4 0.069458 0.004574 0.419042
Si Si5 0.960713 0.345152 0.455710
O O1 0.878083 0.003059 0.745995
O O2 0.907488 0.340275 0.927891
O O3 0.878528 0.011576 0.103166
O O4 0.004677 0.033095 0.930664
O O5 0.246906 0.653286 0.872628
O O6 0.330910 0.590012 0.581352
O O7 0.361268 0.875546 0.829851
O O8 0.124003 0.790878 0.996743
O O9 0.029307 0.881125 0.258609
O O10 0.010885 0.153040 0.512121
#
# Coordination Sequence:
#
# PCOD8157625 Si02
#       5
#     4   4   4   4   4
#     4  11  25  45  68 105 143 182 239 293 362 425
#     4  11  25  47  69 100 143 191 231 299 353 431
#     4  12  25  46  71 102 146 190 236 295 365 425
#     4  11  22  45  72 101 141 183 234 293 366 420
#     4  11  23  41  72 102 137 182 232 300 354 429
#
# _framework density 22.729783999999999
#
# number of rings (size 3 to 8) (size 9 to 14) (size 15 to 20)
#    0.000    0.800    6.000    1.200    2.800    1.600 
#    3.600    0.000    0.000    0.000    0.000    0.000 
#    0.000    0.000    0.000    0.000    0.000    0.000 
#
# Total GULP energy -247966.722846 kJ/mol
# GULP energy per Si atom -12398.336142 kJ/mol
# Density = 2.267805 g / cm^3
# Si number density = 22.729784 Si / 1000 Ang^3
#
#
#
# Elastic Constant Matrix: (Units=GPa)
#
#
# Indices 1 2 3 4 5 6 
#
# 1 117.6444 52.4786 21.3912 0.0000 0.0000 0.0000
# 2 52.4786 130.4437 39.5876 0.0000 0.0000 0.0000
# 3 21.3912 39.5876 93.7744 0.0000 0.0000 0.0000
# 4 0.0000 0.0000 0.0000 19.3205 0.0000 0.0000
# 5 0.0000 0.0000 0.0000 0.0000 37.3100 0.0000
# 6 0.0000 0.0000 0.0000 0.0000 0.0000 31.7702
#
#
#
# Elastic Compliance Matrix: (Units=1/GPa)
#
#
# Indices 1 2 3 4 5 6 
#
# 1 0.010399 -0.003973 -0.000695 0.000000 0.000000 0.000000
# 2 -0.003973 0.010310 -0.003446 0.000000 0.000000 0.000000
# 3 -0.000695 -0.003446 0.012277 0.000000 0.000000 0.000000
# 4 0.000000 0.000000 0.000000 0.051759 0.000000 0.000000
# 5 0.000000 0.000000 0.000000 0.000000 0.026802 0.000000
# 6 0.000000 0.000000 0.000000 0.000000 0.000000 0.031476
#
#
# Mechanical properties :
#
#
# Convention : Reuss Voigt Hill
#
# Bulk Modulus (GPa) = 59.67166 63.19748 61.43457
# Shear Modulus (GPa) = 30.33294 32.90714 31.62004
#
# Velocity S-wave (km/s) = 3.65705 3.80906 3.73383
# Velocity P-wave (km/s) = 6.64392 6.87092 6.75837
#
# Compressibility (1/GPa) = 0.01675837
#
# Stress axis : x y z
#
# Youngs Moduli (GPa) = 96.16659 96.99100 81.45080
#
# Poissons Ratio (x) = 0.38530 0.05661
# Poissons Ratio (y) = 0.38202 0.28071
# Poissons Ratio (z) = 0.06684 0.33427
#
# Static dielectric constant tensor:
#      x y z
#    x 4.229460 0.000000 0.000000 
#    y 0.000000 4.017510 0.000000 
#    z 0.000000 0.000000 4.083140 
# 
# 
# High freq. dielectric constant tensor:
#      x y z
#    x 1.896490 0.000000 0.000000 
#    y 0.000000 1.883570 0.000000 
#    z 0.000000 0.000000 1.904400 
# 
# From -- ./inp_files/1691.got.cif
#   From: 2010.03.12/outbox.cif.g09.slc.cpg/sg19_1_cif.got.tgz:1691.got - 2010.04.10 18:59:41.
