data_PCOD8157564
_publ_section_title
;
Structure prediction by ZEFSAII (Michael W. Deem and Ramdas Pophale) SiO2 
 PCOD8157564
Probable space group: P 21 21 21
;
_chemical_formula_sum "Si O2"
_cell_formula_units_Z 32
_cell_length_a 6.367441
_cell_length_b 17.957314
_cell_length_c 13.823682
_cell_angle_alpha 90.000000
_cell_angle_beta 90.000000
_cell_angle_gamma 90.000000
_cell_volume 1580.629347
_symmetry_space_group_name_H-M "P 21 21 21"
_symmetry_group_IT_number 19
_symmetry_cell_setting 'orthorhombic'
loop_
_space_group_symop_operation_xyz
x,y,z
1/2-x,-y,1/2+z
1/2+x,1/2-y,-z
-x,1/2+y,1/2-z
loop_
_atom_site_type_symbol
_atom_site_label
_atom_site_fract_x
_atom_site_fract_y
_atom_site_fract_z
Si Si1 0.592850 0.587517 0.410415
Si Si2 0.822811 0.840100 0.438577
Si Si3 0.593070 0.412474 0.410411
Si Si4 0.513059 0.682401 0.918260
Si Si5 0.832590 0.183558 0.730689
Si Si6 0.332353 0.683533 0.269319
Si Si7 0.176952 0.659920 0.061427
Si Si8 0.013292 0.182421 0.081728
O O1 0.514122 0.609884 0.519180
O O2 0.612657 0.499999 0.402861
O O3 0.432580 0.616319 0.329220
O O4 0.815786 0.623165 0.383015
O O5 0.767125 0.852611 0.326875
O O6 0.614578 0.859959 0.498550
O O7 0.869791 0.753897 0.461825
O O8 0.816103 0.376893 0.383018
O O9 0.432873 0.383643 0.329207
O O10 0.514407 0.390067 0.519173
O O11 0.365750 0.712873 0.831162
O O12 0.630098 0.753862 0.961784
O O13 0.385156 0.640044 0.001445
O O14 0.000094 0.250019 0.750006
O O15 0.232630 0.647377 0.173125
O O16 0.134031 0.712869 0.331165
#
# Coordination Sequence:
#
# PCOD8157564 Si02
#       8
#     4   4   4   4   4   4   4   4
#     4  11  26  42  61  96 137 169 212 278 331 376
#     4  11  21  39  67  94 122 171 219 260 315 396
#     4  11  26  42  61  96 137 169 212 278 331 376
#     4  11  21  39  67  95 128 162 219 266 319 384
#     4  11  23  39  70  99 125 166 224 270 320 391
#     4  11  23  39  70  99 125 166 224 270 320 391
#     4  11  21  39  67  94 122 171 219 260 315 396
#     4  11  21  39  67  95 128 162 219 266 319 384
#
# _framework density 20.245103
#
# number of rings (size 3 to 8) (size 9 to 14) (size 15 to 20)
#    0.000    1.000    5.000    2.250    0.000    5.000 
#    0.000    2.500    0.000    0.000    0.000    0.000 
#    0.000    0.000    0.000    0.000    0.000    0.000 
#
# Total GULP energy -396724.010744 kJ/mol
# GULP energy per Si atom -12397.625336 kJ/mol
# Density = 2.019902 g / cm^3
# Si number density = 20.245103 Si / 1000 Ang^3
#
#
#
# Elastic Constant Matrix: (Units=GPa)
#
#
# Indices 1 2 3 4 5 6 
#
# 1 109.9912 38.9259 42.2665 0.0000 0.0000 0.0000
# 2 38.9259 120.6780 9.0324 0.0000 0.0000 0.0000
# 3 42.2665 9.0324 115.9611 0.0000 0.0000 0.0000
# 4 0.0000 0.0000 0.0000 19.6714 0.0000 0.0000
# 5 0.0000 0.0000 0.0000 0.0000 37.9069 0.0000
# 6 0.0000 0.0000 0.0000 0.0000 0.0000 24.1619
#
#
#
# Elastic Compliance Matrix: (Units=1/GPa)
#
#
# Indices 1 2 3 4 5 6 
#
# 1 0.011904 -0.003536 -0.004064 0.000000 0.000000 0.000000
# 2 -0.003536 0.009385 0.000558 0.000000 0.000000 0.000000
# 3 -0.004064 0.000558 0.010061 0.000000 0.000000 0.000000
# 4 0.000000 0.000000 0.000000 0.050835 0.000000 0.000000
# 5 0.000000 0.000000 0.000000 0.000000 0.026380 0.000000
# 6 0.000000 0.000000 0.000000 0.000000 0.000000 0.041388
#
#
# Mechanical properties :
#
#
# Convention : Reuss Voigt Hill
#
# Bulk Modulus (GPa) = 57.91171 58.56441 58.23806
# Shear Modulus (GPa) = 29.44756 33.44175 31.44466
#
# Velocity S-wave (km/s) = 3.81800 4.06870 3.94534
# Velocity P-wave (km/s) = 6.93567 7.14583 7.04153
#
# Compressibility (1/GPa) = 0.01726767
#
# Stress axis : x y z
#
# Youngs Moduli (GPa) = 84.00197 106.55001 99.39086
#
# Poissons Ratio (x) = 0.37673 0.40389
# Poissons Ratio (y) = 0.29701 -0.05543
# Poissons Ratio (z) = 0.34135 -0.05942
#
# Static dielectric constant tensor:
#      x y z
#    x 4.021950 0.000000 0.000000 
#    y 0.000000 3.247520 0.000000 
#    z 0.000000 0.000000 3.813110 
# 
# 
# High freq. dielectric constant tensor:
#      x y z
#    x 1.813730 0.000000 0.000000 
#    y 0.000000 1.752920 0.000000 
#    z 0.000000 0.000000 1.797260 
# 
# From -- ./inp_files/5755.got.cif
#   From: 2010.03.12/outbox.cif.g09.slc.cpg/sg19_3_cif.got.tgz:5755.got - 2010.04.10 18:59:41.
