data_PCOD8157270
_publ_section_title
;
Structure prediction by ZEFSAII (Michael W. Deem and Ramdas Pophale) SiO2 
 PCOD8157270
Probable space group: P 21 21 21
;
_chemical_formula_sum "Si O2"
_cell_formula_units_Z 32
_cell_length_a 11.847400
_cell_length_b 8.774510
_cell_length_c 14.666533
_cell_angle_alpha 90.000000
_cell_angle_beta 90.000000
_cell_angle_gamma 90.000000
_cell_volume 1524.661341
_symmetry_space_group_name_H-M "P 21 21 21"
_symmetry_group_IT_number 19
_symmetry_cell_setting 'orthorhombic'
loop_
_space_group_symop_operation_xyz
x,y,z
1/2-x,-y,1/2+z
1/2+x,1/2-y,-z
-x,1/2+y,1/2-z
loop_
_atom_site_type_symbol
_atom_site_label
_atom_site_fract_x
_atom_site_fract_y
_atom_site_fract_z
Si Si1 0.874629 0.484749 0.786851
Si Si2 0.997838 0.192225 0.855019
Si Si3 0.836027 0.997987 0.962101
Si Si4 0.464688 0.909289 0.897581
Si Si5 0.210227 0.145332 0.536187
Si Si6 0.453120 0.099211 0.570397
Si Si7 0.613363 0.181130 0.962606
Si Si8 0.871982 0.597738 0.290761
O O1 0.919204 0.599331 0.710216
O O2 0.860972 0.572167 0.881955
O O3 0.753618 0.425255 0.752547
O O4 0.958966 0.343184 0.801500
O O5 0.889895 0.082064 0.874016
O O6 0.060089 0.238327 0.949185
O O7 0.729709 0.099884 0.994452
O O8 0.791185 0.827384 0.944437
O O9 0.938626 0.995757 0.035312
O O10 0.533363 0.777418 0.947511
O O11 0.450677 0.853753 0.793041
O O12 0.526958 0.066048 0.914768
O O13 0.341783 0.910128 0.941807
O O14 0.333060 0.069569 0.521731
O O15 0.431274 0.059568 0.676429
O O16 0.633472 0.298280 0.880732
#
# Coordination Sequence:
#
# PCOD8157270 Si02
#       8
#     4   4   4   4   4   4   4   4
#     4  11  25  44  66 102 134 180 232 289 342 412
#     4  12  25  46  71  99 140 186 231 290 351 413
#     4  11  23  43  70  98 136 181 230 282 340 418
#     4  11  23  42  70  98 133 182 225 284 348 413
#     4  10  22  44  70  97 133 180 231 287 344 409
#     4  10  22  43  65  97 136 175 227 286 339 408
#     4  12  24  46  71 104 139 183 232 286 349 420
#     4  11  24  42  67 101 137 173 232 284 345 417
#
# _framework density 20.988267
#
# number of rings (size 3 to 8) (size 9 to 14) (size 15 to 20)
#    0.000    1.000    5.000    1.500    1.750    1.000 
#    9.000    0.000    0.000    0.000    0.000    0.000 
#    0.000    0.000    0.000    0.000    0.000    0.000 
#
# Total GULP energy -396449.268038 kJ/mol
# GULP energy per Si atom -12389.039626 kJ/mol
# Density = 2.094050 g / cm^3
# Si number density = 20.988267 Si / 1000 Ang^3
#
#
#
# Elastic Constant Matrix: (Units=GPa)
#
#
# Indices 1 2 3 4 5 6 
#
# 1 108.6676 65.5502 61.3448 0.0000 0.0000 0.0000
# 2 65.5502 96.9417 40.3366 0.0000 0.0000 0.0000
# 3 61.3448 40.3366 98.9267 0.0000 0.0000 0.0000
# 4 0.0000 0.0000 0.0000 34.8173 0.0000 0.0000
# 5 0.0000 0.0000 0.0000 0.0000 24.7881 0.0000
# 6 0.0000 0.0000 0.0000 0.0000 0.0000 31.2067
#
#
#
# Elastic Compliance Matrix: (Units=1/GPa)
#
#
# Indices 1 2 3 4 5 6 
#
# 1 0.019915 -0.010029 -0.008260 0.000000 0.000000 0.000000
# 2 -0.010029 0.017474 -0.000906 0.000000 0.000000 0.000000
# 3 -0.008260 -0.000906 0.015600 0.000000 0.000000 0.000000
# 4 0.000000 0.000000 0.000000 0.028721 0.000000 0.000000
# 5 0.000000 0.000000 0.000000 0.000000 0.040342 0.000000
# 6 0.000000 0.000000 0.000000 0.000000 0.000000 0.032044
#
#
# Mechanical properties :
#
#
# Convention : Reuss Voigt Hill
#
# Bulk Modulus (GPa) = 68.49843 70.99993 69.74918
# Shear Modulus (GPa) = 25.33527 27.31604 26.32565
#
# Velocity S-wave (km/s) = 3.47813 3.61153 3.54546
# Velocity P-wave (km/s) = 6.98836 7.16189 7.07566
#
# Compressibility (1/GPa) = 0.01459888
#
# Stress axis : x y z
#
# Youngs Moduli (GPa) = 50.21282 57.22799 64.10300
#
# Poissons Ratio (x) = 0.57396 0.52950
# Poissons Ratio (y) = 0.50360 0.05805
# Poissons Ratio (z) = 0.41476 0.05183
#
# Static dielectric constant tensor:
#      x y z
#    x 3.910740 0.000000 0.000000 
#    y 0.000000 4.066970 0.000000 
#    z 0.000000 0.000000 3.758320 
# 
# 
# High freq. dielectric constant tensor:
#      x y z
#    x 1.836340 0.000000 0.000000 
#    y 0.000000 1.839530 0.000000 
#    z 0.000000 0.000000 1.808330 
# 
# From -- ./inp_files/5955.got.cif
#   From: 2010.03.12/outbox.cif.g09.slc.cpg/sg19_3_cif.got.tgz:5955.got - 2010.04.10 18:59:41.
