data_PCOD8157887
_publ_section_title
;
Structure prediction by ZEFSAII (Michael W. Deem and Ramdas Pophale) SiO2 
 PCOD8157887
Probable space group: P 21 21 21
;
_chemical_formula_sum "Si O2"
_cell_formula_units_Z 24
_cell_length_a 8.405094
_cell_length_b 13.359728
_cell_length_c 9.666540
_cell_angle_alpha 90.000000
_cell_angle_beta 90.000000
_cell_angle_gamma 90.000000
_cell_volume 1085.453550
_symmetry_space_group_name_H-M "P 21 21 21"
_symmetry_group_IT_number 19
_symmetry_cell_setting 'orthorhombic'
loop_
_space_group_symop_operation_xyz
x,y,z
1/2-x,-y,1/2+z
1/2+x,1/2-y,-z
-x,1/2+y,1/2-z
loop_
_atom_site_type_symbol
_atom_site_label
_atom_site_fract_x
_atom_site_fract_y
_atom_site_fract_z
Si Si1 0.601596 0.552627 0.861858
Si Si2 0.049126 0.246381 0.953099
Si Si3 0.370165 0.258159 0.784512
Si Si4 0.935950 0.027980 0.886075
Si Si5 0.927663 0.456960 0.884278
Si Si6 0.401840 0.461424 0.635789
O O1 0.647978 0.663344 0.815005
O O2 0.750073 0.479980 0.833657
O O3 0.450269 0.515330 0.776749
O O4 0.549578 0.543274 0.021553
O O5 0.227477 0.264693 0.897545
O O6 0.984388 0.143443 0.890977
O O7 0.937947 0.338459 0.907287
O O8 0.032157 0.241550 0.122029
O O9 0.369344 0.346351 0.672305
O O10 0.752692 0.014861 0.929905
O O11 0.945931 0.990005 0.729847
O O12 0.959570 0.521879 0.023018
#
# Coordination Sequence:
#
# PCOD8157887 Si02
#       6
#     4   4   4   4   4   4
#     4  12  26  46  71 111 143 189 244 305 357 435
#     4  12  24  47  77 102 140 200 238 290 372 437
#     4  12  26  45  75 106 148 190 252 294 372 435
#     4  12  25  46  75 106 145 186 244 304 361 432
#     4  12  25  46  75 106 145 186 244 304 361 432
#     4  12  26  46  71 111 143 189 244 305 357 435
#
# _framework density 22.110572000000001
#
# number of rings (size 3 to 8) (size 9 to 14) (size 15 to 20)
#    0.000    0.000    6.667    4.000    0.000    2.667 
#    0.000    0.000    0.000    0.000    0.000    0.000 
#    0.000    0.000    0.000    0.000    0.000    0.000 
#
# Total GULP energy -297653.052204 kJ/mol
# GULP energy per Si atom -12402.210508 kJ/mol
# Density = 2.206025 g / cm^3
# Si number density = 22.110572 Si / 1000 Ang^3
#
#
#
# Elastic Constant Matrix: (Units=GPa)
#
#
# Indices 1 2 3 4 5 6 
#
# 1 85.2209 31.4653 22.1801 0.0000 0.0000 0.0000
# 2 31.4653 142.3671 59.4404 0.0000 0.0000 0.0000
# 3 22.1801 59.4404 105.9595 0.0000 0.0000 0.0000
# 4 0.0000 0.0000 0.0000 37.2768 0.0000 0.0000
# 5 0.0000 0.0000 0.0000 0.0000 42.2965 0.0000
# 6 0.0000 0.0000 0.0000 0.0000 0.0000 21.7466
#
#
#
# Elastic Compliance Matrix: (Units=1/GPa)
#
#
# Indices 1 2 3 4 5 6 
#
# 1 0.012944 -0.002258 -0.001442 0.000000 0.000000 0.000000
# 2 -0.002258 0.009566 -0.004894 0.000000 0.000000 0.000000
# 3 -0.001442 -0.004894 0.012485 0.000000 0.000000 0.000000
# 4 0.000000 0.000000 0.000000 0.026826 0.000000 0.000000
# 5 0.000000 0.000000 0.000000 0.000000 0.023643 0.000000
# 6 0.000000 0.000000 0.000000 0.000000 0.000000 0.045984
#
#
# Mechanical properties :
#
#
# Convention : Reuss Voigt Hill
#
# Bulk Modulus (GPa) = 56.16292 62.19103 59.17697
# Shear Modulus (GPa) = 32.34730 34.96143 33.65437
#
# Velocity S-wave (km/s) = 3.82904 3.98076 3.90563
# Velocity P-wave (km/s) = 6.70856 7.02260 6.86738
#
# Compressibility (1/GPa) = 0.01780534
#
# Stress axis : x y z
#
# Youngs Moduli (GPa) = 77.25876 104.53170 80.09741
#
# Poissons Ratio (x) = 0.23608 0.11554
# Poissons Ratio (y) = 0.17449 0.39198
# Poissons Ratio (z) = 0.11144 0.51156
#
# Static dielectric constant tensor:
#      x y z
#    x 3.986440 0.000000 0.000000 
#    y 0.000000 4.087320 0.000000 
#    z 0.000000 0.000000 3.958530 
# 
# 
# High freq. dielectric constant tensor:
#      x y z
#    x 1.875950 0.000000 0.000000 
#    y 0.000000 1.879070 0.000000 
#    z 0.000000 0.000000 1.872300 
# 
# From -- ./inp_files/2680.got.cif
#   From: 2010.03.12/outbox.cif.g09.slc.cpg/sg19_2_cif.got.tgz:2680.got - 2010.04.10 18:59:41.
