data_PCOD8157530
_publ_section_title
;
Structure prediction by ZEFSAII (Michael W. Deem and Ramdas Pophale) SiO2 
 PCOD8157530
Probable space group: P 21 21 21
;
_chemical_formula_sum "Si O2"
_cell_formula_units_Z 32
_cell_length_a 18.323181
_cell_length_b 5.736288
_cell_length_c 12.653905
_cell_angle_alpha 90.000000
_cell_angle_beta 90.000000
_cell_angle_gamma 90.000000
_cell_volume 1330.014541
_symmetry_space_group_name_H-M "P 21 21 21"
_symmetry_group_IT_number 19
_symmetry_cell_setting 'orthorhombic'
loop_
_space_group_symop_operation_xyz
x,y,z
1/2-x,-y,1/2+z
1/2+x,1/2-y,-z
-x,1/2+y,1/2-z
loop_
_atom_site_type_symbol
_atom_site_label
_atom_site_fract_x
_atom_site_fract_y
_atom_site_fract_z
Si Si1 0.782635 0.136201 0.792561
Si Si2 0.919022 0.514526 0.498192
Si Si3 0.801741 0.240582 0.383566
Si Si4 0.836722 0.472616 0.953342
Si Si5 0.599010 0.146754 0.177488
Si Si6 0.460867 0.814987 0.726083
Si Si7 0.179077 0.030226 0.313316
Si Si8 0.479593 0.799165 0.114121
O O1 0.838446 0.249151 0.876632
O O2 0.752523 0.323384 0.709318
O O3 0.715524 0.032664 0.863903
O O4 0.824974 0.940378 0.726669
O O5 0.863841 0.300140 0.469446
O O6 0.878950 0.665151 0.588829
O O7 0.937792 0.673323 0.397110
O O8 0.995593 0.427407 0.548019
O O9 0.723915 0.350618 0.411640
O O10 0.831473 0.327815 0.271542
O O11 0.917137 0.579477 0.954105
O O12 0.816898 0.406881 0.073110
O O13 0.548894 0.255386 0.268460
O O14 0.553470 0.946358 0.120927
O O15 0.500260 0.565118 0.744470
O O16 0.390434 0.798755 0.802089
#
# Coordination Sequence:
#
# PCOD8157530 Si02
#       8
#     4   4   4   4   4   4   4   4
#     4  11  26  48  75 106 154 197 260 327 383 485
#     4  11  28  46  77 110 151 208 254 322 406 470
#     4  10  25  48  70 106 150 194 261 313 389 472
#     4  11  25  45  72 109 144 198 253 313 396 462
#     4  12  26  45  74 110 155 195 261 319 396 473
#     4  11  27  51  78 112 159 208 267 333 394 483
#     4  10  26  46  72 107 150 200 262 319 392 469
#     4  12  25  45  72 110 153 196 250 326 390 474
#
# _framework density 24.059888000000001
#
# number of rings (size 3 to 8) (size 9 to 14) (size 15 to 20)
#    0.000    1.000    2.500    1.500   10.500    3.000 
#    0.000    0.000    0.000    0.000    0.000    0.000 
#    0.000    0.000    0.000    0.000    0.000    0.000 
#
# Total GULP energy -396700.144085 kJ/mol
# GULP energy per Si atom -12396.879503 kJ/mol
# Density = 2.400513 g / cm^3
# Si number density = 24.059888 Si / 1000 Ang^3
#
#
#
# Elastic Constant Matrix: (Units=GPa)
#
#
# Indices 1 2 3 4 5 6 
#
# 1 90.0729 27.2268 47.7327 0.0000 0.0000 0.0000
# 2 27.2268 83.4479 43.4407 0.0000 0.0000 0.0000
# 3 47.7327 43.4407 161.1418 0.0000 0.0000 0.0000
# 4 0.0000 0.0000 0.0000 34.4912 0.0000 0.0000
# 5 0.0000 0.0000 0.0000 0.0000 32.8283 0.0000
# 6 0.0000 0.0000 0.0000 0.0000 0.0000 41.6956
#
#
#
# Elastic Compliance Matrix: (Units=1/GPa)
#
#
# Indices 1 2 3 4 5 6 
#
# 1 0.013687 -0.002740 -0.003316 0.000000 0.000000 0.000000
# 2 -0.002740 0.014488 -0.003094 0.000000 0.000000 0.000000
# 3 -0.003316 -0.003094 0.008022 0.000000 0.000000 0.000000
# 4 0.000000 0.000000 0.000000 0.028993 0.000000 0.000000
# 5 0.000000 0.000000 0.000000 0.000000 0.030462 0.000000
# 6 0.000000 0.000000 0.000000 0.000000 0.000000 0.023983
#
#
# Mechanical properties :
#
#
# Convention : Reuss Voigt Hill
#
# Bulk Modulus (GPa) = 55.87160 63.49587 59.68374
# Shear Modulus (GPa) = 34.74611 36.22051 35.48331
#
# Velocity S-wave (km/s) = 3.80432 3.88420 3.84447
# Velocity P-wave (km/s) = 6.52453 6.82379 6.67583
#
# Compressibility (1/GPa) = 0.01789818
#
# Stress axis : x y z
#
# Youngs Moduli (GPa) = 73.05959 69.02187 124.65628
#
# Poissons Ratio (x) = 0.18910 0.41334
# Poissons Ratio (y) = 0.20016 0.38571
# Poissons Ratio (z) = 0.24226 0.21357
#
# Static dielectric constant tensor:
#      x y z
#    x 4.398620 0.000000 0.000000 
#    y 0.000000 4.225880 0.000000 
#    z 0.000000 0.000000 4.419210 
# 
# 
# High freq. dielectric constant tensor:
#      x y z
#    x 1.963010 0.000000 0.000000 
#    y 0.000000 1.941660 0.000000 
#    z 0.000000 0.000000 1.966810 
# 
# From -- ./inp_files/5500.got.cif
#   From: 2010.03.12/outbox.cif.g09.slc.cpg/sg19_3_cif.got.tgz:5500.got - 2010.04.10 18:59:41.
