data_PCOD8157636
_publ_section_title
;
Structure prediction by ZEFSAII (Michael W. Deem and Ramdas Pophale) SiO2 
 PCOD8157636
Probable space group: P 21 21 21
;
_chemical_formula_sum "Si O2"
_cell_formula_units_Z 24
_cell_length_a 14.419497
_cell_length_b 9.643456
_cell_length_c 8.302509
_cell_angle_alpha 90.000000
_cell_angle_beta 90.000000
_cell_angle_gamma 90.000000
_cell_volume 1154.495300
_symmetry_space_group_name_H-M "P 21 21 21"
_symmetry_group_IT_number 19
_symmetry_cell_setting 'orthorhombic'
loop_
_space_group_symop_operation_xyz
x,y,z
1/2-x,-y,1/2+z
1/2+x,1/2-y,-z
-x,1/2+y,1/2-z
loop_
_atom_site_type_symbol
_atom_site_label
_atom_site_fract_x
_atom_site_fract_y
_atom_site_fract_z
Si Si1 0.164938 0.979344 0.347688
Si Si2 0.088523 0.625007 0.071321
Si Si3 0.498329 0.635184 0.453188
Si Si4 0.459928 0.667743 0.098846
Si Si5 0.264929 0.799961 0.094573
Si Si6 0.511016 0.412871 0.883916
O O1 0.236910 0.876273 0.260480
O O2 0.097897 0.897515 0.469142
O O3 0.221789 0.092789 0.448360
O O4 0.106161 0.052346 0.206934
O O5 0.186740 0.692892 0.033904
O O6 0.065375 0.645156 0.259355
O O7 0.083139 0.462473 0.025758
O O8 0.008945 0.694250 0.963384
O O9 0.506915 0.614106 0.262398
O O10 0.468806 0.793351 0.486916
O O11 0.353591 0.705816 0.130520
O O12 0.469588 0.548773 0.966465
#
# Coordination Sequence:
#
# PCOD8157636 Si02
#       6
#     4   4   4   4   4   4
#     4  11  26  44  73 101 142 194 237 301 360 427
#     4  11  23  46  69 101 145 187 238 298 358 424
#     4  11  24  45  72 100 143 191 234 296 364 420
#     4  12  25  43  73 107 140 189 245 294 355 440
#     4  12  26  45  71 110 141 187 251 295 360 438
#     4  11  22  47  72  97 143 194 233 296 369 417
#
# _framework density 20.788304
#
# number of rings (size 3 to 8) (size 9 to 14) (size 15 to 20)
#    0.000    0.667    6.667    2.000    4.667    1.333 
#    0.000    0.000    0.000    0.000    0.000    0.000 
#    0.000    0.000    0.000    0.000    0.000    0.000 
#
# Total GULP energy -297721.595976 kJ/mol
# GULP energy per Si atom -12405.066499 kJ/mol
# Density = 2.074099 g / cm^3
# Si number density = 20.788304 Si / 1000 Ang^3
#
#
#
# Elastic Constant Matrix: (Units=GPa)
#
#
# Indices 1 2 3 4 5 6 
#
# 1 115.8883 47.5472 49.0074 0.0000 0.0000 0.0000
# 2 47.5472 98.7749 30.3530 0.0000 0.0000 0.0000
# 3 49.0074 30.3530 119.6857 0.0000 0.0000 0.0000
# 4 0.0000 0.0000 0.0000 33.8251 0.0000 0.0000
# 5 0.0000 0.0000 0.0000 0.0000 35.2247 0.0000
# 6 0.0000 0.0000 0.0000 0.0000 0.0000 37.2486
#
#
#
# Elastic Compliance Matrix: (Units=1/GPa)
#
#
# Indices 1 2 3 4 5 6 
#
# 1 0.012154 -0.004686 -0.003788 0.000000 0.000000 0.000000
# 2 -0.004686 0.012787 -0.001324 0.000000 0.000000 0.000000
# 3 -0.003788 -0.001324 0.010242 0.000000 0.000000 0.000000
# 4 0.000000 0.000000 0.000000 0.029564 0.000000 0.000000
# 5 0.000000 0.000000 0.000000 0.000000 0.028389 0.000000
# 6 0.000000 0.000000 0.000000 0.000000 0.000000 0.026847
#
#
# Mechanical properties :
#
#
# Convention : Reuss Voigt Hill
#
# Bulk Modulus (GPa) = 64.16069 65.35159 64.75614
# Shear Modulus (GPa) = 34.53662 35.08910 34.81286
#
# Velocity S-wave (km/s) = 4.08039 4.11289 4.09667
# Velocity P-wave (km/s) = 7.28905 7.35252 7.32085
#
# Compressibility (1/GPa) = 0.01558587
#
# Stress axis : x y z
#
# Youngs Moduli (GPa) = 82.27984 78.20615 97.63681
#
# Poissons Ratio (x) = 0.36650 0.36985
# Poissons Ratio (y) = 0.38559 0.12926
# Poissons Ratio (z) = 0.31168 0.10354
#
# Static dielectric constant tensor:
#      x y z
#    x 3.630060 0.000000 0.000000 
#    y 0.000000 3.870080 0.000000 
#    z 0.000000 0.000000 3.897090 
# 
# 
# High freq. dielectric constant tensor:
#      x y z
#    x 1.801460 0.000000 0.000000 
#    y 0.000000 1.827290 0.000000 
#    z 0.000000 0.000000 1.824440 
# 
# From -- ./inp_files/2816.got.cif
#   From: 2010.03.12/outbox.cif.g09.slc.cpg/sg19_2_cif.got.tgz:2816.got - 2010.04.10 18:59:41.
