data_PCOD8157316
_publ_section_title
;
Structure prediction by ZEFSAII (Michael W. Deem and Ramdas Pophale) SiO2 
 PCOD8157316
Probable space group: P 21 21 21
;
_chemical_formula_sum "Si O2"
_cell_formula_units_Z 32
_cell_length_a 11.040606
_cell_length_b 8.797015
_cell_length_c 14.895812
_cell_angle_alpha 90.000000
_cell_angle_beta 90.000000
_cell_angle_gamma 90.000000
_cell_volume 1446.746454
_symmetry_space_group_name_H-M "P 21 21 21"
_symmetry_group_IT_number 19
_symmetry_cell_setting 'orthorhombic'
loop_
_space_group_symop_operation_xyz
x,y,z
1/2-x,-y,1/2+z
1/2+x,1/2-y,-z
-x,1/2+y,1/2-z
loop_
_atom_site_type_symbol
_atom_site_label
_atom_site_fract_x
_atom_site_fract_y
_atom_site_fract_z
Si Si1 0.099231 0.658723 0.595535
Si Si2 0.337742 0.709741 0.696307
Si Si3 0.409211 0.777416 0.254355
Si Si4 0.248192 0.531938 0.334028
Si Si5 0.417781 0.206207 0.910824
Si Si6 0.076459 0.306921 0.556567
Si Si7 0.821810 0.228349 0.545358
Si Si8 0.736713 0.465911 0.679293
O O1 0.237779 0.690519 0.619274
O O2 0.057059 0.773774 0.516838
O O3 0.078845 0.488171 0.561745
O O4 0.026388 0.696200 0.685447
O O5 0.329803 0.577215 0.770223
O O6 0.461481 0.697523 0.644906
O O7 0.336059 0.872608 0.745386
O O8 0.350779 0.613851 0.275583
O O9 0.447046 0.774664 0.151265
O O10 0.315188 0.912058 0.267937
O O11 0.160483 0.651497 0.379555
O O12 0.312688 0.439854 0.413792
O O13 0.350016 0.047986 0.892413
O O14 0.204784 0.245736 0.518379
O O15 0.955531 0.253912 0.498844
O O16 0.822567 0.352715 0.624630
#
# Coordination Sequence:
#
# PCOD8157316 Si02
#       8
#     4   4   4   4   4   4   4   4
#     4  12  26  43  71 108 140 191 241 299 357 434
#     4  11  24  43  69 100 143 187 239 292 370 432
#     4  11  24  45  73  99 142 188 246 286 354 441
#     4  10  22  45  71 100 139 192 234 298 360 432
#     4  11  25  43  71 103 147 182 238 304 365 431
#     4  12  26  46  74 109 145 192 243 300 367 428
#     4  11  25  46  72 104 148 183 242 303 356 429
#     4  10  24  45  69 105 136 187 241 294 361 429
#
# _framework density 22.118597000000001
#
# number of rings (size 3 to 8) (size 9 to 14) (size 15 to 20)
#    0.000    1.000    3.750    2.250    3.500    4.000 
#    9.000    0.000    0.000    0.000    0.000    0.000 
#    0.000    0.000    0.000    0.000    0.000    0.000 
#
# Total GULP energy -396850.919663 kJ/mol
# GULP energy per Si atom -12401.591239 kJ/mol
# Density = 2.206825 g / cm^3
# Si number density = 22.118597 Si / 1000 Ang^3
#
#
#
# Elastic Constant Matrix: (Units=GPa)
#
#
# Indices 1 2 3 4 5 6 
#
# 1 115.0512 41.9759 29.2369 0.0000 0.0000 0.0000
# 2 41.9759 99.5966 12.5257 0.0000 0.0000 0.0000
# 3 29.2369 12.5257 62.0162 0.0000 0.0000 0.0000
# 4 0.0000 0.0000 0.0000 82.9021 0.0000 0.0000
# 5 0.0000 0.0000 0.0000 0.0000 40.4748 0.0000
# 6 0.0000 0.0000 0.0000 0.0000 0.0000 7.7981
#
#
#
# Elastic Compliance Matrix: (Units=1/GPa)
#
#
# Indices 1 2 3 4 5 6 
#
# 1 0.011381 -0.004229 -0.004511 0.000000 0.000000 0.000000
# 2 -0.004229 0.011874 -0.000404 0.000000 0.000000 0.000000
# 3 -0.004511 -0.000404 0.018333 0.000000 0.000000 0.000000
# 4 0.000000 0.000000 0.000000 0.012062 0.000000 0.000000
# 5 0.000000 0.000000 0.000000 0.000000 0.024707 0.000000
# 6 0.000000 0.000000 0.000000 0.000000 0.000000 0.128237
#
#
# Mechanical properties :
#
#
# Convention : Reuss Voigt Hill
#
# Bulk Modulus (GPa) = 42.92153 49.34900 46.13526
# Shear Modulus (GPa) = 21.49145 39.09672 30.29409
#
# Velocity S-wave (km/s) = 3.12051 4.20884 3.70485
# Velocity P-wave (km/s) = 5.69480 6.78075 6.26136
#
# Compressibility (1/GPa) = 0.02329833
#
# Stress axis : x y z
#
# Youngs Moduli (GPa) = 87.86367 84.21865 54.54553
#
# Poissons Ratio (x) = 0.35619 0.24607
# Poissons Ratio (y) = 0.37161 0.02205
# Poissons Ratio (z) = 0.39638 0.03405
#
# Static dielectric constant tensor:
#      x y z
#    x 4.050150 0.000000 0.000000 
#    y 0.000000 4.333580 0.000000 
#    z 0.000000 0.000000 4.103890 
# 
# 
# High freq. dielectric constant tensor:
#      x y z
#    x 1.879680 0.000000 0.000000 
#    y 0.000000 1.885440 0.000000 
#    z 0.000000 0.000000 1.863290 
# 
# From -- ./inp_files/6163.got.cif
#   From: 2010.03.12/outbox.cif.g09.slc.cpg/sg19_4_cif.got.tgz:6163.got - 2010.04.10 18:59:41.
