data_PCOD8157882
_publ_section_title
;
Structure prediction by ZEFSAII (Michael W. Deem and Ramdas Pophale) SiO2 
 PCOD8157882
Probable space group: P 21 21 21
;
_chemical_formula_sum "Si O2"
_cell_formula_units_Z 24
_cell_length_a 6.860324
_cell_length_b 24.347650
_cell_length_c 6.860338
_cell_angle_alpha 90.000000
_cell_angle_beta 90.000000
_cell_angle_gamma 90.000000
_cell_volume 1145.901243
_symmetry_space_group_name_H-M "P 21 21 21"
_symmetry_group_IT_number 19
_symmetry_cell_setting 'orthorhombic'
loop_
_space_group_symop_operation_xyz
x,y,z
1/2-x,-y,1/2+z
1/2+x,1/2-y,-z
-x,1/2+y,1/2-z
loop_
_atom_site_type_symbol
_atom_site_label
_atom_site_fract_x
_atom_site_fract_y
_atom_site_fract_z
Si Si1 0.750228 0.642574 0.999910
Si Si2 0.607724 0.560754 0.319510
Si Si3 0.069669 0.810772 0.357594
Si Si4 0.250112 0.607425 0.499955
Si Si5 0.392516 0.939236 0.319717
Si Si6 0.069558 0.189254 0.142387
O O1 0.631678 0.603767 0.145104
O O2 0.878934 0.683862 0.129771
O O3 0.621373 0.683873 0.870216
O O4 0.868935 0.603890 0.854416
O O5 0.379889 0.566179 0.370994
O O6 0.750096 0.575218 0.499907
O O7 0.658082 0.499966 0.250114
O O8 0.249991 0.825218 0.500093
O O9 0.999918 0.750026 0.408072
O O10 0.895470 0.853872 0.381255
O O11 0.104780 0.646214 0.381494
O O12 0.120334 0.566084 0.628553
#
# Coordination Sequence:
#
# PCOD8157882 Si02
#       6
#     4   4   4   4   4   4
#     4  12  24  46  72 106 142 186 236 298 356 414
#     4  12  26  46  74 106 146 187 240 299 351 424
#     4  12  26  46  74 106 146 187 240 299 351 424
#     4  12  24  46  72 106 142 186 236 298 356 414
#     4  12  26  46  74 106 146 187 240 299 351 424
#     4  12  26  46  74 106 146 187 240 299 351 424
#
# _framework density 20.944212
#
# number of rings (size 3 to 8) (size 9 to 14) (size 15 to 20)
#    0.000    0.000   10.000    0.000    0.000    9.333 
#    0.000    0.000    0.000    0.000    0.000    0.000 
#    0.000    0.000    0.000    0.000    0.000    0.000 
#
# Total GULP energy -297517.050007 kJ/mol
# GULP energy per Si atom -12396.543750 kJ/mol
# Density = 2.089654 g / cm^3
# Si number density = 20.944212 Si / 1000 Ang^3
#
#
#
# Elastic Constant Matrix: (Units=GPa)
#
#
# Indices 1 2 3 4 5 6 
#
# 1 136.0911 25.0178 55.4197 0.0000 0.0000 0.0000
# 2 25.0178 89.8737 25.0178 0.0000 0.0000 0.0000
# 3 55.4197 25.0178 136.0900 0.0000 0.0000 0.0000
# 4 0.0000 0.0000 0.0000 40.2651 0.0000 0.0000
# 5 0.0000 0.0000 0.0000 0.0000 37.3104 0.0000
# 6 0.0000 0.0000 0.0000 0.0000 0.0000 40.2644
#
#
#
# Elastic Compliance Matrix: (Units=1/GPa)
#
#
# Indices 1 2 3 4 5 6 
#
# 1 0.009014 -0.001568 -0.003382 0.000000 0.000000 0.000000
# 2 -0.001568 0.011999 -0.001568 0.000000 0.000000 0.000000
# 3 -0.003382 -0.001568 0.009014 0.000000 0.000000 0.000000
# 4 0.000000 0.000000 0.000000 0.024835 0.000000 0.000000
# 5 0.000000 0.000000 0.000000 0.000000 0.026802 0.000000
# 6 0.000000 0.000000 0.000000 0.000000 0.000000 0.024836
#
#
# Mechanical properties :
#
#
# Convention : Reuss Voigt Hill
#
# Bulk Modulus (GPa) = 58.85232 63.66281 61.25756
# Shear Modulus (GPa) = 39.93645 40.67463 40.30554
#
# Velocity S-wave (km/s) = 4.37143 4.41165 4.39158
# Velocity P-wave (km/s) = 7.32392 7.51083 7.41796
#
# Compressibility (1/GPa) = 0.01699168
#
# Stress axis : x y z
#
# Youngs Moduli (GPa) = 110.94363 83.33733 110.94269
#
# Poissons Ratio (x) = 0.13063 0.37526
# Poissons Ratio (y) = 0.17391 0.17391
# Poissons Ratio (z) = 0.37526 0.13063
#
# Static dielectric constant tensor:
#      x y z
#    x 4.431670 0.000000 0.000000 
#    y 0.000000 3.879200 0.000000 
#    z 0.000000 0.000000 4.430360 
# 
# 
# High freq. dielectric constant tensor:
#      x y z
#    x 1.821940 0.000000 0.000000 
#    y 0.000000 1.843210 0.000000 
#    z 0.000000 0.000000 1.821940 
# 
# From -- ./inp_files/196.got.cif
#   From: 2010.03.12/outbox.cif.g09.slc.cpg/sg19_1_cif.got.tgz:196.got - 2010.04.10 18:59:41.
