data_PCOD8157262
_publ_section_title
;
Structure prediction by ZEFSAII (Michael W. Deem and Ramdas Pophale) SiO2 
 PCOD8157262
Probable space group: P 21 21 21
;
_chemical_formula_sum "Si O2"
_cell_formula_units_Z 32
_cell_length_a 14.543243
_cell_length_b 8.695072
_cell_length_c 11.813923
_cell_angle_alpha 90.000000
_cell_angle_beta 90.000000
_cell_angle_gamma 90.000000
_cell_volume 1493.924258
_symmetry_space_group_name_H-M "P 21 21 21"
_symmetry_group_IT_number 19
_symmetry_cell_setting 'orthorhombic'
loop_
_space_group_symop_operation_xyz
x,y,z
1/2-x,-y,1/2+z
1/2+x,1/2-y,-z
-x,1/2+y,1/2-z
loop_
_atom_site_type_symbol
_atom_site_label
_atom_site_fract_x
_atom_site_fract_y
_atom_site_fract_z
Si Si1 0.343612 0.191974 0.675927
Si Si2 0.178064 0.131476 0.256819
Si Si3 0.799552 0.425992 0.552005
Si Si4 0.715911 0.959348 0.661855
Si Si5 0.737755 0.739551 0.458208
Si Si6 0.384235 0.374927 0.223443
Si Si7 0.489216 0.132992 0.373215
Si Si8 0.548743 0.183452 0.614343
O O1 0.301447 0.197935 0.549899
O O2 0.314004 0.344158 0.739129
O O3 0.451506 0.151345 0.672347
O O4 0.300998 0.046698 0.738954
O O5 0.260628 0.173850 0.343455
O O6 0.182846 0.229230 0.139435
O O7 0.083348 0.162773 0.322051
O O8 0.736611 0.574106 0.520954
O O9 0.904609 0.474204 0.582313
O O10 0.755405 0.871457 0.551092
O O11 0.793662 0.072374 0.708344
O O12 0.622327 0.048602 0.633954
O O13 0.643664 0.779022 0.390192
O O14 0.452623 0.270699 0.295993
O O15 0.438744 0.529279 0.192984
O O16 0.539260 0.212014 0.480504
#
# Coordination Sequence:
#
# PCOD8157262 Si02
#       8
#     4   4   4   4   4   4   4   4
#     4  10  24  40  68 100 131 177 227 286 347 411
#     4  11  21  44  68  95 134 177 229 278 346 418
#     4  10  22  42  71  97 136 179 235 282 345 418
#     4  12  24  45  70 102 139 184 234 283 353 419
#     4  11  23  43  70 100 131 182 232 284 341 416
#     4  12  27  46  69 103 143 188 235 289 350 419
#     4  11  26  46  66 103 142 180 233 293 348 411
#     4  11  23  42  66  98 136 171 227 289 340 412
#
# _framework density 21.420096000000001
#
# number of rings (size 3 to 8) (size 9 to 14) (size 15 to 20)
#    0.000    1.000    5.000    0.750    3.500    3.000 
#    2.250    0.000    0.000    0.000    0.000    0.000 
#    0.000    0.000    0.000    0.000    0.000    0.000 
#
# Total GULP energy -396570.524792 kJ/mol
# GULP energy per Si atom -12392.828900 kJ/mol
# Density = 2.137134 g / cm^3
# Si number density = 21.420096 Si / 1000 Ang^3
#
#
#
# Elastic Constant Matrix: (Units=GPa)
#
#
# Indices 1 2 3 4 5 6 
#
# 1 76.8212 22.0607 38.7020 0.0000 0.0000 0.0000
# 2 22.0607 77.7021 38.2218 0.0000 0.0000 0.0000
# 3 38.7020 38.2218 120.3958 0.0000 0.0000 0.0000
# 4 0.0000 0.0000 0.0000 33.0254 0.0000 0.0000
# 5 0.0000 0.0000 0.0000 0.0000 33.5572 0.0000
# 6 0.0000 0.0000 0.0000 0.0000 0.0000 43.0680
#
#
#
# Elastic Compliance Matrix: (Units=1/GPa)
#
#
# Indices 1 2 3 4 5 6 
#
# 1 0.015892 -0.002369 -0.004357 0.000000 0.000000 0.000000
# 2 -0.002369 0.015604 -0.004192 0.000000 0.000000 0.000000
# 3 -0.004357 -0.004192 0.011037 0.000000 0.000000 0.000000
# 4 0.000000 0.000000 0.000000 0.030280 0.000000 0.000000
# 5 0.000000 0.000000 0.000000 0.000000 0.029800 0.000000
# 6 0.000000 0.000000 0.000000 0.000000 0.000000 0.023219
#
#
# Mechanical properties :
#
#
# Convention : Reuss Voigt Hill
#
# Bulk Modulus (GPa) = 48.31346 52.54312 50.42829
# Shear Modulus (GPa) = 32.34813 33.65909 33.00361
#
# Velocity S-wave (km/s) = 3.89032 3.96836 3.92953
# Velocity P-wave (km/s) = 6.54092 6.75132 6.64695
#
# Compressibility (1/GPa) = 0.02069817
#
# Stress axis : x y z
#
# Youngs Moduli (GPa) = 62.92313 64.08409 90.60148
#
# Poissons Ratio (x) = 0.15182 0.39472
# Poissons Ratio (y) = 0.14907 0.37984
# Poissons Ratio (z) = 0.27413 0.26866
#
# Static dielectric constant tensor:
#      x y z
#    x 3.885350 0.000000 0.000000 
#    y 0.000000 3.734720 0.000000 
#    z 0.000000 0.000000 4.178190 
# 
# 
# High freq. dielectric constant tensor:
#      x y z
#    x 1.832610 0.000000 0.000000 
#    y 0.000000 1.836610 0.000000 
#    z 0.000000 0.000000 1.864420 
# 
# From -- ./inp_files/5269.got.cif
#   From: 2010.03.12/outbox.cif.g09.slc.cpg/sg19_3_cif.got.tgz:5269.got - 2010.04.10 18:59:41.
