data_PCOD8157110
_publ_section_title
;
Structure prediction by ZEFSAII (Michael W. Deem and Ramdas Pophale) SiO2 
 PCOD8157110
Probable space group: P 21 21 21
;
_chemical_formula_sum "Si O2"
_cell_formula_units_Z 28
_cell_length_a 18.243242
_cell_length_b 9.285352
_cell_length_c 7.486919
_cell_angle_alpha 90.000000
_cell_angle_beta 90.000000
_cell_angle_gamma 90.000000
_cell_volume 1268.246072
_symmetry_space_group_name_H-M "P 21 21 21"
_symmetry_group_IT_number 19
_symmetry_cell_setting 'orthorhombic'
loop_
_space_group_symop_operation_xyz
x,y,z
1/2-x,-y,1/2+z
1/2+x,1/2-y,-z
-x,1/2+y,1/2-z
loop_
_atom_site_type_symbol
_atom_site_label
_atom_site_fract_x
_atom_site_fract_y
_atom_site_fract_z
Si Si1 0.539738 0.302190 0.943030
Si Si2 0.074039 0.133562 0.670000
Si Si3 0.521512 0.983512 0.859854
Si Si4 0.697317 0.145004 0.284294
Si Si5 0.791779 0.658754 0.464584
Si Si6 0.665034 0.897078 0.027205
Si Si7 0.674813 0.605565 0.181549
O O1 0.502105 0.433109 0.836732
O O2 0.626529 0.298584 0.903849
O O3 0.502883 0.151963 0.883601
O O4 0.526424 0.329529 0.153465
O O5 0.130273 0.263938 0.630366
O O6 0.021353 0.114382 0.503050
O O7 0.117425 0.984161 0.701381
O O8 0.608174 0.960750 0.884143
O O9 0.755107 0.110540 0.438142
O O10 0.734497 0.238010 0.125501
O O11 0.666594 0.997097 0.202499
O O12 0.738298 0.677304 0.299718
O O13 0.788624 0.493769 0.529937
O O14 0.636144 0.739471 0.084364
#
# Coordination Sequence:
#
# PCOD8157110 Si02
#       7
#     4   4   4   4   4   4   4
#     4  10  26  46  67 103 139 180 233 287 341 422
#     4  10  25  49  68  99 145 184 226 290 352 417
#     4  12  27  45  72 100 143 186 233 288 357 415
#     4  10  23  44  65  95 140 176 225 293 344 403
#     4  10  21  44  63  98 136 172 227 279 340 403
#     4  12  24  41  67 103 129 179 235 278 351 414
#     4  10  22  37  70  96 128 177 227 275 335 418
#
# _framework density 22.077734
#
# number of rings (size 3 to 8) (size 9 to 14) (size 15 to 20)
#    0.000    1.714    2.857    2.571   10.000    1.143 
#    2.571    0.000    0.000    0.000    0.000    0.000 
#    0.000    0.000    0.000    0.000    0.000    0.000 
#
# Total GULP energy -347293.737043 kJ/mol
# GULP energy per Si atom -12403.347752 kJ/mol
# Density = 2.202748 g / cm^3
# Si number density = 22.077734 Si / 1000 Ang^3
#
#
#
# Elastic Constant Matrix: (Units=GPa)
#
#
# Indices 1 2 3 4 5 6 
#
# 1 51.2433 9.4179 24.5902 0.0000 0.0000 0.0000
# 2 9.4179 113.0537 11.8303 0.0000 0.0000 0.0000
# 3 24.5902 11.8303 52.3543 0.0000 0.0000 0.0000
# 4 0.0000 0.0000 0.0000 30.9553 0.0000 0.0000
# 5 0.0000 0.0000 0.0000 0.0000 42.1537 0.0000
# 6 0.0000 0.0000 0.0000 0.0000 0.0000 31.5927
#
#
#
# Elastic Compliance Matrix: (Units=1/GPa)
#
#
# Indices 1 2 3 4 5 6 
#
# 1 0.025279 -0.000884 -0.011673 0.000000 0.000000 0.000000
# 2 -0.000884 0.009091 -0.001639 0.000000 0.000000 0.000000
# 3 -0.011673 -0.001639 0.024954 0.000000 0.000000 0.000000
# 4 0.000000 0.000000 0.000000 0.032305 0.000000 0.000000
# 5 0.000000 0.000000 0.000000 0.000000 0.023723 0.000000
# 6 0.000000 0.000000 0.000000 0.000000 0.000000 0.031653
#
#
# Mechanical properties :
#
#
# Convention : Reuss Voigt Hill
#
# Bulk Modulus (GPa) = 32.33080 34.25867 33.29474
# Shear Modulus (GPa) = 26.92415 32.32786 29.62600
#
# Velocity S-wave (km/s) = 3.49595 3.83073 3.66716
# Velocity P-wave (km/s) = 5.56519 5.92596 5.74841
#
# Compressibility (1/GPa) = 0.03093026
#
# Stress axis : x y z
#
# Youngs Moduli (GPa) = 39.55846 110.00481 40.07400
#
# Poissons Ratio (x) = 0.09728 0.46780
# Poissons Ratio (y) = 0.03498 0.06567
# Poissons Ratio (z) = 0.46178 0.18028
#
# Static dielectric constant tensor:
#      x y z
#    x 3.741570 0.000000 0.000000 
#    y 0.000000 4.140080 0.000000 
#    z 0.000000 0.000000 3.826370 
# 
# 
# High freq. dielectric constant tensor:
#      x y z
#    x 1.852130 0.000000 0.000000 
#    y 0.000000 1.886730 0.000000 
#    z 0.000000 0.000000 1.859450 
# 
# From -- ./inp_files/4192.got.cif
#   From: 2010.03.12/outbox.cif.g09.slc.cpg/sg19_3_cif.got.tgz:4192.got - 2010.04.10 18:59:41.
