data_PCOD8157874
_publ_section_title
;
Structure prediction by ZEFSAII (Michael W. Deem and Ramdas Pophale) SiO2 
 PCOD8157874
Probable space group: P 21 21 21
;
_chemical_formula_sum "Si O2"
_cell_formula_units_Z 28
_cell_length_a 24.782153
_cell_length_b 5.038014
_cell_length_c 9.048778
_cell_angle_alpha 90.000000
_cell_angle_beta 90.000000
_cell_angle_gamma 90.000000
_cell_volume 1129.765575
_symmetry_space_group_name_H-M "P 21 21 21"
_symmetry_group_IT_number 19
_symmetry_cell_setting 'orthorhombic'
loop_
_space_group_symop_operation_xyz
x,y,z
1/2-x,-y,1/2+z
1/2+x,1/2-y,-z
-x,1/2+y,1/2-z
loop_
_atom_site_type_symbol
_atom_site_label
_atom_site_fract_x
_atom_site_fract_y
_atom_site_fract_z
Si Si1 0.594765 0.240769 0.079790
Si Si2 0.621681 0.005225 0.551010
Si Si3 0.289909 0.751536 0.541850
Si Si4 0.726883 0.954737 0.682753
Si Si5 0.798369 0.597450 0.885196
Si Si6 0.466167 0.709753 0.720487
Si Si7 0.109715 0.778602 0.730907
O O1 0.577854 0.462589 0.203248
O O2 0.603040 0.954441 0.150922
O O3 0.651072 0.335886 0.008895
O O4 0.551205 0.220443 0.950604
O O5 0.667918 0.832473 0.635477
O O6 0.588640 0.827168 0.430284
O O7 0.654972 0.237771 0.467458
O O8 0.581225 0.125234 0.669852
O O9 0.263220 0.483728 0.465279
O O10 0.288695 0.708345 0.718431
O O11 0.246327 0.981032 0.502164
O O12 0.767144 0.752803 0.759351
O O13 0.827850 0.355529 0.796702
O O14 0.514998 0.501625 0.731429
#
# Coordination Sequence:
#
# PCOD8157874 Si02
#       7
#     4   4   4   4   4   4   4
#     4  12  27  50  80 114 160 206 265 339 394 476
#     4  12  27  50  78 114 163 218 266 334 400 485
#     4  12  25  38  67 108 160 206 262 300 390 476
#     4  12  24  41  64 113 158 210 255 304 383 489
#     4  12  25  40  72 111 161 212 257 303 388 491
#     4  12  31  58  88 118 151 206 282 357 421 471
#     4  12  25  49  75 112 163 206 257 313 398 478
#
# _framework density 24.783899999999999
#
# number of rings (size 3 to 8) (size 9 to 14) (size 15 to 20)
#    0.000    0.000    7.143    1.714    6.000    2.286 
#    0.000    2.857    0.000    0.000    0.000    0.000 
#    0.000    0.000    0.000    0.000    0.000    0.000 
#
# Total GULP energy -346872.018834 kJ/mol
# GULP energy per Si atom -12388.286387 kJ/mol
# Density = 2.472749 g / cm^3
# Si number density = 24.783900 Si / 1000 Ang^3
#
#
#
# Elastic Constant Matrix: (Units=GPa)
#
#
# Indices 1 2 3 4 5 6 
#
# 1 61.3411 2.6694 17.8291 0.0000 0.0000 0.0000
# 2 2.6694 96.3054 20.1439 0.0000 0.0000 0.0000
# 3 17.8291 20.1439 99.8751 0.0000 0.0000 0.0000
# 4 0.0000 0.0000 0.0000 32.6634 0.0000 0.0000
# 5 0.0000 0.0000 0.0000 0.0000 41.3070 0.0000
# 6 0.0000 0.0000 0.0000 0.0000 0.0000 28.6046
#
#
#
# Elastic Compliance Matrix: (Units=1/GPa)
#
#
# Indices 1 2 3 4 5 6 
#
# 1 0.017197 0.000173 -0.003105 0.000000 0.000000 0.000000
# 2 0.000173 0.010843 -0.002218 0.000000 0.000000 0.000000
# 3 -0.003105 -0.002218 0.011014 0.000000 0.000000 0.000000
# 4 0.000000 0.000000 0.000000 0.030615 0.000000 0.000000
# 5 0.000000 0.000000 0.000000 0.000000 0.024209 0.000000
# 6 0.000000 0.000000 0.000000 0.000000 0.000000 0.034959
#
#
# Mechanical properties :
#
#
# Convention : Reuss Voigt Hill
#
# Bulk Modulus (GPa) = 34.77721 37.64514 36.21117
# Shear Modulus (GPa) = 33.61979 34.97362 34.29671
#
# Velocity S-wave (km/s) = 3.68709 3.76059 3.72402
# Velocity P-wave (km/s) = 5.67352 5.83767 5.75618
#
# Compressibility (1/GPa) = 0.02875447
#
# Stress axis : x y z
#
# Youngs Moduli (GPa) = 58.14902 92.22786 90.79321
#
# Poissons Ratio (x) = -0.01593 0.28189
# Poissons Ratio (y) = -0.01005 0.20135
# Poissons Ratio (z) = 0.18054 0.20453
#
# Static dielectric constant tensor:
#      x y z
#    x 4.279130 0.000000 0.000000 
#    y 0.000000 4.665680 0.000000 
#    z 0.000000 0.000000 5.320150 
# 
# 
# High freq. dielectric constant tensor:
#      x y z
#    x 1.959030 0.000000 0.000000 
#    y 0.000000 1.984190 0.000000 
#    z 0.000000 0.000000 2.019380 
# 
# From -- ./inp_files/4354.got.cif
#   From: 2010.03.12/outbox.cif.g09.slc.cpg/sg19_3_cif.got.tgz:4354.got - 2010.04.10 18:59:41.
