data_PCOD8157000
_publ_section_title
;
Structure prediction by ZEFSAII (Michael W. Deem and Ramdas Pophale) SiO2 
 PCOD8157000
Probable space group: P 21 21 21
;
_chemical_formula_sum "Si O2"
_cell_formula_units_Z 24
_cell_length_a 8.141085
_cell_length_b 14.161597
_cell_length_c 9.155931
_cell_angle_alpha 90.000000
_cell_angle_beta 90.000000
_cell_angle_gamma 90.000000
_cell_volume 1055.594288
_symmetry_space_group_name_H-M "P 21 21 21"
_symmetry_group_IT_number 19
_symmetry_cell_setting 'orthorhombic'
loop_
_space_group_symop_operation_xyz
x,y,z
1/2-x,-y,1/2+z
1/2+x,1/2-y,-z
-x,1/2+y,1/2-z
loop_
_atom_site_type_symbol
_atom_site_label
_atom_site_fract_x
_atom_site_fract_y
_atom_site_fract_z
Si Si1 0.042165 0.546678 0.609626
Si Si2 0.481143 0.134273 0.041416
Si Si3 0.308198 0.467816 0.417366
Si Si4 0.368349 0.137701 0.361448
Si Si5 0.199292 0.213915 0.860547
Si Si6 0.808123 0.775186 0.963690
O O1 0.143019 0.525835 0.461028
O O2 0.173355 0.531541 0.741326
O O3 0.887302 0.474270 0.615213
O O4 0.962762 0.649073 0.620686
O O5 0.384387 0.158647 0.190495
O O6 0.652423 0.193696 0.044160
O O7 0.531142 0.024488 0.023266
O O8 0.364108 0.162759 0.910479
O O9 0.307072 0.362113 0.481819
O O10 0.505714 0.190240 0.459714
O O11 0.202785 0.185529 0.424753
O O12 0.243036 0.241682 0.696485
#
# Coordination Sequence:
#
# PCOD8157000 Si02
#       6
#     4   4   4   4   4   4
#     4  10  22  40  62  89 123 161 205 253 309 373
#     4  10  22  39  59  87 122 159 204 257 311 370
#     4  10  21  41  63  86 121 164 206 256 313 370
#     4   9  21  38  58  86 118 158 201 250 307 365
#     4  11  23  39  61  92 126 162 208 258 309 373
#     4  10  21  39  61  86 120 160 206 256 309 371
#
# _framework density 22.736008000000002
#
# number of rings (size 3 to 8) (size 9 to 14) (size 15 to 20)
#    0.000    2.000    0.000    4.000    0.000    8.000 
#    0.000    3.333    0.000    0.000    0.000    0.000 
#    0.000    0.000    0.000    0.000    0.000    0.000 
#
# Total GULP energy -297473.179245 kJ/mol
# GULP energy per Si atom -12394.715802 kJ/mol
# Density = 2.268426 g / cm^3
# Si number density = 22.736008 Si / 1000 Ang^3
#
#
#
# Elastic Constant Matrix: (Units=GPa)
#
#
# Indices 1 2 3 4 5 6 
#
# 1 13.0634 1.7040 8.0447 0.0000 0.0000 0.0000
# 2 1.7040 93.5339 29.0720 0.0000 0.0000 0.0000
# 3 8.0447 29.0720 47.0333 0.0000 0.0000 0.0000
# 4 0.0000 0.0000 0.0000 36.2894 0.0000 0.0000
# 5 0.0000 0.0000 0.0000 0.0000 32.6974 0.0000
# 6 0.0000 0.0000 0.0000 0.0000 0.0000 31.7765
#
#
#
# Elastic Compliance Matrix: (Units=1/GPa)
#
#
# Indices 1 2 3 4 5 6 
#
# 1 0.086610 0.003746 -0.017130 0.000000 0.000000 0.000000
# 2 0.003746 0.013396 -0.008921 0.000000 0.000000 0.000000
# 3 -0.017130 -0.008921 0.029706 0.000000 0.000000 0.000000
# 4 0.000000 0.000000 0.000000 0.027556 0.000000 0.000000
# 5 0.000000 0.000000 0.000000 0.000000 0.030584 0.000000
# 6 0.000000 0.000000 0.000000 0.000000 0.000000 0.031470
#
#
# Mechanical properties :
#
#
# Convention : Reuss Voigt Hill
#
# Bulk Modulus (GPa) = 11.75049 25.69689 18.72369
# Shear Modulus (GPa) = 17.10586 27.80662 22.45624
#
# Velocity S-wave (km/s) = 2.74591 3.50097 3.14617
# Velocity P-wave (km/s) = 3.90292 5.26015 4.63152
#
# Compressibility (1/GPa) = 0.08510284
#
# Stress axis : x y z
#
# Youngs Moduli (GPa) = 11.54601 74.64993 33.66365
#
# Poissons Ratio (x) = -0.27966 0.57665
# Poissons Ratio (y) = -0.04325 0.30031
# Poissons Ratio (z) = 0.19778 0.66595
#
# Static dielectric constant tensor:
#      x y z
#    x 3.739000 0.000000 0.000000 
#    y 0.000000 4.337200 0.000000 
#    z 0.000000 0.000000 3.879120 
# 
# 
# High freq. dielectric constant tensor:
#      x y z
#    x 1.870200 0.000000 0.000000 
#    y 0.000000 1.918370 0.000000 
#    z 0.000000 0.000000 1.885290 
# 
# From -- ./inp_files/2826.got.cif
#   From: 2010.03.12/outbox.cif.g09.slc.cpg/sg19_2_cif.got.tgz:2826.got - 2010.04.10 18:59:41.
