data_PCOD8157447
_publ_section_title
;
Structure prediction by ZEFSAII (Michael W. Deem and Ramdas Pophale) SiO2 
 PCOD8157447
Probable space group: P 21 21 21
;
_chemical_formula_sum "Si O2"
_cell_formula_units_Z 28
_cell_length_a 22.852712
_cell_length_b 8.975137
_cell_length_c 6.699063
_cell_angle_alpha 90.000000
_cell_angle_beta 90.000000
_cell_angle_gamma 90.000000
_cell_volume 1374.019496
_symmetry_space_group_name_H-M "P 21 21 21"
_symmetry_group_IT_number 19
_symmetry_cell_setting 'orthorhombic'
loop_
_space_group_symop_operation_xyz
x,y,z
1/2-x,-y,1/2+z
1/2+x,1/2-y,-z
-x,1/2+y,1/2-z
loop_
_atom_site_type_symbol
_atom_site_label
_atom_site_fract_x
_atom_site_fract_y
_atom_site_fract_z
Si Si1 0.911215 0.842127 0.845423
Si Si2 0.999185 0.450284 0.350183
Si Si3 0.873597 0.170015 0.801458
Si Si4 0.873501 0.388430 0.475257
Si Si5 0.182535 0.106709 0.724304
Si Si6 0.493225 0.231245 0.023362
Si Si7 0.301757 0.151883 0.913360
O O1 0.858432 0.728126 0.883324
O O2 0.955208 0.774077 0.683516
O O3 0.884200 0.996746 0.767054
O O4 0.943688 0.872746 0.053976
O O5 0.943304 0.386021 0.463640
O O6 0.997062 0.416191 0.114038
O O7 0.001054 0.627731 0.376369
O O8 0.853020 0.238912 0.590371
O O9 0.931315 0.262512 0.865639
O O10 0.823707 0.201516 0.967826
O O11 0.852941 0.533324 0.595178
O O12 0.848334 0.391165 0.254216
O O13 0.239296 0.188375 0.815598
O O14 0.203983 0.988058 0.561734
#
# Coordination Sequence:
#
# PCOD8157447 Si02
#       7
#     4   4   4   4   4   4   4
#     4  11  25  42  61  97 132 165 209 266 330 380
#     4  11  24  37  64  94 126 172 209 260 323 384
#     4  10  24  40  61  92 130 168 204 260 325 380
#     4  11  21  41  66  90 126 167 209 265 313 375
#     4  11  24  43  68  93 123 170 219 269 315 378
#     4  11  23  38  62  94 128 165 214 255 321 383
#     4  11  23  43  66  92 121 165 224 259 313 380
#
# _framework density 20.378169
#
# number of rings (size 3 to 8) (size 9 to 14) (size 15 to 20)
#    0.000    1.143    5.714    0.000    4.000    0.000 
#    2.571    0.000    0.000    0.000    0.000    0.000 
#    0.000    0.000    0.000    0.000    0.000    0.000 
#
# Total GULP energy -347304.612292 kJ/mol
# GULP energy per Si atom -12403.736153 kJ/mol
# Density = 2.033179 g / cm^3
# Si number density = 20.378169 Si / 1000 Ang^3
#
#
#
# Elastic Constant Matrix: (Units=GPa)
#
#
# Indices 1 2 3 4 5 6 
#
# 1 96.9121 20.5258 7.5591 0.0000 0.0000 0.0000
# 2 20.5258 55.4851 4.9221 0.0000 0.0000 0.0000
# 3 7.5591 4.9221 62.8885 0.0000 0.0000 0.0000
# 4 0.0000 0.0000 0.0000 24.8996 0.0000 0.0000
# 5 0.0000 0.0000 0.0000 0.0000 28.0697 0.0000
# 6 0.0000 0.0000 0.0000 0.0000 0.0000 31.1945
#
#
#
# Elastic Compliance Matrix: (Units=1/GPa)
#
#
# Indices 1 2 3 4 5 6 
#
# 1 0.011262 -0.004075 -0.001035 0.000000 0.000000 0.000000
# 2 -0.004075 0.019623 -0.001046 0.000000 0.000000 0.000000
# 3 -0.001035 -0.001046 0.016107 0.000000 0.000000 0.000000
# 4 0.000000 0.000000 0.000000 0.040161 0.000000 0.000000
# 5 0.000000 0.000000 0.000000 0.000000 0.035626 0.000000
# 6 0.000000 0.000000 0.000000 0.000000 0.000000 0.032057
#
#
# Mechanical properties :
#
#
# Convention : Reuss Voigt Hill
#
# Bulk Modulus (GPa) = 28.83350 31.25552 30.04451
# Shear Modulus (GPa) = 27.97862 28.98468 28.48165
#
# Velocity S-wave (km/s) = 3.70938 3.77548 3.74258
# Velocity P-wave (km/s) = 5.70315 5.86317 5.78371
#
# Compressibility (1/GPa) = 0.03468188
#
# Stress axis : x y z
#
# Youngs Moduli (GPa) = 88.79167 50.96078 62.08319
#
# Poissons Ratio (x) = 0.20764 0.06424
# Poissons Ratio (y) = 0.36178 0.06494
# Poissons Ratio (z) = 0.09188 0.05331
#
# Static dielectric constant tensor:
#      x y z
#    x 3.737440 0.000000 0.000000 
#    y 0.000000 3.504800 0.000000 
#    z 0.000000 0.000000 3.657930 
# 
# 
# High freq. dielectric constant tensor:
#      x y z
#    x 1.798380 0.000000 0.000000 
#    y 0.000000 1.782720 0.000000 
#    z 0.000000 0.000000 1.802200 
# 
# From -- ./inp_files/516.got.cif
#   From: 2010.03.12/outbox.cif.g09.slc.cpg/sg19_1_cif.got.tgz:516.got - 2010.04.10 18:59:41.
