data_PCOD8157015
_publ_section_title
;
Structure prediction by ZEFSAII (Michael W. Deem and Ramdas Pophale) SiO2 
 PCOD8157015
Probable space group: P 21 21 21
;
_chemical_formula_sum "Si O2"
_cell_formula_units_Z 20
_cell_length_a 9.472780
_cell_length_b 9.791300
_cell_length_c 8.398452
_cell_angle_alpha 90.000000
_cell_angle_beta 90.000000
_cell_angle_gamma 90.000000
_cell_volume 778.963401
_symmetry_space_group_name_H-M "P 21 21 21"
_symmetry_group_IT_number 19
_symmetry_cell_setting 'orthorhombic'
loop_
_space_group_symop_operation_xyz
x,y,z
1/2-x,-y,1/2+z
1/2+x,1/2-y,-z
-x,1/2+y,1/2-z
loop_
_atom_site_type_symbol
_atom_site_label
_atom_site_fract_x
_atom_site_fract_y
_atom_site_fract_z
Si Si1 0.345227 0.283051 0.319928
Si Si2 0.134181 0.084896 0.177741
Si Si3 0.881867 0.777556 0.617190
Si Si4 0.891942 0.934241 0.323846
Si Si5 0.871263 0.276906 0.326973
O O1 0.248508 0.149876 0.295283
O O2 0.492595 0.254244 0.236105
O O3 0.268132 0.417097 0.241907
O O4 0.372201 0.306786 0.507079
O O5 0.185328 0.930646 0.145461
O O6 0.133207 0.152883 0.005187
O O7 0.973777 0.071325 0.262971
O O8 0.903260 0.918074 0.515334
O O9 0.737700 0.800629 0.712468
O O10 0.971939 0.795974 0.252972
#
# Coordination Sequence:
#
# PCOD8157015 Si02
#       5
#     4   4   4   4   4
#     4  11  21  37  65  96 128 169 224 271 320 386
#     4   9  22  41  64  91 130 176 214 257 343 391
#     4  11  21  39  67  97 128 169 226 274 322 385
#     4   9  21  38  62  89 131 173 212 268 324 396
#     4  10  21  39  64  93 129 173 216 264 331 404
#
# _framework density 25.675146999999999
#
# number of rings (size 3 to 8) (size 9 to 14) (size 15 to 20)
#    1.200    0.800    0.000    4.800    2.800    0.000 
#    0.000    6.000    4.400    0.000    0.000    0.000 
#    0.000    0.000    0.000    0.000    0.000    0.000 
#
# Total GULP energy -247998.416940 kJ/mol
# GULP energy per Si atom -12399.920847 kJ/mol
# Density = 2.561671 g / cm^3
# Si number density = 25.675147 Si / 1000 Ang^3
#
#
#
# Elastic Constant Matrix: (Units=GPa)
#
#
# Indices 1 2 3 4 5 6 
#
# 1 130.7129 -6.0499 50.4286 0.0000 0.0000 0.0000
# 2 -6.0499 64.3039 -0.7645 0.0000 0.0000 0.0000
# 3 50.4286 -0.7645 183.1630 0.0000 0.0000 0.0000
# 4 0.0000 0.0000 0.0000 13.2825 0.0000 0.0000
# 5 0.0000 0.0000 0.0000 0.0000 60.3071 0.0000
# 6 0.0000 0.0000 0.0000 0.0000 0.0000 24.5544
#
#
#
# Elastic Compliance Matrix: (Units=1/GPa)
#
#
# Indices 1 2 3 4 5 6 
#
# 1 0.008599 0.000781 -0.002364 0.000000 0.000000 0.000000
# 2 0.000781 0.015623 -0.000150 0.000000 0.000000 0.000000
# 3 -0.002364 -0.000150 0.006110 0.000000 0.000000 0.000000
# 4 0.000000 0.000000 0.000000 0.075287 0.000000 0.000000
# 5 0.000000 0.000000 0.000000 0.000000 0.016582 0.000000
# 6 0.000000 0.000000 0.000000 0.000000 0.000000 0.040726
#
#
# Mechanical properties :
#
#
# Convention : Reuss Voigt Hill
#
# Bulk Modulus (GPa) = 37.22279 51.71201 44.46740
# Shear Modulus (GPa) = 28.51491 41.93319 35.22405
#
# Velocity S-wave (km/s) = 3.33619 4.04570 3.70795
# Velocity P-wave (km/s) = 5.41934 6.48137 5.97400
#
# Compressibility (1/GPa) = 0.02686526
#
# Stress axis : x y z
#
# Youngs Moduli (GPa) = 116.29852 64.00880 163.66936
#
# Poissons Ratio (x) = -0.04998 0.38693
# Poissons Ratio (y) = -0.09081 0.02451
# Poissons Ratio (z) = 0.27494 0.00959
#
# Static dielectric constant tensor:
#      x y z
#    x 4.498470 0.000000 0.000000 
#    y 0.000000 4.886800 0.000000 
#    z 0.000000 0.000000 4.480150 
# 
# 
# High freq. dielectric constant tensor:
#      x y z
#    x 2.030410 0.000000 0.000000 
#    y 0.000000 2.066000 0.000000 
#    z 0.000000 0.000000 2.025230 
# 
# From -- ./inp_files/2725.got.cif
#   From: 2010.03.12/outbox.cif.g09.slc.cpg/sg19_2_cif.got.tgz:2725.got - 2010.04.10 18:59:41.
