data_PCOD8157953
_publ_section_title
;
Structure prediction by ZEFSAII (Michael W. Deem and Ramdas Pophale) SiO2 
 PCOD8157953
Probable space group: C 2 2 21
;
_chemical_formula_sum "Si O2"
_cell_formula_units_Z 56
_cell_length_a 29.841316
_cell_length_b 27.582550
_cell_length_c 5.316171
_cell_angle_alpha 90.000000
_cell_angle_beta 90.000000
_cell_angle_gamma 90.000000
_cell_volume 4375.738174
_symmetry_space_group_name_H-M "C 2 2 21"
_symmetry_group_IT_number 20
_symmetry_cell_setting 'orthorhombic'
loop_
_space_group_symop_operation_xyz
x,y,z
-x,-y,1/2+z
x,-y,-z
-x,y,1/2-z
1/2+x,1/2+y,z
1/2-x,1/2-y,1/2+z
1/2+x,1/2-y,-z
1/2-x,1/2+y,1/2-z
loop_
_atom_site_type_symbol
_atom_site_label
_atom_site_fract_x
_atom_site_fract_y
_atom_site_fract_z
Si Si1 0.125370 0.590017 0.499995
Si Si2 0.261185 0.679902 0.499998
Si Si3 0.527439 0.943611 0.500000
Si Si4 0.657462 0.800354 0.500002
Si Si5 0.261581 0.859464 0.499998
Si Si6 0.672265 0.230886 0.999998
Si Si7 0.672217 0.944788 0.000005
O O1 0.071897 0.588539 0.500000
O O2 0.140602 0.645267 0.499999
O O3 0.143053 0.564241 0.750781
O O4 0.143051 0.564243 0.249200
O O5 0.211721 0.702950 0.499999
O O6 0.268458 0.646977 0.748877
O O7 0.296481 0.722809 0.499998
O O8 0.268458 0.646977 0.251121
O O9 0.500000 0.930193 0.750000
O O10 0.540961 0.000000 0.500000
O O11 0.500000 0.930193 0.250000
O O12 0.641244 0.771224 0.250708
O O13 0.641244 0.771224 0.749295
O O14 0.300540 0.819536 0.499999
O O15 0.283218 0.912478 0.499998
O O16 0.688517 0.000000 0.000000
#
# Coordination Sequence:
#
# PCOD8157953 Si02
#       7
#     8   8   8   8   8   8   8
#     4  12  20  34  45  57  73  90 111 149 186 226
#     4  10  16  25  40  53  75  97 112 135 163 198
#     4  10  21  35  47  58  68  83 114 150 188 236
#     4  10  16  26  38  56  75  88 112 135 163 211
#     4  10  16  27  34  53  73  89 118 140 157 205
#     4  10  16  25  39  55  75  97 111 133 164 200
#     4  12  21  30  42  56  73  94 116 144 183 220
#
# _framework density 12.797841
#
# number of rings (size 3 to 8) (size 9 to 14) (size 15 to 20)
#    0.000    1.429    5.714    6.429    0.000    1.143 
#    0.000    0.000    0.000    0.000    0.000    0.000 
#    0.000    0.000    0.000    0.000    0.000    0.000 
#
# Total GULP energy -347039.853701 kJ/mol
# GULP energy per Si atom -12394.280489 kJ/mol
# Density = 1.276871 g / cm^3
# Si number density = 12.797841 Si / 1000 Ang^3
#
#
#
# Elastic Constant Matrix: (Units=GPa)
#
#
# Indices 1 2 3 4 5 6 
#
# 1 20.4741 35.4201 22.5630 0.0000 0.0000 0.0000
# 2 35.4201 71.4650 40.4606 0.0000 0.0000 0.0000
# 3 22.5630 40.4606 154.3188 0.0000 0.0000 0.0000
# 4 0.0000 0.0000 0.0000 5.6435 0.0000 0.0000
# 5 0.0000 0.0000 0.0000 0.0000 10.5322 0.0000
# 6 0.0000 0.0000 0.0000 0.0000 0.0000 1.3047
#
#
#
# Elastic Compliance Matrix: (Units=1/GPa)
#
#
# Indices 1 2 3 4 5 6 
#
# 1 0.348320 -0.168871 -0.006652 0.000000 0.000000 0.000000
# 2 -0.168871 0.098304 -0.001083 0.000000 0.000000 0.000000
# 3 -0.006652 -0.001083 0.007737 0.000000 0.000000 0.000000
# 4 0.000000 0.000000 0.000000 0.177196 0.000000 0.000000
# 5 0.000000 0.000000 0.000000 0.000000 0.094947 0.000000
# 6 0.000000 0.000000 0.000000 0.000000 0.000000 0.766475
#
#
# Mechanical properties :
#
#
# Convention : Reuss Voigt Hill
#
# Bulk Modulus (GPa) = 9.88659 49.23836 29.56247
# Shear Modulus (GPa) = 2.65971 13.35036 8.00503
#
# Velocity S-wave (km/s) = 1.44318 3.23332 2.50371
# Velocity P-wave (km/s) = 3.24330 7.24546 5.61318
#
# Compressibility (1/GPa) = 0.10114711
#
# Stress axis : x y z
#
# Youngs Moduli (GPa) = 2.87093 10.17254 129.25408
#
# Poissons Ratio (x) = 1.71785 0.85976
# Poissons Ratio (y) = 0.48482 0.14004
# Poissons Ratio (z) = 0.01910 0.01102
#
# Static dielectric constant tensor:
#      x y z
#    x 2.146700 0.000000 0.000000 
#    y 0.000000 2.454710 0.000000 
#    z 0.000000 0.000000 4.088050 
# 
# 
# High freq. dielectric constant tensor:
#      x y z
#    x 1.417770 0.000000 0.000000 
#    y 0.000000 1.465050 0.000000 
#    z 0.000000 0.000000 1.530300 
# 
# From -- ./inp_files/4394.got.cif
#   From: 2010.03.12/outbox.cif.g09.slc.cpg/sg20_3_cif.got.tgz:4394.got - 2010.04.14 01:38:04.
