data_PCOD8157664
_publ_section_title
;
Structure prediction by ZEFSAII (Michael W. Deem and Ramdas Pophale) SiO2 
 PCOD8157664
Probable space group: P 21 21 21
;
_chemical_formula_sum "Si O2"
_cell_formula_units_Z 24
_cell_length_a 4.931963
_cell_length_b 11.997060
_cell_length_c 16.817690
_cell_angle_alpha 90.000000
_cell_angle_beta 90.000000
_cell_angle_gamma 90.000000
_cell_volume 995.086842
_symmetry_space_group_name_H-M "P 21 21 21"
_symmetry_group_IT_number 19
_symmetry_cell_setting 'orthorhombic'
loop_
_space_group_symop_operation_xyz
x,y,z
1/2-x,-y,1/2+z
1/2+x,1/2-y,-z
-x,1/2+y,1/2-z
loop_
_atom_site_type_symbol
_atom_site_label
_atom_site_fract_x
_atom_site_fract_y
_atom_site_fract_z
Si Si1 0.368891 0.320978 0.999028
Si Si2 0.392991 0.367268 0.535353
Si Si3 0.410382 0.443972 0.839263
Si Si4 0.214955 0.307133 0.369878
Si Si5 0.618082 0.505789 0.089525
Si Si6 0.093233 0.876324 0.755251
O O1 0.508870 0.381672 0.074276
O O2 0.573528 0.221719 0.974779
O O3 0.336314 0.410137 0.928833
O O4 0.420477 0.328901 0.443619
O O5 0.471366 0.268912 0.596359
O O6 0.086409 0.401265 0.554810
O O7 0.592439 0.473341 0.547256
O O8 0.398556 0.577724 0.833950
O O9 0.707334 0.397485 0.818822
O O10 0.210754 0.383619 0.777330
O O11 0.366215 0.242797 0.298187
O O12 0.646909 0.522215 0.183668
#
# Coordination Sequence:
#
# PCOD8157664 Si02
#       6
#     4   4   4   4   4   4
#     4  12  27  48  74 100 143 197 247 287 352 438
#     4  11  23  42  78 108 128 174 249 312 345 402
#     4  12  28  47  70 106 149 192 232 294 365 426
#     4  11  25  45  76 104 143 181 244 300 356 419
#     4  11  24  47  72 107 138 182 248 297 353 416
#     4  11  27  45  70 107 147 186 232 296 369 419
#
# _framework density 24.118497999999999
#
# number of rings (size 3 to 8) (size 9 to 14) (size 15 to 20)
#    0.000    0.667    1.667    6.000    2.333    9.333 
#    0.000    0.000    0.000    0.000    0.000    0.000 
#    0.000    0.000    0.000    0.000    0.000    0.000 
#
# Total GULP energy -297731.426721 kJ/mol
# GULP energy per Si atom -12405.476113 kJ/mol
# Density = 2.406360 g / cm^3
# Si number density = 24.118498 Si / 1000 Ang^3
#
#
#
# Elastic Constant Matrix: (Units=GPa)
#
#
# Indices 1 2 3 4 5 6 
#
# 1 56.9239 -6.3177 0.1535 0.0000 0.0000 0.0000
# 2 -6.3177 95.3489 5.5828 0.0000 0.0000 0.0000
# 3 0.1535 5.5828 58.9201 0.0000 0.0000 0.0000
# 4 0.0000 0.0000 0.0000 39.3078 0.0000 0.0000
# 5 0.0000 0.0000 0.0000 0.0000 46.0051 0.0000
# 6 0.0000 0.0000 0.0000 0.0000 0.0000 36.3603
#
#
#
# Elastic Compliance Matrix: (Units=1/GPa)
#
#
# Indices 1 2 3 4 5 6 
#
# 1 0.017699 0.001182 -0.000158 0.000000 0.000000 0.000000
# 2 0.001182 0.010625 -0.001010 0.000000 0.000000 0.000000
# 3 -0.000158 -0.001010 0.017068 0.000000 0.000000 0.000000
# 4 0.000000 0.000000 0.000000 0.025440 0.000000 0.000000
# 5 0.000000 0.000000 0.000000 0.000000 0.021737 0.000000
# 6 0.000000 0.000000 0.000000 0.000000 0.000000 0.027502
#
#
# Mechanical properties :
#
#
# Convention : Reuss Voigt Hill
#
# Bulk Modulus (GPa) = 22.01653 23.33669 22.67661
# Shear Modulus (GPa) = 36.98665 38.45294 37.71979
#
# Velocity S-wave (km/s) = 3.92029 3.99724 3.95895
# Velocity P-wave (km/s) = 5.44425 5.56784 5.50639
#
# Compressibility (1/GPa) = 0.04542042
#
# Stress axis : x y z
#
# Youngs Moduli (GPa) = 56.50066 94.11551 58.58839
#
# Poissons Ratio (x) = -0.11124 0.00926
# Poissons Ratio (y) = -0.06678 0.05917
# Poissons Ratio (z) = 0.00893 0.09504
#
# Static dielectric constant tensor:
#      x y z
#    x 4.212580 0.000000 0.000000 
#    y 0.000000 4.318360 0.000000 
#    z 0.000000 0.000000 4.266460 
# 
# 
# High freq. dielectric constant tensor:
#      x y z
#    x 1.963370 0.000000 0.000000 
#    y 0.000000 1.959600 0.000000 
#    z 0.000000 0.000000 1.949930 
# 
# From -- ./inp_files/6405.got.cif
#   From: 2010.03.12/outbox.cif.g09.slc.cpg/sg19_4_cif.got.tgz:6405.got - 2010.04.10 18:59:41.
