data_PCOD8157412
_publ_section_title
;
Structure prediction by ZEFSAII (Michael W. Deem and Ramdas Pophale) SiO2 
 PCOD8157412
Probable space group: P 21 21 21
;
_chemical_formula_sum "Si O2"
_cell_formula_units_Z 32
_cell_length_a 12.823282
_cell_length_b 21.579251
_cell_length_c 5.375923
_cell_angle_alpha 90.000000
_cell_angle_beta 90.000000
_cell_angle_gamma 90.000000
_cell_volume 1487.608322
_symmetry_space_group_name_H-M "P 21 21 21"
_symmetry_group_IT_number 19
_symmetry_cell_setting 'orthorhombic'
loop_
_space_group_symop_operation_xyz
x,y,z
1/2-x,-y,1/2+z
1/2+x,1/2-y,-z
-x,1/2+y,1/2-z
loop_
_atom_site_type_symbol
_atom_site_label
_atom_site_fract_x
_atom_site_fract_y
_atom_site_fract_z
Si Si1 0.154125 0.793043 0.193828
Si Si2 0.370598 0.961957 0.775287
Si Si3 0.830127 0.146656 0.827363
Si Si4 0.230782 0.080248 0.772351
Si Si5 0.792170 0.929442 0.931549
Si Si6 0.453768 0.239021 0.212104
Si Si7 0.316012 0.698721 0.300214
Si Si8 0.601216 0.963478 0.641598
O O1 0.219261 0.852825 0.266521
O O2 0.085282 0.779404 0.437918
O O3 0.233889 0.736546 0.128492
O O4 0.085388 0.804152 0.943323
O O5 0.338514 0.926107 0.522357
O O6 0.495006 0.967673 0.795361
O O7 0.323005 0.030355 0.774118
O O8 0.337958 0.926069 0.023998
O O9 0.770917 0.098355 0.659664
O O10 0.919108 0.191075 0.710909
O O11 0.741359 0.193006 0.934426
O O12 0.893371 0.104752 0.023653
O O13 0.838457 0.871512 0.781863
O O14 0.705907 0.972101 0.800943
O O15 0.891763 0.974356 0.972914
O O16 0.578027 0.237054 0.191066
#
# Coordination Sequence:
#
# PCOD8157412 Si02
#       8
#     4   4   4   4   4   4   4   4
#     4  11  24  44  66  99 129 170 222 269 330 396
#     4  10  24  42  67  95 129 173 217 267 329 382
#     4  10  23  45  60  97 135 165 228 272 319 407
#     4  10  23  46  64  97 132 163 221 277 314 392
#     4  11  22  43  61  97 137 167 226 274 333 392
#     4  11  25  42  69  97 129 179 218 266 338 391
#     4  10  25  42  66  94 135 175 216 281 328 393
#     4  11  24  38  67  94 128 182 212 274 335 395
#
# _framework density 21.511037000000002
#
# number of rings (size 3 to 8) (size 9 to 14) (size 15 to 20)
#    0.000    1.500    2.500    0.750    7.000    0.000 
#    0.000    0.000    0.000    0.000    0.000    0.000 
#    0.000    0.000    0.000    0.000    0.000    0.000 
#
# Total GULP energy -396564.396515 kJ/mol
# GULP energy per Si atom -12392.637391 kJ/mol
# Density = 2.146208 g / cm^3
# Si number density = 21.511037 Si / 1000 Ang^3
#
#
#
# Elastic Constant Matrix: (Units=GPa)
#
#
# Indices 1 2 3 4 5 6 
#
# 1 99.7604 32.6315 25.1289 0.0000 0.0000 0.0000
# 2 32.6315 64.1545 10.2943 0.0000 0.0000 0.0000
# 3 25.1289 10.2943 101.1206 0.0000 0.0000 0.0000
# 4 0.0000 0.0000 0.0000 19.5032 0.0000 0.0000
# 5 0.0000 0.0000 0.0000 0.0000 15.3716 0.0000
# 6 0.0000 0.0000 0.0000 0.0000 0.0000 20.5189
#
#
#
# Elastic Compliance Matrix: (Units=1/GPa)
#
#
# Indices 1 2 3 4 5 6 
#
# 1 0.012629 -0.006018 -0.002526 0.000000 0.000000 0.000000
# 2 -0.006018 0.018714 -0.000410 0.000000 0.000000 0.000000
# 3 -0.002526 -0.000410 0.010559 0.000000 0.000000 0.000000
# 4 0.000000 0.000000 0.000000 0.051274 0.000000 0.000000
# 5 0.000000 0.000000 0.000000 0.000000 0.065055 0.000000
# 6 0.000000 0.000000 0.000000 0.000000 0.000000 0.048735
#
#
# Mechanical properties :
#
#
# Convention : Reuss Voigt Hill
#
# Bulk Modulus (GPa) = 41.67609 44.57166 43.12387
# Shear Modulus (GPa) = 21.47114 24.21080 22.84097
#
# Velocity S-wave (km/s) = 3.16277 3.35850 3.26210
# Velocity P-wave (km/s) = 5.72310 5.98370 5.85485
#
# Compressibility (1/GPa) = 0.02399457
#
# Stress axis : x y z
#
# Youngs Moduli (GPa) = 79.18433 53.43540 94.71029
#
# Poissons Ratio (x) = 0.32159 0.23920
# Poissons Ratio (y) = 0.47655 0.03879
# Poissons Ratio (z) = 0.19999 0.02189
#
# Static dielectric constant tensor:
#      x y z
#    x 3.792110 0.000000 0.000000 
#    y 0.000000 4.207430 0.000000 
#    z 0.000000 0.000000 4.068690 
# 
# 
# High freq. dielectric constant tensor:
#      x y z
#    x 1.839020 0.000000 0.000000 
#    y 0.000000 1.855850 0.000000 
#    z 0.000000 0.000000 1.844760 
# 
# From -- ./inp_files/1254.got.cif
#   From: 2010.03.12/outbox.cif.g09.slc.cpg/sg19_1_cif.got.tgz:1254.got - 2010.04.10 18:59:41.
