data_PCOD8157097
_publ_section_title
;
Structure prediction by ZEFSAII (Michael W. Deem and Ramdas Pophale) SiO2 
 PCOD8157097
Probable space group: P 21 21 21
;
_chemical_formula_sum "Si O2"
_cell_formula_units_Z 28
_cell_length_a 18.417403
_cell_length_b 10.439676
_cell_length_c 6.294767
_cell_angle_alpha 90.000000
_cell_angle_beta 90.000000
_cell_angle_gamma 90.000000
_cell_volume 1210.305679
_symmetry_space_group_name_H-M "P 21 21 21"
_symmetry_group_IT_number 19
_symmetry_cell_setting 'orthorhombic'
loop_
_space_group_symop_operation_xyz
x,y,z
1/2-x,-y,1/2+z
1/2+x,1/2-y,-z
-x,1/2+y,1/2-z
loop_
_atom_site_type_symbol
_atom_site_label
_atom_site_fract_x
_atom_site_fract_y
_atom_site_fract_z
Si Si1 0.428878 0.181599 0.745781
Si Si2 0.185386 0.283847 0.858023
Si Si3 0.842646 0.540239 0.389251
Si Si4 0.765703 0.653065 0.036056
Si Si5 0.468071 0.626679 0.397206
Si Si6 0.824450 0.229868 0.898205
Si Si7 0.453370 0.344903 0.355024
O O1 0.430031 0.306355 0.594915
O O2 0.412812 0.052997 0.607495
O O3 0.505177 0.169989 0.869115
O O4 0.362609 0.188635 0.914785
O O5 0.212891 0.272526 0.615229
O O6 0.119313 0.381892 0.888059
O O7 0.153894 0.143719 0.922780
O O8 0.251859 0.335235 0.004593
O O9 0.838468 0.614912 0.163695
O O10 0.766450 0.462769 0.397496
O O11 0.700351 0.684620 0.199476
O O12 0.495518 0.480826 0.355303
O O13 0.496553 0.727611 0.223993
O O14 0.884327 0.133489 0.802102
#
# Coordination Sequence:
#
# PCOD8157097 Si02
#       7
#     4   4   4   4   4   4   4
#     4  11  24  43  72  98 142 188 238 297 357 427
#     4  11  24  40  65 107 140 184 244 296 357 434
#     4  11  20  33  66 102 136 175 232 289 358 412
#     4  11  19  35  65 104 140 177 228 296 346 425
#     4  11  30  46  72 106 141 196 246 296 371 440
#     4  10  21  43  66 102 138 188 231 288 361 425
#     4  11  26  50  72 103 147 192 243 302 362 437
#
# _framework density 23.134651999999999
#
# number of rings (size 3 to 8) (size 9 to 14) (size 15 to 20)
#    0.000    1.143    4.286    0.857    6.000    2.286 
#    5.143    0.000    0.000    0.000    0.000    0.000 
#    0.000    0.000    0.000    0.000    0.000    0.000 
#
# Total GULP energy -347071.544622 kJ/mol
# GULP energy per Si atom -12395.412308 kJ/mol
# Density = 2.308200 g / cm^3
# Si number density = 23.134652 Si / 1000 Ang^3
#
#
#
# Elastic Constant Matrix: (Units=GPa)
#
#
# Indices 1 2 3 4 5 6 
#
# 1 95.1745 27.8538 37.6890 0.0000 0.0000 0.0000
# 2 27.8538 98.0307 34.9012 0.0000 0.0000 0.0000
# 3 37.6890 34.9012 112.1967 0.0000 0.0000 0.0000
# 4 0.0000 0.0000 0.0000 21.7032 0.0000 0.0000
# 5 0.0000 0.0000 0.0000 0.0000 39.8814 0.0000
# 6 0.0000 0.0000 0.0000 0.0000 0.0000 37.0277
#
#
#
# Elastic Compliance Matrix: (Units=1/GPa)
#
#
# Indices 1 2 3 4 5 6 
#
# 1 0.012574 -0.002327 -0.003500 0.000000 0.000000 0.000000
# 2 -0.002327 0.011902 -0.002921 0.000000 0.000000 0.000000
# 3 -0.003500 -0.002921 0.010997 0.000000 0.000000 0.000000
# 4 0.000000 0.000000 0.000000 0.046076 0.000000 0.000000
# 5 0.000000 0.000000 0.000000 0.000000 0.025074 0.000000
# 6 0.000000 0.000000 0.000000 0.000000 0.000000 0.027007
#
#
# Mechanical properties :
#
#
# Convention : Reuss Voigt Hill
#
# Bulk Modulus (GPa) = 55.62321 56.25445 55.93883
# Shear Modulus (GPa) = 31.82324 33.38633 32.60479
#
# Velocity S-wave (km/s) = 3.71289 3.80298 3.75820
# Velocity P-wave (km/s) = 6.51737 6.60700 6.56234
#
# Compressibility (1/GPa) = 0.01797811
#
# Stress axis : x y z
#
# Youngs Moduli (GPa) = 79.52953 84.02092 90.93191
#
# Poissons Ratio (x) = 0.19548 0.31827
# Poissons Ratio (y) = 0.18503 0.26559
# Poissons Ratio (z) = 0.27836 0.24541
#
# Static dielectric constant tensor:
#      x y z
#    x 4.051940 0.000000 0.000000 
#    y 0.000000 3.708830 0.000000 
#    z 0.000000 0.000000 4.322780 
# 
# 
# High freq. dielectric constant tensor:
#      x y z
#    x 1.905900 0.000000 0.000000 
#    y 0.000000 1.878060 0.000000 
#    z 0.000000 0.000000 1.927430 
# 
# From -- ./inp_files/1929.got.cif
#   From: 2010.03.12/outbox.cif.g09.slc.cpg/sg19_1_cif.got.tgz:1929.got - 2010.04.10 18:59:41.
