data_PCOD8157329
_publ_section_title
;
Structure prediction by ZEFSAII (Michael W. Deem and Ramdas Pophale) SiO2 
 PCOD8157329
Probable space group: P 21 21 21
;
_chemical_formula_sum "Si O2"
_cell_formula_units_Z 32
_cell_length_a 9.356350
_cell_length_b 20.279106
_cell_length_c 8.150690
_cell_angle_alpha 90.000000
_cell_angle_beta 90.000000
_cell_angle_gamma 90.000000
_cell_volume 1546.498989
_symmetry_space_group_name_H-M "P 21 21 21"
_symmetry_group_IT_number 19
_symmetry_cell_setting 'orthorhombic'
loop_
_space_group_symop_operation_xyz
x,y,z
1/2-x,-y,1/2+z
1/2+x,1/2-y,-z
-x,1/2+y,1/2-z
loop_
_atom_site_type_symbol
_atom_site_label
_atom_site_fract_x
_atom_site_fract_y
_atom_site_fract_z
Si Si1 0.224711 0.925918 0.774829
Si Si2 0.790875 0.784727 0.339150
Si Si3 0.796217 0.656257 0.514851
Si Si4 0.670507 0.266613 0.502775
Si Si5 0.517091 0.858431 0.206561
Si Si6 0.938606 0.516986 0.964464
Si Si7 0.007155 0.892968 0.340336
Si Si8 0.041184 0.838685 0.992328
O O1 0.321432 0.881945 0.654703
O O2 0.153412 0.986431 0.682452
O O3 0.095226 0.880727 0.839769
O O4 0.323185 0.947346 0.922949
O O5 0.758880 0.734112 0.487420
O O6 0.862369 0.739690 0.197587
O O7 0.661552 0.819916 0.243956
O O8 0.894682 0.840499 0.412771
O O9 0.665657 0.624152 0.608283
O O10 0.936442 0.643449 0.620383
O O11 0.576744 0.325615 0.434210
O O12 0.604805 0.197816 0.430883
O O13 0.836728 0.283128 0.460509
O O14 0.544379 0.931670 0.129905
O O15 0.027088 0.464720 0.078139
O O16 0.003880 0.888656 0.142336
#
# Coordination Sequence:
#
# PCOD8157329 Si02
#       8
#     4   4   4   4   4   4   4   4
#     4  11  20  37  60  90 113 157 203 256 280 357
#     4  11  23  39  59  90 127 152 195 256 315 362
#     4  11  20  37  63  90 115 152 206 253 308 351
#     4  11  20  37  61  89 118 151 194 248 310 362
#     4  12  22  38  61  89 122 163 198 251 301 365
#     4  11  22  38  60  85 121 161 211 240 292 359
#     4  10  23  38  59  86 120 158 197 248 295 360
#     4  11  20  38  61  89 118 152 194 250 311 350
#
# _framework density 20.691898999999999
#
# number of rings (size 3 to 8) (size 9 to 14) (size 15 to 20)
#    0.000    1.000    5.000    3.000    0.000    1.000 
#    0.000    3.750    0.000    0.000    0.000    0.000 
#    0.000    0.000    0.000    0.000    0.000    0.000 
#
# Total GULP energy -396489.591829 kJ/mol
# GULP energy per Si atom -12390.299745 kJ/mol
# Density = 2.064480 g / cm^3
# Si number density = 20.691899 Si / 1000 Ang^3
#
#
#
# Elastic Constant Matrix: (Units=GPa)
#
#
# Indices 1 2 3 4 5 6 
#
# 1 35.4612 6.4914 16.2768 0.0000 0.0000 0.0000
# 2 6.4914 97.7048 55.9860 0.0000 0.0000 0.0000
# 3 16.2768 55.9860 89.5729 0.0000 0.0000 0.0000
# 4 0.0000 0.0000 0.0000 51.8221 0.0000 0.0000
# 5 0.0000 0.0000 0.0000 0.0000 18.0127 0.0000
# 6 0.0000 0.0000 0.0000 0.0000 0.0000 28.9670
#
#
#
# Elastic Compliance Matrix: (Units=1/GPa)
#
#
# Indices 1 2 3 4 5 6 
#
# 1 0.030972 0.001819 -0.006765 0.000000 0.000000 0.000000
# 2 0.001819 0.016053 -0.010364 0.000000 0.000000 0.000000
# 3 -0.006765 -0.010364 0.018871 0.000000 0.000000 0.000000
# 4 0.000000 0.000000 0.000000 0.019297 0.000000 0.000000
# 5 0.000000 0.000000 0.000000 0.000000 0.055516 0.000000
# 6 0.000000 0.000000 0.000000 0.000000 0.000000 0.034522
#
#
# Mechanical properties :
#
#
# Convention : Reuss Voigt Hill
#
# Bulk Modulus (GPa) = 28.34823 42.24971 35.29897
# Shear Modulus (GPa) = 22.97689 29.35933 26.16811
#
# Velocity S-wave (km/s) = 3.33593 3.77089 3.56006
# Velocity P-wave (km/s) = 5.34488 6.27872 5.83053
#
# Compressibility (1/GPa) = 0.03527557
#
# Stress axis : x y z
#
# Youngs Moduli (GPa) = 32.28725 62.29456 52.99091
#
# Poissons Ratio (x) = -0.11328 0.35847
# Poissons Ratio (y) = -0.05872 0.54920
# Poissons Ratio (z) = 0.21841 0.64562
#
# Static dielectric constant tensor:
#      x y z
#    x 3.580210 0.000000 0.000000 
#    y 0.000000 4.179680 0.000000 
#    z 0.000000 0.000000 3.913910 
# 
# 
# High freq. dielectric constant tensor:
#      x y z
#    x 1.779730 0.000000 0.000000 
#    y 0.000000 1.819680 0.000000 
#    z 0.000000 0.000000 1.815480 
# 
# From -- ./inp_files/3137.got.cif
#   From: 2010.03.12/outbox.cif.g09.slc.cpg/sg19_2_cif.got.tgz:3137.got - 2010.04.10 18:59:41.
