data_PCOD8157285
_publ_section_title
;
Structure prediction by ZEFSAII (Michael W. Deem and Ramdas Pophale) SiO2 
 PCOD8157285
Probable space group: P 21 21 21
;
_chemical_formula_sum "Si O2"
_cell_formula_units_Z 28
_cell_length_a 4.948788
_cell_length_b 18.637584
_cell_length_c 12.234918
_cell_angle_alpha 90.000000
_cell_angle_beta 90.000000
_cell_angle_gamma 90.000000
_cell_volume 1128.468723
_symmetry_space_group_name_H-M "P 21 21 21"
_symmetry_group_IT_number 19
_symmetry_cell_setting 'orthorhombic'
loop_
_space_group_symop_operation_xyz
x,y,z
1/2-x,-y,1/2+z
1/2+x,1/2-y,-z
-x,1/2+y,1/2-z
loop_
_atom_site_type_symbol
_atom_site_label
_atom_site_fract_x
_atom_site_fract_y
_atom_site_fract_z
Si Si1 0.956279 0.069573 0.428091
Si Si2 0.091697 0.608954 0.658700
Si Si3 0.463714 0.287696 0.463786
Si Si4 0.616574 0.959434 0.561974
Si Si5 0.228455 0.248918 0.239362
Si Si6 0.616547 0.531856 0.741153
Si Si7 0.716666 0.151288 0.236595
O O1 0.081930 0.135909 0.496044
O O2 0.737935 0.103598 0.345184
O O3 0.825772 0.017568 0.516958
O O4 0.181824 0.029451 0.351682
O O5 0.830818 0.597083 0.737266
O O6 0.988950 0.583713 0.539594
O O7 0.199035 0.690694 0.649033
O O8 0.320133 0.558378 0.708624
O O9 0.733759 0.239458 0.449381
O O10 0.291407 0.290353 0.352570
O O11 0.767893 0.900761 0.633618
O O12 0.388048 0.999196 0.635941
O O13 0.414380 0.179877 0.228390
O O14 0.925362 0.218859 0.230727
#
# Coordination Sequence:
#
# PCOD8157285 Si02
#       7
#     4   4   4   4   4   4   4
#     4  10  22  43  69  99 136 176 232 289 347 411
#     4  11  25  44  70 102 137 184 233 286 346 416
#     4  12  23  40  68 101 131 182 225 286 358 415
#     4  10  25  45  72 100 138 188 233 285 357 421
#     4  12  24  44  66  99 144 176 230 287 342 424
#     4  10  24  44  68 103 139 178 234 293 343 412
#     4  11  25  44  67 100 139 180 227 290 349 413
#
# _framework density 24.812384000000002
#
# number of rings (size 3 to 8) (size 9 to 14) (size 15 to 20)
#    0.000    1.143    2.857    1.714    0.000   17.143 
#    0.000    0.000    0.000    0.000    0.000    0.000 
#    0.000    0.000    0.000    0.000    0.000    0.000 
#
# Total GULP energy -347090.086718 kJ/mol
# GULP energy per Si atom -12396.074526 kJ/mol
# Density = 2.475591 g / cm^3
# Si number density = 24.812384 Si / 1000 Ang^3
#
#
#
# Elastic Constant Matrix: (Units=GPa)
#
#
# Indices 1 2 3 4 5 6 
#
# 1 60.9700 3.0420 15.3623 0.0000 0.0000 0.0000
# 2 3.0420 109.8310 40.8482 0.0000 0.0000 0.0000
# 3 15.3623 40.8482 110.8484 0.0000 0.0000 0.0000
# 4 0.0000 0.0000 0.0000 51.2998 0.0000 0.0000
# 5 0.0000 0.0000 0.0000 0.0000 12.1701 0.0000
# 6 0.0000 0.0000 0.0000 0.0000 0.0000 35.8030
#
#
#
# Elastic Compliance Matrix: (Units=1/GPa)
#
#
# Indices 1 2 3 4 5 6 
#
# 1 0.017016 0.000470 -0.002531 0.000000 0.000000 0.000000
# 2 0.000470 0.010564 -0.003958 0.000000 0.000000 0.000000
# 3 -0.002531 -0.003958 0.010831 0.000000 0.000000 0.000000
# 4 0.000000 0.000000 0.000000 0.019493 0.000000 0.000000
# 5 0.000000 0.000000 0.000000 0.000000 0.082169 0.000000
# 6 0.000000 0.000000 0.000000 0.000000 0.000000 0.027931
#
#
# Mechanical properties :
#
#
# Convention : Reuss Voigt Hill
#
# Bulk Modulus (GPa) = 37.91906 44.46158 41.19032
# Shear Modulus (GPa) = 26.47853 34.68105 30.57979
#
# Velocity S-wave (km/s) = 3.27027 3.74268 3.51442
# Velocity P-wave (km/s) = 5.43829 6.05268 5.75369
#
# Compressibility (1/GPa) = 0.02637196
#
# Stress axis : x y z
#
# Youngs Moduli (GPa) = 58.76856 94.66169 92.32999
#
# Poissons Ratio (x) = -0.04451 0.23373
# Poissons Ratio (y) = -0.02763 0.36544
# Poissons Ratio (z) = 0.14877 0.37467
#
# Static dielectric constant tensor:
#      x y z
#    x 4.020980 0.000000 0.000000 
#    y 0.000000 4.705000 0.000000 
#    z 0.000000 0.000000 4.696290 
# 
# 
# High freq. dielectric constant tensor:
#      x y z
#    x 1.966790 0.000000 0.000000 
#    y 0.000000 2.001840 0.000000 
#    z 0.000000 0.000000 1.990580 
# 
# From -- ./inp_files/4503.got.cif
#   From: 2010.03.12/outbox.cif.g09.slc.cpg/sg19_3_cif.got.tgz:4503.got - 2010.04.10 18:59:41.
