data_PCOD8157159
_publ_section_title
;
Structure prediction by ZEFSAII (Michael W. Deem and Ramdas Pophale) SiO2 
 PCOD8157159
Probable space group: P 21 21 21
;
_chemical_formula_sum "Si O2"
_cell_formula_units_Z 28
_cell_length_a 9.197470
_cell_length_b 7.549126
_cell_length_c 18.411262
_cell_angle_alpha 90.000000
_cell_angle_beta 90.000000
_cell_angle_gamma 90.000000
_cell_volume 1278.346575
_symmetry_space_group_name_H-M "P 21 21 21"
_symmetry_group_IT_number 19
_symmetry_cell_setting 'orthorhombic'
loop_
_space_group_symop_operation_xyz
x,y,z
1/2-x,-y,1/2+z
1/2+x,1/2-y,-z
-x,1/2+y,1/2-z
loop_
_atom_site_type_symbol
_atom_site_label
_atom_site_fract_x
_atom_site_fract_y
_atom_site_fract_z
Si Si1 0.800636 0.166249 0.876889
Si Si2 0.356962 0.233324 0.742182
Si Si3 0.223177 0.211058 0.422283
Si Si4 0.953678 0.860931 0.952763
Si Si5 0.490111 0.507604 0.642268
Si Si6 0.183532 0.558016 0.788713
Si Si7 0.627476 0.455457 0.348300
O O1 0.821759 0.373404 0.894796
O O2 0.922725 0.052984 0.918531
O O3 0.640762 0.099572 0.902966
O O4 0.815912 0.142616 0.790678
O O5 0.436789 0.318659 0.673038
O O6 0.279500 0.381426 0.791264
O O7 0.475349 0.136468 0.791021
O O8 0.243191 0.088189 0.714079
O O9 0.372978 0.160175 0.462800
O O10 0.127605 0.346010 0.470259
O O11 0.128706 0.031498 0.409090
O O12 0.255996 0.299192 0.345069
O O13 0.887858 0.710239 0.901275
O O14 0.021918 0.497791 0.808550
#
# Coordination Sequence:
#
# PCOD8157159 Si02
#       7
#     4   4   4   4   4   4   4
#     4  11  23  42  67 104 134 175 224 282 335 407
#     4  11  21  38  65 104 136 171 222 286 330 402
#     4  11  25  45  70  95 141 187 223 279 343 406
#     4  11  25  47  66  96 137 183 220 280 337 410
#     4  11  22  38  64 100 138 175 221 273 344 382
#     4  10  22  39  69 101 135 174 225 284 341 393
#     4  11  22  39  69  96 137 171 223 278 336 398
#
# _framework density 21.903295
#
# number of rings (size 3 to 8) (size 9 to 14) (size 15 to 20)
#    0.000    1.143    2.857    5.143    6.000    0.000 
#    2.571    0.000    0.000    0.000    0.000    0.000 
#    0.000    0.000    0.000    0.000    0.000    0.000 
#
# Total GULP energy -347340.335721 kJ/mol
# GULP energy per Si atom -12405.011990 kJ/mol
# Density = 2.185344 g / cm^3
# Si number density = 21.903295 Si / 1000 Ang^3
#
#
#
# Elastic Constant Matrix: (Units=GPa)
#
#
# Indices 1 2 3 4 5 6 
#
# 1 115.7604 12.4565 -5.9670 0.0000 0.0000 0.0000
# 2 12.4565 82.5897 -23.6234 0.0000 0.0000 0.0000
# 3 -5.9670 -23.6234 22.3462 0.0000 0.0000 0.0000
# 4 0.0000 0.0000 0.0000 20.5664 0.0000 0.0000
# 5 0.0000 0.0000 0.0000 0.0000 34.2281 0.0000
# 6 0.0000 0.0000 0.0000 0.0000 0.0000 32.9808
#
#
#
# Elastic Compliance Matrix: (Units=1/GPa)
#
#
# Indices 1 2 3 4 5 6 
#
# 1 0.008810 -0.000940 0.001359 0.000000 0.000000 0.000000
# 2 -0.000940 0.017457 0.018203 0.000000 0.000000 0.000000
# 3 0.001359 0.018203 0.064357 0.000000 0.000000 0.000000
# 4 0.000000 0.000000 0.000000 0.048623 0.000000 0.000000
# 5 0.000000 0.000000 0.000000 0.000000 0.029216 0.000000
# 6 0.000000 0.000000 0.000000 0.000000 0.000000 0.030321
#
#
# Mechanical properties :
#
#
# Convention : Reuss Voigt Hill
#
# Bulk Modulus (GPa) = 7.82067 20.71429 14.26748
# Shear Modulus (GPa) = 24.49045 33.41040 28.95043
#
# Velocity S-wave (km/s) = 3.34745 3.90982 3.63952
# Velocity P-wave (km/s) = 4.30336 5.46443 4.91828
#
# Compressibility (1/GPa) = 0.12786624
#
# Stress axis : x y z
#
# Youngs Moduli (GPa) = 113.51095 57.28510 15.53841
#
# Poissons Ratio (x) = 0.05385 -0.02111
# Poissons Ratio (y) = 0.10671 -0.28285
# Poissons Ratio (z) = -0.15421 -1.04277
#
# Static dielectric constant tensor:
#      x y z
#    x 4.342430 0.000000 0.000000 
#    y 0.000000 3.899510 0.000000 
#    z 0.000000 0.000000 3.676550 
# 
# 
# High freq. dielectric constant tensor:
#      x y z
#    x 1.884380 0.000000 0.000000 
#    y 0.000000 1.857760 0.000000 
#    z 0.000000 0.000000 1.836620 
# 
# From -- ./inp_files/4132.got.cif
#   From: 2010.03.12/outbox.cif.g09.slc.cpg/sg19_3_cif.got.tgz:4132.got - 2010.04.10 18:59:41.
