data_PCOD8157082
_publ_section_title
;
Structure prediction by ZEFSAII (Michael W. Deem and Ramdas Pophale) SiO2 
 PCOD8157082
Probable space group: P 21 21 21
;
_chemical_formula_sum "Si O2"
_cell_formula_units_Z 32
_cell_length_a 14.153262
_cell_length_b 9.220892
_cell_length_c 11.998879
_cell_angle_alpha 90.000000
_cell_angle_beta 90.000000
_cell_angle_gamma 90.000000
_cell_volume 1565.922107
_symmetry_space_group_name_H-M "P 21 21 21"
_symmetry_group_IT_number 19
_symmetry_cell_setting 'orthorhombic'
loop_
_space_group_symop_operation_xyz
x,y,z
1/2-x,-y,1/2+z
1/2+x,1/2-y,-z
-x,1/2+y,1/2-z
loop_
_atom_site_type_symbol
_atom_site_label
_atom_site_fract_x
_atom_site_fract_y
_atom_site_fract_z
Si Si1 0.271312 0.107393 0.893359
Si Si2 0.057613 0.881491 0.537074
Si Si3 0.095076 0.591825 0.884287
Si Si4 0.584503 0.906874 0.366182
Si Si5 0.585141 0.543508 0.797363
Si Si6 0.936934 0.788643 0.335176
Si Si7 0.596363 0.579861 0.055267
Si Si8 0.774660 0.893026 0.485094
O O1 0.328519 0.105163 0.777136
O O2 0.187022 0.992873 0.887321
O O3 0.341106 0.063254 0.994342
O O4 0.228466 0.265525 0.922181
O O5 0.067552 0.767457 0.637987
O O6 0.006101 0.787376 0.441123
O O7 0.002316 0.023910 0.572030
O O8 0.109279 0.542233 0.757517
O O9 0.086450 0.762169 0.894349
O O10 0.181699 0.533798 0.956783
O O11 0.671298 0.941224 0.447641
O O12 0.495064 0.989125 0.413968
O O13 0.576615 0.370716 0.784411
O O14 0.484233 0.610755 0.759811
O O15 0.608607 0.588441 0.922724
O O16 0.835147 0.847446 0.375848
#
# Coordination Sequence:
#
# PCOD8157082 Si02
#       8
#     4   4   4   4   4   4   4   4
#     4  10  23  42  67  91 125 180 208 265 332 389
#     4   9  20  44  63  89 131 172 212 257 335 389
#     4  11  25  39  65  95 128 168 212 273 321 389
#     4  11  23  43  67  87 130 181 207 263 328 390
#     4  11  24  40  72  98 129 173 221 273 328 382
#     4  10  21  42  66  95 130 171 214 275 320 383
#     4  12  25  41  64 102 133 160 228 276 311 393
#     4  10  23  45  64  91 134 173 216 260 337 397
#
# _framework density 20.435243
#
# number of rings (size 3 to 8) (size 9 to 14) (size 15 to 20)
#    0.000    1.500    2.500    1.500    7.000    4.000 
#    0.000    0.000    0.000    0.000    0.000    0.000 
#    0.000    0.000    0.000    0.000    0.000    0.000 
#
# Total GULP energy -396867.545855 kJ/mol
# GULP energy per Si atom -12402.110808 kJ/mol
# Density = 2.038873 g / cm^3
# Si number density = 20.435243 Si / 1000 Ang^3
#
#
#
# Elastic Constant Matrix: (Units=GPa)
#
#
# Indices 1 2 3 4 5 6 
#
# 1 128.4661 42.5893 24.8017 0.0000 0.0000 0.0000
# 2 42.5893 56.3740 22.5811 0.0000 0.0000 0.0000
# 3 24.8017 22.5811 93.8684 0.0000 0.0000 0.0000
# 4 0.0000 0.0000 0.0000 32.3473 0.0000 0.0000
# 5 0.0000 0.0000 0.0000 0.0000 18.5772 0.0000
# 6 0.0000 0.0000 0.0000 0.0000 0.0000 6.6908
#
#
#
# Elastic Compliance Matrix: (Units=1/GPa)
#
#
# Indices 1 2 3 4 5 6 
#
# 1 0.010462 -0.007521 -0.000955 0.000000 0.000000 0.000000
# 2 -0.007521 0.025037 -0.004036 0.000000 0.000000 0.000000
# 3 -0.000955 -0.004036 0.011876 0.000000 0.000000 0.000000
# 4 0.000000 0.000000 0.000000 0.030914 0.000000 0.000000
# 5 0.000000 0.000000 0.000000 0.000000 0.053829 0.000000
# 6 0.000000 0.000000 0.000000 0.000000 0.000000 0.149459
#
#
# Mechanical properties :
#
#
# Convention : Reuss Voigt Hill
#
# Bulk Modulus (GPa) = 44.73910 50.96139 47.85025
# Shear Modulus (GPa) = 15.92086 24.10550 20.01318
#
# Velocity S-wave (km/s) = 2.79424 3.43826 3.13285
# Velocity P-wave (km/s) = 5.68780 6.38391 6.04588
#
# Compressibility (1/GPa) = 0.02235181
#
# Stress axis : x y z
#
# Youngs Moduli (GPa) = 95.58427 39.94026 84.20083
#
# Poissons Ratio (x) = 0.30040 0.08040
# Poissons Ratio (y) = 0.71892 0.33981
# Poissons Ratio (z) = 0.09127 0.16119
#
# Static dielectric constant tensor:
#      x y z
#    x 3.855160 0.000000 0.000000 
#    y 0.000000 3.606830 0.000000 
#    z 0.000000 0.000000 3.705650 
# 
# 
# High freq. dielectric constant tensor:
#      x y z
#    x 1.810670 0.000000 0.000000 
#    y 0.000000 1.794600 0.000000 
#    z 0.000000 0.000000 1.798580 
# 
# From -- ./inp_files/5258.got.cif
#   From: 2010.03.12/outbox.cif.g09.slc.cpg/sg19_3_cif.got.tgz:5258.got - 2010.04.10 18:59:41.
