data_PCOD8157627
_publ_section_title
;
Structure prediction by ZEFSAII (Michael W. Deem and Ramdas Pophale) SiO2 
 PCOD8157627
Probable space group: P 21 21 21
;
_chemical_formula_sum "Si O2"
_cell_formula_units_Z 28
_cell_length_a 12.692552
_cell_length_b 6.544516
_cell_length_c 13.646585
_cell_angle_alpha 90.000000
_cell_angle_beta 90.000000
_cell_angle_gamma 90.000000
_cell_volume 1133.575549
_symmetry_space_group_name_H-M "P 21 21 21"
_symmetry_group_IT_number 19
_symmetry_cell_setting 'orthorhombic'
loop_
_space_group_symop_operation_xyz
x,y,z
1/2-x,-y,1/2+z
1/2+x,1/2-y,-z
-x,1/2+y,1/2-z
loop_
_atom_site_type_symbol
_atom_site_label
_atom_site_fract_x
_atom_site_fract_y
_atom_site_fract_z
Si Si1 0.831994 0.300073 0.082475
Si Si2 0.596419 0.913046 0.177613
Si Si3 0.129975 0.242275 0.656985
Si Si4 0.012294 0.559130 0.113306
Si Si5 0.260643 0.089943 0.264232
Si Si6 0.772398 0.021729 0.482348
Si Si7 0.590659 0.088043 0.697796
O O1 0.942637 0.402749 0.048094
O O2 0.763896 0.475514 0.133558
O O3 0.849677 0.104412 0.152520
O O4 0.769004 0.213776 0.988140
O O5 0.478603 0.880744 0.134626
O O6 0.626422 0.703319 0.231999
O O7 0.609046 0.104907 0.251110
O O8 0.681454 0.920626 0.088819
O O9 0.223898 0.083154 0.681953
O O10 0.172049 0.348524 0.557210
O O11 0.968092 0.790099 0.109494
O O12 0.135203 0.544292 0.094713
O O13 0.000494 0.485770 0.226801
O O14 0.171949 0.261529 0.244400
#
# Coordination Sequence:
#
# PCOD8157627 Si02
#       7
#     4   4   4   4   4   4   4
#     4  11  24  44  69 105 148 183 243 308 370 441
#     4  12  26  50  77 108 156 200 256 310 381 465
#     4  12  27  49  78 110 149 211 253 311 388 460
#     4  11  25  43  74 103 144 195 242 307 374 443
#     4  11  22  46  76  99 147 197 241 304 370 448
#     4  12  28  47  72 115 152 189 263 314 375 454
#     4  11  22  45  72 106 138 189 240 302 374 441
#
# _framework density 24.700603000000001
#
# number of rings (size 3 to 8) (size 9 to 14) (size 15 to 20)
#    0.000    0.571    5.714    1.714    4.000    2.286 
#    7.714    0.000    0.000    0.000    0.000    0.000 
#    0.000    0.000    0.000    0.000    0.000    0.000 
#
# Total GULP energy -346943.150867 kJ/mol
# GULP energy per Si atom -12390.826817 kJ/mol
# Density = 2.464438 g / cm^3
# Si number density = 24.700603 Si / 1000 Ang^3
#
#
#
# Elastic Constant Matrix: (Units=GPa)
#
#
# Indices 1 2 3 4 5 6 
#
# 1 100.6888 22.0951 12.4874 0.0000 0.0000 0.0000
# 2 22.0951 102.4914 9.6175 0.0000 0.0000 0.0000
# 3 12.4874 9.6175 56.6757 0.0000 0.0000 0.0000
# 4 0.0000 0.0000 0.0000 23.2312 0.0000 0.0000
# 5 0.0000 0.0000 0.0000 0.0000 37.8136 0.0000
# 6 0.0000 0.0000 0.0000 0.0000 0.0000 43.5852
#
#
#
# Elastic Compliance Matrix: (Units=1/GPa)
#
#
# Indices 1 2 3 4 5 6 
#
# 1 0.010640 -0.002107 -0.001987 0.000000 0.000000 0.000000
# 2 -0.002107 0.010332 -0.001289 0.000000 0.000000 0.000000
# 3 -0.001987 -0.001289 0.018301 0.000000 0.000000 0.000000
# 4 0.000000 0.000000 0.000000 0.043046 0.000000 0.000000
# 5 0.000000 0.000000 0.000000 0.000000 0.026445 0.000000
# 6 0.000000 0.000000 0.000000 0.000000 0.000000 0.022944
#
#
# Mechanical properties :
#
#
# Convention : Reuss Voigt Hill
#
# Bulk Modulus (GPa) = 35.07916 38.69510 36.88713
# Shear Modulus (GPa) = 32.89976 35.30305 34.10140
#
# Velocity S-wave (km/s) = 3.65354 3.78463 3.71966
# Velocity P-wave (km/s) = 5.65954 5.89894 5.78048
#
# Compressibility (1/GPa) = 0.02850696
#
# Stress axis : x y z
#
# Youngs Moduli (GPa) = 93.98106 96.78494 54.64261
#
# Poissons Ratio (x) = 0.20397 0.10856
# Poissons Ratio (y) = 0.19806 0.07043
# Poissons Ratio (z) = 0.18672 0.12475
#
# Static dielectric constant tensor:
#      x y z
#    x 4.616120 0.000000 0.000000 
#    y 0.000000 4.758340 0.000000 
#    z 0.000000 0.000000 4.212820 
# 
# 
# High freq. dielectric constant tensor:
#      x y z
#    x 1.996770 0.000000 0.000000 
#    y 0.000000 1.997650 0.000000 
#    z 0.000000 0.000000 1.956510 
# 
# From -- ./inp_files/6238.got.cif
#   From: 2010.03.12/outbox.cif.g09.slc.cpg/sg19_4_cif.got.tgz:6238.got - 2010.04.10 18:59:41.
