data_PCOD8157538
_publ_section_title
;
Structure prediction by ZEFSAII (Michael W. Deem and Ramdas Pophale) SiO2 
 PCOD8157538
Probable space group: P 21 21 21
;
_chemical_formula_sum "Si O2"
_cell_formula_units_Z 20
_cell_length_a 4.928727
_cell_length_b 29.708610
_cell_length_c 5.008216
_cell_angle_alpha 90.000000
_cell_angle_beta 90.000000
_cell_angle_gamma 90.000000
_cell_volume 733.331174
_symmetry_space_group_name_H-M "P 21 21 21"
_symmetry_group_IT_number 19
_symmetry_cell_setting 'orthorhombic'
loop_
_space_group_symop_operation_xyz
x,y,z
1/2-x,-y,1/2+z
1/2+x,1/2-y,-z
-x,1/2+y,1/2-z
loop_
_atom_site_type_symbol
_atom_site_label
_atom_site_fract_x
_atom_site_fract_y
_atom_site_fract_z
Si Si1 0.590111 0.162125 0.343476
Si Si2 0.143321 0.243441 0.835624
Si Si3 0.564198 0.851795 0.328510
Si Si4 0.732096 0.029503 0.385426
Si Si5 0.221932 0.088583 0.463580
O O1 0.535698 0.216095 0.357354
O O2 0.678976 0.144252 0.631555
O O3 0.318291 0.132380 0.284016
O O4 0.823233 0.150436 0.127193
O O5 0.095951 0.193277 0.728859
O O6 0.460318 0.250224 0.896939
O O7 0.370512 0.894361 0.261063
O O8 0.462032 0.052971 0.496285
O O9 0.965221 0.065860 0.317066
O O10 0.841546 0.996298 0.614279
#
# Coordination Sequence:
#
# PCOD8157538 Si02
#       5
#     4   4   4   4   4
#     4  11  28  47  77 115 159 209 263 317 377 461
#     4  10  26  46  72 108 160 208 256 306 374 440
#     4  11  28  47  77 115 159 209 263 317 377 461
#     4  12  30  54  81 114 152 198 253 332 412 482
#     4  12  28  52  83 116 154 202 263 324 396 472
#
# _framework density 27.272808999999999
#
# number of rings (size 3 to 8) (size 9 to 14) (size 15 to 20)
#    0.000    0.800    2.000    1.200   16.800    4.800 
#    0.000    0.000    0.000    0.000    0.000    0.000 
#    0.000    0.000    0.000    0.000    0.000    0.000 
#
# Total GULP energy -247971.869484 kJ/mol
# GULP energy per Si atom -12398.593474 kJ/mol
# Density = 2.721073 g / cm^3
# Si number density = 27.272809 Si / 1000 Ang^3
#
#
#
# Elastic Constant Matrix: (Units=GPa)
#
#
# Indices 1 2 3 4 5 6 
#
# 1 106.2852 23.6008 -10.9014 0.0000 0.0000 0.0000
# 2 23.6008 119.9036 5.8338 0.0000 0.0000 0.0000
# 3 -10.9014 5.8338 45.8736 0.0000 0.0000 0.0000
# 4 0.0000 0.0000 0.0000 37.1728 0.0000 0.0000
# 5 0.0000 0.0000 0.0000 0.0000 17.9498 0.0000
# 6 0.0000 0.0000 0.0000 0.0000 0.0000 53.7301
#
#
#
# Elastic Compliance Matrix: (Units=1/GPa)
#
#
# Indices 1 2 3 4 5 6 
#
# 1 0.010157 -0.002130 0.002685 0.000000 0.000000 0.000000
# 2 -0.002130 0.008839 -0.001630 0.000000 0.000000 0.000000
# 3 0.002685 -0.001630 0.022644 0.000000 0.000000 0.000000
# 4 0.000000 0.000000 0.000000 0.026901 0.000000 0.000000
# 5 0.000000 0.000000 0.000000 0.000000 0.055711 0.000000
# 6 0.000000 0.000000 0.000000 0.000000 0.000000 0.018612
#
#
# Mechanical properties :
#
#
# Convention : Reuss Voigt Hill
#
# Bulk Modulus (GPa) = 25.32354 34.34764 29.83559
# Shear Modulus (GPa) = 31.61006 38.67249 35.14127
#
# Velocity S-wave (km/s) = 3.40815 3.76970 3.59348
# Velocity P-wave (km/s) = 4.97923 5.61863 5.30856
#
# Compressibility (1/GPa) = 0.03948896
#
# Stress axis : x y z
#
# Youngs Moduli (GPa) = 98.45502 113.14063 44.16122
#
# Poissons Ratio (x) = 0.24097 -0.11855
# Poissons Ratio (y) = 0.20969 0.07199
# Poissons Ratio (z) = -0.26431 0.18443
#
# Static dielectric constant tensor:
#      x y z
#    x 4.959510 0.000000 0.000000 
#    y 0.000000 5.478990 0.000000 
#    z 0.000000 0.000000 4.360830 
# 
# 
# High freq. dielectric constant tensor:
#      x y z
#    x 2.114090 0.000000 0.000000 
#    y 0.000000 2.115630 0.000000 
#    z 0.000000 0.000000 2.070680 
# 
# From -- ./inp_files/197.got.cif
#   From: 2010.03.12/outbox.cif.g09.slc.cpg/sg19_1_cif.got.tgz:197.got - 2010.04.10 18:59:41.
