data_PCOD8157502
_publ_section_title
;
Structure prediction by ZEFSAII (Michael W. Deem and Ramdas Pophale) SiO2 
 PCOD8157502
Probable space group: P 21 21 21
;
_chemical_formula_sum "Si O2"
_cell_formula_units_Z 28
_cell_length_a 7.826840
_cell_length_b 13.014113
_cell_length_c 12.187270
_cell_angle_alpha 90.000000
_cell_angle_beta 90.000000
_cell_angle_gamma 90.000000
_cell_volume 1241.387768
_symmetry_space_group_name_H-M "P 21 21 21"
_symmetry_group_IT_number 19
_symmetry_cell_setting 'orthorhombic'
loop_
_space_group_symop_operation_xyz
x,y,z
1/2-x,-y,1/2+z
1/2+x,1/2-y,-z
-x,1/2+y,1/2-z
loop_
_atom_site_type_symbol
_atom_site_label
_atom_site_fract_x
_atom_site_fract_y
_atom_site_fract_z
Si Si1 0.172103 0.058783 0.237493
Si Si2 0.869013 0.900686 0.237282
Si Si3 0.469048 0.504403 0.204966
Si Si4 0.822169 0.786749 0.864881
Si Si5 0.430851 0.789475 0.910763
Si Si6 0.423596 0.794390 0.364899
Si Si7 0.210094 0.239224 0.093999
O O1 0.366142 0.020726 0.216677
O O2 0.169686 0.114966 0.356639
O O3 0.114093 0.140216 0.144523
O O4 0.041924 0.964922 0.231151
O O5 0.864864 0.817922 0.139755
O O6 0.869556 0.843175 0.355162
O O7 0.698556 0.970855 0.224849
O O8 0.426401 0.606800 0.136949
O O9 0.523172 0.413653 0.121157
O O10 0.627366 0.811634 0.888078
O O11 0.831877 0.726211 0.750218
O O12 0.898904 0.713452 0.959094
O O13 0.299527 0.759795 0.462723
O O14 0.593498 0.726208 0.370576
#
# Coordination Sequence:
#
# PCOD8157502 Si02
#       7
#     4   4   4   4   4   4   4
#     4  11  22  47  72 107 142 188 241 289 365 427
#     4  10  24  47  71 107 139 192 241 291 359 427
#     4  11  24  45  72 105 143 180 243 293 352 434
#     4  12  25  49  70 109 146 193 239 304 361 432
#     4  11  26  45  76 101 152 188 242 299 366 426
#     4  11  26  47  70 104 146 185 242 296 365 427
#     4  10  25  44  71 105 144 186 234 300 354 433
#
# _framework density 22.555402999999998
#
# number of rings (size 3 to 8) (size 9 to 14) (size 15 to 20)
#    0.000    1.143    2.857    1.714   12.000    0.000 
#    7.714    0.000    0.000    0.000    0.000    0.000 
#    0.000    0.000    0.000    0.000    0.000    0.000 
#
# Total GULP energy -347247.994055 kJ/mol
# GULP energy per Si atom -12401.714073 kJ/mol
# Density = 2.250407 g / cm^3
# Si number density = 22.555403 Si / 1000 Ang^3
#
#
#
# Elastic Constant Matrix: (Units=GPa)
#
#
# Indices 1 2 3 4 5 6 
#
# 1 122.3381 22.7134 19.5837 0.0000 0.0000 0.0000
# 2 22.7134 74.1796 20.0530 0.0000 0.0000 0.0000
# 3 19.5837 20.0530 136.9614 0.0000 0.0000 0.0000
# 4 0.0000 0.0000 0.0000 19.8449 0.0000 0.0000
# 5 0.0000 0.0000 0.0000 0.0000 28.3627 0.0000
# 6 0.0000 0.0000 0.0000 0.0000 0.0000 39.4668
#
#
#
# Elastic Compliance Matrix: (Units=1/GPa)
#
#
# Indices 1 2 3 4 5 6 
#
# 1 0.008771 -0.002443 -0.000896 0.000000 0.000000 0.000000
# 2 -0.002443 0.014717 -0.001805 0.000000 0.000000 0.000000
# 3 -0.000896 -0.001805 0.007694 0.000000 0.000000 0.000000
# 4 0.000000 0.000000 0.000000 0.050391 0.000000 0.000000
# 5 0.000000 0.000000 0.000000 0.000000 0.035258 0.000000
# 6 0.000000 0.000000 0.000000 0.000000 0.000000 0.025338
#
#
# Mechanical properties :
#
#
# Convention : Reuss Voigt Hill
#
# Bulk Modulus (GPa) = 47.86601 50.90883 49.38742
# Shear Modulus (GPa) = 31.36322 35.61014 33.48668
#
# Velocity S-wave (km/s) = 3.73298 3.97770 3.85728
# Velocity P-wave (km/s) = 6.31251 6.61179 6.46388
#
# Compressibility (1/GPa) = 0.02089165
#
# Stress axis : x y z
#
# Youngs Moduli (GPa) = 114.00937 67.94866 129.97414
#
# Poissons Ratio (x) = 0.16602 0.11651
# Poissons Ratio (y) = 0.27857 0.23465
# Poissons Ratio (z) = 0.10220 0.12267
#
# Static dielectric constant tensor:
#      x y z
#    x 4.142660 0.000000 0.000000 
#    y 0.000000 4.172880 0.000000 
#    z 0.000000 0.000000 3.894600 
# 
# 
# High freq. dielectric constant tensor:
#      x y z
#    x 1.904810 0.000000 0.000000 
#    y 0.000000 1.898450 0.000000 
#    z 0.000000 0.000000 1.864700 
# 
# From -- ./inp_files/4621.got.cif
#   From: 2010.03.12/outbox.cif.g09.slc.cpg/sg19_3_cif.got.tgz:4621.got - 2010.04.10 18:59:41.
