data_PCOD8157807
_publ_section_title
;
Structure prediction by ZEFSAII (Michael W. Deem and Ramdas Pophale) SiO2 
 PCOD8157807
Probable space group: P 21 21 21
;
_chemical_formula_sum "Si O2"
_cell_formula_units_Z 28
_cell_length_a 8.387063
_cell_length_b 9.237796
_cell_length_c 15.950363
_cell_angle_alpha 90.000000
_cell_angle_beta 90.000000
_cell_angle_gamma 90.000000
_cell_volume 1235.801858
_symmetry_space_group_name_H-M "P 21 21 21"
_symmetry_group_IT_number 19
_symmetry_cell_setting 'orthorhombic'
loop_
_space_group_symop_operation_xyz
x,y,z
1/2-x,-y,1/2+z
1/2+x,1/2-y,-z
-x,1/2+y,1/2-z
loop_
_atom_site_type_symbol
_atom_site_label
_atom_site_fract_x
_atom_site_fract_y
_atom_site_fract_z
Si Si1 0.712480 0.733946 0.583189
Si Si2 0.849867 0.279564 0.731372
Si Si3 0.934117 0.275165 0.431000
Si Si4 0.094757 0.344923 0.598033
Si Si5 0.574549 0.470421 0.671461
Si Si6 0.424527 0.325790 0.088675
Si Si7 0.360515 0.520819 0.823772
O O1 0.596784 0.633164 0.638588
O O2 0.647566 0.739592 0.489183
O O3 0.717300 0.891705 0.624028
O O4 0.885690 0.662699 0.580637
O O5 0.733967 0.415592 0.717272
O O6 0.874632 0.263828 0.829933
O O7 0.020369 0.312355 0.688967
O O8 0.779885 0.134501 0.690617
O O9 0.746935 0.256171 0.416036
O O10 0.961708 0.307852 0.528546
O O11 0.031751 0.131625 0.406531
O O12 0.993729 0.410014 0.375560
O O13 0.146845 0.512473 0.592252
O O14 0.426660 0.464566 0.735320
#
# Coordination Sequence:
#
# PCOD8157807 Si02
#       7
#     4   4   4   4   4   4   4
#     4  12  28  48  72 112 148 197 242 308 377 449
#     4  11  27  49  73 107 145 198 251 303 374 452
#     4  11  25  45  78 101 144 196 242 310 357 454
#     4  12  26  49  72 109 147 195 255 302 378 441
#     4  11  25  47  76 108 145 192 247 301 377 444
#     4  12  30  47  74 108 154 191 248 312 377 449
#     4  11  25  47  75 109 143 193 247 308 376 437
#
# _framework density 22.657354000000002
#
# number of rings (size 3 to 8) (size 9 to 14) (size 15 to 20)
#    0.000    0.571    2.857    4.286   12.000    0.000 
#    0.000    0.000    0.000    0.000    0.000    0.000 
#    0.000    0.000    0.000    0.000    0.000    0.000 
#
# Total GULP energy -347497.632419 kJ/mol
# GULP energy per Si atom -12410.629729 kJ/mol
# Density = 2.260579 g / cm^3
# Si number density = 22.657354 Si / 1000 Ang^3
#
#
#
# Elastic Constant Matrix: (Units=GPa)
#
#
# Indices 1 2 3 4 5 6 
#
# 1 73.1983 9.5825 18.9835 0.0000 0.0000 0.0000
# 2 9.5825 99.3473 34.4849 0.0000 0.0000 0.0000
# 3 18.9835 34.4849 137.3863 0.0000 0.0000 0.0000
# 4 0.0000 0.0000 0.0000 38.9907 0.0000 0.0000
# 5 0.0000 0.0000 0.0000 0.0000 44.0314 0.0000
# 6 0.0000 0.0000 0.0000 0.0000 0.0000 31.6646
#
#
#
# Elastic Compliance Matrix: (Units=1/GPa)
#
#
# Indices 1 2 3 4 5 6 
#
# 1 0.014221 -0.000755 -0.001775 0.000000 0.000000 0.000000
# 2 -0.000755 0.011067 -0.002673 0.000000 0.000000 0.000000
# 3 -0.001775 -0.002673 0.008195 0.000000 0.000000 0.000000
# 4 0.000000 0.000000 0.000000 0.025647 0.000000 0.000000
# 5 0.000000 0.000000 0.000000 0.000000 0.022711 0.000000
# 6 0.000000 0.000000 0.000000 0.000000 0.000000 0.031581
#
#
# Mechanical properties :
#
#
# Convention : Reuss Voigt Hill
#
# Bulk Modulus (GPa) = 43.33860 48.44821 45.89341
# Shear Modulus (GPa) = 38.01662 39.39607 38.70634
#
# Velocity S-wave (km/s) = 4.10065 4.17439 4.13768
# Velocity P-wave (km/s) = 6.44902 6.68307 6.56709
#
# Compressibility (1/GPa) = 0.02307412
#
# Stress axis : x y z
#
# Youngs Moduli (GPa) = 70.31936 90.36245 122.02410
#
# Poissons Ratio (x) = 0.06826 0.21664
# Poissons Ratio (y) = 0.05312 0.32622
# Poissons Ratio (z) = 0.12484 0.24158
#
# Static dielectric constant tensor:
#      x y z
#    x 3.973510 0.000000 0.000000 
#    y 0.000000 4.066760 0.000000 
#    z 0.000000 0.000000 4.221000 
# 
# 
# High freq. dielectric constant tensor:
#      x y z
#    x 1.896390 0.000000 0.000000 
#    y 0.000000 1.898930 0.000000 
#    z 0.000000 0.000000 1.906760 
# 
# From -- ./inp_files/2855.got.cif
#   From: 2010.03.12/outbox.cif.g09.slc.cpg/sg19_2_cif.got.tgz:2855.got - 2010.04.10 18:59:41.
