data_PCOD8157178
_publ_section_title
;
Structure prediction by ZEFSAII (Michael W. Deem and Ramdas Pophale) SiO2 
 PCOD8157178
Probable space group: P 21 21 21
;
_chemical_formula_sum "Si O2"
_cell_formula_units_Z 24
_cell_length_a 5.171256
_cell_length_b 9.580246
_cell_length_c 19.709958
_cell_angle_alpha 90.000000
_cell_angle_beta 90.000000
_cell_angle_gamma 90.000000
_cell_volume 976.468859
_symmetry_space_group_name_H-M "P 21 21 21"
_symmetry_group_IT_number 19
_symmetry_cell_setting 'orthorhombic'
loop_
_space_group_symop_operation_xyz
x,y,z
1/2-x,-y,1/2+z
1/2+x,1/2-y,-z
-x,1/2+y,1/2-z
loop_
_atom_site_type_symbol
_atom_site_label
_atom_site_fract_x
_atom_site_fract_y
_atom_site_fract_z
Si Si1 0.530604 0.301387 0.601244
Si Si2 0.757042 0.047817 0.765507
Si Si3 0.242998 0.768158 0.230772
Si Si4 0.743584 0.068222 0.519247
Si Si5 0.061303 0.014272 0.892309
Si Si6 0.665715 0.224396 0.042654
O O1 0.293707 0.262008 0.650284
O O2 0.675152 0.159166 0.584113
O O3 0.458391 0.362852 0.528135
O O4 0.727242 0.408269 0.639378
O O5 0.495313 0.135851 0.756481
O O6 0.995652 0.142330 0.738620
O O7 0.748767 0.888355 0.733787
O O8 0.804010 0.022082 0.846375
O O9 0.503229 0.033356 0.469133
O O10 0.866692 0.937733 0.560013
O O11 0.185923 0.171254 0.892894
O O12 0.420756 0.271473 0.000994
#
# Coordination Sequence:
#
# PCOD8157178 Si02
#       6
#     4   4   4   4   4   4
#     4  12  23  44  72 111 149 194 246 315 374 456
#     4  12  27  51  79 108 151 209 258 319 379 446
#     4  12  28  50  77 111 151 201 263 315 380 453
#     4  11  23  41  72 108 145 189 235 303 375 443
#     4  11  23  44  73 102 152 193 246 300 381 441
#     4  10  22  40  65 104 144 184 232 284 357 443
#
# _framework density 24.578358000000001
#
# number of rings (size 3 to 8) (size 9 to 14) (size 15 to 20)
#    0.000    0.667    5.000    3.000    0.000    1.333 
#    0.000   15.000    0.000    0.000    0.000    0.000 
#    0.000    0.000    0.000    0.000    0.000    0.000 
#
# Total GULP energy -297363.681990 kJ/mol
# GULP energy per Si atom -12390.153416 kJ/mol
# Density = 2.452242 g / cm^3
# Si number density = 24.578358 Si / 1000 Ang^3
#
#
#
# Elastic Constant Matrix: (Units=GPa)
#
#
# Indices 1 2 3 4 5 6 
#
# 1 107.8298 52.3422 12.2954 0.0000 0.0000 0.0000
# 2 52.3422 214.2757 39.1541 0.0000 0.0000 0.0000
# 3 12.2954 39.1541 50.3726 0.0000 0.0000 0.0000
# 4 0.0000 0.0000 0.0000 29.5240 0.0000 0.0000
# 5 0.0000 0.0000 0.0000 0.0000 33.4328 0.0000
# 6 0.0000 0.0000 0.0000 0.0000 0.0000 53.2734
#
#
#
# Elastic Compliance Matrix: (Units=1/GPa)
#
#
# Indices 1 2 3 4 5 6 
#
# 1 0.010541 -0.002453 -0.000666 0.000000 0.000000 0.000000
# 2 -0.002453 0.006010 -0.004073 0.000000 0.000000 0.000000
# 3 -0.000666 -0.004073 0.023181 0.000000 0.000000 0.000000
# 4 0.000000 0.000000 0.000000 0.033871 0.000000 0.000000
# 5 0.000000 0.000000 0.000000 0.000000 0.029911 0.000000
# 6 0.000000 0.000000 0.000000 0.000000 0.000000 0.018771
#
#
# Mechanical properties :
#
#
# Convention : Reuss Voigt Hill
#
# Bulk Modulus (GPa) = 39.45222 64.45129 51.95176
# Shear Modulus (GPa) = 34.45484 41.15847 37.80665
#
# Velocity S-wave (km/s) = 3.74817 4.09660 3.92626
# Velocity P-wave (km/s) = 5.90069 6.97538 6.46042
#
# Compressibility (1/GPa) = 0.02534711
#
# Stress axis : x y z
#
# Youngs Moduli (GPa) = 94.87128 166.37919 43.13962
#
# Poissons Ratio (x) = 0.40814 0.02873
# Poissons Ratio (y) = 0.23273 0.17571
# Poissons Ratio (z) = 0.06319 0.67767
#
# Static dielectric constant tensor:
#      x y z
#    x 4.325530 0.000000 0.000000 
#    y 0.000000 6.226070 0.000000 
#    z 0.000000 0.000000 4.136690 
# 
# 
# High freq. dielectric constant tensor:
#      x y z
#    x 1.980640 0.000000 0.000000 
#    y 0.000000 2.019920 0.000000 
#    z 0.000000 0.000000 1.941770 
# 
# From -- ./inp_files/7249.got.cif
#   From: 2010.03.12/outbox.cif.g09.slc.cpg/sg19_4_cif.got.tgz:7249.got - 2010.04.10 18:59:41.
