data_PCOD8157318
_publ_section_title
;
Structure prediction by ZEFSAII (Michael W. Deem and Ramdas Pophale) SiO2 
 PCOD8157318
Probable space group: P 21 21 21
;
_chemical_formula_sum "Si O2"
_cell_formula_units_Z 24
_cell_length_a 7.922766
_cell_length_b 17.498874
_cell_length_c 7.662784
_cell_angle_alpha 90.000000
_cell_angle_beta 90.000000
_cell_angle_gamma 90.000000
_cell_volume 1062.364419
_symmetry_space_group_name_H-M "P 21 21 21"
_symmetry_group_IT_number 19
_symmetry_cell_setting 'orthorhombic'
loop_
_space_group_symop_operation_xyz
x,y,z
1/2-x,-y,1/2+z
1/2+x,1/2-y,-z
-x,1/2+y,1/2-z
loop_
_atom_site_type_symbol
_atom_site_label
_atom_site_fract_x
_atom_site_fract_y
_atom_site_fract_z
Si Si1 0.279261 0.511632 0.698851
Si Si2 0.605262 0.564908 0.900511
Si Si3 0.383905 0.646630 0.480676
Si Si4 0.459946 0.716151 0.825286
Si Si5 0.924379 0.467989 0.796266
Si Si6 0.712995 0.839641 0.877493
O O1 0.438590 0.523682 0.826584
O O2 0.262870 0.580266 0.559527
O O3 0.306979 0.430296 0.602326
O O4 0.103733 0.512193 0.805683
O O5 0.608836 0.652810 0.838641
O O6 0.773983 0.523995 0.840015
O O7 0.598457 0.567752 0.107341
O O8 0.401327 0.714336 0.622110
O O9 0.561942 0.602987 0.433715
O O10 0.306769 0.681314 0.303943
O O11 0.529405 0.799770 0.871616
O O12 0.309454 0.693460 0.954834
#
# Coordination Sequence:
#
# PCOD8157318 Si02
#       6
#     4   4   4   4   4   4
#     4  10  22  45  72  99 134 184 235 290 346 399
#     4  11  22  41  68 102 138 177 232 289 341 411
#     4  10  23  45  71  98 141 176 235 285 338 416
#     4  11  25  46  66 103 139 181 228 273 358 419
#     4  11  21  39  69 102 136 174 233 289 334 406
#     4  11  25  46  68  98 144 180 225 290 341 419
#
# _framework density 22.591117000000001
#
# number of rings (size 3 to 8) (size 9 to 14) (size 15 to 20)
#    0.000    1.333    3.333    4.000    4.667    4.000 
#    9.000    0.000    0.000    0.000    0.000    0.000 
#    0.000    0.000    0.000    0.000    0.000    0.000 
#
# Total GULP energy -297461.086224 kJ/mol
# GULP energy per Si atom -12394.211926 kJ/mol
# Density = 2.253970 g / cm^3
# Si number density = 22.591117 Si / 1000 Ang^3
#
#
#
# Elastic Constant Matrix: (Units=GPa)
#
#
# Indices 1 2 3 4 5 6 
#
# 1 91.7617 24.3830 15.4614 0.0000 0.0000 0.0000
# 2 24.3830 54.4092 -1.6463 0.0000 0.0000 0.0000
# 3 15.4614 -1.6463 121.7704 0.0000 0.0000 0.0000
# 4 0.0000 0.0000 0.0000 23.1449 0.0000 0.0000
# 5 0.0000 0.0000 0.0000 0.0000 39.8948 0.0000
# 6 0.0000 0.0000 0.0000 0.0000 0.0000 35.9660
#
#
#
# Elastic Compliance Matrix: (Units=1/GPa)
#
#
# Indices 1 2 3 4 5 6 
#
# 1 0.012710 -0.005747 -0.001691 0.000000 0.000000 0.000000
# 2 -0.005747 0.020985 0.001013 0.000000 0.000000 0.000000
# 3 -0.001691 0.001013 0.008441 0.000000 0.000000 0.000000
# 4 0.000000 0.000000 0.000000 0.043206 0.000000 0.000000
# 5 0.000000 0.000000 0.000000 0.000000 0.025066 0.000000
# 6 0.000000 0.000000 0.000000 0.000000 0.000000 0.027804
#
#
# Mechanical properties :
#
#
# Convention : Reuss Voigt Hill
#
# Bulk Modulus (GPa) = 34.14627 38.25971 36.20299
# Shear Modulus (GPa) = 31.08988 35.11736 33.10362
#
# Velocity S-wave (km/s) = 3.71374 3.94696 3.83213
# Velocity P-wave (km/s) = 5.79110 6.14360 5.96996
#
# Compressibility (1/GPa) = 0.02928577
#
# Stress axis : x y z
#
# Youngs Moduli (GPa) = 78.67887 47.65225 118.47433
#
# Poissons Ratio (x) = 0.27386 0.20040
# Poissons Ratio (y) = 0.45217 -0.12006
# Poissons Ratio (z) = 0.13308 -0.04829
#
# Static dielectric constant tensor:
#      x y z
#    x -21.123480 0.000000 0.000000 
#    y 0.000000 3.981110 0.000000 
#    z 0.000000 0.000000 4.529440 
# 
# 
# High freq. dielectric constant tensor:
#      x y z
#    x 1.869620 0.000000 0.000000 
#    y 0.000000 1.871220 0.000000 
#    z 0.000000 0.000000 1.924200 
# 
# From -- ./inp_files/2906.got.cif
#   From: 2010.03.12/outbox.cif.g09.slc.cpg/sg19_2_cif.got.tgz:2906.got - 2010.04.10 18:59:41.
