data_PCOD8157459
_publ_section_title
;
Structure prediction by ZEFSAII (Michael W. Deem and Ramdas Pophale) SiO2 
 PCOD8157459
Probable space group: P 21 21 21
;
_chemical_formula_sum "Si O2"
_cell_formula_units_Z 24
_cell_length_a 5.234338
_cell_length_b 7.675229
_cell_length_c 24.444156
_cell_angle_alpha 90.000000
_cell_angle_beta 90.000000
_cell_angle_gamma 90.000000
_cell_volume 982.037681
_symmetry_space_group_name_H-M "P 21 21 21"
_symmetry_group_IT_number 19
_symmetry_cell_setting 'orthorhombic'
loop_
_space_group_symop_operation_xyz
x,y,z
1/2-x,-y,1/2+z
1/2+x,1/2-y,-z
-x,1/2+y,1/2-z
loop_
_atom_site_type_symbol
_atom_site_label
_atom_site_fract_x
_atom_site_fract_y
_atom_site_fract_z
Si Si1 0.735865 0.915956 0.150411
Si Si2 0.761005 0.476924 0.643696
Si Si3 0.980006 0.651672 0.741161
Si Si4 0.930324 0.050449 0.532710
Si Si5 0.569644 0.537766 0.025564
Si Si6 0.510996 0.274496 0.806452
O O1 0.842823 0.720894 0.140240
O O2 0.526783 0.924035 0.198745
O O3 0.593018 0.990662 0.097106
O O4 0.977761 0.039298 0.163746
O O5 0.907884 0.527344 0.588032
O O6 0.524337 0.611533 0.651654
O O7 0.955135 0.496225 0.695529
O O8 0.219791 0.773557 0.723995
O O9 0.716570 0.762781 0.739400
O O10 0.933161 0.255041 0.522270
O O11 0.691493 0.964258 0.500450
O O12 0.190535 0.966004 0.509718
#
# Coordination Sequence:
#
# PCOD8157459 Si02
#       6
#     4   4   4   4   4   4
#     4  11  22  44  66  95 131 174 216 264 334 387
#     4   9  23  42  68  92 126 178 205 269 328 378
#     4  10  24  42  63  95 134 164 214 266 323 383
#     4   9  20  34  60  92 118 164 209 270 307 381
#     4   9  18  37  58  89 124 154 219 258 316 379
#     4  10  25  41  59  99 127 164 215 269 306 396
#
# _framework density 24.438979
#
# number of rings (size 3 to 8) (size 9 to 14) (size 15 to 20)
#    1.000    1.333    0.000    1.000    4.667    2.667 
#    6.000    1.667    0.000    0.000    0.000    0.000 
#    0.000    0.000    0.000    0.000    0.000    0.000 
#
# Total GULP energy -297459.972436 kJ/mol
# GULP energy per Si atom -12394.165518 kJ/mol
# Density = 2.438335 g / cm^3
# Si number density = 24.438979 Si / 1000 Ang^3
#
#
#
# Elastic Constant Matrix: (Units=GPa)
#
#
# Indices 1 2 3 4 5 6 
#
# 1 114.1538 5.1477 25.4720 0.0000 0.0000 0.0000
# 2 5.1477 78.3681 12.8530 0.0000 0.0000 0.0000
# 3 25.4720 12.8530 164.1981 0.0000 0.0000 0.0000
# 4 0.0000 0.0000 0.0000 13.2025 0.0000 0.0000
# 5 0.0000 0.0000 0.0000 0.0000 22.9093 0.0000
# 6 0.0000 0.0000 0.0000 0.0000 0.0000 18.6235
#
#
#
# Elastic Compliance Matrix: (Units=1/GPa)
#
#
# Indices 1 2 3 4 5 6 
#
# 1 0.009085 -0.000370 -0.001380 0.000000 0.000000 0.000000
# 2 -0.000370 0.012941 -0.000956 0.000000 0.000000 0.000000
# 3 -0.001380 -0.000956 0.006379 0.000000 0.000000 0.000000
# 4 0.000000 0.000000 0.000000 0.075743 0.000000 0.000000
# 5 0.000000 0.000000 0.000000 0.000000 0.043650 0.000000
# 6 0.000000 0.000000 0.000000 0.000000 0.000000 0.053696
#
#
# Mechanical properties :
#
#
# Convention : Reuss Voigt Hill
#
# Bulk Modulus (GPa) = 43.49190 49.29614 46.39402
# Shear Modulus (GPa) = 23.30228 31.83021 27.56624
#
# Velocity S-wave (km/s) = 3.09121 3.61284 3.36216
# Velocity P-wave (km/s) = 5.52951 6.13339 5.83926
#
# Compressibility (1/GPa) = 0.02299279
#
# Stress axis : x y z
#
# Youngs Moduli (GPa) = 110.07379 77.27171 156.76105
#
# Poissons Ratio (x) = 0.02862 0.21638
# Poissons Ratio (y) = 0.04077 0.14980
# Poissons Ratio (z) = 0.15194 0.07384
#
# Static dielectric constant tensor:
#      x y z
#    x 4.178000 0.000000 0.000000 
#    y 0.000000 4.049740 0.000000 
#    z 0.000000 0.000000 4.484620 
# 
# 
# High freq. dielectric constant tensor:
#      x y z
#    x 1.951410 0.000000 0.000000 
#    y 0.000000 1.953450 0.000000 
#    z 0.000000 0.000000 1.973130 
# 
# From -- ./inp_files/7439.got.cif
#   From: 2010.03.12/outbox.cif.g09.slc.cpg/sg19_4_cif.got.tgz:7439.got - 2010.04.10 18:59:41.
