data_PCOD8157231
_publ_section_title
;
Structure prediction by ZEFSAII (Michael W. Deem and Ramdas Pophale) SiO2 
 PCOD8157231
Probable space group: P 21 21 21
;
_chemical_formula_sum "Si O2"
_cell_formula_units_Z 32
_cell_length_a 9.211294
_cell_length_b 30.117317
_cell_length_c 5.391840
_cell_angle_alpha 90.000000
_cell_angle_beta 90.000000
_cell_angle_gamma 90.000000
_cell_volume 1495.801349
_symmetry_space_group_name_H-M "P 21 21 21"
_symmetry_group_IT_number 19
_symmetry_cell_setting 'orthorhombic'
loop_
_space_group_symop_operation_xyz
x,y,z
1/2-x,-y,1/2+z
1/2+x,1/2-y,-z
-x,1/2+y,1/2-z
loop_
_atom_site_type_symbol
_atom_site_label
_atom_site_fract_x
_atom_site_fract_y
_atom_site_fract_z
Si Si1 0.102370 0.396267 0.124979
Si Si2 0.067041 0.984058 0.330405
Si Si3 0.840229 0.191466 0.454726
Si Si4 0.857067 0.271216 0.776008
Si Si5 0.051617 0.345885 0.642271
Si Si6 0.398748 0.963995 0.329344
Si Si7 0.947771 0.710607 0.428322
Si Si8 0.425030 0.376320 0.168160
O O1 0.063942 0.369058 0.374371
O O2 0.273995 0.396168 0.064984
O O3 0.054869 0.446492 0.172189
O O4 0.020235 0.377987 0.878045
O O5 0.225052 0.961696 0.328029
O O6 0.043572 0.011862 0.582005
O O7 0.044216 0.013220 0.082224
O O8 0.782521 0.229143 0.642717
O O9 0.701002 0.180045 0.285728
O O10 0.981518 0.215744 0.342225
O O11 0.893653 0.144621 0.564283
O O12 0.725921 0.290483 0.943285
O O13 0.916894 0.311918 0.612001
O O14 0.995608 0.253145 0.923838
O O15 0.454125 0.913948 0.317158
O O16 0.013695 0.663226 0.502571
#
# Coordination Sequence:
#
# PCOD8157231 Si02
#       8
#     4   4   4   4   4   4   4   4
#     4  11  24  43  67  95 134 166 221 271 329 389
#     4  10  23  43  66  95 130 172 208 276 322 403
#     4  10  22  42  61  91 133 169 227 273 329 381
#     4  11  25  38  65  92 129 184 220 277 326 394
#     4  11  24  42  64  95 130 173 217 276 324 386
#     4  10  23  42  67  95 132 165 219 261 336 392
#     4  11  23  42  63  93 133 171 230 271 332 386
#     4  10  24  40  63  98 127 172 214 281 320 397
#
# _framework density 21.393217
#
# number of rings (size 3 to 8) (size 9 to 14) (size 15 to 20)
#    0.000    1.500    1.250    2.250    8.750    3.000 
#    0.000    0.000    0.000    0.000    0.000    0.000 
#    0.000    0.000    0.000    0.000    0.000    0.000 
#
# Total GULP energy -396599.162310 kJ/mol
# GULP energy per Si atom -12393.723822 kJ/mol
# Density = 2.134453 g / cm^3
# Si number density = 21.393217 Si / 1000 Ang^3
#
#
#
# Elastic Constant Matrix: (Units=GPa)
#
#
# Indices 1 2 3 4 5 6 
#
# 1 77.1430 44.4535 22.0822 0.0000 0.0000 0.0000
# 2 44.4535 97.7769 29.3912 0.0000 0.0000 0.0000
# 3 22.0822 29.3912 111.1131 0.0000 0.0000 0.0000
# 4 0.0000 0.0000 0.0000 12.0225 0.0000 0.0000
# 5 0.0000 0.0000 0.0000 0.0000 26.3963 0.0000
# 6 0.0000 0.0000 0.0000 0.0000 0.0000 38.9244
#
#
#
# Elastic Compliance Matrix: (Units=1/GPa)
#
#
# Indices 1 2 3 4 5 6 
#
# 1 0.017797 -0.007635 -0.001517 0.000000 0.000000 0.000000
# 2 -0.007635 0.014386 -0.002288 0.000000 0.000000 0.000000
# 3 -0.001517 -0.002288 0.009907 0.000000 0.000000 0.000000
# 4 0.000000 0.000000 0.000000 0.083177 0.000000 0.000000
# 5 0.000000 0.000000 0.000000 0.000000 0.037884 0.000000
# 6 0.000000 0.000000 0.000000 0.000000 0.000000 0.025691
#
#
# Mechanical properties :
#
#
# Convention : Reuss Voigt Hill
#
# Bulk Modulus (GPa) = 52.05891 53.09851 52.57871
# Shear Modulus (GPa) = 22.92251 28.14240 25.53246
#
# Velocity S-wave (km/s) = 3.27691 3.63089 3.45843
# Velocity P-wave (km/s) = 6.22130 6.51552 6.37011
#
# Compressibility (1/GPa) = 0.01920901
#
# Stress axis : x y z
#
# Youngs Moduli (GPa) = 56.18918 69.51004 100.94276
#
# Poissons Ratio (x) = 0.53072 0.15316
# Poissons Ratio (y) = 0.42901 0.23096
# Poissons Ratio (z) = 0.08525 0.15904
#
# Static dielectric constant tensor:
#      x y z
#    x 3.765920 0.000000 0.000000 
#    y 0.000000 3.759580 0.000000 
#    z 0.000000 0.000000 3.962930 
# 
# 
# High freq. dielectric constant tensor:
#      x y z
#    x 1.838580 0.000000 0.000000 
#    y 0.000000 1.841140 0.000000 
#    z 0.000000 0.000000 1.841800 
# 
# From -- ./inp_files/689.got.cif
#   From: 2010.03.12/outbox.cif.g09.slc.cpg/sg19_1_cif.got.tgz:689.got - 2010.04.10 18:59:41.
