data_PCOD8157044
_publ_section_title
;
Structure prediction by ZEFSAII (Michael W. Deem and Ramdas Pophale) SiO2 
 PCOD8157044
Probable space group: P 21 21 21
;
_chemical_formula_sum "Si O2"
_cell_formula_units_Z 28
_cell_length_a 15.680921
_cell_length_b 5.281438
_cell_length_c 14.980725
_cell_angle_alpha 90.000000
_cell_angle_beta 90.000000
_cell_angle_gamma 90.000000
_cell_volume 1240.670867
_symmetry_space_group_name_H-M "P 21 21 21"
_symmetry_group_IT_number 19
_symmetry_cell_setting 'orthorhombic'
loop_
_space_group_symop_operation_xyz
x,y,z
1/2-x,-y,1/2+z
1/2+x,1/2-y,-z
-x,1/2+y,1/2-z
loop_
_atom_site_type_symbol
_atom_site_label
_atom_site_fract_x
_atom_site_fract_y
_atom_site_fract_z
Si Si1 0.961389 0.714877 0.286705
Si Si2 0.665898 0.455732 0.377825
Si Si3 0.870709 0.927690 0.733588
Si Si4 0.453057 0.481010 0.950906
Si Si5 0.014239 0.697455 0.637593
Si Si6 0.774984 0.730221 0.234579
Si Si7 0.150939 0.018861 0.429974
O O1 0.867377 0.824624 0.266829
O O2 0.978224 0.462531 0.225640
O O3 0.969031 0.609460 0.387754
O O4 0.569245 0.558779 0.391463
O O5 0.726920 0.639200 0.322863
O O6 0.701643 0.413578 0.478035
O O7 0.662212 0.196710 0.324806
O O8 0.946520 0.110488 0.767516
O O9 0.786628 0.056159 0.691713
O O10 0.914186 0.753146 0.657722
O O11 0.420157 0.755911 0.917690
O O12 0.380830 0.268528 0.936724
O O13 0.483052 0.499065 0.054335
O O14 0.785705 0.524800 0.155323
#
# Coordination Sequence:
#
# PCOD8157044 Si02
#       7
#     4   4   4   4   4   4   4
#     4  12  24  45  71  98 133 184 234 284 346 424
#     4  10  23  42  66  96 135 177 225 286 341 422
#     4  11  21  41  66  95 138 176 231 289 346 419
#     4  11  22  43  71  98 129 183 232 279 336 429
#     4  10  21  40  67  94 129 179 228 275 352 412
#     4  11  26  42  67 102 136 184 230 295 355 409
#     4  11  23  45  70  97 138 181 226 280 356 403
#
# _framework density 22.568435999999998
#
# number of rings (size 3 to 8) (size 9 to 14) (size 15 to 20)
#    0.000    1.143    5.714    0.000    4.000    0.000 
#    5.143    0.000    0.000    0.000    0.000    0.000 
#    0.000    0.000    0.000    0.000    0.000    0.000 
#
# Total GULP energy -346922.131040 kJ/mol
# GULP energy per Si atom -12390.076109 kJ/mol
# Density = 2.251707 g / cm^3
# Si number density = 22.568436 Si / 1000 Ang^3
#
#
#
# Elastic Constant Matrix: (Units=GPa)
#
#
# Indices 1 2 3 4 5 6 
#
# 1 90.4126 11.2057 14.2501 0.0000 0.0000 0.0000
# 2 11.2057 74.2192 -8.3522 0.0000 0.0000 0.0000
# 3 14.2501 -8.3522 89.9278 0.0000 0.0000 0.0000
# 4 0.0000 0.0000 0.0000 32.8536 0.0000 0.0000
# 5 0.0000 0.0000 0.0000 0.0000 29.4777 0.0000
# 6 0.0000 0.0000 0.0000 0.0000 0.0000 16.4743
#
#
#
# Elastic Compliance Matrix: (Units=1/GPa)
#
#
# Indices 1 2 3 4 5 6 
#
# 1 0.011626 -0.001983 -0.002026 0.000000 0.000000 0.000000
# 2 -0.001983 0.013954 0.001610 0.000000 0.000000 0.000000
# 3 -0.002026 0.001610 0.011591 0.000000 0.000000 0.000000
# 4 0.000000 0.000000 0.000000 0.030438 0.000000 0.000000
# 5 0.000000 0.000000 0.000000 0.000000 0.033924 0.000000
# 6 0.000000 0.000000 0.000000 0.000000 0.000000 0.060701
#
#
# Mechanical properties :
#
#
# Convention : Reuss Voigt Hill
#
# Bulk Modulus (GPa) = 30.89115 32.08522 31.48818
# Shear Modulus (GPa) = 28.11794 31.59154 29.85474
#
# Velocity S-wave (km/s) = 3.53356 3.74546 3.64105
# Velocity P-wave (km/s) = 5.51049 5.74042 5.62663
#
# Compressibility (1/GPa) = 0.03237173
#
# Stress axis : x y z
#
# Youngs Moduli (GPa) = 86.01711 71.66279 86.27609
#
# Poissons Ratio (x) = 0.14213 0.17483
# Poissons Ratio (y) = 0.17060 -0.13893
# Poissons Ratio (z) = 0.17431 -0.11540
#
# Static dielectric constant tensor:
#      x y z
#    x 3.867950 0.000000 0.000000 
#    y 0.000000 4.060550 0.000000 
#    z 0.000000 0.000000 4.556250 
# 
# 
# High freq. dielectric constant tensor:
#      x y z
#    x 1.856560 0.000000 0.000000 
#    y 0.000000 1.887400 0.000000 
#    z 0.000000 0.000000 1.904530 
# 
# From -- ./inp_files/1498.got.cif
#   From: 2010.03.12/outbox.cif.g09.slc.cpg/sg19_1_cif.got.tgz:1498.got - 2010.04.10 18:59:41.
