data_PCOD8157829
_publ_section_title
;
Structure prediction by ZEFSAII (Michael W. Deem and Ramdas Pophale) SiO2 
 PCOD8157829
Probable space group: P 21 21 21
;
_chemical_formula_sum "Si O2"
_cell_formula_units_Z 32
_cell_length_a 27.534970
_cell_length_b 8.286656
_cell_length_c 5.009818
_cell_angle_alpha 90.000000
_cell_angle_beta 90.000000
_cell_angle_gamma 90.000000
_cell_volume 1143.104323
_symmetry_space_group_name_H-M "P 21 21 21"
_symmetry_group_IT_number 19
_symmetry_cell_setting 'orthorhombic'
loop_
_space_group_symop_operation_xyz
x,y,z
1/2-x,-y,1/2+z
1/2+x,1/2-y,-z
-x,1/2+y,1/2-z
loop_
_atom_site_type_symbol
_atom_site_label
_atom_site_fract_x
_atom_site_fract_y
_atom_site_fract_z
Si Si1 0.417251 0.456359 0.813129
Si Si2 0.548956 0.464513 0.473443
Si Si3 0.820195 0.604012 0.599016
Si Si4 0.135588 0.856488 0.300838
Si Si5 0.124845 0.405290 0.837647
Si Si6 0.488384 0.793043 0.536236
Si Si7 0.279115 0.446377 0.526947
Si Si8 0.276740 0.175050 0.142115
O O1 0.397869 0.287491 0.687265
O O2 0.419848 0.580861 0.554737
O O3 0.383046 0.513810 0.054087
O O4 0.469288 0.427461 0.939607
O O5 0.603383 0.540535 0.485468
O O6 0.544125 0.355469 0.209366
O O7 0.510035 0.611956 0.499021
O O8 0.542650 0.323135 0.694994
O O9 0.849853 0.472815 0.436076
O O10 0.859526 0.723139 0.726812
O O11 0.788911 0.515483 0.829677
O O12 0.779528 0.703487 0.433455
O O13 0.182652 0.766792 0.429666
O O14 0.166648 0.487436 0.016465
O O15 0.256011 0.453987 0.822193
O O16 0.282563 0.262068 0.427571
#
# Coordination Sequence:
#
# PCOD8157829 Si02
#       8
#     4   4   4   4   4   4   4   4
#     4  11  26  49  75 103 145 187 239 294 360 434
#     4  11  26  48  79 108 146 187 241 292 374 442
#     4  12  28  42  69 103 145 191 242 298 360 406
#     4  11  27  47  71 102 142 195 235 292 363 438
#     4  12  26  44  71 107 140 186 246 296 341 422
#     4  11  25  49  77 112 143 191 230 303 376 437
#     4  12  26  43  71  98 136 189 248 294 347 414
#     4  12  26  44  67  95 147 190 237 295 357 417
#
# _framework density 27.993942000000001
#
# number of rings (size 3 to 8) (size 9 to 14) (size 15 to 20)
#    0.000    0.500    3.750    3.000    7.000    5.000 
#    0.000    0.000    0.000    0.000    0.000    0.000 
#    0.000    0.000    0.000    0.000    0.000    0.000 
#
# Total GULP energy -396776.337072 kJ/mol
# GULP energy per Si atom -12399.260533 kJ/mol
# Density = 2.793023 g / cm^3
# Si number density = 27.993942 Si / 1000 Ang^3
#
#
#
# Elastic Constant Matrix: (Units=GPa)
#
#
# Indices 1 2 3 4 5 6 
#
# 1 59.8305 -30.0222 -4.3798 0.0000 0.0000 0.0000
# 2 -30.0222 41.3512 -3.5235 0.0000 0.0000 0.0000
# 3 -4.3798 -3.5235 89.8507 0.0000 0.0000 0.0000
# 4 0.0000 0.0000 0.0000 50.4692 0.0000 0.0000
# 5 0.0000 0.0000 0.0000 0.0000 33.8542 0.0000
# 6 0.0000 0.0000 0.0000 0.0000 0.0000 38.3191
#
#
#
# Elastic Compliance Matrix: (Units=1/GPa)
#
#
# Indices 1 2 3 4 5 6 
#
# 1 0.026670 0.019539 0.002066 0.000000 0.000000 0.000000
# 2 0.019539 0.038579 0.002465 0.000000 0.000000 0.000000
# 3 0.002066 0.002465 0.011327 0.000000 0.000000 0.000000
# 4 0.000000 0.000000 0.000000 0.019814 0.000000 0.000000
# 5 0.000000 0.000000 0.000000 0.000000 0.029538 0.000000
# 6 0.000000 0.000000 0.000000 0.000000 0.000000 0.026097
#
#
# Mechanical properties :
#
#
# Convention : Reuss Voigt Hill
#
# Bulk Modulus (GPa) = 8.01819 12.79793 10.40806
# Shear Modulus (GPa) = 34.37468 39.79235 37.08352
#
# Velocity S-wave (km/s) = 3.50799 3.77432 3.64359
# Velocity P-wave (km/s) = 4.39072 4.85547 4.62893
#
# Compressibility (1/GPa) = 0.12471642
#
# Stress axis : x y z
#
# Youngs Moduli (GPa) = 37.49599 25.92084 88.28483
#
# Poissons Ratio (x) = -0.50647 -0.18242
# Poissons Ratio (y) = -0.73263 -0.21765
# Poissons Ratio (z) = -0.07748 -0.06390
#
# Static dielectric constant tensor:
#      x y z
#    x 5.766230 0.000000 0.000000 
#    y 0.000000 5.378090 0.000000 
#    z 0.000000 0.000000 4.682110 
# 
# 
# High freq. dielectric constant tensor:
#      x y z
#    x 2.157200 0.000000 0.000000 
#    y 0.000000 2.158480 0.000000 
#    z 0.000000 0.000000 2.119180 
# 
# From -- ./inp_files/2347.got.cif
#   From: 2010.03.12/outbox.cif.g09.slc.cpg/sg19_2_cif.got.tgz:2347.got - 2010.04.10 18:59:41.
