data_PCOD8157367
_publ_section_title
;
Structure prediction by ZEFSAII (Michael W. Deem and Ramdas Pophale) SiO2 
 PCOD8157367
Probable space group: P 21 21 21
;
_chemical_formula_sum "Si O2"
_cell_formula_units_Z 28
_cell_length_a 9.441479
_cell_length_b 11.157850
_cell_length_c 11.023751
_cell_angle_alpha 90.000000
_cell_angle_beta 90.000000
_cell_angle_gamma 90.000000
_cell_volume 1161.314758
_symmetry_space_group_name_H-M "P 21 21 21"
_symmetry_group_IT_number 19
_symmetry_cell_setting 'orthorhombic'
loop_
_space_group_symop_operation_xyz
x,y,z
1/2-x,-y,1/2+z
1/2+x,1/2-y,-z
-x,1/2+y,1/2-z
loop_
_atom_site_type_symbol
_atom_site_label
_atom_site_fract_x
_atom_site_fract_y
_atom_site_fract_z
Si Si1 0.671117 0.029345 0.057043
Si Si2 0.833095 0.541924 0.374499
Si Si3 0.793114 0.694809 0.594809
Si Si4 0.002627 0.920535 0.324353
Si Si5 0.913726 0.340459 0.550373
Si Si6 0.153399 0.316510 0.389824
Si Si7 0.944806 0.515130 0.753971
O O1 0.706946 0.162899 0.099642
O O2 0.575267 0.962860 0.157544
O O3 0.813998 0.950776 0.058171
O O4 0.598790 0.023339 0.925729
O O5 0.860043 0.653502 0.465256
O O6 0.942938 0.530892 0.261239
O O7 0.836147 0.417334 0.447047
O O8 0.676128 0.557055 0.324353
O O9 0.634276 0.644944 0.610833
O O10 0.891167 0.643754 0.703330
O O11 0.911815 0.825190 0.245395
O O12 0.794652 0.261295 0.615106
O O13 0.990215 0.428385 0.644753
O O14 0.036164 0.262196 0.483311
#
# Coordination Sequence:
#
# PCOD8157367 Si02
#       7
#     4   4   4   4   4   4   4
#     4  12  27  44  73 113 146 189 251 319 366 446
#     4   9  20  46  69 104 138 192 245 290 364 448
#     4  10  23  46  74 104 148 194 249 305 378 437
#     4  10  24  47  70 108 144 197 239 312 374 438
#     4  10  25  46  72 102 142 196 238 304 360 447
#     4  11  28  47  71 106 149 188 256 299 376 437
#     4  10  23  42  71 101 141 188 244 291 368 437
#
# _framework density 24.110603999999999
#
# number of rings (size 3 to 8) (size 9 to 14) (size 15 to 20)
#    0.000    1.714    1.429    0.000    8.000    5.714 
#    7.714    0.000    0.000    0.000    0.000    0.000 
#    0.000    0.000    0.000    0.000    0.000    0.000 
#
# Total GULP energy -347193.817564 kJ/mol
# GULP energy per Si atom -12399.779199 kJ/mol
# Density = 2.405573 g / cm^3
# Si number density = 24.110604 Si / 1000 Ang^3
#
#
#
# Elastic Constant Matrix: (Units=GPa)
#
#
# Indices 1 2 3 4 5 6 
#
# 1 79.6761 8.1369 39.0817 0.0000 0.0000 0.0000
# 2 8.1369 67.0940 7.0072 0.0000 0.0000 0.0000
# 3 39.0817 7.0072 125.9442 0.0000 0.0000 0.0000
# 4 0.0000 0.0000 0.0000 21.8999 0.0000 0.0000
# 5 0.0000 0.0000 0.0000 0.0000 41.3580 0.0000
# 6 0.0000 0.0000 0.0000 0.0000 0.0000 32.7817
#
#
#
# Elastic Compliance Matrix: (Units=1/GPa)
#
#
# Indices 1 2 3 4 5 6 
#
# 1 0.014922 -0.001334 -0.004556 0.000000 0.000000 0.000000
# 2 -0.001334 0.015111 -0.000427 0.000000 0.000000 0.000000
# 3 -0.004556 -0.000427 0.009378 0.000000 0.000000 0.000000
# 4 0.000000 0.000000 0.000000 0.045662 0.000000 0.000000
# 5 0.000000 0.000000 0.000000 0.000000 0.024179 0.000000
# 6 0.000000 0.000000 0.000000 0.000000 0.000000 0.030505
#
#
# Mechanical properties :
#
#
# Convention : Reuss Voigt Hill
#
# Bulk Modulus (GPa) = 37.34606 42.35177 39.84892
# Shear Modulus (GPa) = 30.99512 33.77383 32.38448
#
# Velocity S-wave (km/s) = 3.58933 3.74677 3.66890
# Velocity P-wave (km/s) = 5.71846 6.02673 5.87462
#
# Compressibility (1/GPa) = 0.02677659
#
# Stress axis : x y z
#
# Youngs Moduli (GPa) = 67.01577 66.17786 106.63713
#
# Poissons Ratio (x) = 0.08827 0.48586
# Poissons Ratio (y) = 0.08939 0.04552
# Poissons Ratio (z) = 0.30534 0.02825
#
# Static dielectric constant tensor:
#      x y z
#    x 4.320620 0.000000 0.000000 
#    y 0.000000 3.976280 0.000000 
#    z 0.000000 0.000000 4.606690 
# 
# 
# High freq. dielectric constant tensor:
#      x y z
#    x 1.956340 0.000000 0.000000 
#    y 0.000000 1.936170 0.000000 
#    z 0.000000 0.000000 1.974920 
# 
# From -- ./inp_files/4603.got.cif
#   From: 2010.03.12/outbox.cif.g09.slc.cpg/sg19_3_cif.got.tgz:4603.got - 2010.04.10 18:59:41.
