data_PCOD8157663
_publ_section_title
;
Structure prediction by ZEFSAII (Michael W. Deem and Ramdas Pophale) SiO2 
 PCOD8157663
Probable space group: P 21 21 21
;
_chemical_formula_sum "Si O2"
_cell_formula_units_Z 32
_cell_length_a 8.959504
_cell_length_b 12.317888
_cell_length_c 13.160488
_cell_angle_alpha 90.000000
_cell_angle_beta 90.000000
_cell_angle_gamma 90.000000
_cell_volume 1452.419972
_symmetry_space_group_name_H-M "P 21 21 21"
_symmetry_group_IT_number 19
_symmetry_cell_setting 'orthorhombic'
loop_
_space_group_symop_operation_xyz
x,y,z
1/2-x,-y,1/2+z
1/2+x,1/2-y,-z
-x,1/2+y,1/2-z
loop_
_atom_site_type_symbol
_atom_site_label
_atom_site_fract_x
_atom_site_fract_y
_atom_site_fract_z
Si Si1 0.067036 0.845241 0.120809
Si Si2 0.573392 0.565298 0.574287
Si Si3 0.942756 0.907223 0.922198
Si Si4 0.373445 0.718039 0.689992
Si Si5 0.370260 0.377532 0.532737
Si Si6 0.573552 0.802737 0.184923
Si Si7 0.360961 0.951955 0.301604
Si Si8 0.750454 0.566335 0.371083
O O1 0.151919 0.745061 0.070054
O O2 0.994350 0.802218 0.223266
O O3 0.179890 0.945538 0.128865
O O4 0.940420 0.880107 0.041688
O O5 0.428569 0.640987 0.596890
O O6 0.518748 0.439743 0.571249
O O7 0.695017 0.579787 0.662633
O O8 0.650101 0.596700 0.467880
O O9 0.768521 0.935626 0.909451
O O10 0.015009 0.811951 0.855447
O O11 0.038761 0.015100 0.898899
O O12 0.207397 0.698345 0.732770
O O13 0.376146 0.841284 0.646654
O O14 0.374497 0.378322 0.409583
O O15 0.431224 0.851014 0.243018
O O16 0.356566 0.058121 0.227672
#
# Coordination Sequence:
#
# PCOD8157663 Si02
#       8
#     4   4   4   4   4   4   4   4
#     4  11  24  42  75 109 138 188 248 308 359 428
#     4  12  27  46  74 106 146 196 240 302 371 449
#     4  11  23  42  73 105 136 185 239 309 356 425
#     4  12  26  47  71 107 151 196 241 298 375 456
#     4  11  24  42  72 109 140 179 250 309 358 425
#     4  11  24  42  71 105 144 182 241 302 363 429
#     4  12  23  45  72 100 145 187 238 302 376 425
#     4  12  25  48  70 105 152 193 243 300 372 443
#
# _framework density 22.032195000000002
#
# number of rings (size 3 to 8) (size 9 to 14) (size 15 to 20)
#    0.000    0.500    6.250    2.250    1.750    1.000 
#    2.250    0.000    0.000    0.000    0.000    0.000 
#    0.000    0.000    0.000    0.000    0.000    0.000 
#
# Total GULP energy -396521.863795 kJ/mol
# GULP energy per Si atom -12391.308244 kJ/mol
# Density = 2.198205 g / cm^3
# Si number density = 22.032195 Si / 1000 Ang^3
#
#
#
# Elastic Constant Matrix: (Units=GPa)
#
#
# Indices 1 2 3 4 5 6 
#
# 1 123.2889 40.8574 48.7317 0.0000 0.0000 0.0000
# 2 40.8574 102.9260 41.5545 0.0000 0.0000 0.0000
# 3 48.7317 41.5545 102.7180 0.0000 0.0000 0.0000
# 4 0.0000 0.0000 0.0000 29.5769 0.0000 0.0000
# 5 0.0000 0.0000 0.0000 0.0000 47.9530 0.0000
# 6 0.0000 0.0000 0.0000 0.0000 0.0000 42.4476
#
#
#
# Elastic Compliance Matrix: (Units=1/GPa)
#
#
# Indices 1 2 3 4 5 6 
#
# 1 0.010529 -0.002585 -0.003949 0.000000 0.000000 0.000000
# 2 -0.002585 0.012247 -0.003728 0.000000 0.000000 0.000000
# 3 -0.003949 -0.003728 0.013117 0.000000 0.000000 0.000000
# 4 0.000000 0.000000 0.000000 0.033810 0.000000 0.000000
# 5 0.000000 0.000000 0.000000 0.000000 0.020854 0.000000
# 6 0.000000 0.000000 0.000000 0.000000 0.000000 0.023558
#
#
# Mechanical properties :
#
#
# Convention : Reuss Voigt Hill
#
# Bulk Modulus (GPa) = 65.06987 65.69112 65.38049
# Shear Modulus (GPa) = 35.77484 37.18143 36.47814
#
# Velocity S-wave (km/s) = 4.03395 4.11249 4.07341
# Velocity P-wave (km/s) = 7.16206 7.24091 7.20160
#
# Compressibility (1/GPa) = 0.01536810
#
# Stress axis : x y z
#
# Youngs Moduli (GPa) = 94.97846 81.65242 76.23554
#
# Poissons Ratio (x) = 0.21107 0.30108
# Poissons Ratio (y) = 0.24552 0.28422
# Poissons Ratio (z) = 0.37510 0.30441
#
# Static dielectric constant tensor:
#      x y z
#    x 3.942190 0.000000 0.000000 
#    y 0.000000 3.816530 0.000000 
#    z 0.000000 0.000000 4.263400 
# 
# 
# High freq. dielectric constant tensor:
#      x y z
#    x 1.870420 0.000000 0.000000 
#    y 0.000000 1.854250 0.000000 
#    z 0.000000 0.000000 1.878310 
# 
# From -- ./inp_files/5945.got.cif
#   From: 2010.03.12/outbox.cif.g09.slc.cpg/sg19_3_cif.got.tgz:5945.got - 2010.04.10 18:59:41.
