data_PCOD8157503
_publ_section_title
;
Structure prediction by ZEFSAII (Michael W. Deem and Ramdas Pophale) SiO2 
 PCOD8157503
Probable space group: P 21 21 21
;
_chemical_formula_sum "Si O2"
_cell_formula_units_Z 32
_cell_length_a 11.572363
_cell_length_b 21.460699
_cell_length_c 5.430845
_cell_angle_alpha 90.000000
_cell_angle_beta 90.000000
_cell_angle_gamma 90.000000
_cell_volume 1348.755781
_symmetry_space_group_name_H-M "P 21 21 21"
_symmetry_group_IT_number 19
_symmetry_cell_setting 'orthorhombic'
loop_
_space_group_symop_operation_xyz
x,y,z
1/2-x,-y,1/2+z
1/2+x,1/2-y,-z
-x,1/2+y,1/2-z
loop_
_atom_site_type_symbol
_atom_site_label
_atom_site_fract_x
_atom_site_fract_y
_atom_site_fract_z
Si Si1 0.551225 0.815270 0.620862
Si Si2 0.274457 0.036176 0.092107
Si Si3 0.529677 0.906371 0.011089
Si Si4 0.285738 0.311025 0.278069
Si Si5 0.038804 0.452514 0.917221
Si Si6 0.430429 0.616724 0.930218
Si Si7 0.865536 0.294927 0.417307
Si Si8 0.845458 0.643831 0.651062
O O1 0.521949 0.884377 0.727868
O O2 0.682435 0.816008 0.510437
O O3 0.548422 0.756059 0.797805
O O4 0.443774 0.806346 0.432786
O O5 0.405007 0.055413 0.143828
O O6 0.197867 0.098289 0.066093
O O7 0.274077 0.999392 0.830920
O O8 0.575937 0.975689 0.053896
O O9 0.624687 0.858769 0.105727
O O10 0.403682 0.899131 0.136887
O O11 0.159396 0.328323 0.371466
O O12 0.308771 0.238598 0.346707
O O13 0.069801 0.423151 0.180264
O O14 0.103915 0.422479 0.677475
O O15 0.555607 0.646313 0.987816
O O16 0.763127 0.317351 0.243277
#
# Coordination Sequence:
#
# PCOD8157503 Si02
#       8
#     4   4   4   4   4   4   4   4
#     4  10  25  46  74 103 140 203 254 311 368 464
#     4  12  24  43  73 110 153 196 241 313 374 457
#     4  10  24  47  74 105 144 196 250 303 381 453
#     4  10  27  47  74 102 148 198 261 301 378 446
#     4  12  27  47  75 112 157 193 252 309 379 452
#     4  12  30  48  75 114 152 197 248 319 375 448
#     4  11  27  45  70 107 149 195 250 314 377 445
#     4  11  24  41  71 105 143 194 248 304 380 445
#
# _framework density 23.725569
#
# number of rings (size 3 to 8) (size 9 to 14) (size 15 to 20)
#    0.000    1.000    2.500    1.500   15.750    1.000 
#    0.000    0.000    0.000    0.000    0.000    0.000 
#    0.000    0.000    0.000    0.000    0.000    0.000 
#
# Total GULP energy -396524.580146 kJ/mol
# GULP energy per Si atom -12391.393130 kJ/mol
# Density = 2.367157 g / cm^3
# Si number density = 23.725569 Si / 1000 Ang^3
#
#
#
# Elastic Constant Matrix: (Units=GPa)
#
#
# Indices 1 2 3 4 5 6 
#
# 1 58.6175 4.4034 1.3325 0.0000 0.0000 0.0000
# 2 4.4034 104.3394 35.7595 0.0000 0.0000 0.0000
# 3 1.3325 35.7595 95.1336 0.0000 0.0000 0.0000
# 4 0.0000 0.0000 0.0000 34.8531 0.0000 0.0000
# 5 0.0000 0.0000 0.0000 0.0000 27.4061 0.0000
# 6 0.0000 0.0000 0.0000 0.0000 0.0000 28.3664
#
#
#
# Elastic Compliance Matrix: (Units=1/GPa)
#
#
# Indices 1 2 3 4 5 6 
#
# 1 0.017114 -0.000735 0.000036 0.000000 0.000000 0.000000
# 2 -0.000735 0.011033 -0.004137 0.000000 0.000000 0.000000
# 3 0.000036 -0.004137 0.012066 0.000000 0.000000 0.000000
# 4 0.000000 0.000000 0.000000 0.028692 0.000000 0.000000
# 5 0.000000 0.000000 0.000000 0.000000 0.036488 0.000000
# 6 0.000000 0.000000 0.000000 0.000000 0.000000 0.035253
#
#
# Mechanical properties :
#
#
# Convention : Reuss Voigt Hill
#
# Bulk Modulus (GPa) = 32.74095 37.89791 35.31943
# Shear Modulus (GPa) = 31.15317 32.56479 31.85898
#
# Velocity S-wave (km/s) = 3.62755 3.70883 3.66842
# Velocity P-wave (km/s) = 5.60137 5.86077 5.73254
#
# Compressibility (1/GPa) = 0.03054280
#
# Stress axis : x y z
#
# Youngs Moduli (GPa) = 58.43125 90.63797 82.87750
#
# Poissons Ratio (x) = 0.06660 -0.00302
# Poissons Ratio (y) = 0.04293 0.34285
# Poissons Ratio (z) = -0.00213 0.37495
#
# Static dielectric constant tensor:
#      x y z
#    x 4.369080 0.000000 0.000000 
#    y 0.000000 4.306730 0.000000 
#    z 0.000000 0.000000 5.305830 
# 
# 
# High freq. dielectric constant tensor:
#      x y z
#    x 1.938870 0.000000 0.000000 
#    y 0.000000 1.942700 0.000000 
#    z 0.000000 0.000000 1.946110 
# 
# From -- ./inp_files/1151.got.cif
#   From: 2010.03.12/outbox.cif.g09.slc.cpg/sg19_1_cif.got.tgz:1151.got - 2010.04.10 18:59:41.
