data_PCOD8157476
_publ_section_title
;
Structure prediction by ZEFSAII (Michael W. Deem and Ramdas Pophale) SiO2 
 PCOD8157476
Probable space group: P 21 21 21
;
_chemical_formula_sum "Si O2"
_cell_formula_units_Z 28
_cell_length_a 7.750114
_cell_length_b 27.537593
_cell_length_c 5.640485
_cell_angle_alpha 90.000000
_cell_angle_beta 90.000000
_cell_angle_gamma 90.000000
_cell_volume 1203.789404
_symmetry_space_group_name_H-M "P 21 21 21"
_symmetry_group_IT_number 19
_symmetry_cell_setting 'orthorhombic'
loop_
_space_group_symop_operation_xyz
x,y,z
1/2-x,-y,1/2+z
1/2+x,1/2-y,-z
-x,1/2+y,1/2-z
loop_
_atom_site_type_symbol
_atom_site_label
_atom_site_fract_x
_atom_site_fract_y
_atom_site_fract_z
Si Si1 0.150230 0.941711 0.398267
Si Si2 0.925999 0.728850 0.253688
Si Si3 0.474471 0.992807 0.270653
Si Si4 0.952765 0.912569 0.991266
Si Si5 0.894758 0.210472 0.755709
Si Si6 0.218852 0.124612 0.258506
Si Si7 0.416236 0.394428 0.384491
O O1 0.269988 0.980498 0.261523
O O2 0.300424 0.908918 0.526726
O O3 0.007268 0.970878 0.547781
O O4 0.038361 0.903311 0.247284
O O5 0.805866 0.776028 0.240549
O O6 0.035971 0.734093 0.497720
O O7 0.808224 0.681235 0.285002
O O8 0.026029 0.727019 0.000619
O O9 0.538312 0.027894 0.482128
O O10 0.592669 0.944689 0.261280
O O11 0.759901 0.891816 0.960649
O O12 0.078082 0.883995 0.813151
O O13 0.919002 0.152565 0.785446
O O14 0.086034 0.104195 0.452935
#
# Coordination Sequence:
#
# PCOD8157476 Si02
#       7
#     4   4   4   4   4   4   4
#     4  11  20  40  65  91 132 190 229 281 353 417
#     4  11  25  47  79 106 149 184 239 300 378 434
#     4  11  21  38  61  92 136 181 233 286 346 421
#     4  11  25  40  65 100 133 193 237 290 357 422
#     4  11  26  49  76 112 139 193 234 305 370 444
#     4  10  24  44  67  96 139 184 229 298 358 426
#     4  11  25  44  67 101 142 177 245 294 360 426
#
# _framework density 23.259881
#
# number of rings (size 3 to 8) (size 9 to 14) (size 15 to 20)
#    0.000    1.143    2.857    2.571    6.000    1.143 
#   12.857    0.000    0.000    0.000    0.000    0.000 
#    0.000    0.000    0.000    0.000    0.000    0.000 
#
# Total GULP energy -346877.424981 kJ/mol
# GULP energy per Si atom -12388.479464 kJ/mol
# Density = 2.320694 g / cm^3
# Si number density = 23.259881 Si / 1000 Ang^3
#
#
#
# Elastic Constant Matrix: (Units=GPa)
#
#
# Indices 1 2 3 4 5 6 
#
# 1 95.7929 6.6678 6.9779 0.0000 0.0000 0.0000
# 2 6.6678 46.8280 7.5599 0.0000 0.0000 0.0000
# 3 6.9779 7.5599 94.6119 0.0000 0.0000 0.0000
# 4 0.0000 0.0000 0.0000 27.1082 0.0000 0.0000
# 5 0.0000 0.0000 0.0000 0.0000 23.9476 0.0000
# 6 0.0000 0.0000 0.0000 0.0000 0.0000 34.2450
#
#
#
# Elastic Compliance Matrix: (Units=1/GPa)
#
#
# Indices 1 2 3 4 5 6 
#
# 1 0.010585 -0.001399 -0.000669 0.000000 0.000000 0.000000
# 2 -0.001399 0.021819 -0.001640 0.000000 0.000000 0.000000
# 3 -0.000669 -0.001640 0.010750 0.000000 0.000000 0.000000
# 4 0.000000 0.000000 0.000000 0.036889 0.000000 0.000000
# 5 0.000000 0.000000 0.000000 0.000000 0.041758 0.000000
# 6 0.000000 0.000000 0.000000 0.000000 0.000000 0.029201
#
#
# Mechanical properties :
#
#
# Convention : Reuss Voigt Hill
#
# Bulk Modulus (GPa) = 27.98197 31.07154 29.52675
# Shear Modulus (GPa) = 29.35454 31.46199 30.40826
#
# Velocity S-wave (km/s) = 3.55635 3.68180 3.61962
# Velocity P-wave (km/s) = 5.37771 5.60907 5.49461
#
# Compressibility (1/GPa) = 0.03573730
#
# Stress axis : x y z
#
# Youngs Moduli (GPa) = 94.47055 45.83204 93.02426
#
# Poissons Ratio (x) = 0.06413 0.06222
# Poissons Ratio (y) = 0.13219 0.15258
# Poissons Ratio (z) = 0.06319 0.07517
#
# Static dielectric constant tensor:
#      x y z
#    x 3.921250 0.000000 0.000000 
#    y 0.000000 4.154090 0.000000 
#    z 0.000000 0.000000 4.321360 
# 
# 
# High freq. dielectric constant tensor:
#      x y z
#    x 1.909110 0.000000 0.000000 
#    y 0.000000 1.917050 0.000000 
#    z 0.000000 0.000000 1.919970 
# 
# From -- ./inp_files/644.got.cif
#   From: 2010.03.12/outbox.cif.g09.slc.cpg/sg19_1_cif.got.tgz:644.got - 2010.04.10 18:59:41.
