data_PCOD8157566
_publ_section_title
;
Structure prediction by ZEFSAII (Michael W. Deem and Ramdas Pophale) SiO2 
 PCOD8157566
Probable space group: P 21 21 21
;
_chemical_formula_sum "Si O2"
_cell_formula_units_Z 32
_cell_length_a 11.831969
_cell_length_b 5.542765
_cell_length_c 20.360730
_cell_angle_alpha 90.000000
_cell_angle_beta 90.000000
_cell_angle_gamma 90.000000
_cell_volume 1335.293804
_symmetry_space_group_name_H-M "P 21 21 21"
_symmetry_group_IT_number 19
_symmetry_cell_setting 'orthorhombic'
loop_
_space_group_symop_operation_xyz
x,y,z
1/2-x,-y,1/2+z
1/2+x,1/2-y,-z
-x,1/2+y,1/2-z
loop_
_atom_site_type_symbol
_atom_site_label
_atom_site_fract_x
_atom_site_fract_y
_atom_site_fract_z
Si Si1 0.560655 0.303616 0.833443
Si Si2 0.655331 0.002162 0.719737
Si Si3 0.627432 0.817204 0.173847
Si Si4 0.490511 0.519394 0.078650
Si Si5 0.743396 0.684185 0.820016
Si Si6 0.353780 0.792669 0.520778
Si Si7 0.444350 0.164097 0.184722
Si Si8 0.738173 0.192927 0.459137
O O1 0.580607 0.087670 0.781883
O O2 0.428025 0.374698 0.831545
O O3 0.637435 0.514819 0.804993
O O4 0.592759 0.248327 0.907848
O O5 0.735274 0.187780 0.679279
O O6 0.753254 0.837102 0.753147
O O7 0.593848 0.673097 0.108415
O O8 0.572570 0.083511 0.168562
O O9 0.570932 0.699791 0.238094
O O10 0.399241 0.680089 0.038442
O O11 0.420597 0.396232 0.139048
O O12 0.543710 0.320451 0.030278
O O13 0.857977 0.543724 0.837247
O O14 0.717555 0.842838 0.884460
O O15 0.286593 0.544391 0.502075
O O16 0.278632 0.040637 0.516413
#
# Coordination Sequence:
#
# PCOD8157566 Si02
#       8
#     4   4   4   4   4   4   4   4
#     4  11  23  43  67 102 144 198 241 300 366 438
#     4  12  23  40  69 105 145 185 244 311 371 432
#     4  12  25  39  71 110 145 179 247 311 382 433
#     4  12  27  47  72 104 147 194 240 313 381 450
#     4  11  21  40  73  99 140 190 246 295 370 449
#     4  11  28  47  74 103 145 199 253 294 374 457
#     4  12  23  43  70 109 142 188 235 317 382 438
#     4  11  24  47  74 102 138 195 248 305 362 457
#
# _framework density 23.964760999999999
#
# number of rings (size 3 to 8) (size 9 to 14) (size 15 to 20)
#    0.000    0.500    6.250    3.000    1.750    1.000 
#    0.000    1.250    0.000    0.000    0.000    0.000 
#    0.000    0.000    0.000    0.000    0.000    0.000 
#
# Total GULP energy -396585.124391 kJ/mol
# GULP energy per Si atom -12393.285137 kJ/mol
# Density = 2.391022 g / cm^3
# Si number density = 23.964761 Si / 1000 Ang^3
#
#
#
# Elastic Constant Matrix: (Units=GPa)
#
#
# Indices 1 2 3 4 5 6 
#
# 1 107.9417 16.8323 24.7540 0.0000 0.0000 0.0000
# 2 16.8323 85.2262 7.1604 0.0000 0.0000 0.0000
# 3 24.7540 7.1604 35.1750 0.0000 0.0000 0.0000
# 4 0.0000 0.0000 0.0000 20.6698 0.0000 0.0000
# 5 0.0000 0.0000 0.0000 0.0000 28.4888 0.0000
# 6 0.0000 0.0000 0.0000 0.0000 0.0000 39.6677
#
#
#
# Elastic Compliance Matrix: (Units=1/GPa)
#
#
# Indices 1 2 3 4 5 6 
#
# 1 0.011254 -0.001584 -0.007597 0.000000 0.000000 0.000000
# 2 -0.001584 0.012161 -0.001361 0.000000 0.000000 0.000000
# 3 -0.007597 -0.001361 0.034053 0.000000 0.000000 0.000000
# 4 0.000000 0.000000 0.000000 0.048380 0.000000 0.000000
# 5 0.000000 0.000000 0.000000 0.000000 0.035101 0.000000
# 6 0.000000 0.000000 0.000000 0.000000 0.000000 0.025209
#
#
# Mechanical properties :
#
#
# Convention : Reuss Voigt Hill
#
# Bulk Modulus (GPa) = 27.48538 36.20405 31.84471
# Shear Modulus (GPa) = 25.07914 29.73835 27.40875
#
# Velocity S-wave (km/s) = 3.23848 3.52649 3.38555
# Velocity P-wave (km/s) = 5.04754 5.63219 5.34786
#
# Compressibility (1/GPa) = 0.03638299
#
# Stress axis : x y z
#
# Youngs Moduli (GPa) = 88.86106 82.23216 29.36633
#
# Poissons Ratio (x) = 0.13028 0.22310
# Poissons Ratio (y) = 0.14078 0.03995
# Poissons Ratio (z) = 0.67508 0.11188
#
# Static dielectric constant tensor:
#      x y z
#    x 4.261980 0.000000 0.000000 
#    y 0.000000 4.343390 0.000000 
#    z 0.000000 0.000000 4.142120 
# 
# 
# High freq. dielectric constant tensor:
#      x y z
#    x 1.949140 0.000000 0.000000 
#    y 0.000000 1.949240 0.000000 
#    z 0.000000 0.000000 1.935080 
# 
# From -- ./inp_files/7145.got.cif
#   From: 2010.03.12/outbox.cif.g09.slc.cpg/sg19_4_cif.got.tgz:7145.got - 2010.04.10 18:59:41.
