data_PCOD8157983
_publ_section_title
;
Structure prediction by ZEFSAII (Michael W. Deem and Ramdas Pophale) SiO2 
 PCOD8157983
Probable space group: C 2 2 21
;
_chemical_formula_sum "Si O2"
_cell_formula_units_Z 48
_cell_length_a 27.459202
_cell_length_b 5.336518
_cell_length_c 17.613731
_cell_angle_alpha 90.000000
_cell_angle_beta 90.000000
_cell_angle_gamma 90.000000
_cell_volume 2581.054946
_symmetry_space_group_name_H-M "C 2 2 21"
_symmetry_group_IT_number 20
_symmetry_cell_setting 'orthorhombic'
loop_
_space_group_symop_operation_xyz
x,y,z
-x,-y,1/2+z
x,-y,-z
-x,y,1/2-z
1/2+x,1/2+y,z
1/2-x,1/2-y,1/2+z
1/2+x,1/2-y,-z
1/2-x,1/2+y,1/2-z
loop_
_atom_site_type_symbol
_atom_site_label
_atom_site_fract_x
_atom_site_fract_y
_atom_site_fract_z
Si Si1 0.689813 0.000002 0.587949
Si Si2 0.599875 0.999996 0.323910
Si Si3 0.645455 0.500005 0.819564
Si Si4 0.444576 0.499994 0.226186
Si Si5 0.824975 0.500006 0.683919
Si Si6 0.284492 0.500000 0.174305
O O1 0.631020 0.000010 0.598750
O O2 0.712205 0.747854 0.623428
O O3 0.702605 0.000000 0.500000
O O4 0.712208 0.252143 0.623428
O O5 0.566399 0.248303 0.321705
O O6 0.639748 0.000004 0.256705
O O7 0.566399 0.751689 0.321703
O O8 0.587899 0.500011 0.803094
O O9 0.661955 0.750099 0.864855
O O10 0.673932 0.499993 0.738155
O O11 0.661953 0.249908 0.864855
O O12 0.500000 0.499993 0.250000
O O13 0.769367 0.500010 0.712575
#
# Coordination Sequence:
#
# PCOD8157983 Si02
#       6
#     8   8   8   8   8   8
#     4  12  23  34  47  67 104 143 172 198 228 289
#     4  10  19  34  46  74 102 128 161 198 251 305
#     4  10  17  29  45  73 100 124 158 188 254 306
#     4  10  18  30  49  69  99 127 146 195 253 300
#     4  10  18  28  51  71  97 130 157 202 245 294
#     4  12  19  33  49  70  99 138 164 201 238 288
#
# _framework density 18.597047
#
# number of rings (size 3 to 8) (size 9 to 14) (size 15 to 20)
#    0.000    1.333    6.667    3.000    0.000    0.000 
#    0.000    0.000    0.000    0.000    0.000    0.000 
#    0.000  106.667    0.000    0.000    0.000    0.000 
#
# Total GULP energy -297350.749046 kJ/mol
# GULP energy per Si atom -12389.614544 kJ/mol
# Density = 1.855472 g / cm^3
# Si number density = 18.597047 Si / 1000 Ang^3
#
#
#
# Elastic Constant Matrix: (Units=GPa)
#
#
# Indices 1 2 3 4 5 6 
#
# 1 132.1388 44.0962 11.1280 0.0000 0.0000 0.0000
# 2 44.0962 215.3036 19.3478 0.0000 0.0000 0.0000
# 3 11.1280 19.3478 31.6101 0.0000 0.0000 0.0000
# 4 0.0000 0.0000 0.0000 7.3399 0.0000 0.0000
# 5 0.0000 0.0000 0.0000 0.0000 12.3057 0.0000
# 6 0.0000 0.0000 0.0000 0.0000 0.0000 21.8280
#
#
#
# Elastic Compliance Matrix: (Units=1/GPa)
#
#
# Indices 1 2 3 4 5 6 
#
# 1 0.008238 -0.001510 -0.001976 0.000000 0.000000 0.000000
# 2 -0.001510 0.005192 -0.002646 0.000000 0.000000 0.000000
# 3 -0.001976 -0.002646 0.033951 0.000000 0.000000 0.000000
# 4 0.000000 0.000000 0.000000 0.136242 0.000000 0.000000
# 5 0.000000 0.000000 0.000000 0.000000 0.081263 0.000000
# 6 0.000000 0.000000 0.000000 0.000000 0.000000 0.045813
#
#
# Mechanical properties :
#
#
# Convention : Reuss Voigt Hill
#
# Bulk Modulus (GPa) = 28.47660 58.68848 43.58254
# Shear Modulus (GPa) = 14.94018 28.59341 21.76679
#
# Velocity S-wave (km/s) = 2.83744 3.92538 3.42489
# Velocity P-wave (km/s) = 5.10690 7.22297 6.25507
#
# Compressibility (1/GPa) = 0.03511656
#
# Stress axis : x y z
#
# Youngs Moduli (GPa) = 121.38870 192.61924 29.45438
#
# Poissons Ratio (x) = 0.29079 0.05820
# Poissons Ratio (y) = 0.18325 0.07794
# Poissons Ratio (z) = 0.23987 0.50971
#
# Static dielectric constant tensor:
#      x y z
#    x 3.372990 0.000000 0.000000 
#    y 0.000000 5.449050 0.000000 
#    z 0.000000 0.000000 2.685500 
# 
# 
# High freq. dielectric constant tensor:
#      x y z
#    x 1.717350 0.000000 0.000000 
#    y 0.000000 1.777710 0.000000 
#    z 0.000000 0.000000 1.626260 
# 
# From -- ./inp_files/25576.got.cif
#   From: 2010.03.12/outbox.cif.g09.slc.cpg/sg20_13_cif.got.tgz:25576.got - 2010.04.14 01:38:04.
