data_PCOD8157890
_publ_section_title
;
Structure prediction by ZEFSAII (Michael W. Deem and Ramdas Pophale) SiO2 
 PCOD8157890
Probable space group: P 21 21 21
;
_chemical_formula_sum "Si O2"
_cell_formula_units_Z 28
_cell_length_a 15.250368
_cell_length_b 5.304863
_cell_length_c 14.057457
_cell_angle_alpha 90.000000
_cell_angle_beta 90.000000
_cell_angle_gamma 90.000000
_cell_volume 1137.263916
_symmetry_space_group_name_H-M "P 21 21 21"
_symmetry_group_IT_number 19
_symmetry_cell_setting 'orthorhombic'
loop_
_space_group_symop_operation_xyz
x,y,z
1/2-x,-y,1/2+z
1/2+x,1/2-y,-z
-x,1/2+y,1/2-z
loop_
_atom_site_type_symbol
_atom_site_label
_atom_site_fract_x
_atom_site_fract_y
_atom_site_fract_z
Si Si1 0.137658 0.135602 0.099902
Si Si2 0.641528 0.175831 0.238950
Si Si3 0.897033 0.632300 0.186075
Si Si4 0.048828 0.652161 0.045889
Si Si5 0.180554 0.657152 0.592969
Si Si6 0.969511 0.487019 0.861141
Si Si7 0.694191 0.872050 0.621188
O O1 0.091990 0.096226 0.201782
O O2 0.103567 0.391692 0.049489
O O3 0.243532 0.132630 0.108382
O O4 0.113302 0.891506 0.037102
O O5 0.603472 0.427325 0.285137
O O6 0.559672 0.027142 0.195637
O O7 0.709596 0.220933 0.154034
O O8 0.694819 0.042440 0.323640
O O9 0.866017 0.372125 0.137415
O O10 0.990994 0.689659 0.140271
O O11 0.834036 0.874994 0.175482
O O12 0.987114 0.664660 0.952184
O O13 0.078064 0.739413 0.598094
O O14 0.194783 0.544014 0.488439
#
# Coordination Sequence:
#
# PCOD8157890 Si02
#       7
#     4   4   4   4   4   4   4
#     4  12  27  47  76 112 154 201 261 323 387 470
#     4  12  27  49  78 114 155 208 263 323 395 473
#     4  12  24  50  75 109 154 201 258 322 391 456
#     4  12  27  48  77 112 153 203 262 318 392 467
#     4  12  27  50  75 111 157 203 259 330 393 468
#     4  12  27  49  78 111 159 204 262 327 391 472
#     4  12  27  47  81 111 154 208 259 323 393 466
#
# _framework density 24.620493
#
# number of rings (size 3 to 8) (size 9 to 14) (size 15 to 20)
#    0.000    0.000    4.286    5.143    4.000    2.286 
#    0.000    0.000    0.000    0.000    0.000    0.000 
#    0.000    0.000    0.000    0.000    0.000    0.000 
#
# Total GULP energy -347156.319412 kJ/mol
# GULP energy per Si atom -12398.439979 kJ/mol
# Density = 2.456446 g / cm^3
# Si number density = 24.620493 Si / 1000 Ang^3
#
#
#
# Elastic Constant Matrix: (Units=GPa)
#
#
# Indices 1 2 3 4 5 6 
#
# 1 97.5039 26.2144 19.5990 0.0000 0.0000 0.0000
# 2 26.2144 112.5126 19.4133 0.0000 0.0000 0.0000
# 3 19.5990 19.4133 106.0533 0.0000 0.0000 0.0000
# 4 0.0000 0.0000 0.0000 28.4532 0.0000 0.0000
# 5 0.0000 0.0000 0.0000 0.0000 50.2699 0.0000
# 6 0.0000 0.0000 0.0000 0.0000 0.0000 41.7155
#
#
#
# Elastic Compliance Matrix: (Units=1/GPa)
#
#
# Indices 1 2 3 4 5 6 
#
# 1 0.011213 -0.002329 -0.001646 0.000000 0.000000 0.000000
# 2 -0.002329 0.009661 -0.001338 0.000000 0.000000 0.000000
# 3 -0.001646 -0.001338 0.009978 0.000000 0.000000 0.000000
# 4 0.000000 0.000000 0.000000 0.035145 0.000000 0.000000
# 5 0.000000 0.000000 0.000000 0.000000 0.019893 0.000000
# 6 0.000000 0.000000 0.000000 0.000000 0.000000 0.023972
#
#
# Mechanical properties :
#
#
# Convention : Reuss Voigt Hill
#
# Bulk Modulus (GPa) = 49.43825 49.61367 49.52596
# Shear Modulus (GPa) = 39.29883 40.81058 40.05471
#
# Velocity S-wave (km/s) = 3.99956 4.07576 4.03784
# Velocity P-wave (km/s) = 6.43835 6.50725 6.47289
#
# Compressibility (1/GPa) = 0.02022725
#
# Stress axis : x y z
#
# Youngs Moduli (GPa) = 89.18316 103.50563 100.21688
#
# Poissons Ratio (x) = 0.24101 0.16495
# Poissons Ratio (y) = 0.20766 0.13411
# Poissons Ratio (z) = 0.14679 0.13851
#
# Static dielectric constant tensor:
#      x y z
#    x 4.667400 0.000000 0.000000 
#    y 0.000000 4.185450 0.000000 
#    z 0.000000 0.000000 4.624550 
# 
# 
# High freq. dielectric constant tensor:
#      x y z
#    x 1.991080 0.000000 0.000000 
#    y 0.000000 1.967250 0.000000 
#    z 0.000000 0.000000 1.995510 
# 
# From -- ./inp_files/6247.got.cif
#   From: 2010.03.12/outbox.cif.g09.slc.cpg/sg19_4_cif.got.tgz:6247.got - 2010.04.10 18:59:41.
