data_PCOD8157396
_publ_section_title
;
Structure prediction by ZEFSAII (Michael W. Deem and Ramdas Pophale) SiO2 
 PCOD8157396
Probable space group: P 21 21 21
;
_chemical_formula_sum "Si O2"
_cell_formula_units_Z 28
_cell_length_a 16.632659
_cell_length_b 9.284708
_cell_length_c 7.751955
_cell_angle_alpha 90.000000
_cell_angle_beta 90.000000
_cell_angle_gamma 90.000000
_cell_volume 1197.129621
_symmetry_space_group_name_H-M "P 21 21 21"
_symmetry_group_IT_number 19
_symmetry_cell_setting 'orthorhombic'
loop_
_space_group_symop_operation_xyz
x,y,z
1/2-x,-y,1/2+z
1/2+x,1/2-y,-z
-x,1/2+y,1/2-z
loop_
_atom_site_type_symbol
_atom_site_label
_atom_site_fract_x
_atom_site_fract_y
_atom_site_fract_z
Si Si1 0.836799 0.427436 0.572125
Si Si2 0.501934 0.046639 0.290804
Si Si3 0.022950 0.815305 0.442366
Si Si4 0.442742 0.510520 0.856152
Si Si5 0.655432 0.883755 0.210612
Si Si6 0.311919 0.102449 0.812178
Si Si7 0.275309 0.400840 0.917392
O O1 0.840343 0.257622 0.598173
O O2 0.849104 0.450348 0.368345
O O3 0.749165 0.482062 0.623287
O O4 0.908993 0.504345 0.678663
O O5 0.532209 0.108349 0.477245
O O6 0.561171 0.912792 0.249190
O O7 0.507802 0.165137 0.138944
O O8 0.018613 0.649611 0.382065
O O9 0.114262 0.875323 0.443984
O O10 0.970248 0.914751 0.318212
O O11 0.346781 0.499561 0.842064
O O12 0.706271 0.862343 0.384740
O O13 0.691931 0.014113 0.098782
O O14 0.265452 0.255379 0.804287
#
# Coordination Sequence:
#
# PCOD8157396 Si02
#       7
#     4   4   4   4   4   4   4
#     4  12  24  45  68 101 137 181 232 283 345 412
#     4  11  24  43  68 101 142 177 230 284 346 411
#     4  11  24  43  72 100 139 182 229 286 350 408
#     4  10  24  44  67 103 137 183 229 286 340 422
#     4  11  25  43  71 100 138 183 227 288 342 411
#     4  11  24  44  72  98 138 180 228 288 343 412
#     4  10  23  44  66 101 135 174 233 277 348 406
#
# _framework density 23.389278999999998
#
# number of rings (size 3 to 8) (size 9 to 14) (size 15 to 20)
#    0.000    1.143    1.429    5.143    6.000    4.571 
#    0.000    4.286    0.000    0.000    0.000    0.000 
#    0.000    0.000    0.000    0.000    0.000    0.000 
#
# Total GULP energy -347141.831088 kJ/mol
# GULP energy per Si atom -12397.922539 kJ/mol
# Density = 2.333604 g / cm^3
# Si number density = 23.389279 Si / 1000 Ang^3
#
#
#
# Elastic Constant Matrix: (Units=GPa)
#
#
# Indices 1 2 3 4 5 6 
#
# 1 64.2347 31.2052 18.7006 0.0000 0.0000 0.0000
# 2 31.2052 68.5610 31.2671 0.0000 0.0000 0.0000
# 3 18.7006 31.2671 120.7653 0.0000 0.0000 0.0000
# 4 0.0000 0.0000 0.0000 31.9544 0.0000 0.0000
# 5 0.0000 0.0000 0.0000 0.0000 39.9878 0.0000
# 6 0.0000 0.0000 0.0000 0.0000 0.0000 33.0669
#
#
#
# Elastic Compliance Matrix: (Units=1/GPa)
#
#
# Indices 1 2 3 4 5 6 
#
# 1 0.020063 -0.008747 -0.000842 0.000000 0.000000 0.000000
# 2 -0.008747 0.020352 -0.003915 0.000000 0.000000 0.000000
# 3 -0.000842 -0.003915 0.009424 0.000000 0.000000 0.000000
# 4 0.000000 0.000000 0.000000 0.031295 0.000000 0.000000
# 5 0.000000 0.000000 0.000000 0.000000 0.025008 0.000000
# 6 0.000000 0.000000 0.000000 0.000000 0.000000 0.030242
#
#
# Mechanical properties :
#
#
# Convention : Reuss Voigt Hill
#
# Bulk Modulus (GPa) = 43.80023 46.21189 45.00606
# Shear Modulus (GPa) = 29.23945 32.49434 30.86689
#
# Velocity S-wave (km/s) = 3.53954 3.73135 3.63671
# Velocity P-wave (km/s) = 5.95582 6.19392 6.07603
#
# Compressibility (1/GPa) = 0.02283093
#
# Stress axis : x y z
#
# Youngs Moduli (GPa) = 49.84421 49.13462 106.10668
#
# Poissons Ratio (x) = 0.42980 0.08933
# Poissons Ratio (y) = 0.43601 0.41539
# Poissons Ratio (z) = 0.04197 0.19235
#
# Static dielectric constant tensor:
#      x y z
#    x 4.412790 0.000000 0.000000 
#    y 0.000000 3.942950 0.000000 
#    z 0.000000 0.000000 4.383340 
# 
# 
# High freq. dielectric constant tensor:
#      x y z
#    x 1.931470 0.000000 0.000000 
#    y 0.000000 1.902830 0.000000 
#    z 0.000000 0.000000 1.938340 
# 
# From -- ./inp_files/4142.got.cif
#   From: 2010.03.12/outbox.cif.g09.slc.cpg/sg19_3_cif.got.tgz:4142.got - 2010.04.10 18:59:41.
