data_PCOD8157753
_publ_section_title
;
Structure prediction by ZEFSAII (Michael W. Deem and Ramdas Pophale) SiO2 
 PCOD8157753
Probable space group: P 21 21 21
;
_chemical_formula_sum "Si O2"
_cell_formula_units_Z 20
_cell_length_a 10.182724
_cell_length_b 5.859326
_cell_length_c 14.817492
_cell_angle_alpha 90.000000
_cell_angle_beta 90.000000
_cell_angle_gamma 90.000000
_cell_volume 884.069353
_symmetry_space_group_name_H-M "P 21 21 21"
_symmetry_group_IT_number 19
_symmetry_cell_setting 'orthorhombic'
loop_
_space_group_symop_operation_xyz
x,y,z
1/2-x,-y,1/2+z
1/2+x,1/2-y,-z
-x,1/2+y,1/2-z
loop_
_atom_site_type_symbol
_atom_site_label
_atom_site_fract_x
_atom_site_fract_y
_atom_site_fract_z
Si Si1 0.454995 0.786946 0.629611
Si Si2 0.174639 0.568793 0.239165
Si Si3 0.538425 0.108551 0.207254
Si Si4 0.466692 0.971268 0.018563
Si Si5 0.313167 0.178596 0.556173
O O1 0.339209 0.671549 0.687949
O O2 0.550309 0.924100 0.695054
O O3 0.546748 0.613236 0.573590
O O4 0.377783 0.929201 0.553468
O O5 0.305236 0.586033 0.297715
O O6 0.174454 0.760371 0.161857
O O7 0.507079 0.357752 0.252109
O O8 0.476258 0.126548 0.107790
O O9 0.337329 0.812257 0.023318
O O10 0.601543 0.828637 0.012494
#
# Coordination Sequence:
#
# PCOD8157753 Si02
#       5
#     4   4   4   4   4
#     4  11  25  43  73 102 148 190 251 306 376 445
#     4  11  24  45  73 102 142 201 245 308 370 455
#     4  12  28  49  77 106 152 196 250 310 372 442
#     4  11  28  44  74 108 145 195 246 316 368 448
#     4  11  25  49  69 106 147 186 254 302 380 444
#
# _framework density 22.62266
#
# number of rings (size 3 to 8) (size 9 to 14) (size 15 to 20)
#    0.000    0.800    4.000    1.200    8.400    1.600 
#    0.000    0.000    0.000    0.000    0.000    0.000 
#    0.000    0.000    0.000    0.000    0.000    0.000 
#
# Total GULP energy -247819.244417 kJ/mol
# GULP energy per Si atom -12390.962221 kJ/mol
# Density = 2.257117 g / cm^3
# Si number density = 22.622660 Si / 1000 Ang^3
#
#
#
# Elastic Constant Matrix: (Units=GPa)
#
#
# Indices 1 2 3 4 5 6 
#
# 1 111.7140 3.4259 16.2528 0.0000 0.0000 0.0000
# 2 3.4259 87.1084 12.4147 0.0000 0.0000 0.0000
# 3 16.2528 12.4147 69.6158 0.0000 0.0000 0.0000
# 4 0.0000 0.0000 0.0000 18.1502 0.0000 0.0000
# 5 0.0000 0.0000 0.0000 0.0000 41.5902 0.0000
# 6 0.0000 0.0000 0.0000 0.0000 0.0000 28.9750
#
#
#
# Elastic Compliance Matrix: (Units=1/GPa)
#
#
# Indices 1 2 3 4 5 6 
#
# 1 0.009266 -0.000058 -0.002153 0.000000 0.000000 0.000000
# 2 -0.000058 0.011780 -0.002087 0.000000 0.000000 0.000000
# 3 -0.002153 -0.002087 0.015239 0.000000 0.000000 0.000000
# 4 0.000000 0.000000 0.000000 0.055096 0.000000 0.000000
# 5 0.000000 0.000000 0.000000 0.000000 0.024044 0.000000
# 6 0.000000 0.000000 0.000000 0.000000 0.000000 0.034513
#
#
# Mechanical properties :
#
#
# Convention : Reuss Voigt Hill
#
# Bulk Modulus (GPa) = 36.11451 36.95833 36.53642
# Shear Modulus (GPa) = 29.80381 33.49940 31.65160
#
# Velocity S-wave (km/s) = 3.63358 3.85228 3.74453
# Velocity P-wave (km/s) = 5.79676 6.01324 5.90599
#
# Compressibility (1/GPa) = 0.02768970
#
# Stress axis : x y z
#
# Youngs Moduli (GPa) = 107.91622 84.89188 65.61915
#
# Poissons Ratio (x) = 0.00489 0.14129
# Poissons Ratio (y) = 0.00621 0.13696
# Poissons Ratio (z) = 0.23236 0.17719
#
# Static dielectric constant tensor:
#      x y z
#    x 4.051670 0.000000 0.000000 
#    y 0.000000 4.310510 0.000000 
#    z 0.000000 0.000000 3.954320 
# 
# 
# High freq. dielectric constant tensor:
#      x y z
#    x 1.899970 0.000000 0.000000 
#    y 0.000000 1.893500 0.000000 
#    z 0.000000 0.000000 1.892710 
# 
# From -- ./inp_files/316.got.cif
#   From: 2010.03.12/outbox.cif.g09.slc.cpg/sg19_1_cif.got.tgz:316.got - 2010.04.10 18:59:41.
