data_PCOD8157335
_publ_section_title
;
Structure prediction by ZEFSAII (Michael W. Deem and Ramdas Pophale) SiO2 
 PCOD8157335
Probable space group: P 21 21 21
;
_chemical_formula_sum "Si O2"
_cell_formula_units_Z 28
_cell_length_a 20.981746
_cell_length_b 8.302013
_cell_length_c 7.917859
_cell_angle_alpha 90.000000
_cell_angle_beta 90.000000
_cell_angle_gamma 90.000000
_cell_volume 1379.217624
_symmetry_space_group_name_H-M "P 21 21 21"
_symmetry_group_IT_number 19
_symmetry_cell_setting 'orthorhombic'
loop_
_space_group_symop_operation_xyz
x,y,z
1/2-x,-y,1/2+z
1/2+x,1/2-y,-z
-x,1/2+y,1/2-z
loop_
_atom_site_type_symbol
_atom_site_label
_atom_site_fract_x
_atom_site_fract_y
_atom_site_fract_z
Si Si1 0.638250 0.105082 0.866821
Si Si2 0.857805 0.211281 0.537362
Si Si3 0.237035 0.168636 0.278463
Si Si4 0.554244 0.570016 0.247850
Si Si5 0.106703 0.690628 0.323936
Si Si6 0.521660 0.279386 0.012360
Si Si7 0.833610 0.456654 0.971130
O O1 0.705396 0.190570 0.832342
O O2 0.643328 0.984085 0.027692
O O3 0.621487 0.000122 0.698313
O O4 0.585367 0.237778 0.910306
O O5 0.786816 0.264787 0.585199
O O6 0.909045 0.274610 0.671960
O O7 0.878760 0.281188 0.354061
O O8 0.272448 0.048297 0.150439
O O9 0.180592 0.075813 0.374951
O O10 0.529695 0.449727 0.105433
O O11 0.494611 0.638271 0.353533
O O12 0.604389 0.477193 0.370515
O O13 0.150980 0.774721 0.464843
O O14 0.033085 0.708073 0.372409
#
# Coordination Sequence:
#
# PCOD8157335 Si02
#       7
#     4   4   4   4   4   4   4
#     4  10  25  36  64  94 120 167 201 255 318 362
#     4   9  22  43  60  92 121 161 208 261 306 364
#     4  11  23  41  64  88 125 163 214 252 314 371
#     4  10  23  41  64  92 128 162 208 263 309 376
#     4   9  23  40  63  89 124 155 209 258 307 365
#     4  11  23  41  65  93 124 167 204 256 315 376
#     4  10  23  40  62  88 120 165 206 257 309 366
#
# _framework density 20.301364
#
# number of rings (size 3 to 8) (size 9 to 14) (size 15 to 20)
#    0.857    1.143    0.000    1.714   10.000    2.286 
#    2.571    0.000    0.000    0.000    0.000    0.000 
#    0.000    0.000    0.000    0.000    0.000    0.000 
#
# Total GULP energy -347091.285824 kJ/mol
# GULP energy per Si atom -12396.117351 kJ/mol
# Density = 2.025516 g / cm^3
# Si number density = 20.301364 Si / 1000 Ang^3
#
#
#
# Elastic Constant Matrix: (Units=GPa)
#
#
# Indices 1 2 3 4 5 6 
#
# 1 98.0830 30.2547 39.4767 0.0000 0.0000 0.0000
# 2 30.2547 69.0017 18.6103 0.0000 0.0000 0.0000
# 3 39.4767 18.6103 75.3578 0.0000 0.0000 0.0000
# 4 0.0000 0.0000 0.0000 38.9281 0.0000 0.0000
# 5 0.0000 0.0000 0.0000 0.0000 40.5819 0.0000
# 6 0.0000 0.0000 0.0000 0.0000 0.0000 19.5680
#
#
#
# Elastic Compliance Matrix: (Units=1/GPa)
#
#
# Indices 1 2 3 4 5 6 
#
# 1 0.014109 -0.004492 -0.006282 0.000000 0.000000 0.000000
# 2 -0.004492 0.016957 -0.001834 0.000000 0.000000 0.000000
# 3 -0.006282 -0.001834 0.017014 0.000000 0.000000 0.000000
# 4 0.000000 0.000000 0.000000 0.025688 0.000000 0.000000
# 5 0.000000 0.000000 0.000000 0.000000 0.024642 0.000000
# 6 0.000000 0.000000 0.000000 0.000000 0.000000 0.051104
#
#
# Mechanical properties :
#
#
# Convention : Reuss Voigt Hill
#
# Bulk Modulus (GPa) = 43.73855 46.56953 45.15404
# Shear Modulus (GPa) = 27.41949 30.08899 28.75424
#
# Velocity S-wave (km/s) = 3.67907 3.85400 3.76755
# Velocity P-wave (km/s) = 6.29594 6.54166 6.41998
#
# Compressibility (1/GPa) = 0.02286313
#
# Stress axis : x y z
#
# Youngs Moduli (GPa) = 70.87429 58.97337 58.77553
#
# Poissons Ratio (x) = 0.26492 0.36923
# Poissons Ratio (y) = 0.31838 0.10782
# Poissons Ratio (z) = 0.44523 0.10818
#
# Static dielectric constant tensor:
#      x y z
#    x 3.588530 0.000000 0.000000 
#    y 0.000000 3.419720 0.000000 
#    z 0.000000 0.000000 3.659580 
# 
# 
# High freq. dielectric constant tensor:
#      x y z
#    x 1.795980 0.000000 0.000000 
#    y 0.000000 1.776330 0.000000 
#    z 0.000000 0.000000 1.795460 
# 
# From -- ./inp_files/4131.got.cif
#   From: 2010.03.12/outbox.cif.g09.slc.cpg/sg19_3_cif.got.tgz:4131.got - 2010.04.10 18:59:41.
