data_PCOD8157294
_publ_section_title
;
Structure prediction by ZEFSAII (Michael W. Deem and Ramdas Pophale) SiO2 
 PCOD8157294
Probable space group: P 21 21 21
;
_chemical_formula_sum "Si O2"
_cell_formula_units_Z 32
_cell_length_a 7.185609
_cell_length_b 11.616790
_cell_length_c 18.250414
_cell_angle_alpha 90.000000
_cell_angle_beta 90.000000
_cell_angle_gamma 90.000000
_cell_volume 1523.429780
_symmetry_space_group_name_H-M "P 21 21 21"
_symmetry_group_IT_number 19
_symmetry_cell_setting 'orthorhombic'
loop_
_space_group_symop_operation_xyz
x,y,z
1/2-x,-y,1/2+z
1/2+x,1/2-y,-z
-x,1/2+y,1/2-z
loop_
_atom_site_type_symbol
_atom_site_label
_atom_site_fract_x
_atom_site_fract_y
_atom_site_fract_z
Si Si1 0.574414 0.405936 0.461373
Si Si2 0.822220 0.518658 0.803663
Si Si3 0.581244 0.467833 0.006995
Si Si4 0.921016 0.167255 0.861575
Si Si5 0.188801 0.351027 0.537736
Si Si6 0.727377 0.741301 0.718193
Si Si7 0.858398 0.944303 0.800554
Si Si8 0.594647 0.324484 0.874628
O O1 0.555624 0.441065 0.375115
O O2 0.699702 0.504389 0.499808
O O3 0.382298 0.400978 0.505974
O O4 0.680098 0.285066 0.471511
O O5 0.718328 0.632001 0.771985
O O6 0.658120 0.430795 0.824040
O O7 0.943484 0.452668 0.742229
O O8 0.539723 0.414535 0.085565
O O9 0.469176 0.585273 0.990179
O O10 0.509150 0.373867 0.948901
O O11 0.774364 0.250692 0.899177
O O12 0.069652 0.243872 0.818800
O O13 0.802685 0.079163 0.809329
O O14 0.136763 0.382239 0.620886
O O15 0.711317 0.866616 0.756659
O O16 0.555336 0.739995 0.662408
#
# Coordination Sequence:
#
# PCOD8157294 Si02
#       8
#     4   4   4   4   4   4   4   4
#     4  11  22  42  71 100 137 177 224 286 339 403
#     4  10  23  46  66  97 137 176 223 282 342 397
#     4  10  25  43  64 100 136 178 227 268 343 407
#     4  10  24  44  63  95 136 172 221 279 335 395
#     4  11  22  42  69 101 137 173 224 281 340 402
#     4  11  23  42  69  95 131 173 224 274 332 409
#     4  10  22  44  65  94 135 176 218 273 342 397
#     4  11  25  41  69  98 131 177 229 271 337 404
#
# _framework density 21.005234000000002
#
# number of rings (size 3 to 8) (size 9 to 14) (size 15 to 20)
#    0.000    1.500    3.750    0.000    5.250    2.000 
#    6.750    5.000    0.000    0.000    0.000    0.000 
#    0.000    0.000    0.000    0.000    0.000    0.000 
#
# Total GULP energy -396478.554784 kJ/mol
# GULP energy per Si atom -12389.954837 kJ/mol
# Density = 2.095743 g / cm^3
# Si number density = 21.005234 Si / 1000 Ang^3
#
#
#
# Elastic Constant Matrix: (Units=GPa)
#
#
# Indices 1 2 3 4 5 6 
#
# 1 71.6774 32.7337 34.3647 0.0000 0.0000 0.0000
# 2 32.7337 93.3575 35.8615 0.0000 0.0000 0.0000
# 3 34.3647 35.8615 82.9262 0.0000 0.0000 0.0000
# 4 0.0000 0.0000 0.0000 38.8952 0.0000 0.0000
# 5 0.0000 0.0000 0.0000 0.0000 27.6226 0.0000
# 6 0.0000 0.0000 0.0000 0.0000 0.0000 33.6783
#
#
#
# Elastic Compliance Matrix: (Units=1/GPa)
#
#
# Indices 1 2 3 4 5 6 
#
# 1 0.018750 -0.004305 -0.005908 0.000000 0.000000 0.000000
# 2 -0.004305 0.013834 -0.004199 0.000000 0.000000 0.000000
# 3 -0.005908 -0.004199 0.016323 0.000000 0.000000 0.000000
# 4 0.000000 0.000000 0.000000 0.025710 0.000000 0.000000
# 5 0.000000 0.000000 0.000000 0.000000 0.036202 0.000000
# 6 0.000000 0.000000 0.000000 0.000000 0.000000 0.029693
#
#
# Mechanical properties :
#
#
# Convention : Reuss Voigt Hill
#
# Bulk Modulus (GPa) = 49.79239 50.43124 50.11182
# Shear Modulus (GPa) = 28.40435 29.70596 29.05516
#
# Velocity S-wave (km/s) = 3.68129 3.76469 3.72322
# Velocity P-wave (km/s) = 6.46725 6.55425 6.51090
#
# Compressibility (1/GPa) = 0.02008339
#
# Stress axis : x y z
#
# Youngs Moduli (GPa) = 53.33344 72.28764 61.26313
#
# Poissons Ratio (x) = 0.31117 0.36197
# Poissons Ratio (y) = 0.22958 0.25721
# Poissons Ratio (z) = 0.31512 0.30350
#
# Static dielectric constant tensor:
#      x y z
#    x 3.491010 0.000000 0.000000 
#    y 0.000000 4.082830 0.000000 
#    z 0.000000 0.000000 3.839480 
# 
# 
# High freq. dielectric constant tensor:
#      x y z
#    x 1.801750 0.000000 0.000000 
#    y 0.000000 1.845820 0.000000 
#    z 0.000000 0.000000 1.820300 
# 
# From -- ./inp_files/6903.got.cif
#   From: 2010.03.12/outbox.cif.g09.slc.cpg/sg19_4_cif.got.tgz:6903.got - 2010.04.10 18:59:41.
