data_PCOD8157495
_publ_section_title
;
Structure prediction by ZEFSAII (Michael W. Deem and Ramdas Pophale) SiO2 
 PCOD8157495
Probable space group: P 21 21 21
;
_chemical_formula_sum "Si O2"
_cell_formula_units_Z 28
_cell_length_a 9.413849
_cell_length_b 14.338324
_cell_length_c 9.428558
_cell_angle_alpha 90.000000
_cell_angle_beta 90.000000
_cell_angle_gamma 90.000000
_cell_volume 1272.655605
_symmetry_space_group_name_H-M "P 21 21 21"
_symmetry_group_IT_number 19
_symmetry_cell_setting 'orthorhombic'
loop_
_space_group_symop_operation_xyz
x,y,z
1/2-x,-y,1/2+z
1/2+x,1/2-y,-z
-x,1/2+y,1/2-z
loop_
_atom_site_type_symbol
_atom_site_label
_atom_site_fract_x
_atom_site_fract_y
_atom_site_fract_z
Si Si1 0.403107 0.448902 0.736394
Si Si2 0.858540 0.470858 0.058585
Si Si3 0.562869 0.184643 0.952382
Si Si4 0.581493 0.361271 0.140326
Si Si5 0.689848 0.945491 0.454704
Si Si6 0.976086 0.252295 0.344097
Si Si7 0.812932 0.668315 0.934682
O O1 0.555595 0.492639 0.696472
O O2 0.286426 0.477449 0.620006
O O3 0.408346 0.337826 0.730051
O O4 0.363547 0.484000 0.893534
O O5 0.710753 0.428856 0.106613
O O6 0.949950 0.389214 0.980081
O O7 0.830912 0.557207 0.954154
O O8 0.721892 0.149339 0.980259
O O9 0.534040 0.183663 0.783058
O O10 0.550813 0.287078 0.016456
O O11 0.441748 0.424982 0.149461
O O12 0.611424 0.306789 0.285859
O O13 0.108019 0.227714 0.445115
O O14 0.853383 0.305315 0.432484
#
# Coordination Sequence:
#
# PCOD8157495 Si02
#       7
#     4   4   4   4   4   4   4
#     4  10  24  46  66 102 137 182 224 291 338 416
#     4  10  25  45  70  97 147 172 234 287 345 400
#     4  11  23  47  69  96 138 185 225 295 335 415
#     4  12  24  43  71 100 132 182 236 273 348 411
#     4  11  25  39  73  97 136 178 232 274 349 409
#     4  11  24  48  67  97 147 176 232 290 349 405
#     4  11  27  44  70 105 137 183 229 288 344 414
#
# _framework density 22.001239999999999
#
# number of rings (size 3 to 8) (size 9 to 14) (size 15 to 20)
#    0.000    1.143    2.857    1.714   10.000    2.286 
#    2.571    0.000    0.000    0.000    0.000    0.000 
#    0.000    0.000    0.000    0.000    0.000    0.000 
#
# Total GULP energy -347291.135567 kJ/mol
# GULP energy per Si atom -12403.254842 kJ/mol
# Density = 2.195116 g / cm^3
# Si number density = 22.001240 Si / 1000 Ang^3
#
#
#
# Elastic Constant Matrix: (Units=GPa)
#
#
# Indices 1 2 3 4 5 6 
#
# 1 117.1375 39.9998 15.9751 0.0000 0.0000 0.0000
# 2 39.9998 82.5471 19.7969 0.0000 0.0000 0.0000
# 3 15.9751 19.7969 79.0744 0.0000 0.0000 0.0000
# 4 0.0000 0.0000 0.0000 33.3436 0.0000 0.0000
# 5 0.0000 0.0000 0.0000 0.0000 36.8918 0.0000
# 6 0.0000 0.0000 0.0000 0.0000 0.0000 25.1927
#
#
#
# Elastic Compliance Matrix: (Units=1/GPa)
#
#
# Indices 1 2 3 4 5 6 
#
# 1 0.010287 -0.004773 -0.000883 0.000000 0.000000 0.000000
# 2 -0.004773 0.015103 -0.002817 0.000000 0.000000 0.000000
# 3 -0.000883 -0.002817 0.013530 0.000000 0.000000 0.000000
# 4 0.000000 0.000000 0.000000 0.029991 0.000000 0.000000
# 5 0.000000 0.000000 0.000000 0.000000 0.027106 0.000000
# 6 0.000000 0.000000 0.000000 0.000000 0.000000 0.039694
#
#
# Mechanical properties :
#
#
# Convention : Reuss Voigt Hill
#
# Bulk Modulus (GPa) = 45.50912 47.81141 46.66026
# Shear Modulus (GPa) = 31.25350 32.61811 31.93580
#
# Velocity S-wave (km/s) = 3.77309 3.85458 3.81405
# Velocity P-wave (km/s) = 6.30169 6.44893 6.37574
#
# Compressibility (1/GPa) = 0.02197362
#
# Stress axis : x y z
#
# Youngs Moduli (GPa) = 97.20681 66.21318 73.90993
#
# Poissons Ratio (x) = 0.31604 0.06529
# Poissons Ratio (y) = 0.46398 0.20819
# Poissons Ratio (z) = 0.08587 0.18651
#
# Static dielectric constant tensor:
#      x y z
#    x 4.100980 0.000000 0.000000 
#    y 0.000000 3.967220 0.000000 
#    z 0.000000 0.000000 3.888900 
# 
# 
# High freq. dielectric constant tensor:
#      x y z
#    x 1.879640 0.000000 0.000000 
#    y 0.000000 1.872060 0.000000 
#    z 0.000000 0.000000 1.855050 
# 
# From -- ./inp_files/2854.got.cif
#   From: 2010.03.12/outbox.cif.g09.slc.cpg/sg19_2_cif.got.tgz:2854.got - 2010.04.10 18:59:41.
