data_PCOD8157341
_publ_section_title
;
Structure prediction by ZEFSAII (Michael W. Deem and Ramdas Pophale) SiO2 
 PCOD8157341
Probable space group: P 21 21 21
;
_chemical_formula_sum "Si O2"
_cell_formula_units_Z 32
_cell_length_a 16.163639
_cell_length_b 11.076154
_cell_length_c 8.051611
_cell_angle_alpha 90.000000
_cell_angle_beta 90.000000
_cell_angle_gamma 90.000000
_cell_volume 1441.487605
_symmetry_space_group_name_H-M "P 21 21 21"
_symmetry_group_IT_number 19
_symmetry_cell_setting 'orthorhombic'
loop_
_space_group_symop_operation_xyz
x,y,z
1/2-x,-y,1/2+z
1/2+x,1/2-y,-z
-x,1/2+y,1/2-z
loop_
_atom_site_type_symbol
_atom_site_label
_atom_site_fract_x
_atom_site_fract_y
_atom_site_fract_z
Si Si1 0.916644 0.241580 0.944774
Si Si2 0.691647 0.541988 0.361440
Si Si3 0.587370 0.206111 0.193757
Si Si4 0.839471 0.903995 0.168770
Si Si5 0.897480 0.671023 0.034512
Si Si6 0.640577 0.438909 0.018896
Si Si7 0.984313 0.073539 0.201951
Si Si8 0.670071 0.980588 0.314632
O O1 0.843212 0.337939 0.948937
O O2 0.893887 0.130957 0.821343
O O3 0.997590 0.312188 0.884938
O O4 0.931751 0.186532 0.128704
O O5 0.666031 0.428484 0.472137
O O6 0.660385 0.530275 0.171389
O O7 0.791177 0.549011 0.373734
O O8 0.570735 0.248620 0.381742
O O9 0.640743 0.303121 0.090890
O O10 0.635798 0.078738 0.183002
O O11 0.851431 0.759064 0.165856
O O12 0.761165 0.933046 0.279907
O O13 0.922978 0.963260 0.242662
O O14 0.821492 0.953251 0.987900
O O15 0.975420 0.609894 0.124154
O O16 0.551921 0.468997 0.936461
#
# Coordination Sequence:
#
# PCOD8157341 Si02
#       8
#     4   4   4   4   4   4   4   4
#     4  10  24  39  66  94 124 173 211 263 329 386
#     4  11  24  41  67  94 130 173 220 264 340 385
#     4   9  22  42  63  92 130 166 216 269 325 392
#     4  10  24  42  64  95 129 172 215 271 322 391
#     4  10  23  41  64  96 128 170 215 270 328 395
#     4  10  23  41  65  92 131 170 214 278 318 398
#     4  10  23  43  65  95 132 169 217 268 326 390
#     4  10  23  41  64  92 130 165 220 265 322 387
#
# _framework density 22.199289
#
# number of rings (size 3 to 8) (size 9 to 14) (size 15 to 20)
#    0.000    2.000    0.000    0.750   17.500    2.000 
#    0.000    0.000    0.000    0.000    0.000    0.000 
#    0.000    0.000    0.000    0.000    0.000    0.000 
#
# Total GULP energy -396868.605197 kJ/mol
# GULP energy per Si atom -12402.143912 kJ/mol
# Density = 2.214876 g / cm^3
# Si number density = 22.199289 Si / 1000 Ang^3
#
#
#
# Elastic Constant Matrix: (Units=GPa)
#
#
# Indices 1 2 3 4 5 6 
#
# 1 81.2943 15.3291 8.5514 0.0000 0.0000 0.0000
# 2 15.3291 80.0622 2.7278 0.0000 0.0000 0.0000
# 3 8.5514 2.7278 40.0219 0.0000 0.0000 0.0000
# 4 0.0000 0.0000 0.0000 16.4023 0.0000 0.0000
# 5 0.0000 0.0000 0.0000 0.0000 34.0573 0.0000
# 6 0.0000 0.0000 0.0000 0.0000 0.0000 22.9814
#
#
#
# Elastic Compliance Matrix: (Units=1/GPa)
#
#
# Indices 1 2 3 4 5 6 
#
# 1 0.013030 -0.002406 -0.002620 0.000000 0.000000 0.000000
# 2 -0.002406 0.012963 -0.000370 0.000000 0.000000 0.000000
# 3 -0.002620 -0.000370 0.025571 0.000000 0.000000 0.000000
# 4 0.000000 0.000000 0.000000 0.060967 0.000000 0.000000
# 5 0.000000 0.000000 0.000000 0.000000 0.029362 0.000000
# 6 0.000000 0.000000 0.000000 0.000000 0.000000 0.043514
#
#
# Mechanical properties :
#
#
# Convention : Reuss Voigt Hill
#
# Bulk Modulus (GPa) = 24.52517 28.28831 26.40674
# Shear Modulus (GPa) = 23.83335 26.33952 25.08643
#
# Velocity S-wave (km/s) = 3.28015 3.44830 3.36528
# Velocity P-wave (km/s) = 5.04158 5.35023 5.19820
#
# Compressibility (1/GPa) = 0.04077444
#
# Stress axis : x y z
#
# Youngs Moduli (GPa) = 76.74474 77.13990 39.10623
#
# Poissons Ratio (x) = 0.18556 0.10247
# Poissons Ratio (y) = 0.18461 0.01445
# Poissons Ratio (z) = 0.20109 0.02851
#
# Static dielectric constant tensor:
#      x y z
#    x 3.937990 0.000000 0.000000 
#    y 0.000000 4.162290 0.000000 
#    z 0.000000 0.000000 3.900760 
# 
# 
# High freq. dielectric constant tensor:
#      x y z
#    x 1.875220 0.000000 0.000000 
#    y 0.000000 1.877400 0.000000 
#    z 0.000000 0.000000 1.866230 
# 
# From -- ./inp_files/3919.got.cif
#   From: 2010.03.12/outbox.cif.g09.slc.cpg/sg19_2_cif.got.tgz:3919.got - 2010.04.10 18:59:41.
