data_PCOD8157361
_publ_section_title
;
Structure prediction by ZEFSAII (Michael W. Deem and Ramdas Pophale) SiO2 
 PCOD8157361
Probable space group: P 21 21 21
;
_chemical_formula_sum "Si O2"
_cell_formula_units_Z 32
_cell_length_a 29.816274
_cell_length_b 8.564312
_cell_length_c 5.271325
_cell_angle_alpha 90.000000
_cell_angle_beta 90.000000
_cell_angle_gamma 90.000000
_cell_volume 1346.063798
_symmetry_space_group_name_H-M "P 21 21 21"
_symmetry_group_IT_number 19
_symmetry_cell_setting 'orthorhombic'
loop_
_space_group_symop_operation_xyz
x,y,z
1/2-x,-y,1/2+z
1/2+x,1/2-y,-z
-x,1/2+y,1/2-z
loop_
_atom_site_type_symbol
_atom_site_label
_atom_site_fract_x
_atom_site_fract_y
_atom_site_fract_z
Si Si1 0.144991 0.584786 0.254412
Si Si2 0.874045 0.561879 0.709776
Si Si3 0.757227 0.095443 0.102290
Si Si4 0.461546 0.362802 0.247772
Si Si5 0.615245 0.072620 0.227916
Si Si6 0.273965 0.935111 0.424901
Si Si7 0.408163 0.147581 0.906930
Si Si8 0.466094 0.060376 0.516885
O O1 0.193238 0.650685 0.326814
O O2 0.127205 0.477429 0.485588
O O3 0.115532 0.740552 0.198710
O O4 0.149094 0.488014 0.991674
O O5 0.884062 0.742894 0.726571
O O6 0.915356 0.479437 0.569029
O O7 0.826599 0.519054 0.581141
O O8 0.874607 0.486833 0.993234
O O9 0.726271 0.247846 0.092552
O O10 0.739834 0.982893 0.325293
O O11 0.434797 0.512460 0.361756
O O12 0.483356 0.234841 0.437148
O O13 0.499432 0.425881 0.055343
O O14 0.420981 0.269674 0.122100
O O15 0.247824 0.009819 0.187606
O O16 0.456323 0.071901 0.818467
#
# Coordination Sequence:
#
# PCOD8157361 Si02
#       8
#     4   4   4   4   4   4   4   4
#     4  11  23  44  71  94 140 184 235 282 358 417
#     4  11  26  43  68 103 137 186 242 289 364 415
#     4  12  25  44  70 103 138 187 239 298 356 424
#     4  10  23  42  66 103 133 180 233 280 356 415
#     4  11  24  44  70 103 139 183 231 294 341 428
#     4  12  28  46  72 105 147 190 245 306 359 426
#     4  10  24  43  67  98 135 191 226 292 350 430
#     4  11  23  44  70  95 143 179 233 289 352 429
#
# _framework density 23.773016999999999
#
# number of rings (size 3 to 8) (size 9 to 14) (size 15 to 20)
#    0.000    1.000    1.250    4.500    5.250    3.000 
#    2.250    0.000    0.000    0.000    0.000    0.000 
#    0.000    0.000    0.000    0.000    0.000    0.000 
#
# Total GULP energy -396457.517465 kJ/mol
# GULP energy per Si atom -12389.297421 kJ/mol
# Density = 2.371891 g / cm^3
# Si number density = 23.773017 Si / 1000 Ang^3
#
#
#
# Elastic Constant Matrix: (Units=GPa)
#
#
# Indices 1 2 3 4 5 6 
#
# 1 75.2833 20.3680 -6.5737 0.0000 0.0000 0.0000
# 2 20.3680 124.6217 27.7372 0.0000 0.0000 0.0000
# 3 -6.5737 27.7372 83.2003 0.0000 0.0000 0.0000
# 4 0.0000 0.0000 0.0000 31.3849 0.0000 0.0000
# 5 0.0000 0.0000 0.0000 0.0000 32.1247 0.0000
# 6 0.0000 0.0000 0.0000 0.0000 0.0000 38.0482
#
#
#
# Elastic Compliance Matrix: (Units=1/GPa)
#
#
# Indices 1 2 3 4 5 6 
#
# 1 0.014214 -0.002779 0.002050 0.000000 0.000000 0.000000
# 2 -0.002779 0.009211 -0.003290 0.000000 0.000000 0.000000
# 3 0.002050 -0.003290 0.013278 0.000000 0.000000 0.000000
# 4 0.000000 0.000000 0.000000 0.031862 0.000000 0.000000
# 5 0.000000 0.000000 0.000000 0.000000 0.031129 0.000000
# 6 0.000000 0.000000 0.000000 0.000000 0.000000 0.026282
#
#
# Mechanical properties :
#
#
# Convention : Reuss Voigt Hill
#
# Bulk Modulus (GPa) = 34.88820 40.68539 37.78680
# Shear Modulus (GPa) = 34.82601 36.41648 35.62124
#
# Velocity S-wave (km/s) = 3.83160 3.91812 3.87510
# Velocity P-wave (km/s) = 5.85511 6.13353 5.99593
#
# Compressibility (1/GPa) = 0.02866299
#
# Stress axis : x y z
#
# Youngs Moduli (GPa) = 70.35276 108.56750 75.31231
#
# Poissons Ratio (x) = 0.30174 -0.15436
# Poissons Ratio (y) = 0.19553 0.24780
# Poissons Ratio (z) = -0.14420 0.35722
#
# Static dielectric constant tensor:
#      x y z
#    x 4.323340 0.000000 0.000000 
#    y 0.000000 4.478090 0.000000 
#    z 0.000000 0.000000 4.598400 
# 
# 
# High freq. dielectric constant tensor:
#      x y z
#    x 1.944700 0.000000 0.000000 
#    y 0.000000 1.956470 0.000000 
#    z 0.000000 0.000000 1.939330 
# 
# From -- ./inp_files/2309.got.cif
#   From: 2010.03.12/outbox.cif.g09.slc.cpg/sg19_2_cif.got.tgz:2309.got - 2010.04.10 18:59:41.
