data_PCOD8157914
_publ_section_title
;
Structure prediction by ZEFSAII (Michael W. Deem and Ramdas Pophale) SiO2 
 PCOD8157914
Probable space group: P 21 21 21
;
_chemical_formula_sum "Si O2"
_cell_formula_units_Z 20
_cell_length_a 8.375568
_cell_length_b 4.977327
_cell_length_c 18.945441
_cell_angle_alpha 90.000000
_cell_angle_beta 90.000000
_cell_angle_gamma 90.000000
_cell_volume 789.796422
_symmetry_space_group_name_H-M "P 21 21 21"
_symmetry_group_IT_number 19
_symmetry_cell_setting 'orthorhombic'
loop_
_space_group_symop_operation_xyz
x,y,z
1/2-x,-y,1/2+z
1/2+x,1/2-y,-z
-x,1/2+y,1/2-z
loop_
_atom_site_type_symbol
_atom_site_label
_atom_site_fract_x
_atom_site_fract_y
_atom_site_fract_z
Si Si1 0.812918 0.103440 0.529129
Si Si2 0.828244 0.592338 0.316495
Si Si3 0.676242 0.596142 0.458220
Si Si4 0.321365 0.576457 0.829181
Si Si5 0.602257 0.267667 0.243391
O O1 0.796734 0.346404 0.473299
O O2 0.734949 0.233326 0.600836
O O3 0.704071 0.845558 0.510220
O O4 0.996121 0.012560 0.536438
O O5 0.721460 0.712955 0.380121
O O6 0.818416 0.760876 0.243947
O O7 0.745586 0.304245 0.300243
O O8 0.008105 0.559182 0.341183
O O9 0.185737 0.343441 0.826896
O O10 0.524796 0.556258 0.225805
#
# Coordination Sequence:
#
# PCOD8157914 Si02
#       5
#     4   4   4   4   4
#     4  12  29  53  81 112 156 205 258 317 386 463
#     4  12  27  48  80 116 157 202 260 317 385 453
#     4  12  29  53  81 112 156 205 258 317 386 463
#     4  12  27  48  80 116 157 202 260 317 385 453
#     4  12  26  44  72 112 152 194 250 316 376 442
#
# _framework density 25.322984000000002
#
# number of rings (size 3 to 8) (size 9 to 14) (size 15 to 20)
#    0.000    0.000    4.000    4.800    5.600    1.600 
#    0.000    0.000    0.000    0.000    0.000    0.000 
#    0.000    0.000    0.000    0.000    0.000    0.000 
#
# Total GULP energy -247858.757679 kJ/mol
# GULP energy per Si atom -12392.937884 kJ/mol
# Density = 2.526535 g / cm^3
# Si number density = 25.322984 Si / 1000 Ang^3
#
#
#
# Elastic Constant Matrix: (Units=GPa)
#
#
# Indices 1 2 3 4 5 6 
#
# 1 119.0167 27.6933 25.8517 0.0000 0.0000 0.0000
# 2 27.6933 106.7656 29.0197 0.0000 0.0000 0.0000
# 3 25.8517 29.0197 129.1158 0.0000 0.0000 0.0000
# 4 0.0000 0.0000 0.0000 38.9486 0.0000 0.0000
# 5 0.0000 0.0000 0.0000 0.0000 42.4639 0.0000
# 6 0.0000 0.0000 0.0000 0.0000 0.0000 27.1732
#
#
#
# Elastic Compliance Matrix: (Units=1/GPa)
#
#
# Indices 1 2 3 4 5 6 
#
# 1 0.009169 -0.002002 -0.001386 0.000000 0.000000 0.000000
# 2 -0.002002 0.010413 -0.001940 0.000000 0.000000 0.000000
# 3 -0.001386 -0.001940 0.008458 0.000000 0.000000 0.000000
# 4 0.000000 0.000000 0.000000 0.025675 0.000000 0.000000
# 5 0.000000 0.000000 0.000000 0.000000 0.023549 0.000000
# 6 0.000000 0.000000 0.000000 0.000000 0.000000 0.036801
#
#
# Mechanical properties :
#
#
# Convention : Reuss Voigt Hill
#
# Bulk Modulus (GPa) = 57.51795 57.78082 57.64939
# Shear Modulus (GPa) = 38.30985 39.87270 39.09128
#
# Velocity S-wave (km/s) = 3.89376 3.97238 3.93327
# Velocity P-wave (km/s) = 6.55577 6.62623 6.59109
#
# Compressibility (1/GPa) = 0.01738588
#
# Stress axis : x y z
#
# Youngs Moduli (GPa) = 109.06358 96.03679 118.22545
#
# Poissons Ratio (x) = 0.19222 0.16386
# Poissons Ratio (y) = 0.21830 0.22931
# Poissons Ratio (z) = 0.15116 0.18627
#
# Static dielectric constant tensor:
#      x y z
#    x 5.091390 0.000000 0.000000 
#    y 0.000000 4.519100 0.000000 
#    z 0.000000 0.000000 4.632800 
# 
# 
# High freq. dielectric constant tensor:
#      x y z
#    x 2.039830 0.000000 0.000000 
#    y 0.000000 2.000630 0.000000 
#    z 0.000000 0.000000 2.011580 
# 
# From -- ./inp_files/355.got.cif
#   From: 2010.03.12/outbox.cif.g09.slc.cpg/sg19_1_cif.got.tgz:355.got - 2010.04.10 18:59:41.
