data_PCOD8157029
_publ_section_title
;
Structure prediction by ZEFSAII (Michael W. Deem and Ramdas Pophale) SiO2 
 PCOD8157029
Probable space group: P 21 21 21
;
_chemical_formula_sum "Si O2"
_cell_formula_units_Z 20
_cell_length_a 16.025074
_cell_length_b 4.830737
_cell_length_c 11.319524
_cell_angle_alpha 90.000000
_cell_angle_beta 90.000000
_cell_angle_gamma 90.000000
_cell_volume 876.277382
_symmetry_space_group_name_H-M "P 21 21 21"
_symmetry_group_IT_number 19
_symmetry_cell_setting 'orthorhombic'
loop_
_space_group_symop_operation_xyz
x,y,z
1/2-x,-y,1/2+z
1/2+x,1/2-y,-z
-x,1/2+y,1/2-z
loop_
_atom_site_type_symbol
_atom_site_label
_atom_site_fract_x
_atom_site_fract_y
_atom_site_fract_z
Si Si1 0.455323 0.839141 0.795867
Si Si2 0.485698 0.846765 0.326611
Si Si3 0.313762 0.936034 0.263400
Si Si4 0.890003 0.797292 0.968991
Si Si5 0.791718 0.936475 0.182662
O O1 0.466839 0.138341 0.736448
O O2 0.372179 0.682685 0.745766
O O3 0.445889 0.882810 0.938091
O O4 0.494198 0.029377 0.205172
O O5 0.549944 0.956087 0.423642
O O6 0.387139 0.869293 0.359521
O O7 0.349869 0.889261 0.132376
O O8 0.231439 0.751076 0.285600
O O9 0.288800 0.254762 0.280670
O O10 0.812709 0.930684 0.042461
#
# Coordination Sequence:
#
# PCOD8157029 Si02
#       5
#     4   4   4   4   4
#     4  10  22  43  63  91 128 172 213 257 321 391
#     4  10  21  39  68  91 123 170 219 262 317 391
#     4  11  21  43  64  96 129 166 221 265 325 380
#     4   9  24  43  66  89 134 171 209 270 323 371
#     4  10  24  40  65  95 132 167 212 274 318 385
#
# _framework density 22.823823999999998
#
# number of rings (size 3 to 8) (size 9 to 14) (size 15 to 20)
#    1.200    0.800    0.000    3.600    0.000    9.600 
#   10.800    0.000    0.000    0.000    0.000    0.000 
#    0.000    0.000    0.000    0.000    0.000    0.000 
#
# Total GULP energy -247804.613178 kJ/mol
# GULP energy per Si atom -12390.230659 kJ/mol
# Density = 2.277188 g / cm^3
# Si number density = 22.823824 Si / 1000 Ang^3
#
#
#
# Elastic Constant Matrix: (Units=GPa)
#
#
# Indices 1 2 3 4 5 6 
#
# 1 80.5608 0.5795 33.6876 0.0000 0.0000 0.0000
# 2 0.5795 61.3982 10.6924 0.0000 0.0000 0.0000
# 3 33.6876 10.6924 115.7754 0.0000 0.0000 0.0000
# 4 0.0000 0.0000 0.0000 20.5436 0.0000 0.0000
# 5 0.0000 0.0000 0.0000 0.0000 38.8747 0.0000
# 6 0.0000 0.0000 0.0000 0.0000 0.0000 46.1447
#
#
#
# Elastic Compliance Matrix: (Units=1/GPa)
#
#
# Indices 1 2 3 4 5 6 
#
# 1 0.014154 0.000593 -0.004173 0.000000 0.000000 0.000000
# 2 0.000593 0.016578 -0.001704 0.000000 0.000000 0.000000
# 3 -0.004173 -0.001704 0.010009 0.000000 0.000000 0.000000
# 4 0.000000 0.000000 0.000000 0.048677 0.000000 0.000000
# 5 0.000000 0.000000 0.000000 0.000000 0.025724 0.000000
# 6 0.000000 0.000000 0.000000 0.000000 0.000000 0.021671
#
#
# Mechanical properties :
#
#
# Convention : Reuss Voigt Hill
#
# Bulk Modulus (GPa) = 33.14145 38.62815 35.88480
# Shear Modulus (GPa) = 31.75856 35.29760 33.52808
#
# Velocity S-wave (km/s) = 3.73428 3.93685 3.83690
# Velocity P-wave (km/s) = 5.75719 6.13403 5.94859
#
# Compressibility (1/GPa) = 0.03017370
#
# Stress axis : x y z
#
# Youngs Moduli (GPa) = 70.65248 60.32015 99.90974
#
# Poissons Ratio (x) = -0.03578 0.41694
# Poissons Ratio (y) = -0.04191 0.17021
# Poissons Ratio (z) = 0.29484 0.10277
#
# Static dielectric constant tensor:
#      x y z
#    x 4.314060 0.000000 0.000000 
#    y 0.000000 3.815210 0.000000 
#    z 0.000000 0.000000 3.738520 
# 
# 
# High freq. dielectric constant tensor:
#      x y z
#    x 1.914600 0.000000 0.000000 
#    y 0.000000 1.903970 0.000000 
#    z 0.000000 0.000000 1.861560 
# 
# From -- ./inp_files/5319.got.cif
#   From: 2010.03.12/outbox.cif.g09.slc.cpg/sg19_3_cif.got.tgz:5319.got - 2010.04.10 18:59:41.
