data_PCOD8157563
_publ_section_title
;
Structure prediction by ZEFSAII (Michael W. Deem and Ramdas Pophale) SiO2 
 PCOD8157563
Probable space group: P 21 21 21
;
_chemical_formula_sum "Si O2"
_cell_formula_units_Z 28
_cell_length_a 4.822453
_cell_length_b 12.430434
_cell_length_c 20.281001
_cell_angle_alpha 90.000000
_cell_angle_beta 90.000000
_cell_angle_gamma 90.000000
_cell_volume 1215.748331
_symmetry_space_group_name_H-M "P 21 21 21"
_symmetry_group_IT_number 19
_symmetry_cell_setting 'orthorhombic'
loop_
_space_group_symop_operation_xyz
x,y,z
1/2-x,-y,1/2+z
1/2+x,1/2-y,-z
-x,1/2+y,1/2-z
loop_
_atom_site_type_symbol
_atom_site_label
_atom_site_fract_x
_atom_site_fract_y
_atom_site_fract_z
Si Si1 0.584202 0.720642 0.542164
Si Si2 0.088682 0.205619 0.706497
Si Si3 0.124303 0.417346 0.458390
Si Si4 0.708842 0.158880 0.169820
Si Si5 0.134856 0.026111 0.458544
Si Si6 0.683521 0.482295 0.834582
Si Si7 0.924455 0.722170 0.126145
O O1 0.274855 0.751590 0.520566
O O2 0.658124 0.790373 0.605180
O O3 0.599133 0.596461 0.562679
O O4 0.113467 0.248431 0.780417
O O5 0.267487 0.270768 0.653964
O O6 0.775963 0.226936 0.682026
O O7 0.187747 0.081342 0.706422
O O8 0.439981 0.446481 0.478045
O O9 0.111043 0.290966 0.441100
O O10 0.949483 0.447928 0.522255
O O11 0.000546 0.483952 0.397498
O O12 0.443606 0.091144 0.146161
O O13 0.950754 0.086541 0.205713
O O14 0.095742 0.097392 0.392932
#
# Coordination Sequence:
#
# PCOD8157563 Si02
#       7
#     4   4   4   4   4   4   4
#     4  12  26  42  62  91 125 161 211 260 313 381
#     4  11  25  43  65  95 127 165 214 262 310 377
#     4  11  21  39  66  95 127 169 210 250 319 388
#     4  12  25  43  67  92 124 170 215 261 321 382
#     4  12  23  39  64  95 131 165 204 270 323 364
#     4  11  23  43  68  91 126 172 217 262 313 384
#     4  11  23  41  64  97 130 164 211 261 313 380
#
# _framework density 23.031082000000001
#
# number of rings (size 3 to 8) (size 9 to 14) (size 15 to 20)
#    0.000    0.571    0.000   11.143    0.000    2.286 
#    0.000    0.000    0.000    0.000    0.000    0.000 
#    0.000    0.000    0.000    0.000    0.000    0.000 
#
# Total GULP energy -347202.878095 kJ/mol
# GULP energy per Si atom -12400.102789 kJ/mol
# Density = 2.297866 g / cm^3
# Si number density = 23.031082 Si / 1000 Ang^3
#
#
#
# Elastic Constant Matrix: (Units=GPa)
#
#
# Indices 1 2 3 4 5 6 
#
# 1 81.2756 22.5266 -0.3071 0.0000 0.0000 0.0000
# 2 22.5266 139.7049 29.1074 0.0000 0.0000 0.0000
# 3 -0.3071 29.1074 57.7719 0.0000 0.0000 0.0000
# 4 0.0000 0.0000 0.0000 21.9423 0.0000 0.0000
# 5 0.0000 0.0000 0.0000 0.0000 28.1084 0.0000
# 6 0.0000 0.0000 0.0000 0.0000 0.0000 36.0490
#
#
#
# Elastic Compliance Matrix: (Units=1/GPa)
#
#
# Indices 1 2 3 4 5 6 
#
# 1 0.012960 -0.002351 0.001253 0.000000 0.000000 0.000000
# 2 -0.002351 0.008424 -0.004257 0.000000 0.000000 0.000000
# 3 0.001253 -0.004257 0.019461 0.000000 0.000000 0.000000
# 4 0.000000 0.000000 0.000000 0.045574 0.000000 0.000000
# 5 0.000000 0.000000 0.000000 0.000000 0.035577 0.000000
# 6 0.000000 0.000000 0.000000 0.000000 0.000000 0.027740
#
#
# Mechanical properties :
#
#
# Convention : Reuss Voigt Hill
#
# Bulk Modulus (GPa) = 33.18260 42.37848 37.78054
# Shear Modulus (GPa) = 29.32732 32.38163 30.85448
#
# Velocity S-wave (km/s) = 3.57232 3.75373 3.66415
# Velocity P-wave (km/s) = 5.60841 6.10146 5.86012
#
# Compressibility (1/GPa) = 0.03013628
#
# Stress axis : x y z
#
# Youngs Moduli (GPa) = 77.15971 118.70989 51.38536
#
# Poissons Ratio (x) = 0.27907 -0.06440
# Poissons Ratio (y) = 0.18139 0.21873
# Poissons Ratio (z) = -0.09671 0.50532
#
# Static dielectric constant tensor:
#      x y z
#    x 4.448410 0.000000 0.000000 
#    y 0.000000 4.436910 0.000000 
#    z 0.000000 0.000000 3.649840 
# 
# 
# High freq. dielectric constant tensor:
#      x y z
#    x 1.933930 0.000000 0.000000 
#    y 0.000000 1.923640 0.000000 
#    z 0.000000 0.000000 1.879310 
# 
# From -- ./inp_files/6878.got.cif
#   From: 2010.03.12/outbox.cif.g09.slc.cpg/sg19_4_cif.got.tgz:6878.got - 2010.04.10 18:59:41.
