data_PCOD8157863
_publ_section_title
;
Structure prediction by ZEFSAII (Michael W. Deem and Ramdas Pophale) SiO2 
 PCOD8157863
Probable space group: P 21 21 21
;
_chemical_formula_sum "Si O2"
_cell_formula_units_Z 28
_cell_length_a 4.893073
_cell_length_b 12.154438
_cell_length_c 22.461678
_cell_angle_alpha 90.000000
_cell_angle_beta 90.000000
_cell_angle_gamma 90.000000
_cell_volume 1335.853322
_symmetry_space_group_name_H-M "P 21 21 21"
_symmetry_group_IT_number 19
_symmetry_cell_setting 'orthorhombic'
loop_
_space_group_symop_operation_xyz
x,y,z
1/2-x,-y,1/2+z
1/2+x,1/2-y,-z
-x,1/2+y,1/2-z
loop_
_atom_site_type_symbol
_atom_site_label
_atom_site_fract_x
_atom_site_fract_y
_atom_site_fract_z
Si Si1 0.033835 0.886425 0.374661
Si Si2 0.479482 0.261847 0.164675
Si Si3 0.712878 0.206748 0.282282
Si Si4 0.639787 0.172043 0.998483
Si Si5 0.639649 0.037837 0.113798
Si Si6 0.794673 0.558048 0.219089
Si Si7 0.673608 0.575251 0.836983
O O1 0.326129 0.826324 0.381523
O O2 0.830194 0.803024 0.340547
O O3 0.925470 0.904946 0.441567
O O4 0.072308 0.998996 0.338775
O O5 0.583834 0.284666 0.231240
O O6 0.511516 0.131850 0.156181
O O7 0.485160 0.117242 0.302710
O O8 0.813089 0.291678 0.333405
O O9 0.984587 0.146575 0.258541
O O10 0.729637 0.089026 0.050756
O O11 0.377297 0.242525 0.018916
O O12 0.385803 0.954292 0.110058
O O13 0.880538 0.970713 0.144586
O O14 0.737698 0.474517 0.272896
#
# Coordination Sequence:
#
# PCOD8157863 Si02
#       7
#     4   4   4   4   4   4   4
#     4  12  24  39  61  96 129 170 203 259 321 387
#     4  12  21  36  64  92 132 160 207 251 313 396
#     4  12  25  39  60  93 131 169 209 256 316 386
#     4  12  23  39  64  94 128 166 206 262 323 376
#     4  12  23  39  61  94 131 166 207 256 322 384
#     4  12  24  39  62  90 129 169 209 258 320 378
#     4  12  24  39  62  91 128 170 209 258 319 379
#
# _framework density 20.960383
#
# number of rings (size 3 to 8) (size 9 to 14) (size 15 to 20)
#    0.000    0.000    7.143    4.286    2.000    0.000 
#    0.000    0.000    0.000    3.429    0.000    0.000 
#    0.000    0.000    0.000    0.000    0.000    0.000 
#
# Total GULP energy -347157.836829 kJ/mol
# GULP energy per Si atom -12398.494172 kJ/mol
# Density = 2.091268 g / cm^3
# Si number density = 20.960383 Si / 1000 Ang^3
#
#
#
# Elastic Constant Matrix: (Units=GPa)
#
#
# Indices 1 2 3 4 5 6 
#
# 1 98.6648 32.8457 2.5648 0.0000 0.0000 0.0000
# 2 32.8457 68.1817 23.6025 0.0000 0.0000 0.0000
# 3 2.5648 23.6025 71.3910 0.0000 0.0000 0.0000
# 4 0.0000 0.0000 0.0000 28.3914 0.0000 0.0000
# 5 0.0000 0.0000 0.0000 0.0000 30.1004 0.0000
# 6 0.0000 0.0000 0.0000 0.0000 0.0000 32.3707
#
#
#
# Elastic Compliance Matrix: (Units=1/GPa)
#
#
# Indices 1 2 3 4 5 6 
#
# 1 0.012253 -0.006493 0.001707 0.000000 0.000000 0.000000
# 2 -0.006493 0.020003 -0.006380 0.000000 0.000000 0.000000
# 3 0.001707 -0.006380 0.016055 0.000000 0.000000 0.000000
# 4 0.000000 0.000000 0.000000 0.035222 0.000000 0.000000
# 5 0.000000 0.000000 0.000000 0.000000 0.033222 0.000000
# 6 0.000000 0.000000 0.000000 0.000000 0.000000 0.030892
#
#
# Mechanical properties :
#
#
# Convention : Reuss Voigt Hill
#
# Bulk Modulus (GPa) = 38.49442 39.58482 39.03962
# Shear Modulus (GPa) = 27.98922 30.12080 29.05501
#
# Velocity S-wave (km/s) = 3.65819 3.79494 3.72719
# Velocity P-wave (km/s) = 6.02066 6.17484 6.09824
#
# Compressibility (1/GPa) = 0.02597779
#
# Stress axis : x y z
#
# Youngs Moduli (GPa) = 81.61539 49.99169 62.28452
#
# Poissons Ratio (x) = 0.32461 -0.10629
# Poissons Ratio (y) = 0.52995 0.39738
# Poissons Ratio (z) = -0.13928 0.31895
#
# Static dielectric constant tensor:
#      x y z
#    x 3.949100 0.000000 0.000000 
#    y 0.000000 3.713330 0.000000 
#    z 0.000000 0.000000 3.560020 
# 
# 
# High freq. dielectric constant tensor:
#      x y z
#    x 1.844710 0.000000 0.000000 
#    y 0.000000 1.806910 0.000000 
#    z 0.000000 0.000000 1.793700 
# 
# From -- ./inp_files/6893.got.cif
#   From: 2010.03.12/outbox.cif.g09.slc.cpg/sg19_4_cif.got.tgz:6893.got - 2010.04.10 18:59:41.
