data_PCOD8157108
_publ_section_title
;
Structure prediction by ZEFSAII (Michael W. Deem and Ramdas Pophale) SiO2 
 PCOD8157108
Probable space group: P 21 21 21
;
_chemical_formula_sum "Si O2"
_cell_formula_units_Z 32
_cell_length_a 13.912998
_cell_length_b 9.002250
_cell_length_c 11.871639
_cell_angle_alpha 90.000000
_cell_angle_beta 90.000000
_cell_angle_gamma 90.000000
_cell_volume 1486.902440
_symmetry_space_group_name_H-M "P 21 21 21"
_symmetry_group_IT_number 19
_symmetry_cell_setting 'orthorhombic'
loop_
_space_group_symop_operation_xyz
x,y,z
1/2-x,-y,1/2+z
1/2+x,1/2-y,-z
-x,1/2+y,1/2-z
loop_
_atom_site_type_symbol
_atom_site_label
_atom_site_fract_x
_atom_site_fract_y
_atom_site_fract_z
Si Si1 0.198067 0.213372 0.530115
Si Si2 0.893220 0.876999 0.493330
Si Si3 0.971825 0.853868 0.858357
Si Si4 0.850364 0.165165 0.630305
Si Si5 0.612328 0.589705 0.549848
Si Si6 0.270302 0.052737 0.730541
Si Si7 0.577909 0.357899 0.163375
Si Si8 0.227475 0.743860 0.636840
O O1 0.122398 0.339522 0.565034
O O2 0.252674 0.270864 0.421620
O O3 0.272823 0.176053 0.631257
O O4 0.137167 0.067422 0.503934
O O5 0.888813 0.710956 0.545361
O O6 0.808165 0.876750 0.400751
O O7 0.997556 0.899583 0.438709
O O8 0.870966 0.999082 0.588648
O O9 0.955167 0.781703 0.736757
O O10 0.063350 0.770391 0.912401
O O11 0.989626 0.029001 0.848164
O O12 0.835918 0.167439 0.765166
O O13 0.652410 0.602455 0.676699
O O14 0.656088 0.715980 0.467328
O O15 0.163931 0.047661 0.783608
O O16 0.286143 0.887992 0.681925
#
# Coordination Sequence:
#
# PCOD8157108 Si02
#       8
#     4   4   4   4   4   4   4   4
#     4  10  23  41  70 101 134 184 228 286 351 418
#     4  12  27  42  70 107 143 182 241 291 356 419
#     4  11  22  40  69 100 127 182 233 283 348 414
#     4  12  24  45  70 102 143 179 236 294 343 422
#     4  11  21  47  69 103 139 183 232 297 353 424
#     4  10  21  43  73  93 136 182 231 279 356 419
#     4  11  22  42  69 101 131 178 236 292 343 418
#     4  11  24  44  72 101 137 186 233 294 354 422
#
# _framework density 21.521250999999999
#
# number of rings (size 3 to 8) (size 9 to 14) (size 15 to 20)
#    0.000    1.000    5.000    1.500    3.500    4.000 
#    4.500    0.000    0.000    0.000    0.000    0.000 
#    0.000    0.000    0.000    0.000    0.000    0.000 
#
# Total GULP energy -396895.611041 kJ/mol
# GULP energy per Si atom -12402.987845 kJ/mol
# Density = 2.147227 g / cm^3
# Si number density = 21.521251 Si / 1000 Ang^3
#
#
#
# Elastic Constant Matrix: (Units=GPa)
#
#
# Indices 1 2 3 4 5 6 
#
# 1 100.8284 24.4145 33.4651 0.0000 0.0000 0.0000
# 2 24.4145 68.7154 15.6507 0.0000 0.0000 0.0000
# 3 33.4651 15.6507 65.9829 0.0000 0.0000 0.0000
# 4 0.0000 0.0000 0.0000 30.8145 0.0000 0.0000
# 5 0.0000 0.0000 0.0000 0.0000 38.3758 0.0000
# 6 0.0000 0.0000 0.0000 0.0000 0.0000 29.6090
#
#
#
# Elastic Compliance Matrix: (Units=1/GPa)
#
#
# Indices 1 2 3 4 5 6 
#
# 1 0.012550 -0.003181 -0.005611 0.000000 0.000000 0.000000
# 2 -0.003181 0.016190 -0.002227 0.000000 0.000000 0.000000
# 3 -0.005611 -0.002227 0.018529 0.000000 0.000000 0.000000
# 4 0.000000 0.000000 0.000000 0.032452 0.000000 0.000000
# 5 0.000000 0.000000 0.000000 0.000000 0.026058 0.000000
# 6 0.000000 0.000000 0.000000 0.000000 0.000000 0.033773
#
#
# Mechanical properties :
#
#
# Convention : Reuss Voigt Hill
#
# Bulk Modulus (GPa) = 39.63153 42.50971 41.07062
# Shear Modulus (GPa) = 29.41147 30.55965 29.98556
#
# Velocity S-wave (km/s) = 3.70080 3.77234 3.73674
# Velocity P-wave (km/s) = 6.05939 6.22651 6.14352
#
# Compressibility (1/GPa) = 0.02523244
#
# Stress axis : x y z
#
# Youngs Moduli (GPa) = 79.67917 61.76569 53.96878
#
# Poissons Ratio (x) = 0.19649 0.30280
# Poissons Ratio (y) = 0.25348 0.12018
# Poissons Ratio (z) = 0.44706 0.13754
#
# Static dielectric constant tensor:
#      x y z
#    x 3.838760 0.000000 0.000000 
#    y 0.000000 3.756570 0.000000 
#    z 0.000000 0.000000 3.884130 
# 
# 
# High freq. dielectric constant tensor:
#      x y z
#    x 1.845170 0.000000 0.000000 
#    y 0.000000 1.843900 0.000000 
#    z 0.000000 0.000000 1.836120 
# 
# From -- ./inp_files/3574.got.cif
#   From: 2010.03.12/outbox.cif.g09.slc.cpg/sg19_2_cif.got.tgz:3574.got - 2010.04.10 18:59:41.
