data_PCOD8157402
_publ_section_title
;
Structure prediction by ZEFSAII (Michael W. Deem and Ramdas Pophale) SiO2 
 PCOD8157402
Probable space group: P 21 21 21
;
_chemical_formula_sum "Si O2"
_cell_formula_units_Z 32
_cell_length_a 14.926483
_cell_length_b 8.651556
_cell_length_c 10.863126
_cell_angle_alpha 90.000000
_cell_angle_beta 90.000000
_cell_angle_gamma 90.000000
_cell_volume 1402.834800
_symmetry_space_group_name_H-M "P 21 21 21"
_symmetry_group_IT_number 19
_symmetry_cell_setting 'orthorhombic'
loop_
_space_group_symop_operation_xyz
x,y,z
1/2-x,-y,1/2+z
1/2+x,1/2-y,-z
-x,1/2+y,1/2-z
loop_
_atom_site_type_symbol
_atom_site_label
_atom_site_fract_x
_atom_site_fract_y
_atom_site_fract_z
Si Si1 0.896472 0.468654 0.212905
Si Si2 0.550282 0.818270 0.144697
Si Si3 0.550875 0.187634 0.135249
Si Si4 0.453532 0.732770 0.642890
Si Si5 0.238389 0.624426 0.895986
Si Si6 0.275499 0.807345 0.231329
Si Si7 0.706244 0.001383 0.852675
Si Si8 0.614049 0.328729 0.498499
O O1 0.918016 0.602274 0.311050
O O2 0.790028 0.435694 0.212990
O O3 0.958948 0.315804 0.223500
O O4 0.917673 0.523987 0.074559
O O5 0.528288 0.755769 0.279998
O O6 0.648532 0.769171 0.093523
O O7 0.475658 0.745628 0.052680
O O8 0.546549 0.003766 0.142265
O O9 0.650975 0.244661 0.172672
O O10 0.528165 0.254389 0.001281
O O11 0.386849 0.588066 0.661293
O O12 0.228582 0.565387 0.754950
O O13 0.238925 0.489445 0.003123
O O14 0.330824 0.717172 0.910057
O O15 0.205720 0.680534 0.177570
O O16 0.326591 0.883728 0.116298
#
# Coordination Sequence:
#
# PCOD8157402 Si02
#       8
#     4   4   4   4   4   4   4   4
#     4  12  25  45  69 100 144 183 236 300 366 426
#     4  11  23  48  73 101 149 190 240 302 360 442
#     4  11  24  48  71 105 141 188 246 295 364 443
#     4  12  25  47  69 102 144 188 239 302 367 440
#     4  11  22  42  75 105 140 195 237 302 369 435
#     4  10  24  42  69 102 137 183 239 295 359 435
#     4  11  20  44  70 101 141 183 243 290 367 433
#     4  10  23  44  68 102 142 182 234 296 358 430
#
# _framework density 22.810955
#
# number of rings (size 3 to 8) (size 9 to 14) (size 15 to 20)
#    0.000    1.000    5.000    0.750    1.750    3.000 
#   13.500    0.000    0.000    0.000    0.000    0.000 
#    0.000    0.000    0.000    0.000    0.000    0.000 
#
# Total GULP energy -396470.185570 kJ/mol
# GULP energy per Si atom -12389.693299 kJ/mol
# Density = 2.275904 g / cm^3
# Si number density = 22.810955 Si / 1000 Ang^3
#
#
#
# Elastic Constant Matrix: (Units=GPa)
#
#
# Indices 1 2 3 4 5 6 
#
# 1 120.3512 25.9291 42.6300 0.0000 0.0000 0.0000
# 2 25.9291 56.5599 21.8668 0.0000 0.0000 0.0000
# 3 42.6300 21.8668 124.2747 0.0000 0.0000 0.0000
# 4 0.0000 0.0000 0.0000 29.9940 0.0000 0.0000
# 5 0.0000 0.0000 0.0000 0.0000 31.0295 0.0000
# 6 0.0000 0.0000 0.0000 0.0000 0.0000 40.5053
#
#
#
# Elastic Compliance Matrix: (Units=1/GPa)
#
#
# Indices 1 2 3 4 5 6 
#
# 1 0.010072 -0.003521 -0.002835 0.000000 0.000000 0.000000
# 2 -0.003521 0.020202 -0.002347 0.000000 0.000000 0.000000
# 3 -0.002835 -0.002347 0.009432 0.000000 0.000000 0.000000
# 4 0.000000 0.000000 0.000000 0.033340 0.000000 0.000000
# 5 0.000000 0.000000 0.000000 0.000000 0.032227 0.000000
# 6 0.000000 0.000000 0.000000 0.000000 0.000000 0.024688
#
#
# Mechanical properties :
#
#
# Convention : Reuss Voigt Hill
#
# Bulk Modulus (GPa) = 44.84423 53.55975 49.20199
# Shear Modulus (GPa) = 32.29943 34.35642 33.32793
#
# Velocity S-wave (km/s) = 3.76701 3.88511 3.82651
# Velocity P-wave (km/s) = 6.21468 6.60729 6.41399
#
# Compressibility (1/GPa) = 0.02229941
#
# Stress axis : x y z
#
# Youngs Moduli (GPa) = 99.28539 49.50035 106.01924
#
# Poissons Ratio (x) = 0.17430 0.30061
# Poissons Ratio (y) = 0.34960 0.24880
# Poissons Ratio (z) = 0.28152 0.11617
#
# Static dielectric constant tensor:
#      x y z
#    x 4.345900 0.000000 0.000000 
#    y 0.000000 3.762450 0.000000 
#    z 0.000000 0.000000 4.425290 
# 
# 
# High freq. dielectric constant tensor:
#      x y z
#    x 1.909870 0.000000 0.000000 
#    y 0.000000 1.868080 0.000000 
#    z 0.000000 0.000000 1.918340 
# 
# From -- ./inp_files/5286.got.cif
#   From: 2010.03.12/outbox.cif.g09.slc.cpg/sg19_3_cif.got.tgz:5286.got - 2010.04.10 18:59:41.
