data_PCOD8157671
_publ_section_title
;
Structure prediction by ZEFSAII (Michael W. Deem and Ramdas Pophale) SiO2 
 PCOD8157671
Probable space group: P 21 21 21
;
_chemical_formula_sum "Si O2"
_cell_formula_units_Z 20
_cell_length_a 14.228205
_cell_length_b 9.763720
_cell_length_c 6.373755
_cell_angle_alpha 90.000000
_cell_angle_beta 90.000000
_cell_angle_gamma 90.000000
_cell_volume 885.443381
_symmetry_space_group_name_H-M "P 21 21 21"
_symmetry_group_IT_number 19
_symmetry_cell_setting 'orthorhombic'
loop_
_space_group_symop_operation_xyz
x,y,z
1/2-x,-y,1/2+z
1/2+x,1/2-y,-z
-x,1/2+y,1/2-z
loop_
_atom_site_type_symbol
_atom_site_label
_atom_site_fract_x
_atom_site_fract_y
_atom_site_fract_z
Si Si1 0.731565 0.202052 0.980478
Si Si2 0.072848 0.847096 0.564566
Si Si3 0.993687 0.113308 0.646194
Si Si4 0.338297 0.550180 0.163351
Si Si5 0.440700 0.698604 0.800422
O O1 0.819803 0.302419 0.959340
O O2 0.647631 0.255947 0.833631
O O3 0.754808 0.045743 0.916519
O O4 0.700563 0.189377 0.225907
O O5 0.007655 0.734771 0.682808
O O6 0.021165 0.870455 0.342118
O O7 0.072298 0.993687 0.686580
O O8 0.010044 0.173961 0.415586
O O9 0.894509 0.034164 0.657284
O O10 0.405497 0.587268 0.969176
#
# Coordination Sequence:
#
# PCOD8157671 Si02
#       5
#     4   4   4   4   4
#     4  11  24  43  71 106 137 192 246 296 359 435
#     4  11  27  44  76 101 145 195 236 304 361 432
#     4  11  24  46  68 106 143 185 242 295 359 431
#     4  11  23  43  72 103 139 186 252 289 354 443
#     4  12  24  44  73 102 144 188 242 302 357 425
#
# _framework density 22.587554000000001
#
# number of rings (size 3 to 8) (size 9 to 14) (size 15 to 20)
#    0.000    0.800    6.000    0.000    8.400    0.000 
#    7.200    0.000    0.000    0.000    0.000    0.000 
#    0.000    0.000    0.000    0.000    0.000    0.000 
#
# Total GULP energy -247902.933527 kJ/mol
# GULP energy per Si atom -12395.146676 kJ/mol
# Density = 2.253614 g / cm^3
# Si number density = 22.587554 Si / 1000 Ang^3
#
#
#
# Elastic Constant Matrix: (Units=GPa)
#
#
# Indices 1 2 3 4 5 6 
#
# 1 86.6472 -7.1983 42.0990 0.0000 0.0000 0.0000
# 2 -7.1983 76.9483 19.6601 0.0000 0.0000 0.0000
# 3 42.0990 19.6601 97.2488 0.0000 0.0000 0.0000
# 4 0.0000 0.0000 0.0000 35.0526 0.0000 0.0000
# 5 0.0000 0.0000 0.0000 0.0000 40.7285 0.0000
# 6 0.0000 0.0000 0.0000 0.0000 0.0000 38.5156
#
#
#
# Elastic Compliance Matrix: (Units=1/GPa)
#
#
# Indices 1 2 3 4 5 6 
#
# 1 0.015375 0.003310 -0.007325 0.000000 0.000000 0.000000
# 2 0.003310 0.014416 -0.004347 0.000000 0.000000 0.000000
# 3 -0.007325 -0.004347 0.014333 0.000000 0.000000 0.000000
# 4 0.000000 0.000000 0.000000 0.028529 0.000000 0.000000
# 5 0.000000 0.000000 0.000000 0.000000 0.024553 0.000000
# 6 0.000000 0.000000 0.000000 0.000000 0.000000 0.025964
#
#
# Mechanical properties :
#
#
# Convention : Reuss Voigt Hill
#
# Bulk Modulus (GPa) = 36.49763 41.10731 38.80247
# Shear Modulus (GPa) = 33.55111 36.61156 35.08134
#
# Velocity S-wave (km/s) = 3.85824 4.03037 3.94525
# Velocity P-wave (km/s) = 6.00345 6.31642 6.16192
#
# Compressibility (1/GPa) = 0.02739904
#
# Stress axis : x y z
#
# Youngs Moduli (GPa) = 65.04085 69.36710 69.77047
#
# Poissons Ratio (x) = -0.22959 0.51106
# Poissons Ratio (y) = -0.21527 0.30331
# Poissons Ratio (z) = 0.47642 0.30155
#
# Static dielectric constant tensor:
#      x y z
#    x 3.986410 0.000000 0.000000 
#    y 0.000000 4.052340 0.000000 
#    z 0.000000 0.000000 4.206200 
# 
# 
# High freq. dielectric constant tensor:
#      x y z
#    x 1.890170 0.000000 0.000000 
#    y 0.000000 1.877640 0.000000 
#    z 0.000000 0.000000 1.893990 
# 
# From -- ./inp_files/824.got.cif
#   From: 2010.03.12/outbox.cif.g09.slc.cpg/sg19_1_cif.got.tgz:824.got - 2010.04.10 18:59:41.
