data_PCOD8157626
_publ_section_title
;
Structure prediction by ZEFSAII (Michael W. Deem and Ramdas Pophale) SiO2 
 PCOD8157626
Probable space group: P 21 21 21
;
_chemical_formula_sum "Si O2"
_cell_formula_units_Z 32
_cell_length_a 13.701470
_cell_length_b 12.261404
_cell_length_c 8.627317
_cell_angle_alpha 90.000000
_cell_angle_beta 90.000000
_cell_angle_gamma 90.000000
_cell_volume 1449.382864
_symmetry_space_group_name_H-M "P 21 21 21"
_symmetry_group_IT_number 19
_symmetry_cell_setting 'orthorhombic'
loop_
_space_group_symop_operation_xyz
x,y,z
1/2-x,-y,1/2+z
1/2+x,1/2-y,-z
-x,1/2+y,1/2-z
loop_
_atom_site_type_symbol
_atom_site_label
_atom_site_fract_x
_atom_site_fract_y
_atom_site_fract_z
Si Si1 0.940272 0.991806 0.252334
Si Si2 0.322963 0.332690 0.566701
Si Si3 0.337138 0.718638 0.610199
Si Si4 0.349971 0.935745 0.779919
Si Si5 0.870702 0.162180 0.775766
Si Si6 0.924916 0.743534 0.711850
Si Si7 0.379713 0.562154 0.079327
Si Si8 0.775396 0.613364 0.882799
O O1 0.889508 0.885305 0.318683
O O2 0.885322 0.100844 0.308009
O O3 0.939856 0.984567 0.066050
O O4 0.051830 0.995549 0.310346
O O5 0.380630 0.314754 0.407225
O O6 0.225057 0.397162 0.519843
O O7 0.297248 0.215900 0.641132
O O8 0.380963 0.827826 0.685646
O O9 0.221432 0.718795 0.642728
O O10 0.355475 0.716664 0.426996
O O11 0.272942 0.004438 0.681039
O O12 0.298484 0.901992 0.937749
O O13 0.968502 0.212070 0.852143
O O14 0.864983 0.032821 0.796299
O O15 0.936574 0.839720 0.837714
O O16 0.875626 0.637475 0.790807
#
# Coordination Sequence:
#
# PCOD8157626 Si02
#       8
#     4   4   4   4   4   4   4   4
#     4  12  26  43  77 107 143 185 245 296 364 428
#     4  11  22  45  72 103 142 186 238 301 357 423
#     4  12  25  46  69 110 141 192 246 299 355 433
#     4  12  27  47  74 104 152 191 243 297 368 438
#     4  12  24  44  75  99 144 191 238 296 357 428
#     4  11  27  44  72 105 149 188 245 294 369 436
#     4  11  23  43  69 109 143 186 239 305 353 424
#     4  11  26  48  70 103 146 191 234 304 365 434
#
# _framework density 22.078361999999998
#
# number of rings (size 3 to 8) (size 9 to 14) (size 15 to 20)
#    0.000    0.500    3.750    3.750    7.000    3.000 
#    0.000    0.000    0.000    0.000    0.000    0.000 
#    0.000    0.000    0.000    0.000    0.000    0.000 
#
# Total GULP energy -397046.814206 kJ/mol
# GULP energy per Si atom -12407.712944 kJ/mol
# Density = 2.202811 g / cm^3
# Si number density = 22.078362 Si / 1000 Ang^3
#
#
#
# Elastic Constant Matrix: (Units=GPa)
#
#
# Indices 1 2 3 4 5 6 
#
# 1 100.5771 56.9496 38.6380 0.0000 0.0000 0.0000
# 2 56.9496 91.9056 45.2267 0.0000 0.0000 0.0000
# 3 38.6380 45.2267 117.8423 0.0000 0.0000 0.0000
# 4 0.0000 0.0000 0.0000 34.6892 0.0000 0.0000
# 5 0.0000 0.0000 0.0000 0.0000 26.5118 0.0000
# 6 0.0000 0.0000 0.0000 0.0000 0.0000 22.2344
#
#
#
# Elastic Compliance Matrix: (Units=1/GPa)
#
#
# Indices 1 2 3 4 5 6 
#
# 1 0.015598 -0.008813 -0.001732 0.000000 0.000000 0.000000
# 2 -0.008813 0.018394 -0.004170 0.000000 0.000000 0.000000
# 3 -0.001732 -0.004170 0.010654 0.000000 0.000000 0.000000
# 4 0.000000 0.000000 0.000000 0.028827 0.000000 0.000000
# 5 0.000000 0.000000 0.000000 0.000000 0.037719 0.000000
# 6 0.000000 0.000000 0.000000 0.000000 0.000000 0.044975
#
#
# Mechanical properties :
#
#
# Convention : Reuss Voigt Hill
#
# Bulk Modulus (GPa) = 65.71837 65.77264 65.74551
# Shear Modulus (GPa) = 26.22335 27.98779 27.10557
#
# Velocity S-wave (km/s) = 3.45010 3.56428 3.50765
# Velocity P-wave (km/s) = 6.76029 6.84061 6.80057
#
# Compressibility (1/GPa) = 0.01521644
#
# Stress axis : x y z
#
# Youngs Moduli (GPa) = 64.10968 54.36614 93.86100
#
# Poissons Ratio (x) = 0.47914 0.16256
# Poissons Ratio (y) = 0.56501 0.39137
# Poissons Ratio (z) = 0.11103 0.22669
#
# Static dielectric constant tensor:
#      x y z
#    x 3.944100 0.000000 0.000000 
#    y 0.000000 4.165700 0.000000 
#    z 0.000000 0.000000 3.959270 
# 
# 
# High freq. dielectric constant tensor:
#      x y z
#    x 1.869030 0.000000 0.000000 
#    y 0.000000 1.877670 0.000000 
#    z 0.000000 0.000000 1.874050 
# 
# From -- ./inp_files/3966.got.cif
#   From: 2010.03.12/outbox.cif.g09.slc.cpg/sg19_2_cif.got.tgz:3966.got - 2010.04.10 18:59:41.
