data_PCOD8157819
_publ_section_title
;
Structure prediction by ZEFSAII (Michael W. Deem and Ramdas Pophale) SiO2 
 PCOD8157819
Probable space group: P 21 21 21
;
_chemical_formula_sum "Si O2"
_cell_formula_units_Z 28
_cell_length_a 7.643563
_cell_length_b 25.160903
_cell_length_c 5.542043
_cell_angle_alpha 90.000000
_cell_angle_beta 90.000000
_cell_angle_gamma 90.000000
_cell_volume 1065.839875
_symmetry_space_group_name_H-M "P 21 21 21"
_symmetry_group_IT_number 19
_symmetry_cell_setting 'orthorhombic'
loop_
_space_group_symop_operation_xyz
x,y,z
1/2-x,-y,1/2+z
1/2+x,1/2-y,-z
-x,1/2+y,1/2-z
loop_
_atom_site_type_symbol
_atom_site_label
_atom_site_fract_x
_atom_site_fract_y
_atom_site_fract_z
Si Si1 0.016346 0.922538 0.316563
Si Si2 0.492844 0.681324 0.952559
Si Si3 0.258988 0.132650 0.213617
Si Si4 0.554358 0.462679 0.672902
Si Si5 0.876200 0.067010 0.816837
Si Si6 0.461110 0.319867 0.088207
Si Si7 0.753814 0.757334 0.747291
O O1 0.984384 0.882104 0.096114
O O2 0.112665 0.885340 0.503686
O O3 0.824880 0.945075 0.381272
O O4 0.128894 0.977050 0.284338
O O5 0.577233 0.722069 0.760557
O O6 0.640182 0.681166 0.160820
O O7 0.300215 0.702043 0.032851
O O8 0.210196 0.080172 0.374356
O O9 0.079767 0.159850 0.131954
O O10 0.434515 0.463062 0.429386
O O11 0.471266 0.448448 0.933698
O O12 0.904432 0.129434 0.754687
O O13 0.281036 0.293549 0.988890
O O14 0.573203 0.278831 0.244510
#
# Coordination Sequence:
#
# PCOD8157819 Si02
#       7
#     4   4   4   4   4   4   4
#     4  12  28  46  77 111 154 200 261 319 394 472
#     4  12  28  45  75 109 148 204 258 321 386 468
#     4  11  26  47  73 111 150 198 258 322 392 466
#     4  11  28  49  81 111 160 197 258 320 402 461
#     4  11  27  50  78 114 153 204 256 321 385 478
#     4  11  25  47  75 109 151 199 258 324 383 469
#     4  12  26  46  75 105 156 200 261 321 394 452
#
# _framework density 26.270364000000001
#
# number of rings (size 3 to 8) (size 9 to 14) (size 15 to 20)
#    0.000    0.571    1.429    4.286   16.000    0.000 
#    0.000    0.000    0.000    0.000    0.000    0.000 
#    0.000    0.000    0.000    0.000    0.000    0.000 
#
# Total GULP energy -346908.667762 kJ/mol
# GULP energy per Si atom -12389.595277 kJ/mol
# Density = 2.621057 g / cm^3
# Si number density = 26.270364 Si / 1000 Ang^3
#
#
#
# Elastic Constant Matrix: (Units=GPa)
#
#
# Indices 1 2 3 4 5 6 
#
# 1 66.1637 5.7954 -2.4281 0.0000 0.0000 0.0000
# 2 5.7954 145.0803 26.9427 0.0000 0.0000 0.0000
# 3 -2.4281 26.9427 78.6972 0.0000 0.0000 0.0000
# 4 0.0000 0.0000 0.0000 38.4637 0.0000 0.0000
# 5 0.0000 0.0000 0.0000 0.0000 27.3056 0.0000
# 6 0.0000 0.0000 0.0000 0.0000 0.0000 41.5661
#
#
#
# Elastic Compliance Matrix: (Units=1/GPa)
#
#
# Indices 1 2 3 4 5 6 
#
# 1 0.015206 -0.000742 0.000723 0.000000 0.000000 0.000000
# 2 -0.000742 0.007397 -0.002555 0.000000 0.000000 0.000000
# 3 0.000723 -0.002555 0.013604 0.000000 0.000000 0.000000
# 4 0.000000 0.000000 0.000000 0.025999 0.000000 0.000000
# 5 0.000000 0.000000 0.000000 0.000000 0.036623 0.000000
# 6 0.000000 0.000000 0.000000 0.000000 0.000000 0.024058
#
#
# Mechanical properties :
#
#
# Convention : Reuss Voigt Hill
#
# Bulk Modulus (GPa) = 32.19709 38.95126 35.57418
# Shear Modulus (GPa) = 36.13072 38.77582 37.45327
#
# Velocity S-wave (km/s) = 3.71258 3.84608 3.77992
# Velocity P-wave (km/s) = 5.53718 5.88068 5.71151
#
# Compressibility (1/GPa) = 0.03105870
#
# Stress axis : x y z
#
# Youngs Moduli (GPa) = 65.76557 135.19176 73.50746
#
# Poissons Ratio (x) = 0.10027 -0.05315
# Poissons Ratio (y) = 0.04878 0.18783
# Poissons Ratio (z) = -0.04755 0.34545
#
# Static dielectric constant tensor:
#      x y z
#    x 4.701010 0.000000 0.000000 
#    y 0.000000 5.455150 0.000000 
#    z 0.000000 0.000000 4.446340 
# 
# 
# High freq. dielectric constant tensor:
#      x y z
#    x 2.048970 0.000000 0.000000 
#    y 0.000000 2.084680 0.000000 
#    z 0.000000 0.000000 2.036040 
# 
# From -- ./inp_files/622.got.cif
#   From: 2010.03.12/outbox.cif.g09.slc.cpg/sg19_1_cif.got.tgz:622.got - 2010.04.10 18:59:41.
