data_PCOD8157467
_publ_section_title
;
Structure prediction by ZEFSAII (Michael W. Deem and Ramdas Pophale) SiO2 
 PCOD8157467
Probable space group: P 21 21 21
;
_chemical_formula_sum "Si O2"
_cell_formula_units_Z 32
_cell_length_a 9.664188
_cell_length_b 18.589905
_cell_length_c 8.613119
_cell_angle_alpha 90.000000
_cell_angle_beta 90.000000
_cell_angle_gamma 90.000000
_cell_volume 1547.401408
_symmetry_space_group_name_H-M "P 21 21 21"
_symmetry_group_IT_number 19
_symmetry_cell_setting 'orthorhombic'
loop_
_space_group_symop_operation_xyz
x,y,z
1/2-x,-y,1/2+z
1/2+x,1/2-y,-z
-x,1/2+y,1/2-z
loop_
_atom_site_type_symbol
_atom_site_label
_atom_site_fract_x
_atom_site_fract_y
_atom_site_fract_z
Si Si1 0.669434 0.548612 0.571809
Si Si2 0.251729 0.200563 0.562859
Si Si3 0.413990 0.477202 0.426592
Si Si4 0.390234 0.048876 0.572101
Si Si5 0.443315 0.326887 0.932360
Si Si6 0.635772 0.977899 0.431991
Si Si7 0.463062 0.325113 0.571193
Si Si8 0.271144 0.795470 0.421112
O O1 0.555209 0.519294 0.455151
O O2 0.812671 0.509276 0.534602
O O3 0.627695 0.530591 0.747523
O O4 0.685305 0.632913 0.539674
O O5 0.352839 0.265513 0.519231
O O6 0.196974 0.205778 0.738280
O O7 0.118508 0.203933 0.452443
O O8 0.337655 0.128123 0.532713
O O9 0.296253 0.513161 0.530425
O O10 0.377471 0.488952 0.249535
O O11 0.435362 0.393761 0.464644
O O12 0.550919 0.039691 0.524934
O O13 0.446347 0.345288 0.750687
O O14 0.320783 0.271949 0.972620
O O15 0.418872 0.399405 0.025454
O O16 0.586941 0.290985 0.984271
#
# Coordination Sequence:
#
# PCOD8157467 Si02
#       8
#     4   4   4   4   4   4   4   4
#     4  11  22  41  67  96 127 165 211 263 318 383
#     4  10  24  43  64  94 130 168 213 262 319 384
#     4  12  26  44  66  95 130 170 216 272 325 384
#     4  11  22  41  67  96 127 165 211 263 318 383
#     4  11  24  43  66  96 129 169 216 264 320 384
#     4  12  26  44  66  95 130 170 216 272 325 384
#     4  11  24  43  66  96 129 169 216 264 320 384
#     4  10  24  43  64  94 130 168 213 262 319 384
#
# _framework density 20.679829999999999
#
# number of rings (size 3 to 8) (size 9 to 14) (size 15 to 20)
#    0.000    1.000    2.500    3.750    3.500    3.000 
#    0.000    0.000    0.000    0.000    0.000    0.000 
#    0.000    0.000    0.000    0.000    0.000    0.000 
#
# Total GULP energy -397045.572819 kJ/mol
# GULP energy per Si atom -12407.674151 kJ/mol
# Density = 2.063276 g / cm^3
# Si number density = 20.679830 Si / 1000 Ang^3
#
#
#
# Elastic Constant Matrix: (Units=GPa)
#
#
# Indices 1 2 3 4 5 6 
#
# 1 75.5775 53.5911 18.1423 0.0000 0.0000 0.0000
# 2 53.5911 51.5928 17.6630 0.0000 0.0000 0.0000
# 3 18.1423 17.6630 55.8446 0.0000 0.0000 0.0000
# 4 0.0000 0.0000 0.0000 20.1898 0.0000 0.0000
# 5 0.0000 0.0000 0.0000 0.0000 42.1874 0.0000
# 6 0.0000 0.0000 0.0000 0.0000 0.0000 37.9153
#
#
#
# Elastic Compliance Matrix: (Units=1/GPa)
#
#
# Indices 1 2 3 4 5 6 
#
# 1 0.050227 -0.052243 0.000207 0.000000 0.000000 0.000000
# 2 -0.052243 0.076076 -0.007090 0.000000 0.000000 0.000000
# 3 0.000207 -0.007090 0.020082 0.000000 0.000000 0.000000
# 4 0.000000 0.000000 0.000000 0.049530 0.000000 0.000000
# 5 0.000000 0.000000 0.000000 0.000000 0.023704 0.000000
# 6 0.000000 0.000000 0.000000 0.000000 0.000000 0.026375
#
#
# Mechanical properties :
#
#
# Convention : Reuss Voigt Hill
#
# Bulk Modulus (GPa) = 35.54562 40.20086 37.87324
# Shear Modulus (GPa) = 13.38246 26.29972 19.84109
#
# Velocity S-wave (km/s) = 2.54663 3.57004 3.10085
# Velocity P-wave (km/s) = 5.08654 6.03949 5.58338
#
# Compressibility (1/GPa) = 0.02813286
#
# Stress axis : x y z
#
# Youngs Moduli (GPa) = 19.90971 13.14470 49.79549
#
# Poissons Ratio (x) = 0.68672 -0.01029
# Poissons Ratio (y) = 1.04014 0.35304
# Poissons Ratio (z) = -0.00411 0.09319
#
# Static dielectric constant tensor:
#      x y z
#    x 3.930130 0.000000 0.000000 
#    y 0.000000 3.828160 0.000000 
#    z 0.000000 0.000000 3.713860 
# 
# 
# High freq. dielectric constant tensor:
#      x y z
#    x 1.822540 0.000000 0.000000 
#    y 0.000000 1.815130 0.000000 
#    z 0.000000 0.000000 1.815130 
# 
# From -- ./inp_files/3151.got.cif
#   From: 2010.03.12/outbox.cif.g09.slc.cpg/sg19_2_cif.got.tgz:3151.got - 2010.04.10 18:59:41.
