data_PCOD8157054
_publ_section_title
;
Structure prediction by ZEFSAII (Michael W. Deem and Ramdas Pophale) SiO2 
 PCOD8157054
Probable space group: P 21 21 21
;
_chemical_formula_sum "Si O2"
_cell_formula_units_Z 28
_cell_length_a 9.939699
_cell_length_b 25.250560
_cell_length_c 5.130866
_cell_angle_alpha 90.000000
_cell_angle_beta 90.000000
_cell_angle_gamma 90.000000
_cell_volume 1287.759967
_symmetry_space_group_name_H-M "P 21 21 21"
_symmetry_group_IT_number 19
_symmetry_cell_setting 'orthorhombic'
loop_
_space_group_symop_operation_xyz
x,y,z
1/2-x,-y,1/2+z
1/2+x,1/2-y,-z
-x,1/2+y,1/2-z
loop_
_atom_site_type_symbol
_atom_site_label
_atom_site_fract_x
_atom_site_fract_y
_atom_site_fract_z
Si Si1 0.981064 0.122817 0.279474
Si Si2 0.427321 0.060620 0.778010
Si Si3 0.165465 0.516694 0.242824
Si Si4 0.589549 0.165908 0.786894
Si Si5 0.105544 0.680390 0.723016
Si Si6 0.450286 0.200500 0.292633
Si Si7 0.783179 0.404707 0.716141
O O1 0.124016 0.094401 0.248557
O O2 0.860418 0.079735 0.273130
O O3 0.983410 0.155272 0.548071
O O4 0.961925 0.164669 0.048346
O O5 0.529590 0.108454 0.745797
O O6 0.320324 0.062878 0.543609
O O7 0.516909 0.008207 0.767449
O O8 0.347961 0.062785 0.047841
O O9 0.240291 0.502918 0.509959
O O10 0.746330 0.157400 0.750696
O O11 0.527458 0.204129 0.566972
O O12 0.560421 0.189244 0.071036
O O13 0.118632 0.743527 0.740729
O O14 0.334718 0.155930 0.291183
#
# Coordination Sequence:
#
# PCOD8157054 Si02
#       7
#     4   4   4   4   4   4   4
#     4  12  26  43  64 100 130 169 214 277 320 378
#     4  10  21  41  67  90 128 174 207 265 318 382
#     4  12  25  43  71  98 132 169 221 268 328 383
#     4  10  21  41  59  91 120 164 220 251 316 383
#     4  12  25  40  65  91 134 167 213 269 323 379
#     4  10  23  38  63  88 123 173 206 261 317 384
#     4  10  23  42  63  94 133 164 219 263 320 391
#
# _framework density 21.743182000000001
#
# number of rings (size 3 to 8) (size 9 to 14) (size 15 to 20)
#    0.000    1.143    0.000    6.000    4.000    3.429 
#    0.000    0.000    0.000    0.000    0.000    0.000 
#    0.000    0.000    0.000    0.000    0.000    0.000 
#
# Total GULP energy -347391.872130 kJ/mol
# GULP energy per Si atom -12406.852576 kJ/mol
# Density = 2.169369 g / cm^3
# Si number density = 21.743182 Si / 1000 Ang^3
#
#
#
# Elastic Constant Matrix: (Units=GPa)
#
#
# Indices 1 2 3 4 5 6 
#
# 1 92.6385 2.5712 11.2040 0.0000 0.0000 0.0000
# 2 2.5712 73.0678 21.2801 0.0000 0.0000 0.0000
# 3 11.2040 21.2801 91.6111 0.0000 0.0000 0.0000
# 4 0.0000 0.0000 0.0000 18.8207 0.0000 0.0000
# 5 0.0000 0.0000 0.0000 0.0000 24.0603 0.0000
# 6 0.0000 0.0000 0.0000 0.0000 0.0000 16.5339
#
#
#
# Elastic Compliance Matrix: (Units=1/GPa)
#
#
# Indices 1 2 3 4 5 6 
#
# 1 0.010957 0.000005 -0.001341 0.000000 0.000000 0.000000
# 2 0.000005 0.014679 -0.003410 0.000000 0.000000 0.000000
# 3 -0.001341 -0.003410 0.011872 0.000000 0.000000 0.000000
# 4 0.000000 0.000000 0.000000 0.053133 0.000000 0.000000
# 5 0.000000 0.000000 0.000000 0.000000 0.041562 0.000000
# 6 0.000000 0.000000 0.000000 0.000000 0.000000 0.060482
#
#
# Mechanical properties :
#
#
# Convention : Reuss Voigt Hill
#
# Bulk Modulus (GPa) = 35.69564 36.38088 36.03826
# Shear Modulus (GPa) = 23.63889 26.70045 25.16967
#
# Velocity S-wave (km/s) = 3.30083 3.50807 3.40603
# Velocity P-wave (km/s) = 5.56596 5.75996 5.66379
#
# Compressibility (1/GPa) = 0.02801463
#
# Stress axis : x y z
#
# Youngs Moduli (GPa) = 91.26820 68.12472 84.23244
#
# Poissons Ratio (x) = -0.00034 0.11297
# Poissons Ratio (y) = -0.00046 0.28726
# Poissons Ratio (z) = 0.12241 0.23233
#
# Static dielectric constant tensor:
#      x y z
#    x 3.783700 0.000000 0.000000 
#    y 0.000000 3.887290 0.000000 
#    z 0.000000 0.000000 4.206220 
# 
# 
# High freq. dielectric constant tensor:
#      x y z
#    x 1.855830 0.000000 0.000000 
#    y 0.000000 1.856940 0.000000 
#    z 0.000000 0.000000 1.871770 
# 
# From -- ./inp_files/554.got.cif
#   From: 2010.03.12/outbox.cif.g09.slc.cpg/sg19_1_cif.got.tgz:554.got - 2010.04.10 18:59:41.
