data_PCOD8157710
_publ_section_title
;
Structure prediction by ZEFSAII (Michael W. Deem and Ramdas Pophale) SiO2 
 PCOD8157710
Probable space group: P 21 21 21
;
_chemical_formula_sum "Si O2"
_cell_formula_units_Z 24
_cell_length_a 7.833889
_cell_length_b 8.673390
_cell_length_c 15.955940
_cell_angle_alpha 90.000000
_cell_angle_beta 90.000000
_cell_angle_gamma 90.000000
_cell_volume 1084.148275
_symmetry_space_group_name_H-M "P 21 21 21"
_symmetry_group_IT_number 19
_symmetry_cell_setting 'orthorhombic'
loop_
_space_group_symop_operation_xyz
x,y,z
1/2-x,-y,1/2+z
1/2+x,1/2-y,-z
-x,1/2+y,1/2-z
loop_
_atom_site_type_symbol
_atom_site_label
_atom_site_fract_x
_atom_site_fract_y
_atom_site_fract_z
Si Si1 0.263018 0.729113 0.457392
Si Si2 0.537721 0.205492 0.586021
Si Si3 0.238196 0.429454 0.554958
Si Si4 0.215534 0.812216 0.773948
Si Si5 0.487355 0.898507 0.325161
Si Si6 0.913225 0.630442 0.390187
O O1 0.301958 0.554893 0.487203
O O2 0.404513 0.780743 0.391025
O O3 0.270088 0.843972 0.537705
O O4 0.075778 0.734990 0.416238
O O5 0.399512 0.340246 0.591453
O O6 0.606254 0.186315 0.491109
O O7 0.697941 0.249522 0.642683
O O8 0.454166 0.048647 0.618899
O O9 0.142376 0.509872 0.631877
O O10 0.349670 0.807455 0.698268
O O11 0.057135 0.700820 0.752536
O O12 0.152719 0.985595 0.789050
#
# Coordination Sequence:
#
# PCOD8157710 Si02
#       6
#     4   4   4   4   4   4
#     4  11  23  48  76 102 137 191 246 283 354 441
#     4  11  27  45  73 109 141 183 240 301 355 427
#     4  11  25  48  76 101 142 187 247 287 360 433
#     4  12  30  45  70 109 148 187 235 307 363 420
#     4  12  28  48  69 108 144 196 235 299 364 427
#     4  11  25  46  74 103 140 190 241 295 356 426
#
# _framework density 22.137194000000001
#
# number of rings (size 3 to 8) (size 9 to 14) (size 15 to 20)
#    0.000    0.667    5.000    1.000   14.000    1.333 
#    0.000    0.000    0.000    0.000    0.000    0.000 
#    0.000    0.000    0.000    0.000    0.000    0.000 
#
# Total GULP energy -297753.138564 kJ/mol
# GULP energy per Si atom -12406.380774 kJ/mol
# Density = 2.208681 g / cm^3
# Si number density = 22.137194 Si / 1000 Ang^3
#
#
#
# Elastic Constant Matrix: (Units=GPa)
#
#
# Indices 1 2 3 4 5 6 
#
# 1 80.8695 51.8353 26.9980 0.0000 0.0000 0.0000
# 2 51.8353 88.4488 10.8986 0.0000 0.0000 0.0000
# 3 26.9980 10.8986 44.2482 0.0000 0.0000 0.0000
# 4 0.0000 0.0000 0.0000 32.3163 0.0000 0.0000
# 5 0.0000 0.0000 0.0000 0.0000 52.8738 0.0000
# 6 0.0000 0.0000 0.0000 0.0000 0.0000 54.4236
#
#
#
# Elastic Compliance Matrix: (Units=1/GPa)
#
#
# Indices 1 2 3 4 5 6 
#
# 1 0.024636 -0.012980 -0.011835 0.000000 0.000000 0.000000
# 2 -0.012980 0.018498 0.003363 0.000000 0.000000 0.000000
# 3 -0.011835 0.003363 0.028992 0.000000 0.000000 0.000000
# 4 0.000000 0.000000 0.000000 0.030944 0.000000 0.000000
# 5 0.000000 0.000000 0.000000 0.000000 0.018913 0.000000
# 6 0.000000 0.000000 0.000000 0.000000 0.000000 0.018374
#
#
# Mechanical properties :
#
#
# Convention : Reuss Voigt Hill
#
# Bulk Modulus (GPa) = 34.21786 43.67006 38.94396
# Shear Modulus (GPa) = 25.90638 36.17839 31.04239
#
# Velocity S-wave (km/s) = 3.42462 4.04701 3.74876
# Velocity P-wave (km/s) = 5.57926 6.45039 6.03058
#
# Compressibility (1/GPa) = 0.02922450
#
# Stress axis : x y z
#
# Youngs Moduli (GPa) = 40.59041 54.05886 34.49181
#
# Poissons Ratio (x) = 0.70167 0.40820
# Poissons Ratio (y) = 0.52686 -0.11601
# Poissons Ratio (z) = 0.48038 -0.18182
#
# Static dielectric constant tensor:
#      x y z
#    x 4.044430 0.000000 0.000000 
#    y 0.000000 4.079230 0.000000 
#    z 0.000000 0.000000 3.952050 
# 
# 
# High freq. dielectric constant tensor:
#      x y z
#    x 1.876880 0.000000 0.000000 
#    y 0.000000 1.878380 0.000000 
#    z 0.000000 0.000000 1.872010 
# 
# From -- ./inp_files/5829.got.cif
#   From: 2010.03.12/outbox.cif.g09.slc.cpg/sg19_3_cif.got.tgz:5829.got - 2010.04.10 18:59:41.
