data_PCOD8157006
_publ_section_title
;
Structure prediction by ZEFSAII (Michael W. Deem and Ramdas Pophale) SiO2 
 PCOD8157006
Probable space group: P 21 21 21
;
_chemical_formula_sum "Si O2"
_cell_formula_units_Z 28
_cell_length_a 5.109614
_cell_length_b 13.538971
_cell_length_c 18.812368
_cell_angle_alpha 90.000000
_cell_angle_beta 90.000000
_cell_angle_gamma 90.000000
_cell_volume 1301.419221
_symmetry_space_group_name_H-M "P 21 21 21"
_symmetry_group_IT_number 19
_symmetry_cell_setting 'orthorhombic'
loop_
_space_group_symop_operation_xyz
x,y,z
1/2-x,-y,1/2+z
1/2+x,1/2-y,-z
-x,1/2+y,1/2-z
loop_
_atom_site_type_symbol
_atom_site_label
_atom_site_fract_x
_atom_site_fract_y
_atom_site_fract_z
Si Si1 0.424477 0.786703 0.368030
Si Si2 0.989508 0.962855 0.171894
Si Si3 0.963251 0.344360 0.565159
Si Si4 0.281767 0.047456 0.950497
Si Si5 0.561466 0.113556 0.822121
Si Si6 0.979619 0.440675 0.892126
Si Si7 0.035981 0.766142 0.093494
O O1 0.380133 0.849288 0.441718
O O2 0.675866 0.823607 0.325653
O O3 0.446190 0.673241 0.387845
O O4 0.177554 0.807232 0.316097
O O5 0.929506 0.961128 0.255637
O O6 0.074078 0.852895 0.150010
O O7 0.731503 0.995265 0.128899
O O8 0.231456 0.036688 0.157891
O O9 0.922054 0.461396 0.569112
O O10 0.735863 0.288506 0.608334
O O11 0.953503 0.313654 0.483681
O O12 0.234954 0.314780 0.602052
O O13 0.518736 0.047219 0.893059
O O14 0.403543 0.031315 0.027684
#
# Coordination Sequence:
#
# PCOD8157006 Si02
#       7
#     4   4   4   4   4   4   4
#     4  10  25  46  68 102 140 177 235 285 353 419
#     4  12  25  47  67 104 142 185 232 295 353 421
#     4  10  21  39  62  96 123 173 223 280 339 391
#     4  10  26  42  72  99 141 178 233 294 345 409
#     4  10  25  46  67  94 151 177 224 292 352 414
#     4  12  26  42  79 101 138 186 241 285 352 422
#     4  10  22  38  63  90 133 168 226 279 332 402
#
# _framework density 21.514970999999999
#
# number of rings (size 3 to 8) (size 9 to 14) (size 15 to 20)
#    0.857    0.571    1.429    2.571   10.000    0.000 
#    7.714    0.000    0.000    0.000    0.000    0.000 
#    0.000    0.000    0.000    0.000    0.000    0.000 
#
# Total GULP energy -347159.772990 kJ/mol
# GULP energy per Si atom -12398.563321 kJ/mol
# Density = 2.146600 g / cm^3
# Si number density = 21.514971 Si / 1000 Ang^3
#
#
#
# Elastic Constant Matrix: (Units=GPa)
#
#
# Indices 1 2 3 4 5 6 
#
# 1 113.3915 10.7470 24.4238 0.0000 0.0000 0.0000
# 2 10.7470 92.4650 31.1304 0.0000 0.0000 0.0000
# 3 24.4238 31.1304 72.1159 0.0000 0.0000 0.0000
# 4 0.0000 0.0000 0.0000 20.8867 0.0000 0.0000
# 5 0.0000 0.0000 0.0000 0.0000 17.1850 0.0000
# 6 0.0000 0.0000 0.0000 0.0000 0.0000 33.8339
#
#
#
# Elastic Compliance Matrix: (Units=1/GPa)
#
#
# Indices 1 2 3 4 5 6 
#
# 1 0.009513 -0.000025 -0.003211 0.000000 0.000000 0.000000
# 2 -0.000025 0.012654 -0.005454 0.000000 0.000000 0.000000
# 3 -0.003211 -0.005454 0.017308 0.000000 0.000000 0.000000
# 4 0.000000 0.000000 0.000000 0.047877 0.000000 0.000000
# 5 0.000000 0.000000 0.000000 0.000000 0.058190 0.000000
# 6 0.000000 0.000000 0.000000 0.000000 0.000000 0.029556
#
#
# Mechanical properties :
#
#
# Convention : Reuss Voigt Hill
#
# Bulk Modulus (GPa) = 45.25739 45.61943 45.43841
# Shear Modulus (GPa) = 25.01949 28.49254 26.75601
#
# Velocity S-wave (km/s) = 3.41381 3.64306 3.53030
# Velocity P-wave (km/s) = 6.05143 6.24063 6.14676
#
# Compressibility (1/GPa) = 0.02209584
#
# Stress axis : x y z
#
# Youngs Moduli (GPa) = 105.11924 79.02655 57.77516
#
# Poissons Ratio (x) = 0.00194 0.18553
# Poissons Ratio (y) = 0.00258 0.31511
# Poissons Ratio (z) = 0.33756 0.43101
#
# Static dielectric constant tensor:
#      x y z
#    x 4.056210 0.000000 0.000000 
#    y 0.000000 3.855720 0.000000 
#    z 0.000000 0.000000 3.649360 
# 
# 
# High freq. dielectric constant tensor:
#      x y z
#    x 1.860570 0.000000 0.000000 
#    y 0.000000 1.846010 0.000000 
#    z 0.000000 0.000000 1.820990 
# 
# From -- ./inp_files/6422.got.cif
#   From: 2010.03.12/outbox.cif.g09.slc.cpg/sg19_4_cif.got.tgz:6422.got - 2010.04.10 18:59:41.
