data_PCOD8157776
_publ_section_title
;
Structure prediction by ZEFSAII (Michael W. Deem and Ramdas Pophale) SiO2 
 PCOD8157776
Probable space group: P 21 21 21
;
_chemical_formula_sum "Si O2"
_cell_formula_units_Z 20
_cell_length_a 7.511862
_cell_length_b 12.164018
_cell_length_c 8.420469
_cell_angle_alpha 90.000000
_cell_angle_beta 90.000000
_cell_angle_gamma 90.000000
_cell_volume 769.415510
_symmetry_space_group_name_H-M "P 21 21 21"
_symmetry_group_IT_number 19
_symmetry_cell_setting 'orthorhombic'
loop_
_space_group_symop_operation_xyz
x,y,z
1/2-x,-y,1/2+z
1/2+x,1/2-y,-z
-x,1/2+y,1/2-z
loop_
_atom_site_type_symbol
_atom_site_label
_atom_site_fract_x
_atom_site_fract_y
_atom_site_fract_z
Si Si1 0.623916 0.548629 0.191796
Si Si2 0.410546 0.106506 0.945720
Si Si3 0.859581 0.191130 0.254113
Si Si4 0.789748 0.750726 0.060338
Si Si5 0.750427 0.043178 0.776369
O O1 0.790688 0.468796 0.166897
O O2 0.634920 0.589068 0.372594
O O3 0.637364 0.656813 0.081729
O O4 0.444330 0.482593 0.150978
O O5 0.371483 0.233560 0.901693
O O6 0.618720 0.081484 0.916983
O O7 0.695995 0.227143 0.370536
O O8 0.830156 0.067134 0.195444
O O9 0.032018 0.199859 0.367173
O O10 0.732661 0.864700 0.141892
#
# Coordination Sequence:
#
# PCOD8157776 Si02
#       5
#     4   4   4   4   4
#     4  12  26  47  75 106 150 189 249 303 374 437
#     4  11  27  47  73 110 142 197 247 307 366 442
#     4  11  24  47  73 104 151 191 252 301 367 444
#     4  11  25  46  75 108 147 198 247 302 374 439
#     4  11  26  47  72 106 146 195 245 301 363 440
#
# _framework density 25.993758
#
# number of rings (size 3 to 8) (size 9 to 14) (size 15 to 20)
#    0.000    0.800    2.000    3.600    5.600    9.600 
#    0.000    0.000    0.000    0.000    0.000    0.000 
#    0.000    0.000    0.000    0.000    0.000    0.000 
#
# Total GULP energy -248089.488832 kJ/mol
# GULP energy per Si atom -12404.474442 kJ/mol
# Density = 2.593460 g / cm^3
# Si number density = 25.993758 Si / 1000 Ang^3
#
#
#
# Elastic Constant Matrix: (Units=GPa)
#
#
# Indices 1 2 3 4 5 6 
#
# 1 96.8271 22.9603 -16.8424 0.0000 0.0000 0.0000
# 2 22.9603 141.1548 -10.4647 0.0000 0.0000 0.0000
# 3 -16.8424 -10.4647 41.1140 0.0000 0.0000 0.0000
# 4 0.0000 0.0000 0.0000 27.2463 0.0000 0.0000
# 5 0.0000 0.0000 0.0000 0.0000 28.9226 0.0000
# 6 0.0000 0.0000 0.0000 0.0000 0.0000 40.8177
#
#
#
# Elastic Compliance Matrix: (Units=1/GPa)
#
#
# Indices 1 2 3 4 5 6 
#
# 1 0.011440 -0.001543 0.004294 0.000000 0.000000 0.000000
# 2 -0.001543 0.007429 0.001259 0.000000 0.000000 0.000000
# 3 0.004294 0.001259 0.026402 0.000000 0.000000 0.000000
# 4 0.000000 0.000000 0.000000 0.036702 0.000000 0.000000
# 5 0.000000 0.000000 0.000000 0.000000 0.034575 0.000000
# 6 0.000000 0.000000 0.000000 0.000000 0.000000 0.024499
#
#
# Mechanical properties :
#
#
# Convention : Reuss Voigt Hill
#
# Bulk Modulus (GPa) = 18.76467 30.04472 24.40470
# Shear Modulus (GPa) = 33.15851 38.29351 35.72601
#
# Velocity S-wave (km/s) = 3.57548 3.84237 3.71132
# Velocity P-wave (km/s) = 4.92747 5.59183 5.27013
#
# Compressibility (1/GPa) = 0.05329163
#
# Stress axis : x y z
#
# Youngs Moduli (GPa) = 87.40976 134.61376 37.87582
#
# Poissons Ratio (x) = 0.20765 -0.16264
# Poissons Ratio (y) = 0.13483 -0.04768
# Poissons Ratio (z) = -0.37533 -0.16946
#
# Static dielectric constant tensor:
#      x y z
#    x 5.052420 0.000000 0.000000 
#    y 0.000000 4.988230 0.000000 
#    z 0.000000 0.000000 4.287890 
# 
# 
# High freq. dielectric constant tensor:
#      x y z
#    x 2.054620 0.000000 0.000000 
#    y 0.000000 2.060050 0.000000 
#    z 0.000000 0.000000 2.025230 
# 
# From -- ./inp_files/2644.got.cif
#   From: 2010.03.12/outbox.cif.g09.slc.cpg/sg19_2_cif.got.tgz:2644.got - 2010.04.10 18:59:41.
