data_PCOD8157351
_publ_section_title
;
Structure prediction by ZEFSAII (Michael W. Deem and Ramdas Pophale) SiO2 
 PCOD8157351
Probable space group: P 21 21 21
;
_chemical_formula_sum "Si O2"
_cell_formula_units_Z 28
_cell_length_a 12.063375
_cell_length_b 18.390321
_cell_length_c 5.430739
_cell_angle_alpha 90.000000
_cell_angle_beta 90.000000
_cell_angle_gamma 90.000000
_cell_volume 1204.805855
_symmetry_space_group_name_H-M "P 21 21 21"
_symmetry_group_IT_number 19
_symmetry_cell_setting 'orthorhombic'
loop_
_space_group_symop_operation_xyz
x,y,z
1/2-x,-y,1/2+z
1/2+x,1/2-y,-z
-x,1/2+y,1/2-z
loop_
_atom_site_type_symbol
_atom_site_label
_atom_site_fract_x
_atom_site_fract_y
_atom_site_fract_z
Si Si1 0.976726 0.263564 0.458485
Si Si2 0.773682 0.957043 0.876800
Si Si3 0.940399 0.654333 0.673071
Si Si4 0.818154 0.510202 0.808925
Si Si5 0.502898 0.104655 0.242394
Si Si6 0.358905 0.337323 0.867143
Si Si7 0.855649 0.791621 0.413693
O O1 0.935261 0.336238 0.594100
O O2 0.893067 0.242208 0.239142
O O3 0.982518 0.191991 0.624202
O O4 0.103043 0.278849 0.363918
O O5 0.694945 0.887166 0.843378
O O6 0.902659 0.935673 0.902659
O O7 0.760847 0.006080 0.631770
O O8 0.868048 0.590417 0.785962
O O9 0.859629 0.715528 0.560764
O O10 0.030134 0.624094 0.473859
O O11 0.758709 0.490519 0.550970
O O12 0.915519 0.452823 0.861526
O O13 0.561342 0.147622 0.021569
O O14 0.269129 0.321918 0.082661
#
# Coordination Sequence:
#
# PCOD8157351 Si02
#       7
#     4   4   4   4   4   4   4
#     4  10  23  43  72  98 145 182 237 302 345 426
#     4  11  26  43  74 107 143 187 230 299 363 420
#     4  10  24  44  66 106 136 188 239 293 347 431
#     4  12  31  48  73 103 144 198 237 288 355 427
#     4  10  25  46  69 103 143 184 242 294 353 424
#     4  10  23  41  73 102 140 185 238 297 355 418
#     4   9  22  43  69 105 139 182 239 297 360 410
#
# _framework density 23.240259999999999
#
# number of rings (size 3 to 8) (size 9 to 14) (size 15 to 20)
#    0.000    1.714    0.000    0.857   16.000    4.571 
#    0.000    0.000    0.000    0.000    0.000    0.000 
#    0.000    0.000    0.000    0.000    0.000    0.000 
#
# Total GULP energy -347106.589829 kJ/mol
# GULP energy per Si atom -12396.663922 kJ/mol
# Density = 2.318736 g / cm^3
# Si number density = 23.240260 Si / 1000 Ang^3
#
#
#
# Elastic Constant Matrix: (Units=GPa)
#
#
# Indices 1 2 3 4 5 6 
#
# 1 90.0627 40.1281 14.6891 0.0000 0.0000 0.0000
# 2 40.1281 119.5756 16.1423 0.0000 0.0000 0.0000
# 3 14.6891 16.1423 71.5205 0.0000 0.0000 0.0000
# 4 0.0000 0.0000 0.0000 27.9117 0.0000 0.0000
# 5 0.0000 0.0000 0.0000 0.0000 20.5292 0.0000
# 6 0.0000 0.0000 0.0000 0.0000 0.0000 27.9639
#
#
#
# Elastic Compliance Matrix: (Units=1/GPa)
#
#
# Indices 1 2 3 4 5 6 
#
# 1 0.013270 -0.004214 -0.001774 0.000000 0.000000 0.000000
# 2 -0.004214 0.009964 -0.001383 0.000000 0.000000 0.000000
# 3 -0.001774 -0.001383 0.014659 0.000000 0.000000 0.000000
# 4 0.000000 0.000000 0.000000 0.035827 0.000000 0.000000
# 5 0.000000 0.000000 0.000000 0.000000 0.048711 0.000000
# 6 0.000000 0.000000 0.000000 0.000000 0.000000 0.035760
#
#
# Mechanical properties :
#
#
# Convention : Reuss Voigt Hill
#
# Bulk Modulus (GPa) = 43.19756 47.00867 45.10312
# Shear Modulus (GPa) = 27.67766 29.29426 28.48596
#
# Velocity S-wave (km/s) = 3.45474 3.55420 3.50482
# Velocity P-wave (km/s) = 5.87719 6.09215 5.98563
#
# Compressibility (1/GPa) = 0.02314945
#
# Stress axis : x y z
#
# Youngs Moduli (GPa) = 75.35643 100.36369 68.21901
#
# Poissons Ratio (x) = 0.42291 0.12105
# Poissons Ratio (y) = 0.31754 0.09437
# Poissons Ratio (z) = 0.13371 0.13884
#
# Static dielectric constant tensor:
#      x y z
#    x 4.146740 0.000000 0.000000 
#    y 0.000000 4.294950 0.000000 
#    z 0.000000 0.000000 4.088140 
# 
# 
# High freq. dielectric constant tensor:
#      x y z
#    x 1.914890 0.000000 0.000000 
#    y 0.000000 1.927170 0.000000 
#    z 0.000000 0.000000 1.915290 
# 
# From -- ./inp_files/1124.got.cif
#   From: 2010.03.12/outbox.cif.g09.slc.cpg/sg19_1_cif.got.tgz:1124.got - 2010.04.10 18:59:41.
