data_PCOD8157692
_publ_section_title
;
Structure prediction by ZEFSAII (Michael W. Deem and Ramdas Pophale) SiO2 
 PCOD8157692
Probable space group: P 21 21 21
;
_chemical_formula_sum "Si O2"
_cell_formula_units_Z 28
_cell_length_a 9.101875
_cell_length_b 7.925794
_cell_length_c 16.965684
_cell_angle_alpha 90.000000
_cell_angle_beta 90.000000
_cell_angle_gamma 90.000000
_cell_volume 1223.897424
_symmetry_space_group_name_H-M "P 21 21 21"
_symmetry_group_IT_number 19
_symmetry_cell_setting 'orthorhombic'
loop_
_space_group_symop_operation_xyz
x,y,z
1/2-x,-y,1/2+z
1/2+x,1/2-y,-z
-x,1/2+y,1/2-z
loop_
_atom_site_type_symbol
_atom_site_label
_atom_site_fract_x
_atom_site_fract_y
_atom_site_fract_z
Si Si1 0.747767 0.918923 0.016024
Si Si2 0.661900 0.542664 0.691847
Si Si3 0.097725 0.232060 0.191466
Si Si4 0.551285 0.272835 0.207606
Si Si5 0.914888 0.588122 0.029386
Si Si6 0.332811 0.243875 0.064050
Si Si7 0.305415 0.429024 0.299604
O O1 0.843858 0.755861 0.991105
O O2 0.729284 0.929734 0.109095
O O3 0.590173 0.903163 0.974951
O O4 0.833516 0.086499 0.988062
O O5 0.572388 0.717136 0.679147
O O6 0.610154 0.453597 0.772280
O O7 0.835690 0.573098 0.697153
O O8 0.631157 0.413711 0.620827
O O9 0.175674 0.231419 0.106760
O O10 0.166485 0.374075 0.248365
O O11 0.465639 0.247663 0.125860
O O12 0.441104 0.303803 0.280175
O O13 0.646411 0.111500 0.230979
O O14 0.851250 0.420288 0.989411
#
# Coordination Sequence:
#
# PCOD8157692 Si02
#       7
#     4   4   4   4   4   4   4
#     4  12  27  48  74 111 146 190 246 304 362 441
#     4  12  25  45  71 107 143 190 237 299 364 430
#     4  11  25  47  70 104 146 185 242 295 362 427
#     4  11  24  44  75 100 146 188 240 299 360 440
#     4  12  28  47  76 109 147 192 245 301 372 430
#     4  11  26  49  74 106 147 192 239 300 368 433
#     4  11  23  46  70 105 139 189 239 296 362 429
#
# _framework density 22.877735999999999
#
# number of rings (size 3 to 8) (size 9 to 14) (size 15 to 20)
#    0.000    0.571    4.286    3.429    2.000    2.286 
#    2.571    0.000    0.000    0.000    0.000    0.000 
#    0.000    0.000    0.000    0.000    0.000    0.000 
#
# Total GULP energy -347357.751779 kJ/mol
# GULP energy per Si atom -12405.633992 kJ/mol
# Density = 2.282567 g / cm^3
# Si number density = 22.877736 Si / 1000 Ang^3
#
#
#
# Elastic Constant Matrix: (Units=GPa)
#
#
# Indices 1 2 3 4 5 6 
#
# 1 72.8476 24.6127 2.9367 0.0000 0.0000 0.0000
# 2 24.6127 136.0735 14.4495 0.0000 0.0000 0.0000
# 3 2.9367 14.4495 55.7984 0.0000 0.0000 0.0000
# 4 0.0000 0.0000 0.0000 40.6535 0.0000 0.0000
# 5 0.0000 0.0000 0.0000 0.0000 14.3129 0.0000
# 6 0.0000 0.0000 0.0000 0.0000 0.0000 45.1499
#
#
#
# Elastic Compliance Matrix: (Units=1/GPa)
#
#
# Indices 1 2 3 4 5 6 
#
# 1 0.014621 -0.002635 -0.000087 0.000000 0.000000 0.000000
# 2 -0.002635 0.008032 -0.001941 0.000000 0.000000 0.000000
# 3 -0.000087 -0.001941 0.018429 0.000000 0.000000 0.000000
# 4 0.000000 0.000000 0.000000 0.024598 0.000000 0.000000
# 5 0.000000 0.000000 0.000000 0.000000 0.069867 0.000000
# 6 0.000000 0.000000 0.000000 0.000000 0.000000 0.022148
#
#
# Mechanical properties :
#
#
# Convention : Reuss Voigt Hill
#
# Bulk Modulus (GPa) = 31.49149 38.74635 35.11892
# Shear Modulus (GPa) = 28.15189 34.87129 31.51159
#
# Velocity S-wave (km/s) = 3.51171 3.90839 3.71535
# Velocity P-wave (km/s) = 5.49889 6.11068 5.81284
#
# Compressibility (1/GPa) = 0.03175461
#
# Stress axis : x y z
#
# Youngs Moduli (GPa) = 68.39375 124.50528 54.26246
#
# Poissons Ratio (x) = 0.32812 0.00472
# Poissons Ratio (y) = 0.18025 0.10533
# Poissons Ratio (z) = 0.00595 0.24169
#
# Static dielectric constant tensor:
#      x y z
#    x 4.328860 0.000000 0.000000 
#    y 0.000000 4.253920 0.000000 
#    z 0.000000 0.000000 4.050530 
# 
# 
# High freq. dielectric constant tensor:
#      x y z
#    x 1.915010 0.000000 0.000000 
#    y 0.000000 1.915360 0.000000 
#    z 0.000000 0.000000 1.900390 
# 
# From -- ./inp_files/6587.got.cif
#   From: 2010.03.12/outbox.cif.g09.slc.cpg/sg19_4_cif.got.tgz:6587.got - 2010.04.10 18:59:41.
