data_PCOD8157779
_publ_section_title
;
Structure prediction by ZEFSAII (Michael W. Deem and Ramdas Pophale) SiO2 
 PCOD8157779
Probable space group: P 21 21 21
;
_chemical_formula_sum "Si O2"
_cell_formula_units_Z 28
_cell_length_a 9.812526
_cell_length_b 8.655050
_cell_length_c 13.632153
_cell_angle_alpha 90.000000
_cell_angle_beta 90.000000
_cell_angle_gamma 90.000000
_cell_volume 1157.750170
_symmetry_space_group_name_H-M "P 21 21 21"
_symmetry_group_IT_number 19
_symmetry_cell_setting 'orthorhombic'
loop_
_space_group_symop_operation_xyz
x,y,z
1/2-x,-y,1/2+z
1/2+x,1/2-y,-z
-x,1/2+y,1/2-z
loop_
_atom_site_type_symbol
_atom_site_label
_atom_site_fract_x
_atom_site_fract_y
_atom_site_fract_z
Si Si1 0.919145 0.594226 0.708164
Si Si2 0.413568 0.244009 0.351665
Si Si3 0.047395 0.361914 0.083363
Si Si4 0.336370 0.563558 0.875184
Si Si5 0.350882 0.251180 0.773220
Si Si6 0.437717 0.282553 0.570391
Si Si7 0.353653 0.344704 0.049169
O O1 0.888243 0.411350 0.711935
O O2 0.783478 0.684269 0.671222
O O3 0.949550 0.668919 0.815130
O O4 0.053525 0.620307 0.642904
O O5 0.303317 0.375291 0.331078
O O6 0.409886 0.197515 0.467081
O O7 0.048183 0.537590 0.048592
O O8 0.200469 0.287834 0.079942
O O9 0.985040 0.346432 0.193273
O O10 0.937232 0.278203 0.014213
O O11 0.382987 0.427602 0.802838
O O12 0.428598 0.714806 0.879084
O O13 0.327112 0.499982 0.986620
O O14 0.325612 0.246733 0.655280
#
# Coordination Sequence:
#
# PCOD8157779 Si02
#       7
#     4   4   4   4   4   4   4
#     4  12  28  50  73 116 151 203 255 327 387 467
#     4  12  28  45  78 108 153 200 263 313 392 453
#     4  11  25  47  79 108 153 201 252 323 382 465
#     4  11  24  47  77 110 147 200 256 313 376 468
#     4  11  27  50  77 112 157 195 259 315 392 458
#     4  12  26  47  75 109 149 205 249 316 378 468
#     4  11  24  48  77 109 150 198 256 315 389 453
#
# _framework density 24.184840000000001
#
# number of rings (size 3 to 8) (size 9 to 14) (size 15 to 20)
#    0.000    0.571    2.857    4.286   10.000    0.000 
#    2.571    0.000    0.000    0.000    0.000    0.000 
#    0.000    0.000    0.000    0.000    0.000    0.000 
#
# Total GULP energy -347011.934986 kJ/mol
# GULP energy per Si atom -12393.283392 kJ/mol
# Density = 2.412979 g / cm^3
# Si number density = 24.184840 Si / 1000 Ang^3
#
#
#
# Elastic Constant Matrix: (Units=GPa)
#
#
# Indices 1 2 3 4 5 6 
#
# 1 160.3449 54.0274 32.6232 0.0000 0.0000 0.0000
# 2 54.0274 116.4578 23.4078 0.0000 0.0000 0.0000
# 3 32.6232 23.4078 118.6870 0.0000 0.0000 0.0000
# 4 0.0000 0.0000 0.0000 24.8324 0.0000 0.0000
# 5 0.0000 0.0000 0.0000 0.0000 37.4239 0.0000
# 6 0.0000 0.0000 0.0000 0.0000 0.0000 38.3073
#
#
#
# Elastic Compliance Matrix: (Units=1/GPa)
#
#
# Indices 1 2 3 4 5 6 
#
# 1 0.007626 -0.003245 -0.001456 0.000000 0.000000 0.000000
# 2 -0.003245 0.010322 -0.001144 0.000000 0.000000 0.000000
# 3 -0.001456 -0.001144 0.009051 0.000000 0.000000 0.000000
# 4 0.000000 0.000000 0.000000 0.040270 0.000000 0.000000
# 5 0.000000 0.000000 0.000000 0.000000 0.026721 0.000000
# 6 0.000000 0.000000 0.000000 0.000000 0.000000 0.026105
#
#
# Mechanical properties :
#
#
# Convention : Reuss Voigt Hill
#
# Bulk Modulus (GPa) = 65.31923 68.40073 66.85998
# Shear Modulus (GPa) = 36.52590 39.14148 37.83369
#
# Velocity S-wave (km/s) = 3.89045 4.02734 3.95948
# Velocity P-wave (km/s) = 6.87370 7.06893 6.97200
#
# Compressibility (1/GPa) = 0.01530943
#
# Stress axis : x y z
#
# Youngs Moduli (GPa) = 131.12470 96.87783 110.48070
#
# Poissons Ratio (x) = 0.31440 0.16088
# Poissons Ratio (y) = 0.42554 0.12636
# Poissons Ratio (z) = 0.19094 0.11080
#
# Static dielectric constant tensor:
#      x y z
#    x 4.441010 0.000000 0.000000 
#    y 0.000000 4.207800 0.000000 
#    z 0.000000 0.000000 4.637670 
# 
# 
# High freq. dielectric constant tensor:
#      x y z
#    x 1.964850 0.000000 0.000000 
#    y 0.000000 1.956810 0.000000 
#    z 0.000000 0.000000 1.967820 
# 
# From -- ./inp_files/5850.got.cif
#   From: 2010.03.12/outbox.cif.g09.slc.cpg/sg19_3_cif.got.tgz:5850.got - 2010.04.10 18:59:41.
