data_PCOD8157526
_publ_section_title
;
Structure prediction by ZEFSAII (Michael W. Deem and Ramdas Pophale) SiO2 
 PCOD8157526
Probable space group: P 21 21 21
;
_chemical_formula_sum "Si O2"
_cell_formula_units_Z 28
_cell_length_a 15.734453
_cell_length_b 8.562171
_cell_length_c 9.089299
_cell_angle_alpha 90.000000
_cell_angle_beta 90.000000
_cell_angle_gamma 90.000000
_cell_volume 1224.520152
_symmetry_space_group_name_H-M "P 21 21 21"
_symmetry_group_IT_number 19
_symmetry_cell_setting 'orthorhombic'
loop_
_space_group_symop_operation_xyz
x,y,z
1/2-x,-y,1/2+z
1/2+x,1/2-y,-z
-x,1/2+y,1/2-z
loop_
_atom_site_type_symbol
_atom_site_label
_atom_site_fract_x
_atom_site_fract_y
_atom_site_fract_z
Si Si1 0.065849 0.230392 0.409083
Si Si2 0.348329 0.329900 0.893573
Si Si3 0.550988 0.005989 0.368451
Si Si4 0.663281 0.100974 0.120171
Si Si5 0.143567 0.052758 0.799375
Si Si6 0.297109 0.991308 0.975610
Si Si7 0.934024 0.981470 0.339500
O O1 0.051948 0.320760 0.561888
O O2 0.162531 0.166944 0.407789
O O3 0.042269 0.344344 0.274822
O O4 0.015047 0.067261 0.408304
O O5 0.262200 0.432597 0.915987
O O6 0.379914 0.379141 0.732480
O O7 0.333695 0.145697 0.895030
O O8 0.420493 0.377827 0.011700
O O9 0.616904 0.982214 0.232631
O O10 0.455633 0.983347 0.312053
O O11 0.655958 0.263807 0.202620
O O12 0.616514 0.106084 0.965618
O O13 0.184503 0.987679 0.648542
O O14 0.196384 0.979702 0.937519
#
# Coordination Sequence:
#
# PCOD8157526 Si02
#       7
#     4   4   4   4   4   4   4
#     4  11  25  44  69 101 138 185 235 297 351 432
#     4  10  25  45  71 100 138 183 235 296 349 427
#     4  11  25  46  71 105 139 186 242 287 361 418
#     4  11  24  45  69 102 141 181 237 288 356 417
#     4  11  27  43  73 104 142 192 233 300 349 437
#     4  11  25  47  69 103 141 187 238 292 361 418
#     4  11  25  42  70 101 137 182 232 294 355 415
#
# _framework density 22.866098999999998
#
# number of rings (size 3 to 8) (size 9 to 14) (size 15 to 20)
#    0.000    1.143    1.429    2.571   12.000    2.286 
#    5.143    0.000    0.000    0.000    0.000    0.000 
#    0.000    0.000    0.000    0.000    0.000    0.000 
#
# Total GULP energy -347118.560239 kJ/mol
# GULP energy per Si atom -12397.091437 kJ/mol
# Density = 2.281405 g / cm^3
# Si number density = 22.866099 Si / 1000 Ang^3
#
#
#
# Elastic Constant Matrix: (Units=GPa)
#
#
# Indices 1 2 3 4 5 6 
#
# 1 90.0194 18.3783 36.0045 0.0000 0.0000 0.0000
# 2 18.3783 66.2997 8.8974 0.0000 0.0000 0.0000
# 3 36.0045 8.8974 90.4096 0.0000 0.0000 0.0000
# 4 0.0000 0.0000 0.0000 30.4336 0.0000 0.0000
# 5 0.0000 0.0000 0.0000 0.0000 39.7668 0.0000
# 6 0.0000 0.0000 0.0000 0.0000 0.0000 36.6194
#
#
#
# Elastic Compliance Matrix: (Units=1/GPa)
#
#
# Indices 1 2 3 4 5 6 
#
# 1 0.013828 -0.003136 -0.005198 0.000000 0.000000 0.000000
# 2 -0.003136 0.015996 -0.000325 0.000000 0.000000 0.000000
# 3 -0.005198 -0.000325 0.013163 0.000000 0.000000 0.000000
# 4 0.000000 0.000000 0.000000 0.032858 0.000000 0.000000
# 5 0.000000 0.000000 0.000000 0.000000 0.025147 0.000000
# 6 0.000000 0.000000 0.000000 0.000000 0.000000 0.027308
#
#
# Mechanical properties :
#
#
# Convention : Reuss Voigt Hill
#
# Bulk Modulus (GPa) = 38.95864 41.47657 40.21761
# Shear Modulus (GPa) = 32.43081 33.59386 33.01233
#
# Velocity S-wave (km/s) = 3.77011 3.83711 3.80376
# Velocity P-wave (km/s) = 6.00219 6.14895 6.07601
#
# Compressibility (1/GPa) = 0.02566825
#
# Stress axis : x y z
#
# Youngs Moduli (GPa) = 72.31711 62.51613 75.97079
#
# Poissons Ratio (x) = 0.19602 0.39492
# Poissons Ratio (y) = 0.22675 0.02473
# Poissons Ratio (z) = 0.37592 0.02035
#
# Static dielectric constant tensor:
#      x y z
#    x 4.466010 0.000000 0.000000 
#    y 0.000000 4.004340 0.000000 
#    z 0.000000 0.000000 4.062920 
# 
# 
# High freq. dielectric constant tensor:
#      x y z
#    x 1.912140 0.000000 0.000000 
#    y 0.000000 1.898190 0.000000 
#    z 0.000000 0.000000 1.907440 
# 
# From -- ./inp_files/2850.got.cif
#   From: 2010.03.12/outbox.cif.g09.slc.cpg/sg19_2_cif.got.tgz:2850.got - 2010.04.10 18:59:41.
