data_PCOD8157944
_publ_section_title
;
Structure prediction by ZEFSAII (Michael W. Deem and Ramdas Pophale) SiO2 
 PCOD8157944
Probable space group: P 21 21 21
;
_chemical_formula_sum "Si O2"
_cell_formula_units_Z 12
_cell_length_a 8.990326
_cell_length_b 8.958655
_cell_length_c 4.926212
_cell_angle_alpha 90.000000
_cell_angle_beta 90.000000
_cell_angle_gamma 90.000000
_cell_volume 396.763169
_symmetry_space_group_name_H-M "P 21 21 21"
_symmetry_group_IT_number 19
_symmetry_cell_setting 'orthorhombic'
loop_
_space_group_symop_operation_xyz
x,y,z
1/2-x,-y,1/2+z
1/2+x,1/2-y,-z
-x,1/2+y,1/2-z
loop_
_atom_site_type_symbol
_atom_site_label
_atom_site_fract_x
_atom_site_fract_y
_atom_site_fract_z
Si Si1 0.068089 0.585603 0.072125
Si Si2 0.175436 0.063390 0.053575
Si Si3 0.385174 0.666287 0.200161
O O1 0.245410 0.591888 0.047901
O O2 0.001497 0.535885 0.369668
O O3 0.015929 0.459473 0.855195
O O4 0.993380 0.744268 0.000600
O O5 0.256902 0.061118 0.350504
O O6 0.193123 0.226388 0.924578
#
# Coordination Sequence:
#
# PCOD8157944 Si02
#       3
#     4   4   4
#     4  12  34  58  95 142 185 249 315 386 468 559
#     4  12  30  56  94 130 184 242 304 384 468 542
#     4  12  34  58  95 142 185 249 315 386 468 559
#
# _framework density 30.24474
#
# number of rings (size 3 to 8) (size 9 to 14) (size 15 to 20)
#    0.000    0.000    3.333    0.000   23.333    0.000 
#    6.000    0.000    0.000    0.000    0.000    0.000 
#    0.000    0.000    0.000    0.000    0.000    0.000 
#
# Total GULP energy -148885.733566 kJ/mol
# GULP energy per Si atom -12407.144464 kJ/mol
# Density = 3.017590 g / cm^3
# Si number density = 30.244740 Si / 1000 Ang^3
#
#
#
# Elastic Constant Matrix: (Units=GPa)
#
#
# Indices 1 2 3 4 5 6 
#
# 1 119.1036 -11.3464 9.5523 0.0000 0.0000 0.0000
# 2 -11.3464 56.3091 -17.4525 0.0000 0.0000 0.0000
# 3 9.5523 -17.4525 122.4226 0.0000 0.0000 0.0000
# 4 0.0000 0.0000 0.0000 43.3895 0.0000 0.0000
# 5 0.0000 0.0000 0.0000 0.0000 59.7930 0.0000
# 6 0.0000 0.0000 0.0000 0.0000 0.0000 57.0130
#
#
#
# Elastic Compliance Matrix: (Units=1/GPa)
#
#
# Indices 1 2 3 4 5 6 
#
# 1 0.008583 0.001592 -0.000443 0.000000 0.000000 0.000000
# 2 0.001592 0.018875 0.002567 0.000000 0.000000 0.000000
# 3 -0.000443 0.002567 0.008569 0.000000 0.000000 0.000000
# 4 0.000000 0.000000 0.000000 0.023047 0.000000 0.000000
# 5 0.000000 0.000000 0.000000 0.000000 0.016724 0.000000
# 6 0.000000 0.000000 0.000000 0.000000 0.000000 0.017540
#
#
# Mechanical properties :
#
#
# Convention : Reuss Voigt Hill
#
# Bulk Modulus (GPa) = 23.00964 28.81578 25.91271
# Shear Modulus (GPa) = 49.80423 53.17790 51.49106
#
# Velocity S-wave (km/s) = 4.06237 4.19770 4.13059
# Velocity P-wave (km/s) = 5.44317 5.74826 5.59779
#
# Compressibility (1/GPa) = 0.04346005
#
# Stress axis : x y z
#
# Youngs Moduli (GPa) = 116.50595 52.97882 116.70149
#
# Poissons Ratio (x) = -0.08436 0.05167
# Poissons Ratio (y) = -0.18551 -0.29953
# Poissons Ratio (z) = 0.05158 -0.13598
#
# Static dielectric constant tensor:
#      x y z
#    x 5.474700 0.000000 0.000000 
#    y 0.000000 5.397570 0.000000 
#    z 0.000000 0.000000 5.607050 
# 
# 
# High freq. dielectric constant tensor:
#      x y z
#    x 2.257380 0.000000 0.000000 
#    y 0.000000 2.238000 0.000000 
#    z 0.000000 0.000000 2.255230 
# 
# From -- ./inp_files/254.got.cif
#   From: 2010.03.12/outbox.cif.g09.slc.cpg/sg19_1_cif.got.tgz:254.got - 2010.04.10 18:59:41.
