data_PCOD8157520
_publ_section_title
;
Structure prediction by ZEFSAII (Michael W. Deem and Ramdas Pophale) SiO2 
 PCOD8157520
Probable space group: P 21 21 21
;
_chemical_formula_sum "Si O2"
_cell_formula_units_Z 24
_cell_length_a 9.273441
_cell_length_b 10.139945
_cell_length_c 11.384095
_cell_angle_alpha 90.000000
_cell_angle_beta 90.000000
_cell_angle_gamma 90.000000
_cell_volume 1070.471290
_symmetry_space_group_name_H-M "P 21 21 21"
_symmetry_group_IT_number 19
_symmetry_cell_setting 'orthorhombic'
loop_
_space_group_symop_operation_xyz
x,y,z
1/2-x,-y,1/2+z
1/2+x,1/2-y,-z
-x,1/2+y,1/2-z
loop_
_atom_site_type_symbol
_atom_site_label
_atom_site_fract_x
_atom_site_fract_y
_atom_site_fract_z
Si Si1 0.804962 0.462836 0.596460
Si Si2 0.263336 0.236648 0.605484
Si Si3 0.538301 0.150063 0.241898
Si Si4 0.256292 0.520304 0.647229
Si Si5 0.027223 0.681409 0.526135
Si Si6 0.946892 0.358636 0.191444
O O1 0.745513 0.354764 0.506403
O O2 0.666296 0.535933 0.644404
O O3 0.884102 0.386450 0.702295
O O4 0.912418 0.563057 0.530479
O O5 0.115880 0.230397 0.684537
O O6 0.288899 0.389726 0.568279
O O7 0.400812 0.191826 0.681375
O O8 0.643807 0.021960 0.248798
O O9 0.519510 0.195695 0.108218
O O10 0.184717 0.631779 0.565934
O O11 0.398689 0.574635 0.707979
O O12 0.041803 0.733021 0.394356
#
# Coordination Sequence:
#
# PCOD8157520 Si02
#       6
#     4   4   4   4   4   4
#     4  11  24  43  72  95 137 180 222 279 343 407
#     4  10  25  44  63 102 136 171 230 275 338 396
#     4   9  23  47  63  98 131 184 220 263 346 402
#     4   9  24  42  66 101 132 174 218 288 325 394
#     4  11  23  47  70  96 135 184 226 269 344 408
#     4  12  25  41  72 104 131 177 226 290 330 395
#
# _framework density 22.420031999999999
#
# number of rings (size 3 to 8) (size 9 to 14) (size 15 to 20)
#    1.000    0.667    1.667    1.000    7.000    1.333 
#    6.000    0.000    0.000    0.000    0.000    0.000 
#    0.000    0.000    0.000    0.000    0.000    0.000 
#
# Total GULP energy -297564.729618 kJ/mol
# GULP energy per Si atom -12398.530401 kJ/mol
# Density = 2.236900 g / cm^3
# Si number density = 22.420032 Si / 1000 Ang^3
#
#
#
# Elastic Constant Matrix: (Units=GPa)
#
#
# Indices 1 2 3 4 5 6 
#
# 1 112.4066 23.7353 0.5031 0.0000 0.0000 0.0000
# 2 23.7353 79.2227 14.4006 0.0000 0.0000 0.0000
# 3 0.5031 14.4006 31.5183 0.0000 0.0000 0.0000
# 4 0.0000 0.0000 0.0000 26.3432 0.0000 0.0000
# 5 0.0000 0.0000 0.0000 0.0000 18.9727 0.0000
# 6 0.0000 0.0000 0.0000 0.0000 0.0000 26.2205
#
#
#
# Elastic Compliance Matrix: (Units=1/GPa)
#
#
# Indices 1 2 3 4 5 6 
#
# 1 0.009543 -0.003088 0.001258 0.000000 0.000000 0.000000
# 2 -0.003088 0.014765 -0.006697 0.000000 0.000000 0.000000
# 3 0.001258 -0.006697 0.034767 0.000000 0.000000 0.000000
# 4 0.000000 0.000000 0.000000 0.037960 0.000000 0.000000
# 5 0.000000 0.000000 0.000000 0.000000 0.052707 0.000000
# 6 0.000000 0.000000 0.000000 0.000000 0.000000 0.038138
#
#
# Mechanical properties :
#
#
# Convention : Reuss Voigt Hill
#
# Bulk Modulus (GPa) = 23.79662 33.38062 28.58862
# Shear Modulus (GPa) = 22.83724 26.60785 24.72255
#
# Velocity S-wave (km/s) = 3.19503 3.44872 3.32429
# Velocity P-wave (km/s) = 4.92422 5.54791 5.24534
#
# Compressibility (1/GPa) = 0.04202277
#
# Stress axis : x y z
#
# Youngs Moduli (GPa) = 104.79282 67.72753 28.76267
#
# Poissons Ratio (x) = 0.20913 -0.03620
# Poissons Ratio (y) = 0.32357 0.19262
# Poissons Ratio (z) = -0.13188 0.45356
#
# Static dielectric constant tensor:
#      x y z
#    x 4.128450 0.000000 0.000000 
#    y 0.000000 4.127100 0.000000 
#    z 0.000000 0.000000 3.612860 
# 
# 
# High freq. dielectric constant tensor:
#      x y z
#    x 1.893030 0.000000 0.000000 
#    y 0.000000 1.890250 0.000000 
#    z 0.000000 0.000000 1.852960 
# 
# From -- ./inp_files/3368.got.cif
#   From: 2010.03.12/outbox.cif.g09.slc.cpg/sg19_2_cif.got.tgz:3368.got - 2010.04.10 18:59:41.
