data_PCOD8157280
_publ_section_title
;
Structure prediction by ZEFSAII (Michael W. Deem and Ramdas Pophale) SiO2 
 PCOD8157280
Probable space group: P 21 21 21
;
_chemical_formula_sum "Si O2"
_cell_formula_units_Z 32
_cell_length_a 14.383490
_cell_length_b 11.135404
_cell_length_c 8.866505
_cell_angle_alpha 90.000000
_cell_angle_beta 90.000000
_cell_angle_gamma 90.000000
_cell_volume 1420.112392
_symmetry_space_group_name_H-M "P 21 21 21"
_symmetry_group_IT_number 19
_symmetry_cell_setting 'orthorhombic'
loop_
_space_group_symop_operation_xyz
x,y,z
1/2-x,-y,1/2+z
1/2+x,1/2-y,-z
-x,1/2+y,1/2-z
loop_
_atom_site_type_symbol
_atom_site_label
_atom_site_fract_x
_atom_site_fract_y
_atom_site_fract_z
Si Si1 0.633909 0.748184 0.837168
Si Si2 0.342941 0.762302 0.122242
Si Si3 0.162214 0.493612 0.720813
Si Si4 0.149532 0.486118 0.066288
Si Si5 0.321928 0.950829 0.881626
Si Si6 0.492016 0.844532 0.348472
Si Si7 0.862833 0.500127 0.458092
Si Si8 0.531980 0.648410 0.569340
O O1 0.742341 0.724157 0.796254
O O2 0.600070 0.636778 0.940465
O O3 0.572724 0.747008 0.685360
O O4 0.620770 0.873593 0.922372
O O5 0.366388 0.620608 0.117079
O O6 0.420243 0.836013 0.211850
O O7 0.336736 0.818226 0.953959
O O8 0.260984 0.545561 0.666636
O O9 0.085731 0.595886 0.710075
O O10 0.172045 0.452831 0.893833
O O11 0.066033 0.404243 0.128110
O O12 0.330460 0.944208 0.701768
O O13 0.397833 0.039009 0.954181
O O14 0.221340 0.003540 0.923848
O O15 0.447913 0.921204 0.483507
O O16 0.517195 0.712136 0.408535
#
# Coordination Sequence:
#
# PCOD8157280 Si02
#       8
#     4   4   4   4   4   4   4   4
#     4   9  23  43  70  97 134 177 227 281 339 412
#     4  10  22  48  67  96 140 176 232 283 338 416
#     4  11  27  47  69 101 137 189 227 291 350 413
#     4  11  25  49  69 100 144 182 236 287 353 413
#     4  10  22  44  70  98 135 174 223 286 338 408
#     4  12  25  41  67  99 137 178 228 282 338 409
#     4  10  22  43  68 102 130 177 225 281 344 406
#     4  11  24  41  68  99 133 183 220 283 338 411
#
# _framework density 22.533427
#
# number of rings (size 3 to 8) (size 9 to 14) (size 15 to 20)
#    0.000    1.500    1.250    3.000    7.000    3.000 
#   15.750    0.000    0.000    0.000    0.000    0.000 
#    0.000    0.000    0.000    0.000    0.000    0.000 
#
# Total GULP energy -396879.582160 kJ/mol
# GULP energy per Si atom -12402.486942 kJ/mol
# Density = 2.248214 g / cm^3
# Si number density = 22.533427 Si / 1000 Ang^3
#
#
#
# Elastic Constant Matrix: (Units=GPa)
#
#
# Indices 1 2 3 4 5 6 
#
# 1 101.5905 18.0772 14.0056 0.0000 0.0000 0.0000
# 2 18.0772 63.5019 -6.1979 0.0000 0.0000 0.0000
# 3 14.0056 -6.1979 59.2801 0.0000 0.0000 0.0000
# 4 0.0000 0.0000 0.0000 34.4510 0.0000 0.0000
# 5 0.0000 0.0000 0.0000 0.0000 32.9765 0.0000
# 6 0.0000 0.0000 0.0000 0.0000 0.0000 39.6060
#
#
#
# Elastic Compliance Matrix: (Units=1/GPa)
#
#
# Indices 1 2 3 4 5 6 
#
# 1 0.010845 -0.003372 -0.002915 0.000000 0.000000 0.000000
# 2 -0.003372 0.016958 0.002570 0.000000 0.000000 0.000000
# 3 -0.002915 0.002570 0.017826 0.000000 0.000000 0.000000
# 4 0.000000 0.000000 0.000000 0.029027 0.000000 0.000000
# 5 0.000000 0.000000 0.000000 0.000000 0.030325 0.000000
# 6 0.000000 0.000000 0.000000 0.000000 0.000000 0.025249
#
#
# Mechanical properties :
#
#
# Convention : Reuss Voigt Hill
#
# Bulk Modulus (GPa) = 26.18084 30.68247 28.43166
# Shear Modulus (GPa) = 33.24556 34.63920 33.94238
#
# Velocity S-wave (km/s) = 3.84525 3.92501 3.88533
# Velocity P-wave (km/s) = 5.59986 5.84696 5.72474
#
# Compressibility (1/GPa) = 0.03819588
#
# Stress axis : x y z
#
# Youngs Moduli (GPa) = 92.20601 58.96843 56.09654
#
# Poissons Ratio (x) = 0.19883 0.16351
# Poissons Ratio (y) = 0.31090 -0.14415
# Poissons Ratio (z) = 0.26877 -0.15153
#
# Static dielectric constant tensor:
#      x y z
#    x 4.149010 0.000000 0.000000 
#    y 0.000000 4.106850 0.000000 
#    z 0.000000 0.000000 3.773100 
# 
# 
# High freq. dielectric constant tensor:
#      x y z
#    x 1.899550 0.000000 0.000000 
#    y 0.000000 1.891440 0.000000 
#    z 0.000000 0.000000 1.873990 
# 
# From -- ./inp_files/3920.got.cif
#   From: 2010.03.12/outbox.cif.g09.slc.cpg/sg19_2_cif.got.tgz:3920.got - 2010.04.10 18:59:41.
