data_PCOD8157635
_publ_section_title
;
Structure prediction by ZEFSAII (Michael W. Deem and Ramdas Pophale) SiO2 
 PCOD8157635
Probable space group: P 21 21 21
;
_chemical_formula_sum "Si O2"
_cell_formula_units_Z 32
_cell_length_a 14.669633
_cell_length_b 9.080217
_cell_length_c 10.990952
_cell_angle_alpha 90.000000
_cell_angle_beta 90.000000
_cell_angle_gamma 90.000000
_cell_volume 1464.032736
_symmetry_space_group_name_H-M "P 21 21 21"
_symmetry_group_IT_number 19
_symmetry_cell_setting 'orthorhombic'
loop_
_space_group_symop_operation_xyz
x,y,z
1/2-x,-y,1/2+z
1/2+x,1/2-y,-z
-x,1/2+y,1/2-z
loop_
_atom_site_type_symbol
_atom_site_label
_atom_site_fract_x
_atom_site_fract_y
_atom_site_fract_z
Si Si1 0.259305 0.379131 0.114868
Si Si2 0.927134 0.179133 0.239182
Si Si3 0.716633 0.648965 0.583368
Si Si4 0.427149 0.482968 0.264695
Si Si5 0.893825 0.680773 0.730944
Si Si6 0.096612 0.352212 0.297145
Si Si7 0.320995 0.831041 0.998154
Si Si8 0.347036 0.363849 0.502882
O O1 0.349473 0.455094 0.165751
O O2 0.191714 0.345068 0.225692
O O3 0.215475 0.491543 0.018771
O O4 0.284780 0.229275 0.046901
O O5 0.842005 0.263750 0.182414
O O6 0.912586 0.159739 0.382839
O O7 0.020114 0.268555 0.217359
O O8 0.935218 0.019069 0.177342
O O9 0.819503 0.637697 0.630529
O O10 0.672212 0.490334 0.563753
O O11 0.523919 0.433172 0.211397
O O12 0.430467 0.655412 0.294825
O O13 0.409841 0.386795 0.385635
O O14 0.850177 0.663598 0.862944
O O15 0.109888 0.275999 0.427213
O O16 0.216855 0.777688 0.986298
#
# Coordination Sequence:
#
# PCOD8157635 Si02
#       8
#     4   4   4   4   4   4   4   4
#     4  11  24  45  71  96 136 190 226 288 351 415
#     4  11  24  45  71 101 141 179 232 291 352 412
#     4  12  27  45  71  99 143 183 238 288 346 418
#     4  12  26  46  74 103 147 185 239 289 366 416
#     4  12  28  48  70 107 143 187 234 298 350 431
#     4  11  24  43  71 103 136 180 230 286 350 414
#     4  12  25  43  74  98 138 183 237 284 354 412
#     4  11  22  47  72  95 134 187 226 290 351 420
#
# _framework density 21.857434000000001
#
# number of rings (size 3 to 8) (size 9 to 14) (size 15 to 20)
#    0.000    0.500    5.000    3.000    5.250    3.000 
#    0.000    0.000    0.000    0.000    0.000    0.000 
#    0.000    0.000    0.000    0.000    0.000    0.000 
#
# Total GULP energy -397099.902415 kJ/mol
# GULP energy per Si atom -12409.371950 kJ/mol
# Density = 2.180769 g / cm^3
# Si number density = 21.857434 Si / 1000 Ang^3
#
#
#
# Elastic Constant Matrix: (Units=GPa)
#
#
# Indices 1 2 3 4 5 6 
#
# 1 74.7450 28.1181 -5.5871 0.0000 0.0000 0.0000
# 2 28.1181 119.5228 10.4140 0.0000 0.0000 0.0000
# 3 -5.5871 10.4140 47.0100 0.0000 0.0000 0.0000
# 4 0.0000 0.0000 0.0000 32.2508 0.0000 0.0000
# 5 0.0000 0.0000 0.0000 0.0000 12.7699 0.0000
# 6 0.0000 0.0000 0.0000 0.0000 0.0000 37.7967
#
#
#
# Elastic Compliance Matrix: (Units=1/GPa)
#
#
# Indices 1 2 3 4 5 6 
#
# 1 0.014986 -0.003753 0.002613 0.000000 0.000000 0.000000
# 2 -0.003753 0.009471 -0.002544 0.000000 0.000000 0.000000
# 3 0.002613 -0.002544 0.022146 0.000000 0.000000 0.000000
# 4 0.000000 0.000000 0.000000 0.031007 0.000000 0.000000
# 5 0.000000 0.000000 0.000000 0.000000 0.078309 0.000000
# 6 0.000000 0.000000 0.000000 0.000000 0.000000 0.026457
#
#
# Mechanical properties :
#
#
# Convention : Reuss Voigt Hill
#
# Bulk Modulus (GPa) = 25.48827 34.12976 29.80901
# Shear Modulus (GPa) = 24.65189 30.45235 27.55212
#
# Velocity S-wave (km/s) = 3.36199 3.73664 3.55426
# Velocity P-wave (km/s) = 5.17273 5.85366 5.52369
#
# Compressibility (1/GPa) = 0.03923374
#
# Stress axis : x y z
#
# Youngs Moduli (GPa) = 66.72907 105.58314 45.15452
#
# Poissons Ratio (x) = 0.39627 -0.11797
# Poissons Ratio (y) = 0.25044 0.11488
# Poissons Ratio (z) = -0.17433 0.26862
#
# Static dielectric constant tensor:
#      x y z
#    x 3.951660 0.000000 0.000000 
#    y 0.000000 4.080120 0.000000 
#    z 0.000000 0.000000 3.807210 
# 
# 
# High freq. dielectric constant tensor:
#      x y z
#    x 1.864380 0.000000 0.000000 
#    y 0.000000 1.867660 0.000000 
#    z 0.000000 0.000000 1.859690 
# 
# From -- ./inp_files/3980.got.cif
#   From: 2010.03.12/outbox.cif.g09.slc.cpg/sg19_2_cif.got.tgz:3980.got - 2010.04.10 18:59:41.
