data_PCOD8157643
_publ_section_title
;
Structure prediction by ZEFSAII (Michael W. Deem and Ramdas Pophale) SiO2 
 PCOD8157643
Probable space group: P 21 21 21
;
_chemical_formula_sum "Si O2"
_cell_formula_units_Z 32
_cell_length_a 23.693552
_cell_length_b 5.149216
_cell_length_c 11.536549
_cell_angle_alpha 90.000000
_cell_angle_beta 90.000000
_cell_angle_gamma 90.000000
_cell_volume 1407.496092
_symmetry_space_group_name_H-M "P 21 21 21"
_symmetry_group_IT_number 19
_symmetry_cell_setting 'orthorhombic'
loop_
_space_group_symop_operation_xyz
x,y,z
1/2-x,-y,1/2+z
1/2+x,1/2-y,-z
-x,1/2+y,1/2-z
loop_
_atom_site_type_symbol
_atom_site_label
_atom_site_fract_x
_atom_site_fract_y
_atom_site_fract_z
Si Si1 0.921236 0.204584 0.477226
Si Si2 0.179580 0.219389 0.508201
Si Si3 0.884295 0.214788 0.907772
Si Si4 0.173890 0.236972 0.236722
Si Si5 0.035378 0.844506 0.784118
Si Si6 0.518158 0.654425 0.566669
Si Si7 0.300633 0.278756 0.604320
Si Si8 0.057843 0.075798 0.223179
O O1 0.946415 0.385391 0.581089
O O2 0.853084 0.174588 0.485496
O O3 0.930467 0.314194 0.348764
O O4 0.959540 0.944363 0.490249
O O5 0.147527 0.441506 0.581738
O O6 0.175380 0.270471 0.373246
O O7 0.245968 0.218338 0.530180
O O8 0.155018 0.941742 0.544302
O O9 0.904923 0.270590 0.777235
O O10 0.944326 0.193986 0.974701
O O11 0.210951 0.458362 0.176559
O O12 0.108752 0.277209 0.196363
O O13 0.192505 0.950751 0.197809
O O14 0.989665 0.611888 0.767965
O O15 0.502527 0.830774 0.677454
O O16 0.556706 0.444227 0.635516
#
# Coordination Sequence:
#
# PCOD8157643 Si02
#       8
#     4   4   4   4   4   4   4   4
#     4  11  25  42  65 100 135 185 226 287 346 410
#     4  12  27  48  72 102 138 186 236 290 342 415
#     4  12  27  44  72 104 140 185 236 284 352 412
#     4  11  24  46  70 103 136 180 226 296 344 407
#     4  12  26  46  69  99 143 187 231 285 342 426
#     4  12  22  38  68 103 138 175 223 287 352 419
#     4  11  26  46  70  99 138 181 238 282 348 409
#     4  11  23  36  68 102 140 171 224 281 358 414
#
# _framework density 22.735410999999999
#
# number of rings (size 3 to 8) (size 9 to 14) (size 15 to 20)
#    0.000    0.500    5.000    3.000    5.250    2.000 
#    0.000    1.250    0.000    0.000    0.000    0.000 
#    0.000    0.000    0.000    0.000    0.000    0.000 
#
# Total GULP energy -396577.944959 kJ/mol
# GULP energy per Si atom -12393.060780 kJ/mol
# Density = 2.268366 g / cm^3
# Si number density = 22.735411 Si / 1000 Ang^3
#
#
#
# Elastic Constant Matrix: (Units=GPa)
#
#
# Indices 1 2 3 4 5 6 
#
# 1 125.9329 8.9658 18.2200 0.0000 0.0000 0.0000
# 2 8.9658 74.8788 -2.3869 0.0000 0.0000 0.0000
# 3 18.2200 -2.3869 57.4389 0.0000 0.0000 0.0000
# 4 0.0000 0.0000 0.0000 25.6905 0.0000 0.0000
# 5 0.0000 0.0000 0.0000 0.0000 26.8981 0.0000
# 6 0.0000 0.0000 0.0000 0.0000 0.0000 36.0358
#
#
#
# Elastic Compliance Matrix: (Units=1/GPa)
#
#
# Indices 1 2 3 4 5 6 
#
# 1 0.008411 -0.001094 -0.002714 0.000000 0.000000 0.000000
# 2 -0.001094 0.013515 0.000909 0.000000 0.000000 0.000000
# 3 -0.002714 0.000909 0.018308 0.000000 0.000000 0.000000
# 4 0.000000 0.000000 0.000000 0.038925 0.000000 0.000000
# 5 0.000000 0.000000 0.000000 0.000000 0.037177 0.000000
# 6 0.000000 0.000000 0.000000 0.000000 0.000000 0.027750
#
#
# Mechanical properties :
#
#
# Convention : Reuss Voigt Hill
#
# Bulk Modulus (GPa) = 29.03849 34.20538 31.62194
# Shear Modulus (GPa) = 30.98600 33.28830 32.13715
#
# Velocity S-wave (km/s) = 3.69575 3.83059 3.76377
# Velocity P-wave (km/s) = 5.56880 5.88576 5.72947
#
# Compressibility (1/GPa) = 0.03443705
#
# Stress axis : x y z
#
# Youngs Moduli (GPa) = 118.88919 73.99285 54.61996
#
# Poissons Ratio (x) = 0.08092 0.14821
# Poissons Ratio (y) = 0.13002 -0.04962
# Poissons Ratio (z) = 0.32261 -0.06722
#
# Static dielectric constant tensor:
#      x y z
#    x 4.528690 0.000000 0.000000 
#    y 0.000000 4.014520 0.000000 
#    z 0.000000 0.000000 4.098350 
# 
# 
# High freq. dielectric constant tensor:
#      x y z
#    x 1.900770 0.000000 0.000000 
#    y 0.000000 1.896450 0.000000 
#    z 0.000000 0.000000 1.896780 
# 
# From -- ./inp_files/5514.got.cif
#   From: 2010.03.12/outbox.cif.g09.slc.cpg/sg19_3_cif.got.tgz:5514.got - 2010.04.10 18:59:41.
