data_PCOD8157307
_publ_section_title
;
Structure prediction by ZEFSAII (Michael W. Deem and Ramdas Pophale) SiO2 
 PCOD8157307
Probable space group: P 21 21 21
;
_chemical_formula_sum "Si O2"
_cell_formula_units_Z 32
_cell_length_a 11.807161
_cell_length_b 13.156395
_cell_length_c 9.266347
_cell_angle_alpha 90.000000
_cell_angle_beta 90.000000
_cell_angle_gamma 90.000000
_cell_volume 1439.431322
_symmetry_space_group_name_H-M "P 21 21 21"
_symmetry_group_IT_number 19
_symmetry_cell_setting 'orthorhombic'
loop_
_space_group_symop_operation_xyz
x,y,z
1/2-x,-y,1/2+z
1/2+x,1/2-y,-z
-x,1/2+y,1/2-z
loop_
_atom_site_type_symbol
_atom_site_label
_atom_site_fract_x
_atom_site_fract_y
_atom_site_fract_z
Si Si1 0.508239 0.432916 0.034509
Si Si2 0.978618 0.238203 0.758511
Si Si3 0.777231 0.787553 0.789547
Si Si4 0.249758 0.787814 0.645796
Si Si5 0.738313 0.915213 0.511122
Si Si6 0.233532 0.081245 0.860840
Si Si7 0.084166 0.081815 0.283300
Si Si8 0.616554 0.889319 0.000469
O O1 0.509753 0.314018 0.086881
O O2 0.610216 0.479011 0.136246
O O3 0.377385 0.470340 0.047165
O O4 0.534405 0.452574 0.868494
O O5 0.873909 0.312191 0.788981
O O6 0.934491 0.151830 0.648607
O O7 0.085980 0.302696 0.700328
O O8 0.722508 0.858687 0.664948
O O9 0.757639 0.667094 0.763137
O O10 0.716707 0.816811 0.939407
O O11 0.270798 0.670175 0.606303
O O12 0.264101 0.864592 0.514728
O O13 0.342547 0.815441 0.766266
O O14 0.836677 0.997424 0.524880
O O15 0.337477 0.006417 0.847027
O O16 0.984373 0.107690 0.388929
#
# Coordination Sequence:
#
# PCOD8157307 Si02
#       8
#     4   4   4   4   4   4   4   4
#     4   9  20  43  67  95 133 176 227 270 334 421
#     4  10  24  43  66  95 136 184 222 283 354 414
#     4  10  23  46  64  94 142 176 225 292 342 406
#     4   9  22  43  70  96 135 184 223 272 358 417
#     4  10  22  44  72  95 135 185 234 279 350 418
#     4   9  21  41  69  99 134 180 221 281 337 415
#     4  11  23  42  69 104 134 171 235 282 333 421
#     4  12  27  40  67 106 133 174 239 295 342 412
#
# _framework density 22.231002
#
# number of rings (size 3 to 8) (size 9 to 14) (size 15 to 20)
#    0.000    2.000    1.250    0.750    7.000    6.000 
#    2.250    0.000    0.000    0.000    0.000    0.000 
#    0.000    0.000    0.000    0.000    0.000    0.000 
#
# Total GULP energy -396469.579280 kJ/mol
# GULP energy per Si atom -12389.674353 kJ/mol
# Density = 2.218040 g / cm^3
# Si number density = 22.231002 Si / 1000 Ang^3
#
#
#
# Elastic Constant Matrix: (Units=GPa)
#
#
# Indices 1 2 3 4 5 6 
#
# 1 131.5803 39.1111 23.7809 0.0000 0.0000 0.0000
# 2 39.1111 59.9037 24.9790 0.0000 0.0000 0.0000
# 3 23.7809 24.9790 57.6405 0.0000 0.0000 0.0000
# 4 0.0000 0.0000 0.0000 15.9699 0.0000 0.0000
# 5 0.0000 0.0000 0.0000 0.0000 37.0871 0.0000
# 6 0.0000 0.0000 0.0000 0.0000 0.0000 41.9335
#
#
#
# Elastic Compliance Matrix: (Units=1/GPa)
#
#
# Indices 1 2 3 4 5 6 
#
# 1 0.009536 -0.005597 -0.001509 0.000000 0.000000 0.000000
# 2 -0.005597 0.023660 -0.007944 0.000000 0.000000 0.000000
# 3 -0.001509 -0.007944 0.021414 0.000000 0.000000 0.000000
# 4 0.000000 0.000000 0.000000 0.062618 0.000000 0.000000
# 5 0.000000 0.000000 0.000000 0.000000 0.026964 0.000000
# 6 0.000000 0.000000 0.000000 0.000000 0.000000 0.023847
#
#
# Mechanical properties :
#
#
# Convention : Reuss Voigt Hill
#
# Bulk Modulus (GPa) = 40.79887 47.20737 44.00312
# Shear Modulus (GPa) = 24.23540 29.74835 26.99188
#
# Velocity S-wave (km/s) = 3.30534 3.66204 3.48825
# Velocity P-wave (km/s) = 5.74100 6.25793 6.00503
#
# Compressibility (1/GPa) = 0.02451048
#
# Stress axis : x y z
#
# Youngs Moduli (GPa) = 104.86243 42.26474 46.69814
#
# Poissons Ratio (x) = 0.23656 0.07046
# Poissons Ratio (y) = 0.58692 0.37098
# Poissons Ratio (z) = 0.15823 0.33576
#
# Static dielectric constant tensor:
#      x y z
#    x 4.554500 0.000000 0.000000 
#    y 0.000000 3.639590 0.000000 
#    z 0.000000 0.000000 3.985040 
# 
# 
# High freq. dielectric constant tensor:
#      x y z
#    x 1.903880 0.000000 0.000000 
#    y 0.000000 1.841800 0.000000 
#    z 0.000000 0.000000 1.868980 
# 
# From -- ./inp_files/3571.got.cif
#   From: 2010.03.12/outbox.cif.g09.slc.cpg/sg19_2_cif.got.tgz:3571.got - 2010.04.10 18:59:41.
