data_PCOD8157693
_publ_section_title
;
Structure prediction by ZEFSAII (Michael W. Deem and Ramdas Pophale) SiO2 
 PCOD8157693
Probable space group: P 21 21 21
;
_chemical_formula_sum "Si O2"
_cell_formula_units_Z 28
_cell_length_a 24.030813
_cell_length_b 8.110068
_cell_length_c 6.590589
_cell_angle_alpha 90.000000
_cell_angle_beta 90.000000
_cell_angle_gamma 90.000000
_cell_volume 1284.449958
_symmetry_space_group_name_H-M "P 21 21 21"
_symmetry_group_IT_number 19
_symmetry_cell_setting 'orthorhombic'
loop_
_space_group_symop_operation_xyz
x,y,z
1/2-x,-y,1/2+z
1/2+x,1/2-y,-z
-x,1/2+y,1/2-z
loop_
_atom_site_type_symbol
_atom_site_label
_atom_site_fract_x
_atom_site_fract_y
_atom_site_fract_z
Si Si1 0.399098 0.121776 0.791786
Si Si2 0.361398 0.343183 0.147858
Si Si3 0.938880 0.592436 0.884187
Si Si4 0.545417 0.702818 0.103314
Si Si5 0.167869 0.288949 0.667287
Si Si6 0.683454 0.383093 0.942062
Si Si7 0.262921 0.193444 0.394177
O O1 0.432436 0.228318 0.625810
O O2 0.362949 0.991400 0.666540
O O3 0.359993 0.235496 0.938959
O O4 0.446591 0.030652 0.925344
O O5 0.421973 0.326061 0.247511
O O6 0.351007 0.531818 0.094526
O O7 0.318040 0.288369 0.323079
O O8 0.946307 0.486760 0.676888
O O9 0.875693 0.655462 0.920362
O O10 0.980966 0.745103 0.888249
O O11 0.161838 0.261725 0.909670
O O12 0.231976 0.262933 0.595253
O O13 0.722607 0.502344 0.075548
O O14 0.718064 0.282341 0.780050
#
# Coordination Sequence:
#
# PCOD8157693 Si02
#       7
#     4   4   4   4   4   4   4
#     4  11  23  46  70  98 135 182 230 282 352 417
#     4  11  27  43  65 105 139 177 234 288 355 412
#     4  11  24  45  69 101 132 179 233 285 352 422
#     4  11  24  47  73  96 140 181 225 296 350 418
#     4  12  26  42  67 102 139 181 232 289 343 419
#     4  12  22  43  69  96 133 183 229 276 339 421
#     4  12  24  40  69  96 136 183 225 280 347 415
#
# _framework density 21.799213999999999
#
# number of rings (size 3 to 8) (size 9 to 14) (size 15 to 20)
#    0.000    0.571    5.714    2.571    2.000    4.571 
#    2.571    0.000    0.000    0.000    0.000    0.000 
#    0.000    0.000    0.000    0.000    0.000    0.000 
#
# Total GULP energy -347108.869176 kJ/mol
# GULP energy per Si atom -12396.745328 kJ/mol
# Density = 2.174960 g / cm^3
# Si number density = 21.799214 Si / 1000 Ang^3
#
#
#
# Elastic Constant Matrix: (Units=GPa)
#
#
# Indices 1 2 3 4 5 6 
#
# 1 88.3642 19.1032 28.2998 0.0000 0.0000 0.0000
# 2 19.1032 93.3508 32.4713 0.0000 0.0000 0.0000
# 3 28.2998 32.4713 117.9212 0.0000 0.0000 0.0000
# 4 0.0000 0.0000 0.0000 23.3932 0.0000 0.0000
# 5 0.0000 0.0000 0.0000 0.0000 32.5429 0.0000
# 6 0.0000 0.0000 0.0000 0.0000 0.0000 34.4467
#
#
#
# Elastic Compliance Matrix: (Units=1/GPa)
#
#
# Indices 1 2 3 4 5 6 
#
# 1 0.012491 -0.001674 -0.002537 0.000000 0.000000 0.000000
# 2 -0.001674 0.012071 -0.002922 0.000000 0.000000 0.000000
# 3 -0.002537 -0.002922 0.009894 0.000000 0.000000 0.000000
# 4 0.000000 0.000000 0.000000 0.042747 0.000000 0.000000
# 5 0.000000 0.000000 0.000000 0.000000 0.030729 0.000000
# 6 0.000000 0.000000 0.000000 0.000000 0.000000 0.029030
#
#
# Mechanical properties :
#
#
# Convention : Reuss Voigt Hill
#
# Bulk Modulus (GPa) = 49.52866 51.04277 50.28571
# Shear Modulus (GPa) = 31.65388 32.72736 32.19062
#
# Velocity S-wave (km/s) = 3.81473 3.87888 3.84694
# Velocity P-wave (km/s) = 6.49404 6.59748 6.54596
#
# Compressibility (1/GPa) = 0.02019033
#
# Stress axis : x y z
#
# Youngs Moduli (GPa) = 80.05705 82.84117 101.07391
#
# Poissons Ratio (x) = 0.13866 0.25641
# Poissons Ratio (y) = 0.13400 0.29537
# Poissons Ratio (z) = 0.20309 0.24209
#
# Static dielectric constant tensor:
#      x y z
#    x 3.995460 0.000000 0.000000 
#    y 0.000000 3.654310 0.000000 
#    z 0.000000 0.000000 4.159000 
# 
# 
# High freq. dielectric constant tensor:
#      x y z
#    x 1.852750 0.000000 0.000000 
#    y 0.000000 1.839220 0.000000 
#    z 0.000000 0.000000 1.869090 
# 
# From -- ./inp_files/510.got.cif
#   From: 2010.03.12/outbox.cif.g09.slc.cpg/sg19_1_cif.got.tgz:510.got - 2010.04.10 18:59:41.
