data_PCOD8157442
_publ_section_title
;
Structure prediction by ZEFSAII (Michael W. Deem and Ramdas Pophale) SiO2 
 PCOD8157442
Probable space group: P 21 21 21
;
_chemical_formula_sum "Si O2"
_cell_formula_units_Z 16
_cell_length_a 12.652525
_cell_length_b 10.083808
_cell_length_c 4.994904
_cell_angle_alpha 90.000000
_cell_angle_beta 90.000000
_cell_angle_gamma 90.000000
_cell_volume 637.277988
_symmetry_space_group_name_H-M "P 21 21 21"
_symmetry_group_IT_number 19
_symmetry_cell_setting 'orthorhombic'
loop_
_space_group_symop_operation_xyz
x,y,z
1/2-x,-y,1/2+z
1/2+x,1/2-y,-z
-x,1/2+y,1/2-z
loop_
_atom_site_type_symbol
_atom_site_label
_atom_site_fract_x
_atom_site_fract_y
_atom_site_fract_z
Si Si1 0.014973 0.900192 0.765429
Si Si2 0.877800 0.934415 0.282693
Si Si3 0.309250 0.300132 0.463512
Si Si4 0.296188 0.934398 0.240228
O O1 0.951137 0.859335 0.499061
O O2 0.078216 0.038559 0.712960
O O3 0.099544 0.787001 0.830566
O O4 0.931605 0.926873 0.995877
O O5 0.864019 0.087017 0.361431
O O6 0.763238 0.864209 0.269536
O O7 0.233070 0.214161 0.656696
O O8 0.263028 0.959815 0.547014
#
# Coordination Sequence:
#
# PCOD8157442 Si02
#       4
#     4   4   4   4
#     4  11  27  51  80 116 153 209 258 307 397 468
#     4  12  28  50  80 119 154 207 251 325 390 450
#     4  11  28  55  76 117 163 192 266 325 381 464
#     4  10  23  48  78 108 150 200 249 315 380 450
#
# _framework density 25.106784999999999
#
# number of rings (size 3 to 8) (size 9 to 14) (size 15 to 20)
#    0.000    1.000    0.000    4.500    3.500   18.000 
#   13.500    0.000    0.000    0.000    0.000    0.000 
#    0.000    0.000    0.000    0.000    0.000    0.000 
#
# Total GULP energy -198476.841569 kJ/mol
# GULP energy per Si atom -12404.802598 kJ/mol
# Density = 2.504964 g / cm^3
# Si number density = 25.106785 Si / 1000 Ang^3
#
#
#
# Elastic Constant Matrix: (Units=GPa)
#
#
# Indices 1 2 3 4 5 6 
#
# 1 121.7408 39.5080 23.1777 0.0000 0.0000 0.0000
# 2 39.5080 114.6684 -3.1505 0.0000 0.0000 0.0000
# 3 23.1777 -3.1505 62.3577 0.0000 0.0000 0.0000
# 4 0.0000 0.0000 0.0000 31.3643 0.0000 0.0000
# 5 0.0000 0.0000 0.0000 0.0000 48.9803 0.0000
# 6 0.0000 0.0000 0.0000 0.0000 0.0000 41.1306
#
#
#
# Elastic Compliance Matrix: (Units=1/GPa)
#
#
# Indices 1 2 3 4 5 6 
#
# 1 0.010134 -0.003600 -0.003949 0.000000 0.000000 0.000000
# 2 -0.003600 0.010012 0.001844 0.000000 0.000000 0.000000
# 3 -0.003949 0.001844 0.017597 0.000000 0.000000 0.000000
# 4 0.000000 0.000000 0.000000 0.031883 0.000000 0.000000
# 5 0.000000 0.000000 0.000000 0.000000 0.020416 0.000000
# 6 0.000000 0.000000 0.000000 0.000000 0.000000 0.024313
#
#
# Mechanical properties :
#
#
# Convention : Reuss Voigt Hill
#
# Bulk Modulus (GPa) = 37.97409 46.42636 42.20023
# Shear Modulus (GPa) = 37.16262 40.24382 38.70322
#
# Velocity S-wave (km/s) = 3.85149 4.00797 3.93051
# Velocity P-wave (km/s) = 5.91071 6.32062 6.11910
#
# Compressibility (1/GPa) = 0.02633374
#
# Stress axis : x y z
#
# Youngs Moduli (GPa) = 98.67484 99.88143 56.82667
#
# Poissons Ratio (x) = 0.35959 0.22439
# Poissons Ratio (y) = 0.35525 -0.10479
# Poissons Ratio (z) = 0.38964 -0.18418
#
# Static dielectric constant tensor:
#      x y z
#    x 4.856750 0.000000 0.000000 
#    y 0.000000 4.565310 0.000000 
#    z 0.000000 0.000000 4.476060 
# 
# 
# High freq. dielectric constant tensor:
#      x y z
#    x 2.019740 0.000000 0.000000 
#    y 0.000000 2.000530 0.000000 
#    z 0.000000 0.000000 2.007380 
# 
# From -- ./inp_files/794.got.cif
#   From: 2010.03.12/outbox.cif.g09.slc.cpg/sg19_1_cif.got.tgz:794.got - 2010.04.10 18:59:41.
