data_PCOD8157203
_publ_section_title
;
Structure prediction by ZEFSAII (Michael W. Deem and Ramdas Pophale) SiO2 
 PCOD8157203
Probable space group: P 21 21 21
;
_chemical_formula_sum "Si O2"
_cell_formula_units_Z 32
_cell_length_a 19.328339
_cell_length_b 11.092727
_cell_length_c 7.195096
_cell_angle_alpha 90.000000
_cell_angle_beta 90.000000
_cell_angle_gamma 90.000000
_cell_volume 1542.657276
_symmetry_space_group_name_H-M "P 21 21 21"
_symmetry_group_IT_number 19
_symmetry_cell_setting 'orthorhombic'
loop_
_space_group_symop_operation_xyz
x,y,z
1/2-x,-y,1/2+z
1/2+x,1/2-y,-z
-x,1/2+y,1/2-z
loop_
_atom_site_type_symbol
_atom_site_label
_atom_site_fract_x
_atom_site_fract_y
_atom_site_fract_z
Si Si1 0.206800 0.385714 0.810095
Si Si2 0.391938 0.886730 0.629821
Si Si3 0.344531 0.035052 0.970428
Si Si4 0.391938 0.613269 0.629821
Si Si5 0.017314 0.615531 0.622394
Si Si6 0.017314 0.884470 0.622394
Si Si7 0.706800 0.385714 0.189905
Si Si8 0.155469 0.535052 0.470428
O O1 0.182403 0.250000 0.771806
O O2 0.196445 0.457796 0.621579
O O3 0.287337 0.385092 0.866732
O O4 0.158822 0.442485 0.972324
O O5 0.369139 0.750000 0.666075
O O6 0.470971 0.897240 0.562070
O O7 0.341178 0.942485 0.472324
O O8 0.384973 0.952976 0.824327
O O9 0.287337 0.114908 0.866732
O O10 0.402076 0.117258 0.068460
O O11 0.303555 0.957795 0.121579
O O12 0.470971 0.602760 0.562070
O O13 0.384973 0.547024 0.824328
O O14 0.002371 0.750000 0.712966
O O15 0.097924 0.617259 0.568460
O O16 0.000000 0.500000 0.750000
#
# Coordination Sequence:
#
# PCOD8157203 Si02
#       8
#     4   4   4   4   4   4   4   4
#     4  11  23  39  62  93 128 165 215 269 322 385
#     4  10  22  41  64  93 126 168 216 269 327 386
#     4  12  22  42  65  94 126 172 214 267 327 387
#     4  10  22  41  64  93 126 168 216 269 327 386
#     4  11  24  43  68  98 134 170 220 275 324 388
#     4  11  24  43  68  98 134 170 220 275 324 388
#     4  11  23  39  62  93 128 165 215 269 322 385
#     4  12  22  42  65  94 126 172 214 267 327 387
#
# _framework density 20.743428000000002
#
# number of rings (size 3 to 8) (size 9 to 14) (size 15 to 20)
#    0.000    1.000    5.000    2.250    0.000    1.000 
#    0.000    5.000    0.000    0.000    0.000    0.000 
#    0.000    0.000    0.000    0.000    0.000    0.000 
#
# Total GULP energy -396721.806711 kJ/mol
# GULP energy per Si atom -12397.556460 kJ/mol
# Density = 2.069622 g / cm^3
# Si number density = 20.743428 Si / 1000 Ang^3
#
#
#
# Elastic Constant Matrix: (Units=GPa)
#
#
# Indices 1 2 3 4 5 6 
#
# 1 129.4884 23.4396 21.4199 0.0000 0.0000 0.0000
# 2 23.4396 106.5453 44.8386 0.0000 0.0000 0.0000
# 3 21.4199 44.8386 82.4620 0.0000 0.0000 0.0000
# 4 0.0000 0.0000 0.0000 26.4411 0.0000 0.0000
# 5 0.0000 0.0000 0.0000 0.0000 41.5724 0.0000
# 6 0.0000 0.0000 0.0000 0.0000 0.0000 25.2346
#
#
#
# Elastic Compliance Matrix: (Units=1/GPa)
#
#
# Indices 1 2 3 4 5 6 
#
# 1 0.008181 -0.001174 -0.001487 0.000000 0.000000 0.000000
# 2 -0.001174 0.012339 -0.006404 0.000000 0.000000 0.000000
# 3 -0.001487 -0.006404 0.015995 0.000000 0.000000 0.000000
# 4 0.000000 0.000000 0.000000 0.037820 0.000000 0.000000
# 5 0.000000 0.000000 0.000000 0.000000 0.024054 0.000000
# 6 0.000000 0.000000 0.000000 0.000000 0.000000 0.039628
#
#
# Mechanical properties :
#
#
# Convention : Reuss Voigt Hill
#
# Bulk Modulus (GPa) = 54.39144 55.32130 54.85637
# Shear Modulus (GPa) = 30.81148 33.90280 32.35714
#
# Velocity S-wave (km/s) = 3.85822 4.04714 3.95381
# Velocity P-wave (km/s) = 6.79160 6.96896 6.88085
#
# Compressibility (1/GPa) = 0.01838524
#
# Stress axis : x y z
#
# Youngs Moduli (GPa) = 122.23198 81.04228 62.51815
#
# Poissons Ratio (x) = 0.09516 0.09294
# Poissons Ratio (y) = 0.14352 0.40039
# Poissons Ratio (z) = 0.18171 0.51903
#
# Static dielectric constant tensor:
#      x y z
#    x 3.938130 0.000000 0.000000 
#    y 0.000000 3.689120 0.000000 
#    z 0.000000 0.000000 3.610840 
# 
# 
# High freq. dielectric constant tensor:
#      x y z
#    x 1.830170 0.000000 0.000000 
#    y 0.000000 1.803930 0.000000 
#    z 0.000000 0.000000 1.801080 
# 
# From -- ./inp_files/2050.got.cif
#   From: 2010.03.12/outbox.cif.g09.slc.cpg/sg19_2_cif.got.tgz:2050.got - 2010.04.10 18:59:41.
