data_PCOD8157141
_publ_section_title
;
Structure prediction by ZEFSAII (Michael W. Deem and Ramdas Pophale) SiO2 
 PCOD8157141
Probable space group: P 21 21 21
;
_chemical_formula_sum "Si O2"
_cell_formula_units_Z 20
_cell_length_a 9.246238
_cell_length_b 10.264859
_cell_length_c 10.265015
_cell_angle_alpha 90.000000
_cell_angle_beta 90.000000
_cell_angle_gamma 90.000000
_cell_volume 974.266219
_symmetry_space_group_name_H-M "P 21 21 21"
_symmetry_group_IT_number 19
_symmetry_cell_setting 'orthorhombic'
loop_
_space_group_symop_operation_xyz
x,y,z
1/2-x,-y,1/2+z
1/2+x,1/2-y,-z
-x,1/2+y,1/2-z
loop_
_atom_site_type_symbol
_atom_site_label
_atom_site_fract_x
_atom_site_fract_y
_atom_site_fract_z
Si Si1 0.672683 0.883729 0.295926
Si Si2 0.875001 0.658853 0.591137
Si Si3 0.922240 0.700720 0.304599
Si Si4 0.422681 0.045916 0.866280
Si Si5 0.172238 0.445401 0.950715
O O1 0.500715 0.863104 0.302989
O O2 0.753925 0.744388 0.293500
O O3 0.729400 0.967625 0.420149
O O4 0.712591 0.953768 0.160921
O O5 0.947198 0.642574 0.448916
O O6 0.749287 0.552978 0.613095
O O7 0.802803 0.801076 0.607416
O O8 0.962590 0.589092 0.203758
O O9 0.020604 0.829859 0.282384
O O10 0.503923 0.043493 0.005619
#
# Coordination Sequence:
#
# PCOD8157141 Si02
#       5
#     4   4   4   4   4
#     4  10  23  40  68  91 133 163 223 254 332 378
#     4  10  22  38  70  84 134 170 212 250 340 384
#     4  10  22  43  64  94 127 177 206 271 318 385
#     4  10  23  40  68  91 133 163 223 254 332 378
#     4  10  22  43  64  94 127 177 206 271 318 385
#
# _framework density 20.528269000000002
#
# number of rings (size 3 to 8) (size 9 to 14) (size 15 to 20)
#    0.000    2.400    0.000    4.800   16.800    0.000 
#    7.200    0.000    0.000    0.000    0.000    0.000 
#    0.000    0.000    0.000    0.000    0.000    0.000 
#
# Total GULP energy -247959.659356 kJ/mol
# GULP energy per Si atom -12397.982968 kJ/mol
# Density = 2.048155 g / cm^3
# Si number density = 20.528269 Si / 1000 Ang^3
#
#
#
# Elastic Constant Matrix: (Units=GPa)
#
#
# Indices 1 2 3 4 5 6 
#
# 1 96.7385 16.1715 16.1728 0.0000 0.0000 0.0000
# 2 16.1715 88.1118 59.3802 0.0000 0.0000 0.0000
# 3 16.1728 59.3802 88.1309 0.0000 0.0000 0.0000
# 4 0.0000 0.0000 0.0000 35.1648 0.0000 0.0000
# 5 0.0000 0.0000 0.0000 0.0000 20.1515 0.0000
# 6 0.0000 0.0000 0.0000 0.0000 0.0000 20.1499
#
#
#
# Elastic Compliance Matrix: (Units=1/GPa)
#
#
# Indices 1 2 3 4 5 6 
#
# 1 0.010731 -0.001177 -0.001176 0.000000 0.000000 0.000000
# 2 -0.001177 0.020918 -0.013878 0.000000 0.000000 0.000000
# 3 -0.001176 -0.013878 0.020913 0.000000 0.000000 0.000000
# 4 0.000000 0.000000 0.000000 0.028438 0.000000 0.000000
# 5 0.000000 0.000000 0.000000 0.000000 0.049624 0.000000
# 6 0.000000 0.000000 0.000000 0.000000 0.000000 0.049628
#
#
# Mechanical properties :
#
#
# Convention : Reuss Voigt Hill
#
# Bulk Modulus (GPa) = 49.75211 50.71449 50.23330
# Shear Modulus (GPa) = 22.78809 27.17701 24.98255
#
# Velocity S-wave (km/s) = 3.33541 3.64247 3.49231
# Velocity P-wave (km/s) = 6.25474 6.51525 6.38632
#
# Compressibility (1/GPa) = 0.02009965
#
# Stress axis : x y z
#
# Youngs Moduli (GPa) = 93.19226 47.80628 47.81673
#
# Poissons Ratio (x) = 0.05625 0.05625
# Poissons Ratio (y) = 0.10965 0.66360
# Poissons Ratio (z) = 0.10963 0.66345
#
# Static dielectric constant tensor:
#      x y z
#    x 3.716740 0.000000 0.000000 
#    y 0.000000 3.492290 0.000000 
#    z 0.000000 0.000000 3.492350 
# 
# 
# High freq. dielectric constant tensor:
#      x y z
#    x 1.814560 0.000000 0.000000 
#    y 0.000000 1.782070 0.000000 
#    z 0.000000 0.000000 1.782070 
# 
# From -- ./inp_files/2596.got.cif
#   From: 2010.03.12/outbox.cif.g09.slc.cpg/sg19_2_cif.got.tgz:2596.got - 2010.04.10 18:59:41.
