data_PCOD8157030
_publ_section_title
;
Structure prediction by ZEFSAII (Michael W. Deem and Ramdas Pophale) SiO2 
 PCOD8157030
Probable space group: P 21 21 21
;
_chemical_formula_sum "Si O2"
_cell_formula_units_Z 20
_cell_length_a 5.080545
_cell_length_b 9.082894
_cell_length_c 18.563501
_cell_angle_alpha 90.000000
_cell_angle_beta 90.000000
_cell_angle_gamma 90.000000
_cell_volume 856.632277
_symmetry_space_group_name_H-M "P 21 21 21"
_symmetry_group_IT_number 19
_symmetry_cell_setting 'orthorhombic'
loop_
_space_group_symop_operation_xyz
x,y,z
1/2-x,-y,1/2+z
1/2+x,1/2-y,-z
-x,1/2+y,1/2-z
loop_
_atom_site_type_symbol
_atom_site_label
_atom_site_fract_x
_atom_site_fract_y
_atom_site_fract_z
Si Si1 0.816078 0.227553 0.545744
Si Si2 0.258567 0.901317 0.258588
Si Si3 0.824241 0.064386 0.002953
Si Si4 0.237626 0.232097 0.294652
Si Si5 0.326214 0.122033 0.924065
O O1 0.615774 0.271774 0.481789
O O2 0.776830 0.314073 0.621203
O O3 0.743553 0.056721 0.563128
O O4 0.538406 0.843703 0.231432
O O5 0.226435 0.856929 0.340987
O O6 0.036537 0.817606 0.213162
O O7 0.241096 0.079028 0.249554
O O8 0.611238 0.052505 0.937988
O O9 0.103385 0.024524 0.964934
O O10 0.814347 0.218520 0.040978
#
# Coordination Sequence:
#
# PCOD8157030 Si02
#       5
#     4   4   4   4   4
#     4  12  25  44  70  96 138 175 235 282 339 401
#     4  12  26  47  69 102 144 182 234 280 351 421
#     4  10  21  39  68  98 124 173 227 268 338 391
#     4  12  28  45  74 103 141 189 230 286 355 411
#     4  10  22  41  67  95 135 171 216 282 331 402
#
# _framework density 23.347244
#
# number of rings (size 3 to 8) (size 9 to 14) (size 15 to 20)
#    0.000    0.800    0.000    7.200    5.600    0.000 
#    0.000    0.000    0.000    0.000    0.000    0.000 
#    0.000    0.000    0.000    0.000    0.000    0.000 
#
# Total GULP energy -248040.993184 kJ/mol
# GULP energy per Si atom -12402.049659 kJ/mol
# Density = 2.329410 g / cm^3
# Si number density = 23.347244 Si / 1000 Ang^3
#
#
#
# Elastic Constant Matrix: (Units=GPa)
#
#
# Indices 1 2 3 4 5 6 
#
# 1 113.7640 30.8237 8.7356 0.0000 0.0000 0.0000
# 2 30.8237 81.4440 0.6837 0.0000 0.0000 0.0000
# 3 8.7356 0.6837 89.2955 0.0000 0.0000 0.0000
# 4 0.0000 0.0000 0.0000 32.1426 0.0000 0.0000
# 5 0.0000 0.0000 0.0000 0.0000 36.9551 0.0000
# 6 0.0000 0.0000 0.0000 0.0000 0.0000 32.0661
#
#
#
# Elastic Compliance Matrix: (Units=1/GPa)
#
#
# Indices 1 2 3 4 5 6 
#
# 1 0.009872 -0.003728 -0.000937 0.000000 0.000000 0.000000
# 2 -0.003728 0.013687 0.000260 0.000000 0.000000 0.000000
# 3 -0.000937 0.000260 0.011288 0.000000 0.000000 0.000000
# 4 0.000000 0.000000 0.000000 0.031111 0.000000 0.000000
# 5 0.000000 0.000000 0.000000 0.000000 0.027060 0.000000
# 6 0.000000 0.000000 0.000000 0.000000 0.000000 0.031186
#
#
# Mechanical properties :
#
#
# Convention : Reuss Voigt Hill
#
# Bulk Modulus (GPa) = 38.40752 40.55438 39.48095
# Shear Modulus (GPa) = 35.28701 36.51680 35.90191
#
# Velocity S-wave (km/s) = 3.89189 3.95913 3.92565
# Velocity P-wave (km/s) = 6.05657 6.18930 6.12329
#
# Compressibility (1/GPa) = 0.02603657
#
# Stress axis : x y z
#
# Youngs Moduli (GPa) = 101.29352 73.06050 88.58598
#
# Poissons Ratio (x) = 0.27240 0.08303
# Poissons Ratio (y) = 0.37767 -0.02303
# Poissons Ratio (z) = 0.09494 -0.01899
#
# Static dielectric constant tensor:
#      x y z
#    x 4.641140 0.000000 0.000000 
#    y 0.000000 4.544030 0.000000 
#    z 0.000000 0.000000 4.029460 
# 
# 
# High freq. dielectric constant tensor:
#      x y z
#    x 1.940130 0.000000 0.000000 
#    y 0.000000 1.956850 0.000000 
#    z 0.000000 0.000000 1.906980 
# 
# From -- ./inp_files/346.got.cif
#   From: 2010.03.12/outbox.cif.g09.slc.cpg/sg19_1_cif.got.tgz:346.got - 2010.04.10 18:59:41.
