data_PCOD8157248
_publ_section_title
;
Structure prediction by ZEFSAII (Michael W. Deem and Ramdas Pophale) SiO2 
 PCOD8157248
Probable space group: P 21 21 21
;
_chemical_formula_sum "Si O2"
_cell_formula_units_Z 28
_cell_length_a 11.573491
_cell_length_b 9.047297
_cell_length_c 13.231781
_cell_angle_alpha 90.000000
_cell_angle_beta 90.000000
_cell_angle_gamma 90.000000
_cell_volume 1385.484048
_symmetry_space_group_name_H-M "P 21 21 21"
_symmetry_group_IT_number 19
_symmetry_cell_setting 'orthorhombic'
loop_
_space_group_symop_operation_xyz
x,y,z
1/2-x,-y,1/2+z
1/2+x,1/2-y,-z
-x,1/2+y,1/2-z
loop_
_atom_site_type_symbol
_atom_site_label
_atom_site_fract_x
_atom_site_fract_y
_atom_site_fract_z
Si Si1 0.514315 0.450586 0.358175
Si Si2 0.386172 0.404061 0.563242
Si Si3 0.946114 0.212273 0.845986
Si Si4 0.226539 0.159019 0.532900
Si Si5 0.076797 0.283297 0.366851
Si Si6 0.173780 0.290431 0.150738
Si Si7 0.945519 0.537689 0.467801
O O1 0.440099 0.387921 0.451368
O O2 0.497550 0.625431 0.343403
O O3 0.469981 0.368074 0.259122
O O4 0.649708 0.415213 0.378762
O O5 0.261932 0.324310 0.567245
O O6 0.461259 0.315205 0.647540
O O7 0.373767 0.574588 0.585972
O O8 0.809854 0.227953 0.866610
O O9 0.006453 0.120218 0.934467
O O10 0.155845 0.173060 0.430643
O O11 0.338374 0.065069 0.501971
O O12 0.144639 0.322590 0.266206
O O13 0.047901 0.438649 0.421136
O O14 0.101251 0.149272 0.116445
#
# Coordination Sequence:
#
# PCOD8157248 Si02
#       7
#     4   4   4   4   4   4   4
#     4  11  25  44  64 100 129 176 221 271 328 393
#     4  10  22  42  66  92 132 169 219 269 323 400
#     4  12  27  41  68  97 134 169 223 275 328 398
#     4  10  22  44  66  94 131 176 213 265 337 387
#     4  10  23  40  69  92 129 176 216 268 330 402
#     4  12  23  43  64  98 132 170 220 274 336 386
#     4  11  24  44  67  97 135 172 220 280 330 394
#
# _framework density 20.209543
#
# number of rings (size 3 to 8) (size 9 to 14) (size 15 to 20)
#    0.000    1.143    2.857    2.571   10.000    0.000 
#    0.000    2.857    0.000    0.000    0.000    0.000 
#    0.000    0.000    0.000    0.000    0.000    0.000 
#
# Total GULP energy -347224.465736 kJ/mol
# GULP energy per Si atom -12400.873776 kJ/mol
# Density = 2.016355 g / cm^3
# Si number density = 20.209543 Si / 1000 Ang^3
#
#
#
# Elastic Constant Matrix: (Units=GPa)
#
#
# Indices 1 2 3 4 5 6 
#
# 1 63.8317 24.9914 22.7242 0.0000 0.0000 0.0000
# 2 24.9914 126.0111 31.1470 0.0000 0.0000 0.0000
# 3 22.7242 31.1470 82.3391 0.0000 0.0000 0.0000
# 4 0.0000 0.0000 0.0000 37.5909 0.0000 0.0000
# 5 0.0000 0.0000 0.0000 0.0000 25.5137 0.0000
# 6 0.0000 0.0000 0.0000 0.0000 0.0000 32.2608
#
#
#
# Elastic Compliance Matrix: (Units=1/GPa)
#
#
# Indices 1 2 3 4 5 6 
#
# 1 0.018114 -0.002600 -0.004016 0.000000 0.000000 0.000000
# 2 -0.002600 0.009128 -0.002735 0.000000 0.000000 0.000000
# 3 -0.004016 -0.002735 0.014288 0.000000 0.000000 0.000000
# 4 0.000000 0.000000 0.000000 0.026602 0.000000 0.000000
# 5 0.000000 0.000000 0.000000 0.000000 0.039195 0.000000
# 6 0.000000 0.000000 0.000000 0.000000 0.000000 0.030997
#
#
# Mechanical properties :
#
#
# Convention : Reuss Voigt Hill
#
# Bulk Modulus (GPa) = 43.80654 47.76743 45.78699
# Shear Modulus (GPa) = 30.37048 31.96106 31.16577
#
# Velocity S-wave (km/s) = 3.88077 3.98110 3.93126
# Velocity P-wave (km/s) = 6.46558 6.69475 6.58116
#
# Compressibility (1/GPa) = 0.02282764
#
# Stress axis : x y z
#
# Youngs Moduli (GPa) = 55.20701 109.55891 69.98982
#
# Poissons Ratio (x) = 0.28484 0.28105
# Poissons Ratio (y) = 0.14353 0.19144
# Poissons Ratio (z) = 0.22169 0.29967
#
# Static dielectric constant tensor:
#      x y z
#    x 3.910350 0.000000 0.000000 
#    y 0.000000 3.854150 0.000000 
#    z 0.000000 0.000000 3.474960 
# 
# 
# High freq. dielectric constant tensor:
#      x y z
#    x 1.799730 0.000000 0.000000 
#    y 0.000000 1.808330 0.000000 
#    z 0.000000 0.000000 1.779170 
# 
# From -- ./inp_files/3417.got.cif
#   From: 2010.03.12/outbox.cif.g09.slc.cpg/sg19_2_cif.got.tgz:3417.got - 2010.04.10 18:59:41.
