data_PCOD8157319
_publ_section_title
;
Structure prediction by ZEFSAII (Michael W. Deem and Ramdas Pophale) SiO2 
 PCOD8157319
Probable space group: P 21 21 21
;
_chemical_formula_sum "Si O2"
_cell_formula_units_Z 28
_cell_length_a 11.278233
_cell_length_b 5.481974
_cell_length_c 18.924846
_cell_angle_alpha 90.000000
_cell_angle_beta 90.000000
_cell_angle_gamma 90.000000
_cell_volume 1170.066077
_symmetry_space_group_name_H-M "P 21 21 21"
_symmetry_group_IT_number 19
_symmetry_cell_setting 'orthorhombic'
loop_
_space_group_symop_operation_xyz
x,y,z
1/2-x,-y,1/2+z
1/2+x,1/2-y,-z
-x,1/2+y,1/2-z
loop_
_atom_site_type_symbol
_atom_site_label
_atom_site_fract_x
_atom_site_fract_y
_atom_site_fract_z
Si Si1 0.307188 0.277612 0.868079
Si Si2 0.220031 0.953403 0.558648
Si Si3 0.087905 0.178749 0.677964
Si Si4 0.649134 0.597321 0.189565
Si Si5 0.235364 0.539770 0.993576
Si Si6 0.430570 0.672051 0.596888
Si Si7 0.215141 0.484539 0.223900
O O1 0.219882 0.043500 0.872566
O O2 0.430829 0.218700 0.905708
O O3 0.327162 0.332072 0.785430
O O4 0.240393 0.505593 0.907911
O O5 0.131580 0.968373 0.624990
O O6 0.206955 0.199919 0.512199
O O7 0.186797 0.701966 0.517503
O O8 0.355949 0.924435 0.587222
O O9 0.080556 0.091799 0.759000
O O10 0.180529 0.404269 0.674624
O O11 0.954875 0.246304 0.653127
O O12 0.741735 0.740282 0.238296
O O13 0.106567 0.511230 0.031786
O O14 0.396108 0.558541 0.672872
#
# Coordination Sequence:
#
# PCOD8157319 Si02
#       7
#     4   4   4   4   4   4   4
#     4  11  28  43  69 116 147 197 259 315 382 462
#     4  10  22  45  74  96 139 193 253 289 383 437
#     4  11  20  41  67 102 137 192 247 304 370 453
#     4  11  23  39  66 103 149 185 246 313 375 441
#     4  10  24  49  69 104 143 197 248 306 373 451
#     4  10  24  46  74 103 150 197 247 312 382 458
#     4  11  23  41  67 104 145 187 252 307 385 438
#
# _framework density 23.930271000000001
#
# number of rings (size 3 to 8) (size 9 to 14) (size 15 to 20)
#    0.857    0.571    4.286    0.000    4.000    2.286 
#    2.571    0.000    0.000    0.000    0.000    0.000 
#    0.000    0.000    0.000    0.000    0.000    0.000 
#
# Total GULP energy -347007.022883 kJ/mol
# GULP energy per Si atom -12393.107960 kJ/mol
# Density = 2.387580 g / cm^3
# Si number density = 23.930271 Si / 1000 Ang^3
#
#
#
# Elastic Constant Matrix: (Units=GPa)
#
#
# Indices 1 2 3 4 5 6 
#
# 1 111.5370 7.6651 20.4143 0.0000 0.0000 0.0000
# 2 7.6651 88.9838 2.9940 0.0000 0.0000 0.0000
# 3 20.4143 2.9940 72.5527 0.0000 0.0000 0.0000
# 4 0.0000 0.0000 0.0000 39.6893 0.0000 0.0000
# 5 0.0000 0.0000 0.0000 0.0000 20.6442 0.0000
# 6 0.0000 0.0000 0.0000 0.0000 0.0000 28.0315
#
#
#
# Elastic Compliance Matrix: (Units=1/GPa)
#
#
# Indices 1 2 3 4 5 6 
#
# 1 0.009499 -0.000729 -0.002643 0.000000 0.000000 0.000000
# 2 -0.000729 0.011310 -0.000261 0.000000 0.000000 0.000000
# 3 -0.002643 -0.000261 0.014537 0.000000 0.000000 0.000000
# 4 0.000000 0.000000 0.000000 0.025196 0.000000 0.000000
# 5 0.000000 0.000000 0.000000 0.000000 0.048440 0.000000
# 6 0.000000 0.000000 0.000000 0.000000 0.000000 0.035674
#
#
# Mechanical properties :
#
#
# Convention : Reuss Voigt Hill
#
# Bulk Modulus (GPa) = 35.61342 37.24670 36.43006
# Shear Modulus (GPa) = 31.00137 33.80633 32.40385
#
# Velocity S-wave (km/s) = 3.60319 3.76267 3.68379
# Velocity P-wave (km/s) = 5.67672 5.87157 5.77497
#
# Compressibility (1/GPa) = 0.02807930
#
# Stress axis : x y z
#
# Youngs Moduli (GPa) = 105.26908 88.42021 68.78768
#
# Poissons Ratio (x) = 0.06449 0.18179
# Poissons Ratio (y) = 0.07678 0.01799
# Poissons Ratio (z) = 0.27820 0.02312
#
# Static dielectric constant tensor:
#      x y z
#    x 3.846450 0.000000 0.000000 
#    y 0.000000 4.267950 0.000000 
#    z 0.000000 0.000000 4.414840 
# 
# 
# High freq. dielectric constant tensor:
#      x y z
#    x 1.919620 0.000000 0.000000 
#    y 0.000000 1.947110 0.000000 
#    z 0.000000 0.000000 1.956470 
# 
# From -- ./inp_files/1931.got.cif
#   From: 2010.03.12/outbox.cif.g09.slc.cpg/sg19_1_cif.got.tgz:1931.got - 2010.04.10 18:59:41.
