data_PCOD8157871
_publ_section_title
;
Structure prediction by ZEFSAII (Michael W. Deem and Ramdas Pophale) SiO2 
 PCOD8157871
Probable space group: P 21 21 21
;
_chemical_formula_sum "Si O2"
_cell_formula_units_Z 16
_cell_length_a 8.358912
_cell_length_b 5.017345
_cell_length_c 17.370293
_cell_angle_alpha 90.000000
_cell_angle_beta 90.000000
_cell_angle_gamma 90.000000
_cell_volume 728.502191
_symmetry_space_group_name_H-M "P 21 21 21"
_symmetry_group_IT_number 19
_symmetry_cell_setting 'orthorhombic'
loop_
_space_group_symop_operation_xyz
x,y,z
1/2-x,-y,1/2+z
1/2+x,1/2-y,-z
-x,1/2+y,1/2-z
loop_
_atom_site_type_symbol
_atom_site_label
_atom_site_fract_x
_atom_site_fract_y
_atom_site_fract_z
Si Si1 0.601105 0.530441 0.263944
Si Si2 0.811680 0.468759 0.937033
Si Si3 0.439169 0.005953 0.792442
Si Si4 0.601859 0.957646 0.953587
O O1 0.460987 0.332727 0.237518
O O2 0.663532 0.455224 0.348215
O O3 0.747054 0.500498 0.204337
O O4 0.689974 0.681804 0.973582
O O5 0.738686 0.177655 0.946511
O O6 0.983368 0.472016 0.977446
O O7 0.498087 0.301686 0.772047
O O8 0.502014 0.925359 0.875628
#
# Coordination Sequence:
#
# PCOD8157871 Si02
#       4
#     4   4   4   4
#     4  12  26  43  71 101 136 173 231 282 330 392
#     4  12  27  47  67 103 138 179 225 277 336 409
#     4  12  23  46  71  95 131 183 223 277 332 398
#     4  12  26  46  69  99 139 179 225 276 342 403
#
# _framework density 21.962872999999998
#
# number of rings (size 3 to 8) (size 9 to 14) (size 15 to 20)
#    0.000    0.000    5.000    4.500    7.000    0.000 
#    0.000    0.000    0.000    0.000    0.000    0.000 
#    0.000    0.000    0.000    0.000    0.000    0.000 
#
# Total GULP energy -198589.241873 kJ/mol
# GULP energy per Si atom -12411.827617 kJ/mol
# Density = 2.191288 g / cm^3
# Si number density = 21.962873 Si / 1000 Ang^3
#
#
#
# Elastic Constant Matrix: (Units=GPa)
#
#
# Indices 1 2 3 4 5 6 
#
# 1 106.7593 18.1084 20.7019 0.0000 0.0000 0.0000
# 2 18.1084 88.0426 9.7943 0.0000 0.0000 0.0000
# 3 20.7019 9.7943 53.5420 0.0000 0.0000 0.0000
# 4 0.0000 0.0000 0.0000 27.9925 0.0000 0.0000
# 5 0.0000 0.0000 0.0000 0.0000 39.9174 0.0000
# 6 0.0000 0.0000 0.0000 0.0000 0.0000 50.9906
#
#
#
# Elastic Compliance Matrix: (Units=1/GPa)
#
#
# Indices 1 2 3 4 5 6 
#
# 1 0.010376 -0.001723 -0.003697 0.000000 0.000000 0.000000
# 2 -0.001723 0.011880 -0.001507 0.000000 0.000000 0.000000
# 3 -0.003697 -0.001507 0.020382 0.000000 0.000000 0.000000
# 4 0.000000 0.000000 0.000000 0.035724 0.000000 0.000000
# 5 0.000000 0.000000 0.000000 0.000000 0.025052 0.000000
# 6 0.000000 0.000000 0.000000 0.000000 0.000000 0.019611
#
#
# Mechanical properties :
#
#
# Convention : Reuss Voigt Hill
#
# Bulk Modulus (GPa) = 34.74056 38.39480 36.56768
# Shear Modulus (GPa) = 34.13593 37.09605 35.61599
#
# Velocity S-wave (km/s) = 3.94668 4.11424 4.03133
# Velocity P-wave (km/s) = 6.05150 6.33159 6.19312
#
# Compressibility (1/GPa) = 0.02878479
#
# Stress axis : x y z
#
# Youngs Moduli (GPa) = 96.37694 84.17401 49.06305
#
# Poissons Ratio (x) = 0.14502 0.18137
# Poissons Ratio (y) = 0.16604 0.07394
# Poissons Ratio (z) = 0.35627 0.12686
#
# Static dielectric constant tensor:
#      x y z
#    x 4.108690 0.000000 0.000000 
#    y 0.000000 3.955770 0.000000 
#    z 0.000000 0.000000 3.860650 
# 
# 
# High freq. dielectric constant tensor:
#      x y z
#    x 1.882150 0.000000 0.000000 
#    y 0.000000 1.878060 0.000000 
#    z 0.000000 0.000000 1.857410 
# 
# From -- ./inp_files/98.got.cif
#   From: 2010.03.12/outbox.cif.g09.slc.cpg/sg19_1_cif.got.tgz:98.got - 2010.04.10 18:59:41.
