data_PCOD8157649
_publ_section_title
;
Structure prediction by ZEFSAII (Michael W. Deem and Ramdas Pophale) SiO2 
 PCOD8157649
Probable space group: P 21 21 21
;
_chemical_formula_sum "Si O2"
_cell_formula_units_Z 20
_cell_length_a 4.851729
_cell_length_b 16.157941
_cell_length_c 11.482475
_cell_angle_alpha 90.000000
_cell_angle_beta 90.000000
_cell_angle_gamma 90.000000
_cell_volume 900.156582
_symmetry_space_group_name_H-M "P 21 21 21"
_symmetry_group_IT_number 19
_symmetry_cell_setting 'orthorhombic'
loop_
_space_group_symop_operation_xyz
x,y,z
1/2-x,-y,1/2+z
1/2+x,1/2-y,-z
-x,1/2+y,1/2-z
loop_
_atom_site_type_symbol
_atom_site_label
_atom_site_fract_x
_atom_site_fract_y
_atom_site_fract_z
Si Si1 0.580430 0.696438 0.196301
Si Si2 0.343441 0.733192 0.571848
Si Si3 0.573532 0.875760 0.138518
Si Si4 0.565993 0.585598 0.713968
Si Si5 0.428562 0.406817 0.621568
O O1 0.689857 0.715824 0.326289
O O2 0.487303 0.779516 0.129195
O O3 0.327339 0.632493 0.191449
O O4 0.823468 0.656537 0.125082
O O5 0.593606 0.788113 0.517815
O O6 0.501453 0.648640 0.608152
O O7 0.379199 0.916225 0.238283
O O8 0.886514 0.881706 0.179690
O O9 0.595038 0.922651 0.016210
O O10 0.492254 0.493265 0.680323
#
# Coordination Sequence:
#
# PCOD8157649 Si02
#       5
#     4   4   4   4   4
#     4  11  23  41  65  96 124 166 222 257 310 393
#     4  11  23  42  67  92 130 175 213 259 316 382
#     4  11  23  44  65  90 131 168 208 269 320 372
#     4  11  25  42  62  97 131 163 214 268 316 376
#     4  12  24  41  67  95 126 168 213 267 322 371
#
# _framework density 22.218354999999999
#
# number of rings (size 3 to 8) (size 9 to 14) (size 15 to 20)
#    0.000    0.800    0.000    9.600    0.000    4.800 
#    0.000    2.000    0.000    0.000    0.000    0.000 
#    0.000    0.000    0.000    0.000    0.000    0.000 
#
# Total GULP energy -247902.008099 kJ/mol
# GULP energy per Si atom -12395.100405 kJ/mol
# Density = 2.216778 g / cm^3
# Si number density = 22.218355 Si / 1000 Ang^3
#
#
#
# Elastic Constant Matrix: (Units=GPa)
#
#
# Indices 1 2 3 4 5 6 
#
# 1 92.9116 -2.3216 14.7383 0.0000 0.0000 0.0000
# 2 -2.3216 99.8500 11.8030 0.0000 0.0000 0.0000
# 3 14.7383 11.8030 78.2689 0.0000 0.0000 0.0000
# 4 0.0000 0.0000 0.0000 20.5855 0.0000 0.0000
# 5 0.0000 0.0000 0.0000 0.0000 39.1223 0.0000
# 6 0.0000 0.0000 0.0000 0.0000 0.0000 36.6520
#
#
#
# Elastic Compliance Matrix: (Units=1/GPa)
#
#
# Indices 1 2 3 4 5 6 
#
# 1 0.011120 0.000515 -0.002172 0.000000 0.000000 0.000000
# 2 0.000515 0.010221 -0.001638 0.000000 0.000000 0.000000
# 3 -0.002172 -0.001638 0.013432 0.000000 0.000000 0.000000
# 4 0.000000 0.000000 0.000000 0.048578 0.000000 0.000000
# 5 0.000000 0.000000 0.000000 0.000000 0.025561 0.000000
# 6 0.000000 0.000000 0.000000 0.000000 0.000000 0.027284
#
#
# Mechanical properties :
#
#
# Convention : Reuss Voigt Hill
#
# Bulk Modulus (GPa) = 35.48120 35.49666 35.48893
# Shear Modulus (GPa) = 32.85585 35.72601 34.29093
#
# Velocity S-wave (km/s) = 3.84965 4.01428 3.93282
# Velocity P-wave (km/s) = 5.98028 6.12347 6.05230
#
# Compressibility (1/GPa) = 0.02818394
#
# Stress axis : x y z
#
# Youngs Moduli (GPa) = 89.92579 97.84096 74.44651
#
# Poissons Ratio (x) = -0.05041 0.16167
# Poissons Ratio (y) = -0.04634 0.12197
# Poissons Ratio (z) = 0.19529 0.16029
#
# Static dielectric constant tensor:
#      x y z
#    x 4.232040 0.000000 0.000000 
#    y 0.000000 3.900810 0.000000 
#    z 0.000000 0.000000 3.988170 
# 
# 
# High freq. dielectric constant tensor:
#      x y z
#    x 1.897100 0.000000 0.000000 
#    y 0.000000 1.864560 0.000000 
#    z 0.000000 0.000000 1.878550 
# 
# From -- ./inp_files/831.got.cif
#   From: 2010.03.12/outbox.cif.g09.slc.cpg/sg19_1_cif.got.tgz:831.got - 2010.04.10 18:59:41.
