data_PCOD8157185
_publ_section_title
;
Structure prediction by ZEFSAII (Michael W. Deem and Ramdas Pophale) SiO2 
 PCOD8157185
Probable space group: P 21 21 21
;
_chemical_formula_sum "Si O2"
_cell_formula_units_Z 20
_cell_length_a 7.299671
_cell_length_b 14.499958
_cell_length_c 7.062293
_cell_angle_alpha 90.000000
_cell_angle_beta 90.000000
_cell_angle_gamma 90.000000
_cell_volume 747.507858
_symmetry_space_group_name_H-M "P 21 21 21"
_symmetry_group_IT_number 19
_symmetry_cell_setting 'orthorhombic'
loop_
_space_group_symop_operation_xyz
x,y,z
1/2-x,-y,1/2+z
1/2+x,1/2-y,-z
-x,1/2+y,1/2-z
loop_
_atom_site_type_symbol
_atom_site_label
_atom_site_fract_x
_atom_site_fract_y
_atom_site_fract_z
Si Si1 0.988602 0.358940 0.392995
Si Si2 0.938176 0.523488 0.125348
Si Si3 0.589520 0.610071 0.288587
Si Si4 0.328344 0.319213 0.735625
Si Si5 0.339389 0.742154 0.585306
O O1 0.917699 0.453935 0.303058
O O2 0.061431 0.367539 0.614634
O O3 0.835349 0.275729 0.387656
O O4 0.162362 0.328009 0.264249
O O5 0.753821 0.585480 0.137814
O O6 0.122410 0.585659 0.130358
O O7 0.958797 0.474843 0.922136
O O8 0.654580 0.695955 0.418946
O O9 0.491315 0.312475 0.896029
O O10 0.152749 0.318790 0.886057
#
# Coordination Sequence:
#
# PCOD8157185 Si02
#       5
#     4   4   4   4   4
#     4  10  22  40  68 102 145 182 236 293 356 418
#     4  11  21  39  71 102 142 189 236 297 346 439
#     4  11  20  40  67 105 143 186 247 285 349 433
#     4   9  21  42  71 101 144 185 235 291 367 414
#     4   9  20  43  67 102 144 184 230 302 354 426
#
# _framework density 26.755572000000001
#
# number of rings (size 3 to 8) (size 9 to 14) (size 15 to 20)
#    1.200    0.800    4.000    0.000    0.000    0.000 
#   10.800    4.000    0.000    0.000    0.000    0.000 
#    0.000    0.000    0.000    0.000    0.000    0.000 
#
# Total GULP energy -247887.696309 kJ/mol
# GULP energy per Si atom -12394.384815 kJ/mol
# Density = 2.669467 g / cm^3
# Si number density = 26.755572 Si / 1000 Ang^3
#
#
#
# Elastic Constant Matrix: (Units=GPa)
#
#
# Indices 1 2 3 4 5 6 
#
# 1 68.2201 13.5541 21.7412 0.0000 0.0000 0.0000
# 2 13.5541 142.3499 56.6407 0.0000 0.0000 0.0000
# 3 21.7412 56.6407 203.9339 0.0000 0.0000 0.0000
# 4 0.0000 0.0000 0.0000 58.3653 0.0000 0.0000
# 5 0.0000 0.0000 0.0000 0.0000 39.4717 0.0000
# 6 0.0000 0.0000 0.0000 0.0000 0.0000 34.5331
#
#
#
# Elastic Compliance Matrix: (Units=1/GPa)
#
#
# Indices 1 2 3 4 5 6 
#
# 1 0.015277 -0.000907 -0.001377 0.000000 0.000000 0.000000
# 2 -0.000907 0.007952 -0.002112 0.000000 0.000000 0.000000
# 3 -0.001377 -0.002112 0.005637 0.000000 0.000000 0.000000
# 4 0.000000 0.000000 0.000000 0.017133 0.000000 0.000000
# 5 0.000000 0.000000 0.000000 0.000000 0.025335 0.000000
# 6 0.000000 0.000000 0.000000 0.000000 0.000000 0.028958
#
#
# Mechanical properties :
#
#
# Convention : Reuss Voigt Hill
#
# Bulk Modulus (GPa) = 49.81346 66.48622 58.14984
# Shear Modulus (GPa) = 43.18752 47.97854 45.58303
#
# Velocity S-wave (km/s) = 4.02201 4.23923 4.13205
# Velocity P-wave (km/s) = 6.34249 6.99034 6.67428
#
# Compressibility (1/GPa) = 0.02007490
#
# Stress axis : x y z
#
# Youngs Moduli (GPa) = 65.45621 125.76132 177.40352
#
# Poissons Ratio (x) = 0.11404 0.24426
# Poissons Ratio (y) = 0.05936 0.37464
# Poissons Ratio (z) = 0.09012 0.26558
#
# Static dielectric constant tensor:
#      x y z
#    x 5.223400 0.000000 0.000000 
#    y 0.000000 4.772710 0.000000 
#    z 0.000000 0.000000 4.949570 
# 
# 
# High freq. dielectric constant tensor:
#      x y z
#    x 2.101740 0.000000 0.000000 
#    y 0.000000 2.070280 0.000000 
#    z 0.000000 0.000000 2.101680 
# 
# From -- ./inp_files/361.got.cif
#   From: 2010.03.12/outbox.cif.g09.slc.cpg/sg19_1_cif.got.tgz:361.got - 2010.04.10 18:59:41.
