data_PCOD8157281
_publ_section_title
;
Structure prediction by ZEFSAII (Michael W. Deem and Ramdas Pophale) SiO2 
 PCOD8157281
Probable space group: P 21 21 21
;
_chemical_formula_sum "Si O2"
_cell_formula_units_Z 28
_cell_length_a 12.385508
_cell_length_b 9.646320
_cell_length_c 10.713784
_cell_angle_alpha 90.000000
_cell_angle_beta 90.000000
_cell_angle_gamma 90.000000
_cell_volume 1280.024774
_symmetry_space_group_name_H-M "P 21 21 21"
_symmetry_group_IT_number 19
_symmetry_cell_setting 'orthorhombic'
loop_
_space_group_symop_operation_xyz
x,y,z
1/2-x,-y,1/2+z
1/2+x,1/2-y,-z
-x,1/2+y,1/2-z
loop_
_atom_site_type_symbol
_atom_site_label
_atom_site_fract_x
_atom_site_fract_y
_atom_site_fract_z
Si Si1 0.007816 0.740350 0.532415
Si Si2 0.373572 0.844023 0.227602
Si Si3 0.433321 0.547580 0.934319
Si Si4 0.238088 0.613608 0.097230
Si Si5 0.309510 0.151413 0.205439
Si Si6 0.065447 0.736288 0.931275
Si Si7 0.372758 0.647526 0.676870
O O1 0.046736 0.616361 0.441789
O O2 0.112530 0.813786 0.589873
O O3 0.925617 0.688615 0.638741
O O4 0.948459 0.852442 0.445068
O O5 0.289778 0.722657 0.193436
O O6 0.468515 0.857181 0.124328
O O7 0.307659 0.987087 0.229572
O O8 0.446600 0.611687 0.796402
O O9 0.313585 0.585628 0.979263
O O10 0.519630 0.615983 0.026480
O O11 0.219916 0.470131 0.170028
O O12 0.121462 0.662505 0.048183
O O13 0.346505 0.233871 0.326911
O O14 0.187205 0.202849 0.181589
#
# Coordination Sequence:
#
# PCOD8157281 Si02
#       7
#     4   4   4   4   4   4   4
#     4  11  25  45  67 101 143 179 234 287 346 416
#     4  10  24  41  73 100 134 183 229 285 351 416
#     4  11  24  45  65 101 136 178 227 291 340 410
#     4  11  24  44  71  99 133 182 227 282 350 417
#     4  11  22  44  71 101 132 182 228 282 349 413
#     4  10  22  43  68  95 139 174 226 281 350 411
#     4  12  27  42  71  99 139 184 235 282 342 415
#
# _framework density 21.874575
#
# number of rings (size 3 to 8) (size 9 to 14) (size 15 to 20)
#    0.000    1.143    4.286    0.857    6.000    0.000 
#    0.000    0.000    0.000    0.000    0.000    0.000 
#    0.000    0.000    0.000    0.000    0.000    0.000 
#
# Total GULP energy -347309.219373 kJ/mol
# GULP energy per Si atom -12403.900692 kJ/mol
# Density = 2.182479 g / cm^3
# Si number density = 21.874575 Si / 1000 Ang^3
#
#
#
# Elastic Constant Matrix: (Units=GPa)
#
#
# Indices 1 2 3 4 5 6 
#
# 1 57.0762 16.7485 29.1968 0.0000 0.0000 0.0000
# 2 16.7485 99.2399 23.9721 0.0000 0.0000 0.0000
# 3 29.1968 23.9721 106.4110 0.0000 0.0000 0.0000
# 4 0.0000 0.0000 0.0000 29.7591 0.0000 0.0000
# 5 0.0000 0.0000 0.0000 0.0000 33.8005 0.0000
# 6 0.0000 0.0000 0.0000 0.0000 0.0000 27.2686
#
#
#
# Elastic Compliance Matrix: (Units=1/GPa)
#
#
# Indices 1 2 3 4 5 6 
#
# 1 0.020849 -0.002260 -0.005212 0.000000 0.000000 0.000000
# 2 -0.002260 0.010901 -0.001836 0.000000 0.000000 0.000000
# 3 -0.005212 -0.001836 0.011241 0.000000 0.000000 0.000000
# 4 0.000000 0.000000 0.000000 0.033603 0.000000 0.000000
# 5 0.000000 0.000000 0.000000 0.000000 0.029585 0.000000
# 6 0.000000 0.000000 0.000000 0.000000 0.000000 0.036672
#
#
# Mechanical properties :
#
#
# Convention : Reuss Voigt Hill
#
# Bulk Modulus (GPa) = 41.02132 44.72910 42.87521
# Shear Modulus (GPa) = 29.48238 31.01964 30.25101
#
# Velocity S-wave (km/s) = 3.67521 3.76981 3.72281
# Velocity P-wave (km/s) = 6.06657 6.28021 6.17431
#
# Compressibility (1/GPa) = 0.02437757
#
# Stress axis : x y z
#
# Youngs Moduli (GPa) = 47.96283 91.73111 88.95986
#
# Poissons Ratio (x) = 0.20730 0.46362
# Poissons Ratio (y) = 0.10839 0.16331
# Poissons Ratio (z) = 0.24996 0.16840
#
# Static dielectric constant tensor:
#      x y z
#    x 3.760090 0.000000 0.000000 
#    y 0.000000 3.847880 0.000000 
#    z 0.000000 0.000000 3.829720 
# 
# 
# High freq. dielectric constant tensor:
#      x y z
#    x 1.854000 0.000000 0.000000 
#    y 0.000000 1.862410 0.000000 
#    z 0.000000 0.000000 1.860680 
# 
# From -- ./inp_files/3427.got.cif
#   From: 2010.03.12/outbox.cif.g09.slc.cpg/sg19_2_cif.got.tgz:3427.got - 2010.04.10 18:59:41.
