data_PCOD8157326
_publ_section_title
;
Structure prediction by ZEFSAII (Michael W. Deem and Ramdas Pophale) SiO2 
 PCOD8157326
Probable space group: P 21 21 21
;
_chemical_formula_sum "Si O2"
_cell_formula_units_Z 32
_cell_length_a 12.700195
_cell_length_b 8.530983
_cell_length_c 13.980241
_cell_angle_alpha 90.000000
_cell_angle_beta 90.000000
_cell_angle_gamma 90.000000
_cell_volume 1514.691275
_symmetry_space_group_name_H-M "P 21 21 21"
_symmetry_group_IT_number 19
_symmetry_cell_setting 'orthorhombic'
loop_
_space_group_symop_operation_xyz
x,y,z
1/2-x,-y,1/2+z
1/2+x,1/2-y,-z
-x,1/2+y,1/2-z
loop_
_atom_site_type_symbol
_atom_site_label
_atom_site_fract_x
_atom_site_fract_y
_atom_site_fract_z
Si Si1 0.906861 0.346940 0.516725
Si Si2 0.233029 0.578733 0.642269
Si Si3 0.436026 0.834313 0.911398
Si Si4 0.654621 0.665289 0.618852
Si Si5 0.735373 0.829097 0.150306
Si Si6 0.338723 0.648364 0.447487
Si Si7 0.645631 0.776299 0.825877
Si Si8 0.028525 0.657822 0.529639
O O1 0.840565 0.308267 0.611347
O O2 0.833873 0.325877 0.421693
O O3 0.943305 0.524130 0.514734
O O4 0.006055 0.224775 0.508811
O O5 0.238765 0.688667 0.735333
O O6 0.317408 0.623021 0.560742
O O7 0.261432 0.404649 0.679545
O O8 0.114263 0.596234 0.604842
O O9 0.354183 0.696517 0.885504
O O10 0.527849 0.852789 0.830859
O O11 0.375926 0.997409 0.924503
O O12 0.773939 0.701205 0.588794
O O13 0.647132 0.666046 0.733141
O O14 0.582831 0.800601 0.571252
O O15 0.692480 0.995142 0.112573
O O16 0.462429 0.689692 0.433825
#
# Coordination Sequence:
#
# PCOD8157326 Si02
#       8
#     4   4   4   4   4   4   4   4
#     4  10  24  38  65  94 132 174 224 267 343 404
#     4  11  24  43  68  96 136 177 228 279 347 398
#     4  10  24  38  67  98 133 173 226 273 346 394
#     4  11  22  39  64  96 134 165 226 285 326 403
#     4  12  23  44  66  94 140 174 224 293 332 407
#     4  11  23  42  67  95 133 179 227 278 342 403
#     4  10  23  36  66  99 125 177 218 277 334 402
#     4  11  25  44  67  98 135 185 221 282 342 407
#
# _framework density 21.126417
#
# number of rings (size 3 to 8) (size 9 to 14) (size 15 to 20)
#    0.750    0.500    2.500    3.750    5.250    1.000 
#    0.000    0.000    0.000    0.000    0.000    0.000 
#    0.000    0.000    0.000    0.000    0.000    0.000 
#
# Total GULP energy -396635.066171 kJ/mol
# GULP energy per Si atom -12394.845818 kJ/mol
# Density = 2.107833 g / cm^3
# Si number density = 21.126417 Si / 1000 Ang^3
#
#
#
# Elastic Constant Matrix: (Units=GPa)
#
#
# Indices 1 2 3 4 5 6 
#
# 1 103.1733 26.5833 25.3494 0.0000 0.0000 0.0000
# 2 26.5833 71.3337 18.9720 0.0000 0.0000 0.0000
# 3 25.3494 18.9720 88.3900 0.0000 0.0000 0.0000
# 4 0.0000 0.0000 0.0000 23.2335 0.0000 0.0000
# 5 0.0000 0.0000 0.0000 0.0000 20.6559 0.0000
# 6 0.0000 0.0000 0.0000 0.0000 0.0000 50.4225
#
#
#
# Elastic Compliance Matrix: (Units=1/GPa)
#
#
# Indices 1 2 3 4 5 6 
#
# 1 0.011204 -0.003522 -0.002457 0.000000 0.000000 0.000000
# 2 -0.003522 0.015974 -0.002419 0.000000 0.000000 0.000000
# 3 -0.002457 -0.002419 0.012537 0.000000 0.000000 0.000000
# 4 0.000000 0.000000 0.000000 0.043041 0.000000 0.000000
# 5 0.000000 0.000000 0.000000 0.000000 0.048412 0.000000
# 6 0.000000 0.000000 0.000000 0.000000 0.000000 0.019832
#
#
# Mechanical properties :
#
#
# Convention : Reuss Voigt Hill
#
# Bulk Modulus (GPa) = 43.62989 44.96739 44.29864
# Shear Modulus (GPa) = 28.50038 31.66187 30.08112
#
# Velocity S-wave (km/s) = 3.67691 3.87549 3.77750
# Velocity P-wave (km/s) = 6.22277 6.43094 6.32771
#
# Compressibility (1/GPa) = 0.02292007
#
# Stress axis : x y z
#
# Youngs Moduli (GPa) = 89.25767 62.60060 79.76162
#
# Poissons Ratio (x) = 0.22045 0.19599
# Poissons Ratio (y) = 0.31433 0.19292
# Poissons Ratio (z) = 0.21932 0.15142
#
# Static dielectric constant tensor:
#      x y z
#    x 3.937160 0.000000 0.000000 
#    y 0.000000 3.611080 0.000000 
#    z 0.000000 0.000000 3.709340 
# 
# 
# High freq. dielectric constant tensor:
#      x y z
#    x 1.833130 0.000000 0.000000 
#    y 0.000000 1.823150 0.000000 
#    z 0.000000 0.000000 1.811560 
# 
# From -- ./inp_files/6113.got.cif
#   From: 2010.03.12/outbox.cif.g09.slc.cpg/sg19_4_cif.got.tgz:6113.got - 2010.04.10 18:59:41.
