data_PCOD8157132
_publ_section_title
;
Structure prediction by ZEFSAII (Michael W. Deem and Ramdas Pophale) SiO2 
 PCOD8157132
Probable space group: P 21 21 21
;
_chemical_formula_sum "Si O2"
_cell_formula_units_Z 28
_cell_length_a 4.946670
_cell_length_b 11.726083
_cell_length_c 21.689187
_cell_angle_alpha 90.000000
_cell_angle_beta 90.000000
_cell_angle_gamma 90.000000
_cell_volume 1258.082658
_symmetry_space_group_name_H-M "P 21 21 21"
_symmetry_group_IT_number 19
_symmetry_cell_setting 'orthorhombic'
loop_
_space_group_symop_operation_xyz
x,y,z
1/2-x,-y,1/2+z
1/2+x,1/2-y,-z
-x,1/2+y,1/2-z
loop_
_atom_site_type_symbol
_atom_site_label
_atom_site_fract_x
_atom_site_fract_y
_atom_site_fract_z
Si Si1 0.598180 0.676071 0.201364
Si Si2 0.029809 0.066360 0.114782
Si Si3 0.972310 0.574399 0.702847
Si Si4 0.467395 0.695289 0.342842
Si Si5 0.143828 0.244194 0.580374
Si Si6 0.139159 0.382960 0.465910
Si Si7 0.027074 0.378283 0.282334
O O1 0.646475 0.545499 0.178508
O O2 0.495346 0.663370 0.271027
O O3 0.387957 0.731406 0.153034
O O4 0.871802 0.750608 0.200578
O O5 0.009861 0.956227 0.158266
O O6 0.947131 0.014558 0.047778
O O7 0.831759 0.166734 0.134959
O O8 0.326470 0.121311 0.115761
O O9 0.761661 0.634496 0.749657
O O10 0.011168 0.668084 0.648174
O O11 0.257262 0.559160 0.737654
O O12 0.100921 0.358278 0.538877
O O13 0.942195 0.143510 0.557808
O O14 0.448357 0.203531 0.571841
#
# Coordination Sequence:
#
# PCOD8157132 Si02
#       7
#     4   4   4   4   4   4   4
#     4  11  22  38  60  82 123 153 189 246 300 346
#     4  12  20  39  57  82 118 154 191 237 289 359
#     4  11  24  38  52  85 123 149 197 236 287 361
#     4  11  24  35  56  86 116 156 193 231 294 364
#     4  10  22  37  58  91 115 151 195 247 299 348
#     4  10  22  38  59  86 119 149 198 243 296 356
#     4  11  22  35  56  86 114 156 189 232 301 348
#
# _framework density 22.256088999999999
#
# number of rings (size 3 to 8) (size 9 to 14) (size 15 to 20)
#    0.000    1.143    4.286    2.571    4.000    2.286 
#    0.000    0.000    0.000    1.714    0.000    0.000 
#    0.000    0.000    0.000    0.000    0.000    0.000 
#
# Total GULP energy -347090.072360 kJ/mol
# GULP energy per Si atom -12396.074013 kJ/mol
# Density = 2.220543 g / cm^3
# Si number density = 22.256089 Si / 1000 Ang^3
#
#
#
# Elastic Constant Matrix: (Units=GPa)
#
#
# Indices 1 2 3 4 5 6 
#
# 1 52.0516 -17.7180 -2.8153 0.0000 0.0000 0.0000
# 2 -17.7180 104.4405 -14.9671 0.0000 0.0000 0.0000
# 3 -2.8153 -14.9671 23.7836 0.0000 0.0000 0.0000
# 4 0.0000 0.0000 0.0000 27.4361 0.0000 0.0000
# 5 0.0000 0.0000 0.0000 0.0000 18.7979 0.0000
# 6 0.0000 0.0000 0.0000 0.0000 0.0000 27.0980
#
#
#
# Elastic Compliance Matrix: (Units=1/GPa)
#
#
# Indices 1 2 3 4 5 6 
#
# 1 0.020955 0.004298 0.005185 0.000000 0.000000 0.000000
# 2 0.004298 0.011405 0.007686 0.000000 0.000000 0.000000
# 3 0.005185 0.007686 0.047497 0.000000 0.000000 0.000000
# 4 0.000000 0.000000 0.000000 0.036448 0.000000 0.000000
# 5 0.000000 0.000000 0.000000 0.000000 0.053197 0.000000
# 6 0.000000 0.000000 0.000000 0.000000 0.000000 0.036903
#
#
# Mechanical properties :
#
#
# Convention : Reuss Voigt Hill
#
# Bulk Modulus (GPa) = 8.75684 12.14165 10.44925
# Shear Modulus (GPa) = 23.79455 29.05149 26.42302
#
# Velocity S-wave (km/s) = 3.27330 3.61685 3.44935
# Velocity P-wave (km/s) = 4.26955 4.78638 4.53533
#
# Compressibility (1/GPa) = 0.11419643
#
# Stress axis : x y z
#
# Youngs Moduli (GPa) = 47.72090 87.67708 21.05417
#
# Poissons Ratio (x) = -0.37684 -0.10917
# Poissons Ratio (y) = -0.20511 -0.16183
# Poissons Ratio (z) = -0.24745 -0.67391
#
# Static dielectric constant tensor:
#      x y z
#    x 4.027440 0.000000 0.000000 
#    y 0.000000 4.191430 0.000000 
#    z 0.000000 0.000000 3.886190 
# 
# 
# High freq. dielectric constant tensor:
#      x y z
#    x 1.888270 0.000000 0.000000 
#    y 0.000000 1.871630 0.000000 
#    z 0.000000 0.000000 1.832020 
# 
# From -- ./inp_files/6883.got.cif
#   From: 2010.03.12/outbox.cif.g09.slc.cpg/sg19_4_cif.got.tgz:6883.got - 2010.04.10 18:59:41.
