data_PCOD8157311
_publ_section_title
;
Structure prediction by ZEFSAII (Michael W. Deem and Ramdas Pophale) SiO2 
 PCOD8157311
Probable space group: P 21 21 21
;
_chemical_formula_sum "Si O2"
_cell_formula_units_Z 28
_cell_length_a 15.570598
_cell_length_b 12.408621
_cell_length_c 6.959582
_cell_angle_alpha 90.000000
_cell_angle_beta 90.000000
_cell_angle_gamma 90.000000
_cell_volume 1344.658398
_symmetry_space_group_name_H-M "P 21 21 21"
_symmetry_group_IT_number 19
_symmetry_cell_setting 'orthorhombic'
loop_
_space_group_symop_operation_xyz
x,y,z
1/2-x,-y,1/2+z
1/2+x,1/2-y,-z
-x,1/2+y,1/2-z
loop_
_atom_site_type_symbol
_atom_site_label
_atom_site_fract_x
_atom_site_fract_y
_atom_site_fract_z
Si Si1 0.091240 0.936472 0.762888
Si Si2 0.765696 0.871091 0.646618
Si Si3 0.754043 0.282518 0.803960
Si Si4 0.014406 0.093614 0.478501
Si Si5 0.057684 0.275627 0.738340
Si Si6 0.317845 0.397327 0.476343
Si Si7 0.579116 0.379504 0.924549
O O1 0.181530 0.881278 0.721264
O O2 0.021837 0.848514 0.822881
O O3 0.060001 0.987923 0.562720
O O4 0.102156 0.019337 0.940004
O O5 0.733504 0.779668 0.502979
O O6 0.856633 0.845178 0.745000
O O7 0.772076 0.987905 0.551083
O O8 0.690446 0.869703 0.801005
O O9 0.767085 0.194441 0.638790
O O10 0.660547 0.336033 0.805637
O O11 0.068686 0.194045 0.560549
O O12 0.012717 0.088708 0.245721
O O13 0.918841 0.099090 0.569735
O O14 0.039241 0.213443 0.939862
#
# Coordination Sequence:
#
# PCOD8157311 Si02
#       7
#     4   4   4   4   4   4   4
#     4  11  24  42  70  95 136 174 220 282 328 398
#     4  11  24  41  66  95 132 169 218 271 334 397
#     4  11  25  46  65  97 135 175 223 272 338 394
#     4  11  24  42  66  98 132 172 225 268 330 394
#     4  10  22  45  62  94 134 169 212 283 329 379
#     4  12  23  39  69  99 127 176 213 274 333 390
#     4  10  26  43  66  96 130 179 223 272 332 404
#
# _framework density 20.823132000000001
#
# number of rings (size 3 to 8) (size 9 to 14) (size 15 to 20)
#    0.000    1.143    4.286    0.857    4.000    3.429 
#    0.000    0.000    0.000    0.000    0.000    0.000 
#    0.000    0.000    0.000    0.000    0.000    0.000 
#
# Total GULP energy -347220.561556 kJ/mol
# GULP energy per Si atom -12400.734341 kJ/mol
# Density = 2.077574 g / cm^3
# Si number density = 20.823132 Si / 1000 Ang^3
#
#
#
# Elastic Constant Matrix: (Units=GPa)
#
#
# Indices 1 2 3 4 5 6 
#
# 1 56.0444 28.3136 21.2680 0.0000 0.0000 0.0000
# 2 28.3136 84.2613 17.8441 0.0000 0.0000 0.0000
# 3 21.2680 17.8441 96.5502 0.0000 0.0000 0.0000
# 4 0.0000 0.0000 0.0000 34.6117 0.0000 0.0000
# 5 0.0000 0.0000 0.0000 0.0000 31.2073 0.0000
# 6 0.0000 0.0000 0.0000 0.0000 0.0000 28.4595
#
#
#
# Elastic Compliance Matrix: (Units=1/GPa)
#
#
# Indices 1 2 3 4 5 6 
#
# 1 0.022719 -0.006842 -0.003740 0.000000 0.000000 0.000000
# 2 -0.006842 0.014412 -0.001156 0.000000 0.000000 0.000000
# 3 -0.003740 -0.001156 0.011395 0.000000 0.000000 0.000000
# 4 0.000000 0.000000 0.000000 0.028892 0.000000 0.000000
# 5 0.000000 0.000000 0.000000 0.000000 0.032044 0.000000
# 6 0.000000 0.000000 0.000000 0.000000 0.000000 0.035138
#
#
# Mechanical properties :
#
#
# Convention : Reuss Voigt Hill
#
# Bulk Modulus (GPa) = 39.92213 41.30083 40.61148
# Shear Modulus (GPa) = 28.34061 30.15104 29.24583
#
# Velocity S-wave (km/s) = 3.69320 3.80933 3.75171
# Velocity P-wave (km/s) = 6.11555 6.26300 6.18971
#
# Compressibility (1/GPa) = 0.02504876
#
# Stress axis : x y z
#
# Youngs Moduli (GPa) = 44.01634 69.38765 87.75884
#
# Poissons Ratio (x) = 0.47475 0.32822
# Poissons Ratio (y) = 0.30116 0.10148
# Poissons Ratio (z) = 0.16462 0.08024
#
# Static dielectric constant tensor:
#      x y z
#    x 3.660170 0.000000 0.000000 
#    y 0.000000 4.079790 0.000000 
#    z 0.000000 0.000000 3.733180 
# 
# 
# High freq. dielectric constant tensor:
#      x y z
#    x 1.810950 0.000000 0.000000 
#    y 0.000000 1.828910 0.000000 
#    z 0.000000 0.000000 1.818730 
# 
# From -- ./inp_files/1740.got.cif
#   From: 2010.03.12/outbox.cif.g09.slc.cpg/sg19_1_cif.got.tgz:1740.got - 2010.04.10 18:59:41.
