data_PCOD8157918
_publ_section_title
;
Structure prediction by ZEFSAII (Michael W. Deem and Ramdas Pophale) SiO2 
 PCOD8157918
Probable space group: P 21 21 21
;
_chemical_formula_sum "Si O2"
_cell_formula_units_Z 32
_cell_length_a 12.425615
_cell_length_b 5.118088
_cell_length_c 19.917697
_cell_angle_alpha 90.000000
_cell_angle_beta 90.000000
_cell_angle_gamma 90.000000
_cell_volume 1266.673729
_symmetry_space_group_name_H-M "P 21 21 21"
_symmetry_group_IT_number 19
_symmetry_cell_setting 'orthorhombic'
loop_
_space_group_symop_operation_xyz
x,y,z
1/2-x,-y,1/2+z
1/2+x,1/2-y,-z
-x,1/2+y,1/2-z
loop_
_atom_site_type_symbol
_atom_site_label
_atom_site_fract_x
_atom_site_fract_y
_atom_site_fract_z
Si Si1 0.966480 0.421459 0.030805
Si Si2 0.864806 0.294978 0.426807
Si Si3 0.826761 0.832084 0.850306
Si Si4 0.726239 0.444216 0.043625
Si Si5 0.672237 0.990733 0.744622
Si Si6 0.458612 0.173299 0.119396
Si Si7 0.032978 0.150536 0.167392
Si Si8 0.818704 0.061155 0.623225
O O1 0.848715 0.544271 0.039508
O O2 0.051985 0.653184 0.024347
O O3 0.996005 0.256097 0.095702
O O4 0.974462 0.266990 0.960112
O O5 0.761615 0.113083 0.409080
O O6 0.826467 0.550236 0.469150
O O7 0.920810 0.365851 0.354407
O O8 0.763104 0.812181 0.779531
O O9 0.871747 0.546625 0.865065
O O10 0.918347 0.055760 0.847710
O O11 0.727466 0.148334 0.069874
O O12 0.662558 0.654524 0.089947
O O13 0.566758 0.836371 0.718677
O O14 0.731415 0.117925 0.680928
O O15 0.633135 0.204693 0.798379
O O16 0.570435 0.066905 0.151148
#
# Coordination Sequence:
#
# PCOD8157918 Si02
#       8
#     4   4   4   4   4   4   4   4
#     4  12  26  45  80 114 154 193 262 332 399 473
#     4  12  26  48  78 116 161 198 259 335 407 462
#     4  12  28  48  74 112 151 207 252 320 385 466
#     4  12  27  45  78 116 154 199 254 324 401 455
#     4  12  28  49  78 106 164 205 265 312 388 474
#     4  12  28  48  78 111 149 200 263 320 396 462
#     4  12  27  49  76 118 153 213 260 329 393 477
#     4  12  28  50  74 113 152 209 259 318 385 473
#
# _framework density 25.263017999999999
#
# number of rings (size 3 to 8) (size 9 to 14) (size 15 to 20)
#    0.000    0.000    5.000    3.750    5.250    3.000 
#    0.000    0.000    0.000    0.000    0.000    0.000 
#    0.000    0.000    0.000    0.000    0.000    0.000 
#
# Total GULP energy -396710.539114 kJ/mol
# GULP energy per Si atom -12397.204347 kJ/mol
# Density = 2.520552 g / cm^3
# Si number density = 25.263018 Si / 1000 Ang^3
#
#
#
# Elastic Constant Matrix: (Units=GPa)
#
#
# Indices 1 2 3 4 5 6 
#
# 1 99.8003 -9.8661 8.5937 0.0000 0.0000 0.0000
# 2 -9.8661 61.2780 3.1915 0.0000 0.0000 0.0000
# 3 8.5937 3.1915 76.0444 0.0000 0.0000 0.0000
# 4 0.0000 0.0000 0.0000 16.1257 0.0000 0.0000
# 5 0.0000 0.0000 0.0000 0.0000 60.4140 0.0000
# 6 0.0000 0.0000 0.0000 0.0000 0.0000 32.5065
#
#
#
# Elastic Compliance Matrix: (Units=1/GPa)
#
#
# Indices 1 2 3 4 5 6 
#
# 1 0.010297 0.001722 -0.001236 0.000000 0.000000 0.000000
# 2 0.001722 0.016643 -0.000893 0.000000 0.000000 0.000000
# 3 -0.001236 -0.000893 0.013327 0.000000 0.000000 0.000000
# 4 0.000000 0.000000 0.000000 0.062013 0.000000 0.000000
# 5 0.000000 0.000000 0.000000 0.000000 0.016552 0.000000
# 6 0.000000 0.000000 0.000000 0.000000 0.000000 0.030763
#
#
# Mechanical properties :
#
#
# Convention : Reuss Voigt Hill
#
# Bulk Modulus (GPa) = 25.34645 26.77346 26.05995
# Shear Modulus (GPa) = 30.56982 37.48946 34.02964
#
# Velocity S-wave (km/s) = 3.48237 3.85641 3.67415
# Velocity P-wave (km/s) = 5.12094 5.51816 5.32325
#
# Compressibility (1/GPa) = 0.03945326
#
# Stress axis : x y z
#
# Youngs Moduli (GPa) = 97.11867 60.08581 75.03357
#
# Poissons Ratio (x) = -0.10348 0.09273
# Poissons Ratio (y) = -0.16726 0.06701
# Poissons Ratio (z) = 0.12003 0.05366
#
# Static dielectric constant tensor:
#      x y z
#    x 4.987030 0.000000 0.000000 
#    y 0.000000 4.169680 0.000000 
#    z 0.000000 0.000000 4.661210 
# 
# 
# High freq. dielectric constant tensor:
#      x y z
#    x 2.034270 0.000000 0.000000 
#    y 0.000000 1.986320 0.000000 
#    z 0.000000 0.000000 2.009610 
# 
# From -- ./inp_files/7189.got.cif
#   From: 2010.03.12/outbox.cif.g09.slc.cpg/sg19_4_cif.got.tgz:7189.got - 2010.04.10 18:59:41.
