data_PCOD8157972
_publ_section_title
;
Structure prediction by ZEFSAII (Michael W. Deem and Ramdas Pophale) SiO2 
 PCOD8157972
Probable space group: C 2 2 21
;
_chemical_formula_sum "Si O2"
_cell_formula_units_Z 52
_cell_length_a 16.043936
_cell_length_b 10.364293
_cell_length_c 17.089705
_cell_angle_alpha 90.000000
_cell_angle_beta 90.000000
_cell_angle_gamma 90.000000
_cell_volume 2841.745422
_symmetry_space_group_name_H-M "C 2 2 21"
_symmetry_group_IT_number 20
_symmetry_cell_setting 'orthorhombic'
loop_
_space_group_symop_operation_xyz
x,y,z
-x,-y,1/2+z
x,-y,-z
-x,y,1/2-z
1/2+x,1/2+y,z
1/2-x,1/2-y,1/2+z
1/2+x,1/2-y,-z
1/2-x,1/2+y,1/2-z
loop_
_atom_site_type_symbol
_atom_site_label
_atom_site_fract_x
_atom_site_fract_y
_atom_site_fract_z
Si Si1 0.166286 0.370728 0.973184
Si Si2 0.066345 0.941744 0.418274
Si Si3 0.890005 0.141705 0.614645
Si Si4 0.212087 0.925297 0.668719
Si Si5 0.268776 0.500000 0.500000
Si Si6 0.725438 0.309315 0.254524
Si Si7 0.798050 0.258306 0.924355
O O1 0.100732 0.266988 0.941394
O O2 0.232727 0.406633 0.907260
O O3 0.117551 0.500000 0.000000
O O4 0.216383 0.320137 0.048607
O O5 0.116788 0.814838 0.444731
O O6 0.981430 0.914577 0.371283
O O7 0.037461 0.000000 0.500000
O O8 0.120431 0.032991 0.360868
O O9 0.855296 0.180938 0.699166
O O10 0.826098 0.043676 0.572616
O O11 0.206309 0.785235 0.712486
O O12 0.251282 0.042781 0.722309
O O13 0.204487 0.606215 0.468624
O O14 0.702406 0.227536 0.331012
#
# Coordination Sequence:
#
# PCOD8157972 Si02
#       7
#     8   8   8   8   4   8   8
#     4  10  16  35  56  80  99 154 190 231 264 343
#     4  11  19  37  56  83 107 151 188 233 271 344
#     4  10  22  32  56  82 118 141 188 233 294 326
#     4  10  19  33  59  81 115 143 196 225 280 334
#     4  10  20  36  54  86 112 146 190 252 266 334
#     4  10  20  34  53  89 111 151 181 241 282 338
#     4  10  19  33  59  80 112 143 197 229 282 326
#
# _framework density 18.298611999999999
#
# number of rings (size 3 to 8) (size 9 to 14) (size 15 to 20)
#    0.000    1.846    5.385    0.923    0.000    2.462 
#    1.385    0.000    0.000    0.000    0.000   12.923 
#    0.000    0.000    0.000    0.000    0.000    0.000 
#
# Total GULP energy -322105.501216 kJ/mol
# GULP energy per Si atom -12388.673124 kJ/mol
# Density = 1.825696 g / cm^3
# Si number density = 18.298612 Si / 1000 Ang^3
#
#
#
# Elastic Constant Matrix: (Units=GPa)
#
#
# Indices 1 2 3 4 5 6 
#
# 1 84.4212 31.0671 31.3997 0.0000 0.0000 0.0000
# 2 31.0671 97.7653 37.0619 0.0000 0.0000 0.0000
# 3 31.3997 37.0619 90.0722 0.0000 0.0000 0.0000
# 4 0.0000 0.0000 0.0000 26.9772 0.0000 0.0000
# 5 0.0000 0.0000 0.0000 0.0000 19.1530 0.0000
# 6 0.0000 0.0000 0.0000 0.0000 0.0000 24.2715
#
#
#
# Elastic Compliance Matrix: (Units=1/GPa)
#
#
# Indices 1 2 3 4 5 6 
#
# 1 0.014392 -0.003165 -0.003715 0.000000 0.000000 0.000000
# 2 -0.003165 0.012815 -0.004170 0.000000 0.000000 0.000000
# 3 -0.003715 -0.004170 0.014113 0.000000 0.000000 0.000000
# 4 0.000000 0.000000 0.000000 0.037068 0.000000 0.000000
# 5 0.000000 0.000000 0.000000 0.000000 0.052211 0.000000
# 6 0.000000 0.000000 0.000000 0.000000 0.000000 0.041201
#
#
# Mechanical properties :
#
#
# Convention : Reuss Voigt Hill
#
# Bulk Modulus (GPa) = 52.02699 52.36845 52.19772
# Shear Modulus (GPa) = 24.96186 25.59567 25.27876
#
# Velocity S-wave (km/s) = 3.69743 3.74408 3.72083
# Velocity P-wave (km/s) = 6.83535 6.88272 6.85907
#
# Compressibility (1/GPa) = 0.01922079
#
# Stress axis : x y z
#
# Youngs Moduli (GPa) = 69.48407 78.03349 70.85747
#
# Poissons Ratio (x) = 0.24698 0.26322
# Poissons Ratio (y) = 0.21992 0.29545
# Poissons Ratio (z) = 0.25811 0.32537
#
# Static dielectric constant tensor:
#      x y z
#    x 2.920820 0.000000 0.000000 
#    y 0.000000 3.937890 0.000000 
#    z 0.000000 0.000000 3.602910 
# 
# 
# High freq. dielectric constant tensor:
#      x y z
#    x 1.659550 0.000000 0.000000 
#    y 0.000000 1.720750 0.000000 
#    z 0.000000 0.000000 1.726930 
# 
# From -- ./inp_files/24921.got.cif
#   From: 2010.03.12/outbox.cif.g09.slc.cpg/sg20_13_cif.got.tgz:24921.got - 2010.04.14 01:38:04.
