data_PCOD8157121
_publ_section_title
;
Structure prediction by ZEFSAII (Michael W. Deem and Ramdas Pophale) SiO2 
 PCOD8157121
Probable space group: P 21 21 21
;
_chemical_formula_sum "Si O2"
_cell_formula_units_Z 24
_cell_length_a 9.319659
_cell_length_b 15.097014
_cell_length_c 7.909944
_cell_angle_alpha 90.000000
_cell_angle_beta 90.000000
_cell_angle_gamma 90.000000
_cell_volume 1112.921388
_symmetry_space_group_name_H-M "P 21 21 21"
_symmetry_group_IT_number 19
_symmetry_cell_setting 'orthorhombic'
loop_
_space_group_symop_operation_xyz
x,y,z
1/2-x,-y,1/2+z
1/2+x,1/2-y,-z
-x,1/2+y,1/2-z
loop_
_atom_site_type_symbol
_atom_site_label
_atom_site_fract_x
_atom_site_fract_y
_atom_site_fract_z
Si Si1 0.398395 0.805879 0.498021
Si Si2 0.865463 0.120304 0.805254
Si Si3 0.541256 0.121178 0.872184
Si Si4 0.276529 0.136444 0.676903
Si Si5 0.427903 0.018995 0.163401
Si Si6 0.192202 0.813489 0.809633
O O1 0.538346 0.869287 0.476316
O O2 0.454985 0.706224 0.506889
O O3 0.296633 0.812230 0.333364
O O4 0.316516 0.830034 0.670402
O O5 0.702676 0.091050 0.834100
O O6 0.876997 0.216073 0.712208
O O7 0.934333 0.041478 0.699896
O O8 0.449656 0.138295 0.701684
O O9 0.450772 0.047381 0.970307
O O10 0.241843 0.183630 0.498488
O O11 0.219277 0.035853 0.673480
O O12 0.419570 0.104864 0.287094
#
# Coordination Sequence:
#
# PCOD8157121 Si02
#       6
#     4   4   4   4   4   4
#     4  10  21  46  69  97 134 180 224 284 350 410
#     4  10  24  41  69 101 140 180 232 287 354 404
#     4  11  21  45  66  97 140 183 223 294 346 404
#     4  11  24  41  73  98 133 179 236 272 350 425
#     4  11  23  45  64 101 138 185 234 284 343 419
#     4  11  23  44  73 100 137 183 231 287 341 418
#
# _framework density 21.564865000000001
#
# number of rings (size 3 to 8) (size 9 to 14) (size 15 to 20)
#    0.000    1.333    3.333    2.000    2.333    6.667 
#    6.000    0.000    0.000    0.000    0.000    0.000 
#    0.000    0.000    0.000    0.000    0.000    0.000 
#
# Total GULP energy -297476.972208 kJ/mol
# GULP energy per Si atom -12394.873842 kJ/mol
# Density = 2.151578 g / cm^3
# Si number density = 21.564865 Si / 1000 Ang^3
#
#
#
# Elastic Constant Matrix: (Units=GPa)
#
#
# Indices 1 2 3 4 5 6 
#
# 1 141.4788 30.7806 56.7809 0.0000 0.0000 0.0000
# 2 30.7806 111.9442 38.2905 0.0000 0.0000 0.0000
# 3 56.7809 38.2905 150.7750 0.0000 0.0000 0.0000
# 4 0.0000 0.0000 0.0000 28.7213 0.0000 0.0000
# 5 0.0000 0.0000 0.0000 0.0000 20.0631 0.0000
# 6 0.0000 0.0000 0.0000 0.0000 0.0000 31.2482
#
#
#
# Elastic Compliance Matrix: (Units=1/GPa)
#
#
# Indices 1 2 3 4 5 6 
#
# 1 0.008512 -0.001362 -0.002860 0.000000 0.000000 0.000000
# 2 -0.001362 0.010001 -0.002027 0.000000 0.000000 0.000000
# 3 -0.002860 -0.002027 0.008224 0.000000 0.000000 0.000000
# 4 0.000000 0.000000 0.000000 0.034817 0.000000 0.000000
# 5 0.000000 0.000000 0.000000 0.000000 0.049843 0.000000
# 6 0.000000 0.000000 0.000000 0.000000 0.000000 0.032002
#
#
# Mechanical properties :
#
#
# Convention : Reuss Voigt Hill
#
# Bulk Modulus (GPa) = 70.22684 72.87801 71.55242
# Shear Modulus (GPa) = 31.12486 34.56293 32.84389
#
# Velocity S-wave (km/s) = 3.80322 4.00777 3.90683
# Velocity P-wave (km/s) = 7.20570 7.43535 7.32142
#
# Compressibility (1/GPa) = 0.01423957
#
# Stress axis : x y z
#
# Youngs Moduli (GPa) = 117.47691 99.99122 121.59476
#
# Poissons Ratio (x) = 0.13623 0.34772
# Poissons Ratio (y) = 0.16005 0.24644
# Poissons Ratio (z) = 0.33595 0.20265
#
# Static dielectric constant tensor:
#      x y z
#    x 3.996150 0.000000 0.000000 
#    y 0.000000 4.002610 0.000000 
#    z 0.000000 0.000000 3.836410 
# 
# 
# High freq. dielectric constant tensor:
#      x y z
#    x 1.851280 0.000000 0.000000 
#    y 0.000000 1.847590 0.000000 
#    z 0.000000 0.000000 1.836060 
# 
# From -- ./inp_files/2796.got.cif
#   From: 2010.03.12/outbox.cif.g09.slc.cpg/sg19_2_cif.got.tgz:2796.got - 2010.04.10 18:59:41.
