data_PCOD8157820
_publ_section_title
;
Structure prediction by ZEFSAII (Michael W. Deem and Ramdas Pophale) SiO2 
 PCOD8157820
Probable space group: P 21 21 21
;
_chemical_formula_sum "Si O2"
_cell_formula_units_Z 28
_cell_length_a 16.211544
_cell_length_b 9.510197
_cell_length_c 7.648377
_cell_angle_alpha 90.000000
_cell_angle_beta 90.000000
_cell_angle_gamma 90.000000
_cell_volume 1179.188349
_symmetry_space_group_name_H-M "P 21 21 21"
_symmetry_group_IT_number 19
_symmetry_cell_setting 'orthorhombic'
loop_
_space_group_symop_operation_xyz
x,y,z
1/2-x,-y,1/2+z
1/2+x,1/2-y,-z
-x,1/2+y,1/2-z
loop_
_atom_site_type_symbol
_atom_site_label
_atom_site_fract_x
_atom_site_fract_y
_atom_site_fract_z
Si Si1 0.230211 0.653865 0.269675
Si Si2 0.435821 0.002826 0.462992
Si Si3 0.607476 0.513846 0.423144
Si Si4 0.225685 0.347474 0.373227
Si Si5 0.949854 0.210710 0.085790
Si Si6 0.451805 0.737652 0.906968
Si Si7 0.223488 0.140317 0.056353
O O1 0.262277 0.495029 0.303354
O O2 0.137277 0.665474 0.337472
O O3 0.286742 0.758281 0.386061
O O4 0.236660 0.691047 0.063776
O O5 0.514589 0.897502 0.440346
O O6 0.361707 0.943143 0.586116
O O7 0.394765 0.038442 0.281102
O O8 0.468028 0.150340 0.536741
O O9 0.550900 0.631113 0.514897
O O10 0.572466 0.360344 0.460294
O O11 0.702654 0.530353 0.482784
O O12 0.126803 0.363776 0.385771
O O13 0.247636 0.228243 0.230471
O O14 0.022777 0.192307 0.225823
#
# Coordination Sequence:
#
# PCOD8157820 Si02
#       7
#     4   4   4   4   4   4   4
#     4  11  25  47  75 110 153 201 257 313 380 467
#     4  12  25  48  76 107 151 198 254 327 380 457
#     4  11  28  47  74 112 148 201 257 316 387 469
#     4  12  24  46  75 109 150 204 255 313 383 459
#     4  11  25  48  72 110 149 194 256 314 392 455
#     4  12  26  46  74 104 149 194 246 315 386 450
#     4  11  27  48  76 112 152 204 261 318 382 465
#
# _framework density 23.745145999999998
#
# number of rings (size 3 to 8) (size 9 to 14) (size 15 to 20)
#    0.000    0.571    4.286    2.571    4.000    1.143 
#    2.571    0.000    0.000    0.000    0.000    0.000 
#    0.000    0.000    0.000    0.000    0.000    0.000 
#
# Total GULP energy -347250.004197 kJ/mol
# GULP energy per Si atom -12401.785864 kJ/mol
# Density = 2.369110 g / cm^3
# Si number density = 23.745146 Si / 1000 Ang^3
#
#
#
# Elastic Constant Matrix: (Units=GPa)
#
#
# Indices 1 2 3 4 5 6 
#
# 1 109.1004 47.2569 17.7175 0.0000 0.0000 0.0000
# 2 47.2569 131.6107 31.1734 0.0000 0.0000 0.0000
# 3 17.7175 31.1734 103.2870 0.0000 0.0000 0.0000
# 4 0.0000 0.0000 0.0000 34.1767 0.0000 0.0000
# 5 0.0000 0.0000 0.0000 0.0000 32.3253 0.0000
# 6 0.0000 0.0000 0.0000 0.0000 0.0000 36.4232
#
#
#
# Elastic Compliance Matrix: (Units=1/GPa)
#
#
# Indices 1 2 3 4 5 6 
#
# 1 0.010907 -0.003740 -0.000742 0.000000 0.000000 0.000000
# 2 -0.003740 0.009466 -0.002215 0.000000 0.000000 0.000000
# 3 -0.000742 -0.002215 0.010478 0.000000 0.000000 0.000000
# 4 0.000000 0.000000 0.000000 0.029260 0.000000 0.000000
# 5 0.000000 0.000000 0.000000 0.000000 0.030935 0.000000
# 6 0.000000 0.000000 0.000000 0.000000 0.000000 0.027455
#
#
# Mechanical properties :
#
#
# Convention : Reuss Voigt Hill
#
# Bulk Modulus (GPa) = 57.29116 59.58820 58.43968
# Shear Modulus (GPa) = 36.30711 37.10838 36.70775
#
# Velocity S-wave (km/s) = 3.91453 3.95749 3.93607
# Velocity P-wave (km/s) = 6.67917 6.78466 6.73212
#
# Compressibility (1/GPa) = 0.01745470
#
# Stress axis : x y z
#
# Youngs Moduli (GPa) = 91.68824 105.64186 95.44118
#
# Poissons Ratio (x) = 0.39514 0.07081
# Poissons Ratio (y) = 0.34295 0.21143
# Poissons Ratio (z) = 0.06803 0.23403
#
# Static dielectric constant tensor:
#      x y z
#    x 4.167190 0.000000 0.000000 
#    y 0.000000 4.320420 0.000000 
#    z 0.000000 0.000000 4.252200 
# 
# 
# High freq. dielectric constant tensor:
#      x y z
#    x 1.940590 0.000000 0.000000 
#    y 0.000000 1.952220 0.000000 
#    z 0.000000 0.000000 1.942020 
# 
# From -- ./inp_files/4181.got.cif
#   From: 2010.03.12/outbox.cif.g09.slc.cpg/sg19_3_cif.got.tgz:4181.got - 2010.04.10 18:59:41.
