data_PCOD8157656
_publ_section_title
;
Structure prediction by ZEFSAII (Michael W. Deem and Ramdas Pophale) SiO2 
 PCOD8157656
Probable space group: P 21 21 21
;
_chemical_formula_sum "Si O2"
_cell_formula_units_Z 20
_cell_length_a 12.242082
_cell_length_b 4.903384
_cell_length_c 15.398431
_cell_angle_alpha 90.000000
_cell_angle_beta 90.000000
_cell_angle_gamma 90.000000
_cell_volume 924.331303
_symmetry_space_group_name_H-M "P 21 21 21"
_symmetry_group_IT_number 19
_symmetry_cell_setting 'orthorhombic'
loop_
_space_group_symop_operation_xyz
x,y,z
1/2-x,-y,1/2+z
1/2+x,1/2-y,-z
-x,1/2+y,1/2-z
loop_
_atom_site_type_symbol
_atom_site_label
_atom_site_fract_x
_atom_site_fract_y
_atom_site_fract_z
Si Si1 0.148931 0.881452 0.037015
Si Si2 0.299311 0.581756 0.246422
Si Si3 0.939888 0.302123 0.282875
Si Si4 0.856522 0.445361 0.862492
Si Si5 0.095880 0.381633 0.927780
O O1 0.066500 0.912074 0.118386
O O2 0.271849 0.941101 0.066756
O O3 0.137619 0.571262 0.005581
O O4 0.118726 0.073167 0.956482
O O5 0.175293 0.684648 0.249217
O O6 0.308274 0.317950 0.185709
O O7 0.338266 0.523159 0.343271
O O8 0.377355 0.819266 0.208795
O O9 0.971183 0.560942 0.223507
O O10 0.967121 0.391338 0.913011
#
# Coordination Sequence:
#
# PCOD8157656 Si02
#       5
#     4   4   4   4   4
#     4  11  25  41  60  97 127 156 208 265 311 366
#     4  11  23  42  66  93 121 167 218 252 310 388
#     4  11  23  42  64  88 127 171 206 249 310 381
#     4  11  23  44  63  88 130 164 202 264 314 371
#     4  12  24  41  67  94 123 164 210 262 319 370
#
# _framework density 21.637262
#
# number of rings (size 3 to 8) (size 9 to 14) (size 15 to 20)
#    0.000    0.800    0.000    9.600    0.000    4.800 
#    0.000    0.000    0.000    0.000    0.000    0.000 
#    0.000    0.000    0.000    0.000    0.000    0.000 
#
# Total GULP energy -248102.128077 kJ/mol
# GULP energy per Si atom -12405.106404 kJ/mol
# Density = 2.158801 g / cm^3
# Si number density = 21.637262 Si / 1000 Ang^3
#
#
#
# Elastic Constant Matrix: (Units=GPa)
#
#
# Indices 1 2 3 4 5 6 
#
# 1 85.1845 12.5420 56.7599 0.0000 0.0000 0.0000
# 2 12.5420 91.4912 21.2959 0.0000 0.0000 0.0000
# 3 56.7599 21.2959 97.2505 0.0000 0.0000 0.0000
# 4 0.0000 0.0000 0.0000 56.7098 0.0000 0.0000
# 5 0.0000 0.0000 0.0000 0.0000 25.9190 0.0000
# 6 0.0000 0.0000 0.0000 0.0000 0.0000 26.9924
#
#
#
# Elastic Compliance Matrix: (Units=1/GPa)
#
#
# Indices 1 2 3 4 5 6 
#
# 1 0.019210 -0.000025 -0.011206 0.000000 0.000000 0.000000
# 2 -0.000025 0.011517 -0.002507 0.000000 0.000000 0.000000
# 3 -0.011206 -0.002507 0.017372 0.000000 0.000000 0.000000
# 4 0.000000 0.000000 0.000000 0.017634 0.000000 0.000000
# 5 0.000000 0.000000 0.000000 0.000000 0.038582 0.000000
# 6 0.000000 0.000000 0.000000 0.000000 0.000000 0.037047
#
#
# Mechanical properties :
#
#
# Convention : Reuss Voigt Hill
#
# Bulk Modulus (GPa) = 48.49223 50.56909 49.53066
# Shear Modulus (GPa) = 28.45543 34.14613 31.30078
#
# Velocity S-wave (km/s) = 3.63038 3.97686 3.80756
# Velocity P-wave (km/s) = 6.32716 6.67153 6.50163
#
# Compressibility (1/GPa) = 0.02062186
#
# Stress axis : x y z
#
# Youngs Moduli (GPa) = 52.05667 86.82761 57.56285
#
# Poissons Ratio (x) = 0.00217 0.64507
# Poissons Ratio (y) = 0.00130 0.14434
# Poissons Ratio (z) = 0.58336 0.21772
#
# Static dielectric constant tensor:
#      x y z
#    x 3.812850 0.000000 0.000000 
#    y 0.000000 4.136660 0.000000 
#    z 0.000000 0.000000 3.922550 
# 
# 
# High freq. dielectric constant tensor:
#      x y z
#    x 1.851230 0.000000 0.000000 
#    y 0.000000 1.871600 0.000000 
#    z 0.000000 0.000000 1.852870 
# 
# From -- ./inp_files/1375.got.cif
#   From: 2010.03.12/outbox.cif.g09.slc.cpg/sg19_1_cif.got.tgz:1375.got - 2010.04.10 18:59:41.
