data_PCOD8157800
_publ_section_title
;
Structure prediction by ZEFSAII (Michael W. Deem and Ramdas Pophale) SiO2 
 PCOD8157800
Probable space group: P 21 21 21
;
_chemical_formula_sum "Si O2"
_cell_formula_units_Z 24
_cell_length_a 5.293270
_cell_length_b 23.015709
_cell_length_c 8.577840
_cell_angle_alpha 90.000000
_cell_angle_beta 90.000000
_cell_angle_gamma 90.000000
_cell_volume 1045.024197
_symmetry_space_group_name_H-M "P 21 21 21"
_symmetry_group_IT_number 19
_symmetry_cell_setting 'orthorhombic'
loop_
_space_group_symop_operation_xyz
x,y,z
1/2-x,-y,1/2+z
1/2+x,1/2-y,-z
-x,1/2+y,1/2-z
loop_
_atom_site_type_symbol
_atom_site_label
_atom_site_fract_x
_atom_site_fract_y
_atom_site_fract_z
Si Si1 0.165334 0.610425 0.554923
Si Si2 0.234648 0.257070 0.592545
Si Si3 0.964791 0.998038 0.816794
Si Si4 0.823510 0.119954 0.296675
Si Si5 0.344287 0.145505 0.774314
Si Si6 0.180571 0.061946 0.530693
O O1 0.212734 0.541384 0.583129
O O2 0.078411 0.624426 0.379931
O O3 0.424407 0.642319 0.604126
O O4 0.927850 0.629994 0.656986
O O5 0.463505 0.264146 0.469575
O O6 0.182279 0.320086 0.666394
O O7 0.335818 0.211944 0.720373
O O8 0.865667 0.933452 0.800683
O O9 0.003552 0.026617 0.648755
O O10 0.215632 0.989128 0.919953
O O11 0.040623 0.109221 0.423221
O O12 0.386737 0.100256 0.629080
#
# Coordination Sequence:
#
# PCOD8157800 Si02
#       6
#     4   4   4   4   4   4
#     4  11  28  45  73 107 149 191 244 306 379 439
#     4  12  26  48  77 108 143 193 251 304 366 445
#     4  11  26  42  72 105 151 190 246 305 377 447
#     4  12  27  44  74 107 142 199 249 304 375 446
#     4  11  26  49  71 106 149 193 243 308 366 437
#     4  11  25  44  71 105 148 192 245 305 375 442
#
# _framework density 22.965976999999999
#
# number of rings (size 3 to 8) (size 9 to 14) (size 15 to 20)
#    0.000    0.667    1.667    4.000   21.000    1.333 
#    0.000    0.000    0.000    0.000    0.000    0.000 
#    0.000    0.000    0.000    0.000    0.000    0.000 
#
# Total GULP energy -297515.433324 kJ/mol
# GULP energy per Si atom -12396.476389 kJ/mol
# Density = 2.291370 g / cm^3
# Si number density = 22.965977 Si / 1000 Ang^3
#
#
#
# Elastic Constant Matrix: (Units=GPa)
#
#
# Indices 1 2 3 4 5 6 
#
# 1 82.2356 9.0713 19.8743 0.0000 0.0000 0.0000
# 2 9.0713 139.3195 34.4251 0.0000 0.0000 0.0000
# 3 19.8743 34.4251 123.2893 0.0000 0.0000 0.0000
# 4 0.0000 0.0000 0.0000 34.8452 0.0000 0.0000
# 5 0.0000 0.0000 0.0000 0.0000 26.8287 0.0000
# 6 0.0000 0.0000 0.0000 0.0000 0.0000 31.5044
#
#
#
# Elastic Compliance Matrix: (Units=1/GPa)
#
#
# Indices 1 2 3 4 5 6 
#
# 1 0.012668 -0.000344 -0.001946 0.000000 0.000000 0.000000
# 2 -0.000344 0.007719 -0.002100 0.000000 0.000000 0.000000
# 3 -0.001946 -0.002100 0.009011 0.000000 0.000000 0.000000
# 4 0.000000 0.000000 0.000000 0.028698 0.000000 0.000000
# 5 0.000000 0.000000 0.000000 0.000000 0.037274 0.000000
# 6 0.000000 0.000000 0.000000 0.000000 0.000000 0.031742
#
#
# Mechanical properties :
#
#
# Convention : Reuss Voigt Hill
#
# Bulk Modulus (GPa) = 48.49997 52.39845 50.44921
# Shear Modulus (GPa) = 35.02264 37.40057 36.21160
#
# Velocity S-wave (km/s) = 3.90933 4.03987 3.97514
# Velocity P-wave (km/s) = 6.44525 6.68027 6.56381
#
# Compressibility (1/GPa) = 0.02061857
#
# Stress axis : x y z
#
# Youngs Moduli (GPa) = 78.93621 129.55032 110.97486
#
# Poissons Ratio (x) = 0.04456 0.21597
# Poissons Ratio (y) = 0.02715 0.23303
# Poissons Ratio (z) = 0.15362 0.27204
#
# Static dielectric constant tensor:
#      x y z
#    x 3.829690 0.000000 0.000000 
#    y 0.000000 4.394410 0.000000 
#    z 0.000000 0.000000 4.533420 
# 
# 
# High freq. dielectric constant tensor:
#      x y z
#    x 1.893890 0.000000 0.000000 
#    y 0.000000 1.921990 0.000000 
#    z 0.000000 0.000000 1.916830 
# 
# From -- ./inp_files/2411.got.cif
#   From: 2010.03.12/outbox.cif.g09.slc.cpg/sg19_2_cif.got.tgz:2411.got - 2010.04.10 18:59:41.
