data_PCOD8157463
_publ_section_title
;
Structure prediction by ZEFSAII (Michael W. Deem and Ramdas Pophale) SiO2 
 PCOD8157463
Probable space group: P 21 21 21
;
_chemical_formula_sum "Si O2"
_cell_formula_units_Z 24
_cell_length_a 11.586791
_cell_length_b 6.277405
_cell_length_c 14.936246
_cell_angle_alpha 90.000000
_cell_angle_beta 90.000000
_cell_angle_gamma 90.000000
_cell_volume 1086.387550
_symmetry_space_group_name_H-M "P 21 21 21"
_symmetry_group_IT_number 19
_symmetry_cell_setting 'orthorhombic'
loop_
_space_group_symop_operation_xyz
x,y,z
1/2-x,-y,1/2+z
1/2+x,1/2-y,-z
-x,1/2+y,1/2-z
loop_
_atom_site_type_symbol
_atom_site_label
_atom_site_fract_x
_atom_site_fract_y
_atom_site_fract_z
Si Si1 0.970914 0.821088 0.083305
Si Si2 0.957379 0.039313 0.584627
Si Si3 0.890073 0.715771 0.450815
Si Si4 0.793535 0.512397 0.849192
Si Si5 0.347119 0.400024 0.681051
Si Si6 0.744356 0.207493 0.684931
O O1 0.838396 0.747678 0.099479
O O2 0.043495 0.759349 0.173790
O O3 0.995010 0.072623 0.066848
O O4 0.014402 0.697083 0.996253
O O5 0.872617 0.158400 0.652521
O O6 0.899753 0.818332 0.549888
O O7 0.071155 0.975994 0.639489
O O8 0.774596 0.575556 0.436910
O O9 0.878655 0.910053 0.384056
O O10 0.767280 0.764744 0.845180
O O11 0.750460 0.395517 0.758100
O O12 0.320182 0.496168 0.777688
#
# Coordination Sequence:
#
# PCOD8157463 Si02
#       6
#     4   4   4   4   4   4
#     4  10  24  42  69  97 134 172 229 275 333 398
#     4  11  26  42  68  99 136 177 223 280 340 402
#     4   9  22  44  68  95 127 176 219 277 331 393
#     4  10  24  45  67  96 139 173 227 275 338 404
#     4   9  22  42  67  94 130 170 221 272 329 394
#     4  11  26  41  69  99 132 180 223 275 341 395
#
# _framework density 22.091564999999999
#
# number of rings (size 3 to 8) (size 9 to 14) (size 15 to 20)
#    0.000    2.000    0.000    0.000   18.667    4.000 
#    0.000    0.000    0.000    0.000    0.000    0.000 
#    0.000    0.000    0.000    0.000    0.000    0.000 
#
# Total GULP energy -297402.769257 kJ/mol
# GULP energy per Si atom -12391.782052 kJ/mol
# Density = 2.204128 g / cm^3
# Si number density = 22.091565 Si / 1000 Ang^3
#
#
#
# Elastic Constant Matrix: (Units=GPa)
#
#
# Indices 1 2 3 4 5 6 
#
# 1 113.7004 23.2916 25.6104 0.0000 0.0000 0.0000
# 2 23.2916 110.0852 35.1443 0.0000 0.0000 0.0000
# 3 25.6104 35.1443 59.6976 0.0000 0.0000 0.0000
# 4 0.0000 0.0000 0.0000 25.6461 0.0000 0.0000
# 5 0.0000 0.0000 0.0000 0.0000 45.1403 0.0000
# 6 0.0000 0.0000 0.0000 0.0000 0.0000 30.1773
#
#
#
# Elastic Compliance Matrix: (Units=1/GPa)
#
#
# Indices 1 2 3 4 5 6 
#
# 1 0.009808 -0.000901 -0.003677 0.000000 0.000000 0.000000
# 2 -0.000901 0.011269 -0.006248 0.000000 0.000000 0.000000
# 3 -0.003677 -0.006248 0.022007 0.000000 0.000000 0.000000
# 4 0.000000 0.000000 0.000000 0.038992 0.000000 0.000000
# 5 0.000000 0.000000 0.000000 0.000000 0.022153 0.000000
# 6 0.000000 0.000000 0.000000 0.000000 0.000000 0.033138
#
#
# Mechanical properties :
#
#
# Convention : Reuss Voigt Hill
#
# Bulk Modulus (GPa) = 46.65956 50.17509 48.41733
# Shear Modulus (GPa) = 30.09111 33.48851 31.78981
#
# Velocity S-wave (km/s) = 3.69468 3.89767 3.79753
# Velocity P-wave (km/s) = 6.27437 6.55877 6.41815
#
# Compressibility (1/GPa) = 0.02143183
#
# Stress axis : x y z
#
# Youngs Moduli (GPa) = 101.95858 88.73856 45.44111
#
# Poissons Ratio (x) = 0.07998 0.16709
# Poissons Ratio (y) = 0.09189 0.28389
# Poissons Ratio (z) = 0.37491 0.55440
#
# Static dielectric constant tensor:
#      x y z
#    x 3.998830 0.000000 0.000000 
#    y 0.000000 4.367660 0.000000 
#    z 0.000000 0.000000 3.942700 
# 
# 
# High freq. dielectric constant tensor:
#      x y z
#    x 1.865720 0.000000 0.000000 
#    y 0.000000 1.879370 0.000000 
#    z 0.000000 0.000000 1.852990 
# 
# From -- ./inp_files/5174.got.cif
#   From: 2010.03.12/outbox.cif.g09.slc.cpg/sg19_3_cif.got.tgz:5174.got - 2010.04.10 18:59:41.
