data_PCOD8157623
_publ_section_title
;
Structure prediction by ZEFSAII (Michael W. Deem and Ramdas Pophale) SiO2 
 PCOD8157623
Probable space group: P 21 21 21
;
_chemical_formula_sum "Si O2"
_cell_formula_units_Z 32
_cell_length_a 11.675733
_cell_length_b 9.136075
_cell_length_c 13.574917
_cell_angle_alpha 90.000000
_cell_angle_beta 90.000000
_cell_angle_gamma 90.000000
_cell_volume 1448.041451
_symmetry_space_group_name_H-M "P 21 21 21"
_symmetry_group_IT_number 19
_symmetry_cell_setting 'orthorhombic'
loop_
_space_group_symop_operation_xyz
x,y,z
1/2-x,-y,1/2+z
1/2+x,1/2-y,-z
-x,1/2+y,1/2-z
loop_
_atom_site_type_symbol
_atom_site_label
_atom_site_fract_x
_atom_site_fract_y
_atom_site_fract_z
Si Si1 0.237449 0.417969 0.977709
Si Si2 0.990308 0.246223 0.774687
Si Si3 0.228918 0.277512 0.182320
Si Si4 0.681817 0.411986 0.514616
Si Si5 0.842342 0.439994 0.343675
Si Si6 0.483329 0.470326 0.382844
Si Si7 0.896419 0.867865 0.120722
Si Si8 0.279700 0.857457 0.347517
O O1 0.134331 0.518810 0.940248
O O2 0.351697 0.509917 0.955869
O O3 0.260318 0.269902 0.918928
O O4 0.202860 0.381155 0.089392
O O5 0.019290 0.417537 0.789479
O O6 0.083112 0.150081 0.835388
O O7 0.865009 0.219102 0.815019
O O8 0.997040 0.194383 0.660569
O O9 0.178294 0.353927 0.279650
O O10 0.179410 0.114255 0.166601
O O11 0.785195 0.371719 0.441386
O O12 0.589847 0.510077 0.454013
O O13 0.608445 0.280151 0.558462
O O14 0.741785 0.489961 0.606106
O O15 0.785113 0.346867 0.256272
O O16 0.976341 0.408079 0.346117
#
# Coordination Sequence:
#
# PCOD8157623 Si02
#       8
#     4   4   4   4   4   4   4   4
#     4  11  27  44  72 111 145 190 245 307 365 447
#     4  11  22  44  74 104 141 194 246 309 356 445
#     4  12  25  49  73 108 150 198 245 302 383 436
#     4  12  26  49  73 108 144 200 245 309 371 446
#     4  12  27  50  76 106 152 204 243 307 379 450
#     4  11  24  44  72 104 144 189 245 305 365 433
#     4  12  31  45  76 113 152 192 256 311 371 447
#     4  11  24  45  76 106 144 193 251 300 378 446
#
# _framework density 22.098815999999999
#
# number of rings (size 3 to 8) (size 9 to 14) (size 15 to 20)
#    0.000    0.500    6.250    0.000    7.000    2.000 
#    0.000    0.000    0.000    0.000    0.000    0.000 
#    0.000    0.000    0.000    0.000    0.000    0.000 
#
# Total GULP energy -396737.587170 kJ/mol
# GULP energy per Si atom -12398.049599 kJ/mol
# Density = 2.204852 g / cm^3
# Si number density = 22.098816 Si / 1000 Ang^3
#
#
#
# Elastic Constant Matrix: (Units=GPa)
#
#
# Indices 1 2 3 4 5 6 
#
# 1 133.9572 33.0823 26.0281 0.0000 0.0000 0.0000
# 2 33.0823 63.0177 39.2497 0.0000 0.0000 0.0000
# 3 26.0281 39.2497 109.3283 0.0000 0.0000 0.0000
# 4 0.0000 0.0000 0.0000 32.3979 0.0000 0.0000
# 5 0.0000 0.0000 0.0000 0.0000 25.6884 0.0000
# 6 0.0000 0.0000 0.0000 0.0000 0.0000 33.1531
#
#
#
# Elastic Compliance Matrix: (Units=1/GPa)
#
#
# Indices 1 2 3 4 5 6 
#
# 1 0.008603 -0.004174 -0.000550 0.000000 0.000000 0.000000
# 2 -0.004174 0.022464 -0.007071 0.000000 0.000000 0.000000
# 3 -0.000550 -0.007071 0.011816 0.000000 0.000000 0.000000
# 4 0.000000 0.000000 0.000000 0.030866 0.000000 0.000000
# 5 0.000000 0.000000 0.000000 0.000000 0.038928 0.000000
# 6 0.000000 0.000000 0.000000 0.000000 0.000000 0.030163
#
#
# Mechanical properties :
#
#
# Convention : Reuss Voigt Hill
#
# Bulk Modulus (GPa) = 51.83035 55.89149 53.86092
# Shear Modulus (GPa) = 28.92518 32.11077 30.51798
#
# Velocity S-wave (km/s) = 3.62180 3.81603 3.72018
# Velocity P-wave (km/s) = 6.40271 6.69049 6.54818
#
# Compressibility (1/GPa) = 0.01929371
#
# Stress axis : x y z
#
# Youngs Moduli (GPa) = 116.24355 44.51623 84.62991
#
# Poissons Ratio (x) = 0.18580 0.04652
# Poissons Ratio (y) = 0.48517 0.59842
# Poissons Ratio (z) = 0.06389 0.31477
#
# Static dielectric constant tensor:
#      x y z
#    x 4.055720 0.000000 0.000000 
#    y 0.000000 4.135980 0.000000 
#    z 0.000000 0.000000 4.142590 
# 
# 
# High freq. dielectric constant tensor:
#      x y z
#    x 1.881900 0.000000 0.000000 
#    y 0.000000 1.863410 0.000000 
#    z 0.000000 0.000000 1.879250 
# 
# From -- ./inp_files/6122.got.cif
#   From: 2010.03.12/outbox.cif.g09.slc.cpg/sg19_4_cif.got.tgz:6122.got - 2010.04.10 18:59:41.
