data_PCOD8157700
_publ_section_title
;
Structure prediction by ZEFSAII (Michael W. Deem and Ramdas Pophale) SiO2 
 PCOD8157700
Probable space group: P 21 21 21
;
_chemical_formula_sum "Si O2"
_cell_formula_units_Z 20
_cell_length_a 11.020697
_cell_length_b 15.587279
_cell_length_c 4.978063
_cell_angle_alpha 90.000000
_cell_angle_beta 90.000000
_cell_angle_gamma 90.000000
_cell_volume 855.144998
_symmetry_space_group_name_H-M "P 21 21 21"
_symmetry_group_IT_number 19
_symmetry_cell_setting 'orthorhombic'
loop_
_space_group_symop_operation_xyz
x,y,z
1/2-x,-y,1/2+z
1/2+x,1/2-y,-z
-x,1/2+y,1/2-z
loop_
_atom_site_type_symbol
_atom_site_label
_atom_site_fract_x
_atom_site_fract_y
_atom_site_fract_z
Si Si1 0.242329 0.135492 0.806592
Si Si2 0.951428 0.331406 0.540342
Si Si3 0.682236 0.031122 0.961083
Si Si4 0.902026 0.786595 0.473528
Si Si5 0.923479 0.486251 0.869207
O O1 0.315277 0.186782 0.571589
O O2 0.178831 0.201648 0.009017
O O3 0.138756 0.076757 0.678604
O O4 0.336568 0.077145 0.966289
O O5 0.957960 0.434995 0.594316
O O6 0.983254 0.281959 0.818411
O O7 0.050272 0.299354 0.327005
O O8 0.680844 0.131275 0.046592
O O9 0.545253 0.994076 0.964948
O O10 0.767918 0.979044 0.161836
#
# Coordination Sequence:
#
# PCOD8157700 Si02
#       5
#     4   4   4   4   4
#     4  12  25  45  80 109 146 194 249 309 372 424
#     4  11  23  47  66 103 151 180 234 309 349 436
#     4  11  24  46  71  99 151 193 236 290 365 446
#     4  11  27  43  72 105 150 189 239 301 365 431
#     4  11  25  45  77 108 146 194 246 303 367 437
#
# _framework density 23.387848000000002
#
# number of rings (size 3 to 8) (size 9 to 14) (size 15 to 20)
#    0.000    0.800    6.000    2.400    2.800    3.200 
#    0.000    0.000    0.000    0.000    0.000    0.000 
#    0.000    0.000    0.000    0.000    0.000    0.000 
#
# Total GULP energy -247970.085942 kJ/mol
# GULP energy per Si atom -12398.504297 kJ/mol
# Density = 2.333462 g / cm^3
# Si number density = 23.387848 Si / 1000 Ang^3
#
#
#
# Elastic Constant Matrix: (Units=GPa)
#
#
# Indices 1 2 3 4 5 6 
#
# 1 108.0814 40.1229 6.1105 0.0000 0.0000 0.0000
# 2 40.1229 52.4513 -0.3835 0.0000 0.0000 0.0000
# 3 6.1105 -0.3835 77.0840 0.0000 0.0000 0.0000
# 4 0.0000 0.0000 0.0000 29.2788 0.0000 0.0000
# 5 0.0000 0.0000 0.0000 0.0000 38.8989 0.0000
# 6 0.0000 0.0000 0.0000 0.0000 0.0000 38.1203
#
#
#
# Elastic Compliance Matrix: (Units=1/GPa)
#
#
# Indices 1 2 3 4 5 6 
#
# 1 0.013011 -0.009961 -0.001081 0.000000 0.000000 0.000000
# 2 -0.009961 0.026692 0.000922 0.000000 0.000000 0.000000
# 3 -0.001081 0.000922 0.013063 0.000000 0.000000 0.000000
# 4 0.000000 0.000000 0.000000 0.034154 0.000000 0.000000
# 5 0.000000 0.000000 0.000000 0.000000 0.025708 0.000000
# 6 0.000000 0.000000 0.000000 0.000000 0.000000 0.026233
#
#
# Mechanical properties :
#
#
# Convention : Reuss Voigt Hill
#
# Bulk Modulus (GPa) = 30.74358 36.59071 33.66715
# Shear Modulus (GPa) = 29.42183 34.04406 31.73294
#
# Velocity S-wave (km/s) = 3.55067 3.81941 3.68749
# Velocity P-wave (km/s) = 5.47570 5.92703 5.70583
#
# Compressibility (1/GPa) = 0.03252712
#
# Stress axis : x y z
#
# Youngs Moduli (GPa) = 76.85720 37.46495 76.55133
#
# Poissons Ratio (x) = 0.37318 0.08275
# Poissons Ratio (y) = 0.76556 -0.07061
# Poissons Ratio (z) = 0.08308 -0.03456
#
# Static dielectric constant tensor:
#      x y z
#    x 4.440970 0.000000 0.000000 
#    y 0.000000 4.117720 0.000000 
#    z 0.000000 0.000000 4.295120 
# 
# 
# High freq. dielectric constant tensor:
#      x y z
#    x 1.934170 0.000000 0.000000 
#    y 0.000000 1.899560 0.000000 
#    z 0.000000 0.000000 1.936070 
# 
# From -- ./inp_files/396.got.cif
#   From: 2010.03.12/outbox.cif.g09.slc.cpg/sg19_1_cif.got.tgz:396.got - 2010.04.10 18:59:41.
