data_PCOD8157964
_publ_section_title
;
Structure prediction by ZEFSAII (Michael W. Deem and Ramdas Pophale) SiO2 
 PCOD8157964
Probable space group: C 2 2 21
;
_chemical_formula_sum "Si O2"
_cell_formula_units_Z 44
_cell_length_a 17.414287
_cell_length_b 5.010749
_cell_length_c 24.316029
_cell_angle_alpha 90.000000
_cell_angle_beta 90.000000
_cell_angle_gamma 90.000000
_cell_volume 2121.783163
_symmetry_space_group_name_H-M "C 2 2 21"
_symmetry_group_IT_number 20
_symmetry_cell_setting 'orthorhombic'
loop_
_space_group_symop_operation_xyz
x,y,z
-x,-y,1/2+z
x,-y,-z
-x,y,1/2-z
1/2+x,1/2+y,z
1/2-x,1/2-y,1/2+z
1/2+x,1/2-y,-z
1/2-x,1/2+y,1/2-z
loop_
_atom_site_type_symbol
_atom_site_label
_atom_site_fract_x
_atom_site_fract_y
_atom_site_fract_z
Si Si1 0.367090 0.726363 0.334226
Si Si2 0.324449 0.101799 0.555773
Si Si3 0.208216 0.500000 0.500000
Si Si4 0.583687 0.775425 0.772121
Si Si5 0.311740 0.787986 0.832741
Si Si6 0.190303 0.801951 0.598832
O O1 0.383168 0.774058 0.399725
O O2 0.393860 0.430223 0.320003
O O3 0.277335 0.777579 0.321995
O O4 0.416470 0.930352 0.297865
O O5 0.259207 0.318470 0.540774
O O6 0.367139 0.000000 0.500000
O O7 0.280734 0.850491 0.584301
O O8 0.155894 0.686643 0.540710
O O9 0.500000 0.708366 0.750000
O O10 0.644723 0.746950 0.723757
O O11 0.345775 0.578547 0.878338
O O12 0.321471 0.089493 0.852751
#
# Coordination Sequence:
#
# PCOD8157964 Si02
#       6
#     8   8   4   8   8   8
#     4  11  21  39  62  89 117 155 199 244 297 352
#     4   9  19  31  58  92 128 144 186 248 310 348
#     4  10  16  32  52  92 132 138 182 244 310 352
#     4  12  26  41  58  85 120 164 202 245 297 350
#     4  11  21  37  59  88 118 151 198 245 293 344
#     4  10  18  31  54  88 123 150 178 238 304 342
#
# _framework density 20.737276000000001
#
# number of rings (size 3 to 8) (size 9 to 14) (size 15 to 20)
#    0.000    1.455    3.636    4.909    2.545    0.000 
#    0.000    0.000    0.000    0.000   14.182    0.000 
#    0.000    0.000    0.000    0.000    0.000    0.000 
#
# Total GULP energy -272632.187878 kJ/mol
# GULP energy per Si atom -12392.372176 kJ/mol
# Density = 2.069008 g / cm^3
# Si number density = 20.737276 Si / 1000 Ang^3
#
#
#
# Elastic Constant Matrix: (Units=GPa)
#
#
# Indices 1 2 3 4 5 6 
#
# 1 43.3065 5.7420 19.9855 0.0000 0.0000 0.0000
# 2 5.7420 103.9459 24.9290 0.0000 0.0000 0.0000
# 3 19.9855 24.9290 104.3659 0.0000 0.0000 0.0000
# 4 0.0000 0.0000 0.0000 46.9946 0.0000 0.0000
# 5 0.0000 0.0000 0.0000 0.0000 2.9492 0.0000
# 6 0.0000 0.0000 0.0000 0.0000 0.0000 8.8119
#
#
#
# Elastic Compliance Matrix: (Units=1/GPa)
#
#
# Indices 1 2 3 4 5 6 
#
# 1 0.025336 -0.000250 -0.004792 0.000000 0.000000 0.000000
# 2 -0.000250 0.010207 -0.002390 0.000000 0.000000 0.000000
# 3 -0.004792 -0.002390 0.011070 0.000000 0.000000 0.000000
# 4 0.000000 0.000000 0.000000 0.021279 0.000000 0.000000
# 5 0.000000 0.000000 0.000000 0.000000 0.339070 0.000000
# 6 0.000000 0.000000 0.000000 0.000000 0.000000 0.113483
#
#
# Mechanical properties :
#
#
# Convention : Reuss Voigt Hill
#
# Bulk Modulus (GPa) = 31.49745 39.21460 35.35603
# Shear Modulus (GPa) = 9.15930 25.14860 17.15395
#
# Velocity S-wave (km/s) = 2.10391 3.48620 2.87924
# Velocity P-wave (km/s) = 4.59605 5.92925 5.30470
#
# Compressibility (1/GPa) = 0.03174860
#
# Stress axis : x y z
#
# Youngs Moduli (GPa) = 39.46979 97.96757 90.33237
#
# Poissons Ratio (x) = 0.02453 0.43286
# Poissons Ratio (y) = 0.00988 0.21592
# Poissons Ratio (z) = 0.18913 0.23416
#
# Static dielectric constant tensor:
#      x y z
#    x 3.009680 0.000000 0.000000 
#    y 0.000000 4.095700 0.000000 
#    z 0.000000 0.000000 4.202720 
# 
# 
# High freq. dielectric constant tensor:
#      x y z
#    x 1.712950 0.000000 0.000000 
#    y 0.000000 1.840750 0.000000 
#    z 0.000000 0.000000 1.839710 
# 
# From -- ./inp_files/29398.got.cif
#   From: 2010.03.12/outbox.cif.g09.slc.cpg/sg20_15_cif.got.tgz:29398.got - 2010.04.14 01:38:04.
