data_PCOD8157894
_publ_section_title
;
Structure prediction by ZEFSAII (Michael W. Deem and Ramdas Pophale) SiO2 
 PCOD8157894
Probable space group: P 21 21 21
;
_chemical_formula_sum "Si O2"
_cell_formula_units_Z 28
_cell_length_a 18.446530
_cell_length_b 5.747726
_cell_length_c 10.672967
_cell_angle_alpha 90.000000
_cell_angle_beta 90.000000
_cell_angle_gamma 90.000000
_cell_volume 1131.607731
_symmetry_space_group_name_H-M "P 21 21 21"
_symmetry_group_IT_number 19
_symmetry_cell_setting 'orthorhombic'
loop_
_space_group_symop_operation_xyz
x,y,z
1/2-x,-y,1/2+z
1/2+x,1/2-y,-z
-x,1/2+y,1/2-z
loop_
_atom_site_type_symbol
_atom_site_label
_atom_site_fract_x
_atom_site_fract_y
_atom_site_fract_z
Si Si1 0.921256 0.883975 0.987033
Si Si2 0.960265 0.159683 0.766307
Si Si3 0.257643 0.122714 0.789898
Si Si4 0.149388 0.465613 0.906647
Si Si5 0.520775 0.992838 0.941526
Si Si6 0.586630 0.816194 0.704648
Si Si7 0.762392 0.714993 0.982308
O O1 0.938129 0.123776 0.912505
O O2 0.842051 0.800974 0.950364
O O3 0.979819 0.677917 0.957870
O O4 0.927421 0.937716 0.135209
O O5 0.887040 0.164992 0.681704
O O6 0.999356 0.906197 0.738473
O O7 0.186118 0.272114 0.820461
O O8 0.329341 0.267201 0.819616
O O9 0.258100 0.057530 0.640588
O O10 0.258166 0.904647 0.882174
O O11 0.081258 0.353171 0.985287
O O12 0.206851 0.570202 0.005542
O O13 0.462206 0.121099 0.859190
O O14 0.568171 0.828692 0.849930
#
# Coordination Sequence:
#
# PCOD8157894 Si02
#       7
#     4   4   4   4   4   4   4
#     4  12  25  45  73 107 149 202 260 326 403 483
#     4  12  28  49  78 115 158 206 267 337 408 482
#     4  12  28  48  77 114 157 205 267 341 410 495
#     4  12  27  47  77 110 153 202 269 329 401 487
#     4  12  25  45  73 111 146 198 264 323 400 480
#     4  12  25  44  75 107 149 202 258 331 401 485
#     4  12  28  48  77 112 154 207 267 333 421 482
#
# _framework density 24.743558
#
# number of rings (size 3 to 8) (size 9 to 14) (size 15 to 20)
#    0.000    0.000    8.571    0.857    2.000    5.714 
#    0.000    0.000    0.000    0.000    0.000    0.000 
#    0.000    0.000    0.000    0.000    0.000    0.000 
#
# Total GULP energy -346997.533068 kJ/mol
# GULP energy per Si atom -12392.769038 kJ/mol
# Density = 2.468724 g / cm^3
# Si number density = 24.743558 Si / 1000 Ang^3
#
#
#
# Elastic Constant Matrix: (Units=GPa)
#
#
# Indices 1 2 3 4 5 6 
#
# 1 135.3621 22.5282 13.5113 0.0000 0.0000 0.0000
# 2 22.5282 68.4928 11.1731 0.0000 0.0000 0.0000
# 3 13.5113 11.1731 112.6993 0.0000 0.0000 0.0000
# 4 0.0000 0.0000 0.0000 48.0474 0.0000 0.0000
# 5 0.0000 0.0000 0.0000 0.0000 36.6681 0.0000
# 6 0.0000 0.0000 0.0000 0.0000 0.0000 30.8522
#
#
#
# Elastic Compliance Matrix: (Units=1/GPa)
#
#
# Indices 1 2 3 4 5 6 
#
# 1 0.007869 -0.002474 -0.000698 0.000000 0.000000 0.000000
# 2 -0.002474 0.015618 -0.001252 0.000000 0.000000 0.000000
# 3 -0.000698 -0.001252 0.009081 0.000000 0.000000 0.000000
# 4 0.000000 0.000000 0.000000 0.020813 0.000000 0.000000
# 5 0.000000 0.000000 0.000000 0.000000 0.027272 0.000000
# 6 0.000000 0.000000 0.000000 0.000000 0.000000 0.032413
#
#
# Mechanical properties :
#
#
# Convention : Reuss Voigt Hill
#
# Bulk Modulus (GPa) = 42.15898 45.66438 43.91168
# Shear Modulus (GPa) = 38.51480 41.06964 39.79222
#
# Velocity S-wave (km/s) = 3.94960 4.07850 4.01457
# Velocity P-wave (km/s) = 6.15423 6.37762 6.26692
#
# Compressibility (1/GPa) = 0.02371974
#
# Stress axis : x y z
#
# Youngs Moduli (GPa) = 127.07958 64.02815 110.12046
#
# Poissons Ratio (x) = 0.15843 0.07687
# Poissons Ratio (y) = 0.31444 0.13784
# Poissons Ratio (z) = 0.08871 0.08015
#
# Static dielectric constant tensor:
#      x y z
#    x 4.720870 0.000000 0.000000 
#    y 0.000000 3.915640 0.000000 
#    z 0.000000 0.000000 5.070450 
# 
# 
# High freq. dielectric constant tensor:
#      x y z
#    x 2.007970 0.000000 0.000000 
#    y 0.000000 1.947490 0.000000 
#    z 0.000000 0.000000 2.015350 
# 
# From -- ./inp_files/1060.got.cif
#   From: 2010.03.12/outbox.cif.g09.slc.cpg/sg19_1_cif.got.tgz:1060.got - 2010.04.10 18:59:41.
