data_PCOD8157156
_publ_section_title
;
Structure prediction by ZEFSAII (Michael W. Deem and Ramdas Pophale) SiO2 
 PCOD8157156
Probable space group: P 21 21 21
;
_chemical_formula_sum "Si O2"
_cell_formula_units_Z 28
_cell_length_a 14.545199
_cell_length_b 9.079683
_cell_length_c 7.139179
_cell_angle_alpha 90.000000
_cell_angle_beta 90.000000
_cell_angle_gamma 90.000000
_cell_volume 942.841358
_symmetry_space_group_name_H-M "P 21 21 21"
_symmetry_group_IT_number 19
_symmetry_cell_setting 'orthorhombic'
loop_
_space_group_symop_operation_xyz
x,y,z
1/2-x,-y,1/2+z
1/2+x,1/2-y,-z
-x,1/2+y,1/2-z
loop_
_atom_site_type_symbol
_atom_site_label
_atom_site_fract_x
_atom_site_fract_y
_atom_site_fract_z
Si Si1 0.552494 0.418634 0.875937
Si Si2 0.990969 0.904321 0.437884
Si Si3 0.292304 0.735378 0.176975
Si Si4 0.991744 0.842782 0.852594
Si Si5 0.313819 0.232785 0.278461
Si Si6 0.750505 0.455172 0.037991
Si Si7 0.209739 0.459058 0.046613
O O1 0.495949 0.266441 0.877021
O O2 0.564713 0.488377 0.666638
O O3 0.490201 0.534385 0.988048
O O4 0.651929 0.392549 0.966279
O O5 0.994825 0.929858 0.657941
O O6 0.891081 0.955210 0.364897
O O7 0.400411 0.756950 0.127767
O O8 0.244111 0.889865 0.246484
O O9 0.237627 0.634875 0.019082
O O10 0.281805 0.627740 0.354846
O O11 0.084586 0.743428 0.865676
O O12 0.277040 0.386426 0.201437
O O13 0.247573 0.136430 0.431622
O O14 0.326081 0.116915 0.100537
#
# Coordination Sequence:
#
# PCOD8157156 Si02
#       7
#     4   4   4   4   4   4   4
#     4  11  24  47  70 103 145 186 238 299 357 426
#     4  11  25  47  70 106 145 184 243 300 357 429
#     4  10  22  43  66  96 139 174 236 286 348 420
#     4  10  24  42  71 101 140 187 231 291 353 424
#     4  10  22  39  67  92 134 180 222 283 349 407
#     4  10  22  45  62  98 137 177 232 286 347 426
#     4  10  23  43  64  98 134 178 228 289 347 422
#
# _framework density 29.697469000000002
#
# number of rings (size 3 to 8) (size 9 to 14) (size 15 to 20)
#    0.000    1.714    4.286    0.000    6.000    3.429 
#    7.714    0.000    0.000    0.000    0.000    0.000 
#    0.000    0.000    0.000    0.000    0.000    0.000 
#
# Total GULP energy -347327.096471 kJ/mol
# GULP energy per Si atom -12404.539160 kJ/mol
# Density = 2.962988 g / cm^3
# Si number density = 29.697469 Si / 1000 Ang^3
#
#
#
# Elastic Constant Matrix: (Units=GPa)
#
#
# Indices 1 2 3 4 5 6 
#
# 1 117.8874 19.6964 -8.4981 0.0000 0.0000 0.0000
# 2 19.6964 177.4104 13.0420 0.0000 0.0000 0.0000
# 3 -8.4981 13.0420 99.2821 0.0000 0.0000 0.0000
# 4 0.0000 0.0000 0.0000 39.5470 0.0000 0.0000
# 5 0.0000 0.0000 0.0000 0.0000 38.0771 0.0000
# 6 0.0000 0.0000 0.0000 0.0000 0.0000 18.0857
#
#
#
# Elastic Compliance Matrix: (Units=1/GPa)
#
#
# Indices 1 2 3 4 5 6 
#
# 1 0.008719 -0.001033 0.000882 0.000000 0.000000 0.000000
# 2 -0.001033 0.005814 -0.000852 0.000000 0.000000 0.000000
# 3 0.000882 -0.000852 0.010260 0.000000 0.000000 0.000000
# 4 0.000000 0.000000 0.000000 0.025286 0.000000 0.000000
# 5 0.000000 0.000000 0.000000 0.000000 0.026262 0.000000
# 6 0.000000 0.000000 0.000000 0.000000 0.000000 0.055292
#
#
# Mechanical properties :
#
#
# Convention : Reuss Voigt Hill
#
# Bulk Modulus (GPa) = 43.88560 49.22895 46.55728
# Shear Modulus (GPa) = 35.40193 43.83126 39.61659
#
# Velocity S-wave (km/s) = 3.45640 3.84595 3.65637
# Velocity P-wave (km/s) = 5.54424 6.02781 5.79108
#
# Compressibility (1/GPa) = 0.02278652
#
# Stress axis : x y z
#
# Youngs Moduli (GPa) = 114.69457 171.99993 97.46837
#
# Poissons Ratio (x) = 0.17764 -0.08596
# Poissons Ratio (y) = 0.11846 0.08306
# Poissons Ratio (z) = -0.10116 0.14657
#
# Static dielectric constant tensor:
#      x y z
#    x 5.288660 0.000000 0.000000 
#    y 0.000000 5.627890 0.000000 
#    z 0.000000 0.000000 6.291170 
# 
# 
# High freq. dielectric constant tensor:
#      x y z
#    x 2.191650 0.000000 0.000000 
#    y 0.000000 2.238350 0.000000 
#    z 0.000000 0.000000 2.262090 
# 
# From -- ./inp_files/4167.got.cif
#   From: 2010.03.12/outbox.cif.g09.slc.cpg/sg19_3_cif.got.tgz:4167.got - 2010.04.10 18:59:41.
