data_PCOD8157113
_publ_section_title
;
Structure prediction by ZEFSAII (Michael W. Deem and Ramdas Pophale) SiO2 
 PCOD8157113
Probable space group: P 21 21 21
;
_chemical_formula_sum "Si O2"
_cell_formula_units_Z 28
_cell_length_a 9.831740
_cell_length_b 11.407581
_cell_length_c 11.111085
_cell_angle_alpha 90.000000
_cell_angle_beta 90.000000
_cell_angle_gamma 90.000000
_cell_volume 1246.178965
_symmetry_space_group_name_H-M "P 21 21 21"
_symmetry_group_IT_number 19
_symmetry_cell_setting 'orthorhombic'
loop_
_space_group_symop_operation_xyz
x,y,z
1/2-x,-y,1/2+z
1/2+x,1/2-y,-z
-x,1/2+y,1/2-z
loop_
_atom_site_type_symbol
_atom_site_label
_atom_site_fract_x
_atom_site_fract_y
_atom_site_fract_z
Si Si1 0.665107 0.480144 0.748829
Si Si2 0.605174 0.693718 0.305277
Si Si3 0.058402 0.335695 0.576354
Si Si4 0.299924 0.420459 0.060078
Si Si5 0.426766 0.332134 0.829325
Si Si6 0.005335 0.902543 0.446651
Si Si7 0.683141 0.707210 0.892305
O O1 0.776324 0.378868 0.738959
O O2 0.532953 0.437662 0.820777
O O3 0.621376 0.515817 0.613088
O O4 0.724901 0.590642 0.820294
O O5 0.485749 0.708730 0.208420
O O6 0.660537 0.820871 0.343240
O O7 0.547581 0.619403 0.416609
O O8 0.099156 0.471847 0.582006
O O9 0.185886 0.255334 0.535575
O O10 0.939766 0.316376 0.481604
O O11 0.143099 0.461555 0.068083
O O12 0.313518 0.368135 0.926090
O O13 0.507853 0.218206 0.873640
O O14 0.356608 0.309048 0.701816
#
# Coordination Sequence:
#
# PCOD8157113 Si02
#       7
#     4   4   4   4   4   4   4
#     4  11  23  43  73 101 143 185 241 298 362 420
#     4  11  27  45  73 107 144 190 246 300 360 439
#     4  12  28  47  72 108 150 187 242 304 366 442
#     4  11  23  48  74 100 145 196 248 293 370 444
#     4  10  21  44  69 101 138 188 243 295 356 430
#     4  10  23  41  72 102 138 192 241 295 357 434
#     4  11  27  46  71 109 144 188 239 305 367 427
#
# _framework density 22.468682000000001
#
# number of rings (size 3 to 8) (size 9 to 14) (size 15 to 20)
#    0.000    1.143    2.857    1.714    6.000    1.143 
#    2.571    0.000    0.000    0.000    0.000    0.000 
#    0.000    0.000    0.000    0.000    0.000    0.000 
#
# Total GULP energy -347343.483502 kJ/mol
# GULP energy per Si atom -12405.124411 kJ/mol
# Density = 2.241754 g / cm^3
# Si number density = 22.468682 Si / 1000 Ang^3
#
#
#
# Elastic Constant Matrix: (Units=GPa)
#
#
# Indices 1 2 3 4 5 6 
#
# 1 129.3324 56.1843 45.6847 0.0000 0.0000 0.0000
# 2 56.1843 114.2490 33.7984 0.0000 0.0000 0.0000
# 3 45.6847 33.7984 103.6233 0.0000 0.0000 0.0000
# 4 0.0000 0.0000 0.0000 27.1087 0.0000 0.0000
# 5 0.0000 0.0000 0.0000 0.0000 34.0922 0.0000
# 6 0.0000 0.0000 0.0000 0.0000 0.0000 40.1270
#
#
#
# Elastic Compliance Matrix: (Units=1/GPa)
#
#
# Indices 1 2 3 4 5 6 
#
# 1 0.010790 -0.004315 -0.003349 0.000000 0.000000 0.000000
# 2 -0.004315 0.011413 -0.001820 0.000000 0.000000 0.000000
# 3 -0.003349 -0.001820 0.011721 0.000000 0.000000 0.000000
# 4 0.000000 0.000000 0.000000 0.036889 0.000000 0.000000
# 5 0.000000 0.000000 0.000000 0.000000 0.029332 0.000000
# 6 0.000000 0.000000 0.000000 0.000000 0.000000 0.024921
#
#
# Mechanical properties :
#
#
# Convention : Reuss Voigt Hill
#
# Bulk Modulus (GPa) = 66.87112 68.72663 67.79887
# Shear Modulus (GPa) = 33.55258 34.36807 33.96032
#
# Velocity S-wave (km/s) = 3.86852 3.91525 3.89196
# Velocity P-wave (km/s) = 7.05553 7.14794 7.10189
#
# Compressibility (1/GPa) = 0.01495414
#
# Stress axis : x y z
#
# Youngs Moduli (GPa) = 92.68046 87.61652 85.31914
#
# Poissons Ratio (x) = 0.37808 0.28577
# Poissons Ratio (y) = 0.39994 0.15530
# Poissons Ratio (z) = 0.31043 0.15948
#
# Static dielectric constant tensor:
#      x y z
#    x 3.951720 0.000000 0.000000 
#    y 0.000000 4.024580 0.000000 
#    z 0.000000 0.000000 3.985530 
# 
# 
# High freq. dielectric constant tensor:
#      x y z
#    x 1.888770 0.000000 0.000000 
#    y 0.000000 1.892120 0.000000 
#    z 0.000000 0.000000 1.886660 
# 
# From -- ./inp_files/4604.got.cif
#   From: 2010.03.12/outbox.cif.g09.slc.cpg/sg19_3_cif.got.tgz:4604.got - 2010.04.10 18:59:41.
