data_PCOD8157702
_publ_section_title
;
Structure prediction by ZEFSAII (Michael W. Deem and Ramdas Pophale) SiO2 
 PCOD8157702
Probable space group: P 21 21 21
;
_chemical_formula_sum "Si O2"
_cell_formula_units_Z 24
_cell_length_a 14.171714
_cell_length_b 8.558660
_cell_length_c 9.009043
_cell_angle_alpha 90.000000
_cell_angle_beta 90.000000
_cell_angle_gamma 90.000000
_cell_volume 1092.714769
_symmetry_space_group_name_H-M "P 21 21 21"
_symmetry_group_IT_number 19
_symmetry_cell_setting 'orthorhombic'
loop_
_space_group_symop_operation_xyz
x,y,z
1/2-x,-y,1/2+z
1/2+x,1/2-y,-z
-x,1/2+y,1/2-z
loop_
_atom_site_type_symbol
_atom_site_label
_atom_site_fract_x
_atom_site_fract_y
_atom_site_fract_z
Si Si1 0.151492 0.422642 0.983302
Si Si2 0.963979 0.588534 0.958454
Si Si3 0.834564 0.045474 0.186081
Si Si4 0.482073 0.082861 0.554033
Si Si5 0.635406 0.403732 0.162749
Si Si6 0.156323 0.913065 0.310405
O O1 0.239432 0.503952 0.900122
O O2 0.147575 0.237321 0.954053
O O3 0.057925 0.496784 0.913116
O O4 0.157591 0.451055 0.159965
O O5 0.909543 0.657167 0.816231
O O6 0.894517 0.467291 0.039668
O O7 0.994982 0.733016 0.062323
O O8 0.833825 0.228895 0.210953
O O9 0.921233 0.008207 0.078837
O O10 0.406574 0.025883 0.675462
O O11 0.435758 0.035954 0.397526
O O12 0.737680 0.482954 0.193025
#
# Coordination Sequence:
#
# PCOD8157702 Si02
#       6
#     4   4   4   4   4   4
#     4  11  25  47  67 102 141 186 238 290 352 423
#     4  12  25  45  71 101 145 180 239 293 351 425
#     4  11  26  44  70  99 139 184 234 289 353 416
#     4  12  24  44  71 102 140 185 232 292 360 417
#     4  11  27  43  70 104 142 185 236 292 357 424
#     4  11  23  47  67 100 139 184 237 288 349 425
#
# _framework density 21.963645
#
# number of rings (size 3 to 8) (size 9 to 14) (size 15 to 20)
#    0.000    0.667    3.333    3.000    9.333    1.333 
#    3.000    0.000    0.000    0.000    0.000    0.000 
#    0.000    0.000    0.000    0.000    0.000    0.000 
#
# Total GULP energy -297691.219709 kJ/mol
# GULP energy per Si atom -12403.800821 kJ/mol
# Density = 2.191365 g / cm^3
# Si number density = 21.963645 Si / 1000 Ang^3
#
#
#
# Elastic Constant Matrix: (Units=GPa)
#
#
# Indices 1 2 3 4 5 6 
#
# 1 196.6857 23.2170 60.2640 0.0000 0.0000 0.0000
# 2 23.2170 43.7749 24.5767 0.0000 0.0000 0.0000
# 3 60.2640 24.5767 99.7904 0.0000 0.0000 0.0000
# 4 0.0000 0.0000 0.0000 35.3442 0.0000 0.0000
# 5 0.0000 0.0000 0.0000 0.0000 42.0210 0.0000
# 6 0.0000 0.0000 0.0000 0.0000 0.0000 29.0327
#
#
#
# Elastic Compliance Matrix: (Units=1/GPa)
#
#
# Indices 1 2 3 4 5 6 
#
# 1 0.006312 -0.001401 -0.003467 0.000000 0.000000 0.000000
# 2 -0.001401 0.026821 -0.005759 0.000000 0.000000 0.000000
# 3 -0.003467 -0.005759 0.013533 0.000000 0.000000 0.000000
# 4 0.000000 0.000000 0.000000 0.028293 0.000000 0.000000
# 5 0.000000 0.000000 0.000000 0.000000 0.023798 0.000000
# 6 0.000000 0.000000 0.000000 0.000000 0.000000 0.034444
#
#
# Mechanical properties :
#
#
# Convention : Reuss Voigt Hill
#
# Bulk Modulus (GPa) = 39.35280 61.81849 50.58564
# Shear Modulus (GPa) = 30.68895 36.75914 33.72405
#
# Velocity S-wave (km/s) = 3.74205 4.09545 3.92273
# Velocity P-wave (km/s) = 6.05200 7.11129 6.60293
#
# Compressibility (1/GPa) = 0.02541115
#
# Stress axis : x y z
#
# Youngs Moduli (GPa) = 158.43254 37.28447 73.89380
#
# Poissons Ratio (x) = 0.05225 0.25616
# Poissons Ratio (y) = 0.22202 0.42557
# Poissons Ratio (z) = 0.54923 0.21473
#
# Static dielectric constant tensor:
#      x y z
#    x 4.488590 0.000000 0.000000 
#    y 0.000000 3.721020 0.000000 
#    z 0.000000 0.000000 3.853050 
# 
# 
# High freq. dielectric constant tensor:
#      x y z
#    x 1.892330 0.000000 0.000000 
#    y 0.000000 1.851800 0.000000 
#    z 0.000000 0.000000 1.862010 
# 
# From -- ./inp_files/2692.got.cif
#   From: 2010.03.12/outbox.cif.g09.slc.cpg/sg19_2_cif.got.tgz:2692.got - 2010.04.10 18:59:41.
