data_PCOD8157355
_publ_section_title
;
Structure prediction by ZEFSAII (Michael W. Deem and Ramdas Pophale) SiO2 
 PCOD8157355
Probable space group: P 21 21 21
;
_chemical_formula_sum "Si O2"
_cell_formula_units_Z 28
_cell_length_a 12.345572
_cell_length_b 12.840028
_cell_length_c 7.659059
_cell_angle_alpha 90.000000
_cell_angle_beta 90.000000
_cell_angle_gamma 90.000000
_cell_volume 1214.094810
_symmetry_space_group_name_H-M "P 21 21 21"
_symmetry_group_IT_number 19
_symmetry_cell_setting 'orthorhombic'
loop_
_space_group_symop_operation_xyz
x,y,z
1/2-x,-y,1/2+z
1/2+x,1/2-y,-z
-x,1/2+y,1/2-z
loop_
_atom_site_type_symbol
_atom_site_label
_atom_site_fract_x
_atom_site_fract_y
_atom_site_fract_z
Si Si1 0.624077 0.280321 0.800770
Si Si2 0.375557 0.235363 0.194331
Si Si3 0.967932 0.943104 0.662370
Si Si4 0.140704 0.437163 0.278596
Si Si5 0.520792 0.912424 0.489726
Si Si6 0.948036 0.153126 0.464339
Si Si7 0.228638 0.391151 0.645792
O O1 0.751399 0.292067 0.767378
O O2 0.592394 0.158008 0.837650
O O3 0.558943 0.318111 0.629856
O O4 0.589293 0.349105 0.967286
O O5 0.431736 0.131448 0.118671
O O6 0.385089 0.328550 0.053822
O O7 0.439620 0.274224 0.366309
O O8 0.863071 0.869157 0.707661
O O9 0.001499 0.007987 0.834770
O O10 0.945091 0.027099 0.507686
O O11 0.054068 0.525504 0.333672
O O12 0.183617 0.378046 0.451402
O O13 0.243316 0.486244 0.178536
O O14 0.840806 0.175017 0.342798
#
# Coordination Sequence:
#
# PCOD8157355 Si02
#       7
#     4   4   4   4   4   4   4
#     4  12  24  41  67  95 133 167 218 266 328 393
#     4  11  25  44  64  97 130 171 215 265 331 389
#     4  10  23  42  64  90 134 168 218 273 318 381
#     4  11  21  39  63  95 126 166 217 271 308 380
#     4  10  24  41  62  94 129 169 217 268 317 385
#     4  11  22  41  63  98 126 172 211 266 325 383
#     4  11  19  38  67  91 124 165 216 273 315 367
#
# _framework density 23.062449999999998
#
# number of rings (size 3 to 8) (size 9 to 14) (size 15 to 20)
#    0.000    1.143    4.286    3.429    2.000    2.286 
#    0.000    0.000    0.000    0.000    0.000    0.000 
#    0.000    0.000    0.000    0.000    0.000    0.000 
#
# Total GULP energy -347040.835354 kJ/mol
# GULP energy per Si atom -12394.315548 kJ/mol
# Density = 2.300996 g / cm^3
# Si number density = 23.062450 Si / 1000 Ang^3
#
#
#
# Elastic Constant Matrix: (Units=GPa)
#
#
# Indices 1 2 3 4 5 6 
#
# 1 141.9819 51.4756 23.7894 0.0000 0.0000 0.0000
# 2 51.4756 91.0492 2.3886 0.0000 0.0000 0.0000
# 3 23.7894 2.3886 40.5101 0.0000 0.0000 0.0000
# 4 0.0000 0.0000 0.0000 20.3706 0.0000 0.0000
# 5 0.0000 0.0000 0.0000 0.0000 30.4202 0.0000
# 6 0.0000 0.0000 0.0000 0.0000 0.0000 43.6375
#
#
#
# Elastic Compliance Matrix: (Units=1/GPa)
#
#
# Indices 1 2 3 4 5 6 
#
# 1 0.009957 -0.005484 -0.005524 0.000000 0.000000 0.000000
# 2 -0.005484 0.014021 0.002394 0.000000 0.000000 0.000000
# 3 -0.005524 0.002394 0.027788 0.000000 0.000000 0.000000
# 4 0.000000 0.000000 0.000000 0.049090 0.000000 0.000000
# 5 0.000000 0.000000 0.000000 0.000000 0.032873 0.000000
# 6 0.000000 0.000000 0.000000 0.000000 0.000000 0.022916
#
#
# Mechanical properties :
#
#
# Convention : Reuss Voigt Hill
#
# Bulk Modulus (GPa) = 28.95415 47.64980 38.30198
# Shear Modulus (GPa) = 26.97069 31.94482 29.45776
#
# Velocity S-wave (km/s) = 3.42345 3.72579 3.57782
# Velocity P-wave (km/s) = 5.31118 6.26217 5.80618
#
# Compressibility (1/GPa) = 0.03453736
#
# Stress axis : x y z
#
# Youngs Moduli (GPa) = 100.43118 71.32194 35.98682
#
# Poissons Ratio (x) = 0.39116 0.19879
# Poissons Ratio (y) = 0.55081 -0.08615
# Poissons Ratio (z) = 0.55477 -0.17074
#
# Static dielectric constant tensor:
#      x y z
#    x 3.979110 0.000000 0.000000 
#    y 0.000000 4.213370 0.000000 
#    z 0.000000 0.000000 4.336300 
# 
# 
# High freq. dielectric constant tensor:
#      x y z
#    x 1.895350 0.000000 0.000000 
#    y 0.000000 1.902750 0.000000 
#    z 0.000000 0.000000 1.925950 
# 
# From -- ./inp_files/3431.got.cif
#   From: 2010.03.12/outbox.cif.g09.slc.cpg/sg19_2_cif.got.tgz:3431.got - 2010.04.10 18:59:41.
