data_PCOD8157837
_publ_section_title
;
Structure prediction by ZEFSAII (Michael W. Deem and Ramdas Pophale) SiO2 
 PCOD8157837
Probable space group: P 21 21 21
;
_chemical_formula_sum "Si O2"
_cell_formula_units_Z 20
_cell_length_a 7.816224
_cell_length_b 9.564932
_cell_length_c 10.053129
_cell_angle_alpha 90.000000
_cell_angle_beta 90.000000
_cell_angle_gamma 90.000000
_cell_volume 751.588522
_symmetry_space_group_name_H-M "P 21 21 21"
_symmetry_group_IT_number 19
_symmetry_cell_setting 'orthorhombic'
loop_
_space_group_symop_operation_xyz
x,y,z
1/2-x,-y,1/2+z
1/2+x,1/2-y,-z
-x,1/2+y,1/2-z
loop_
_atom_site_type_symbol
_atom_site_label
_atom_site_fract_x
_atom_site_fract_y
_atom_site_fract_z
Si Si1 0.342921 0.786667 0.955880
Si Si2 0.521167 0.056479 0.055690
Si Si3 0.115007 0.993434 0.827571
Si Si4 0.612217 0.840622 0.525047
Si Si5 0.359497 0.217290 0.703230
O O1 0.177613 0.839101 0.872369
O O2 0.460834 0.677394 0.873004
O O3 0.276314 0.720419 0.094510
O O4 0.459568 0.922245 0.977136
O O5 0.528330 0.025778 0.213844
O O6 0.389855 0.183774 0.033582
O O7 0.704475 0.092878 0.994142
O O8 0.276523 0.079963 0.768601
O O9 0.038270 0.071132 0.956379
O O10 0.592936 0.832321 0.685585
#
# Coordination Sequence:
#
# PCOD8157837 Si02
#       5
#     4   4   4   4   4
#     4  11  27  48  73 109 152 203 259 318 378 457
#     4  11  26  45  75 107 149 207 246 326 381 457
#     4  11  27  49  76 111 156 197 262 316 388 461
#     4  12  25  48  76 111 150 199 261 315 390 458
#     4  11  27  48  74 110 151 204 254 319 379 459
#
# _framework density 26.610305
#
# number of rings (size 3 to 8) (size 9 to 14) (size 15 to 20)
#    0.000    0.800    4.000    0.000   14.000    0.000 
#    0.000    0.000    0.000    0.000    0.000    0.000 
#    0.000    0.000    0.000    0.000    0.000    0.000 
#
# Total GULP energy -247964.122609 kJ/mol
# GULP energy per Si atom -12398.206130 kJ/mol
# Density = 2.654974 g / cm^3
# Si number density = 26.610305 Si / 1000 Ang^3
#
#
#
# Elastic Constant Matrix: (Units=GPa)
#
#
# Indices 1 2 3 4 5 6 
#
# 1 115.4259 40.4385 71.6916 0.0000 0.0000 0.0000
# 2 40.4385 64.1421 37.1684 0.0000 0.0000 0.0000
# 3 71.6916 37.1684 155.1228 0.0000 0.0000 0.0000
# 4 0.0000 0.0000 0.0000 32.8313 0.0000 0.0000
# 5 0.0000 0.0000 0.0000 0.0000 51.7472 0.0000
# 6 0.0000 0.0000 0.0000 0.0000 0.0000 45.5846
#
#
#
# Elastic Compliance Matrix: (Units=1/GPa)
#
#
# Indices 1 2 3 4 5 6 
#
# 1 0.013794 -0.005809 -0.004983 0.000000 0.000000 0.000000
# 2 -0.005809 0.020550 -0.002239 0.000000 0.000000 0.000000
# 3 -0.004983 -0.002239 0.009286 0.000000 0.000000 0.000000
# 4 0.000000 0.000000 0.000000 0.030459 0.000000 0.000000
# 5 0.000000 0.000000 0.000000 0.000000 0.019325 0.000000
# 6 0.000000 0.000000 0.000000 0.000000 0.000000 0.021937
#
#
# Mechanical properties :
#
#
# Convention : Reuss Voigt Hill
#
# Bulk Modulus (GPa) = 56.92324 70.36530 63.64427
# Shear Modulus (GPa) = 33.95158 38.39210 36.17184
#
# Velocity S-wave (km/s) = 3.57582 3.80248 3.69089
# Velocity P-wave (km/s) = 6.20375 6.76600 6.49097
#
# Compressibility (1/GPa) = 0.01756752
#
# Stress axis : x y z
#
# Youngs Moduli (GPa) = 72.49752 48.66151 107.68839
#
# Poissons Ratio (x) = 0.28266 0.53662
# Poissons Ratio (y) = 0.42111 0.24116
# Poissons Ratio (z) = 0.36126 0.10897
#
# Static dielectric constant tensor:
#      x y z
#    x 4.879820 0.000000 0.000000 
#    y 0.000000 4.637140 0.000000 
#    z 0.000000 0.000000 5.178800 
# 
# 
# High freq. dielectric constant tensor:
#      x y z
#    x 2.072520 0.000000 0.000000 
#    y 0.000000 2.046090 0.000000 
#    z 0.000000 0.000000 2.084840 
# 
# From -- ./inp_files/2612.got.cif
#   From: 2010.03.12/outbox.cif.g09.slc.cpg/sg19_2_cif.got.tgz:2612.got - 2010.04.10 18:59:41.
