data_PCOD8157184
_publ_section_title
;
Structure prediction by ZEFSAII (Michael W. Deem and Ramdas Pophale) SiO2 
 PCOD8157184
Probable space group: P 21 21 21
;
_chemical_formula_sum "Si O2"
_cell_formula_units_Z 32
_cell_length_a 7.434414
_cell_length_b 11.309564
_cell_length_c 17.912312
_cell_angle_alpha 90.000000
_cell_angle_beta 90.000000
_cell_angle_gamma 90.000000
_cell_volume 1506.066851
_symmetry_space_group_name_H-M "P 21 21 21"
_symmetry_group_IT_number 19
_symmetry_cell_setting 'orthorhombic'
loop_
_space_group_symop_operation_xyz
x,y,z
1/2-x,-y,1/2+z
1/2+x,1/2-y,-z
-x,1/2+y,1/2-z
loop_
_atom_site_type_symbol
_atom_site_label
_atom_site_fract_x
_atom_site_fract_y
_atom_site_fract_z
Si Si1 0.343093 0.876103 0.497818
Si Si2 0.257971 0.909557 0.664138
Si Si3 0.260812 0.373661 0.956267
Si Si4 0.908244 0.645194 0.878367
Si Si5 0.909994 0.192244 0.342863
Si Si6 0.472490 0.965328 0.973280
Si Si7 0.350259 0.457493 0.793117
Si Si8 0.728068 0.788105 0.217402
O O1 0.291121 0.852362 0.583672
O O2 0.281240 0.765040 0.448290
O O3 0.557005 0.899616 0.496739
O O4 0.233731 0.988235 0.464677
O O5 0.435078 0.970479 0.698319
O O6 0.191401 0.799743 0.713874
O O7 0.110880 0.013981 0.658187
O O8 0.096279 0.425963 0.002320
O O9 0.263628 0.427832 0.873182
O O10 0.718446 0.711760 0.880399
O O11 0.975641 0.636093 0.963596
O O12 0.051920 0.721419 0.833354
O O13 0.946475 0.081944 0.396760
O O14 0.817544 0.147476 0.266246
O O15 0.101391 0.252222 0.331143
O O16 0.264084 0.576330 0.758297
#
# Coordination Sequence:
#
# PCOD8157184 Si02
#       8
#     4   4   4   4   4   4   4   4
#     4  10  22  40  67  95 128 170 213 272 320 379
#     4   9  22  43  64  93 128 164 215 262 319 391
#     4  11  21  41  66  99 132 170 212 270 331 379
#     4  11  24  43  66  92 130 171 212 276 323 378
#     4  11  27  43  64  98 129 172 223 261 323 399
#     4  11  25  41  65  95 131 170 224 262 330 385
#     4  10  22  43  67  90 134 169 208 267 329 379
#     4  11  23  42  67  92 130 172 211 262 331 382
#
# _framework density 21.247396999999999
#
# number of rings (size 3 to 8) (size 9 to 14) (size 15 to 20)
#    0.000    1.500    3.750    0.000    5.250    2.000 
#    0.000    0.000    0.000    0.000    0.000    0.000 
#    0.000    0.000    0.000    0.000    0.000    0.000 
#
# Total GULP energy -396847.997346 kJ/mol
# GULP energy per Si atom -12401.499917 kJ/mol
# Density = 2.119904 g / cm^3
# Si number density = 21.247397 Si / 1000 Ang^3
#
#
#
# Elastic Constant Matrix: (Units=GPa)
#
#
# Indices 1 2 3 4 5 6 
#
# 1 83.7853 21.1089 16.1096 0.0000 0.0000 0.0000
# 2 21.1089 75.5965 22.4682 0.0000 0.0000 0.0000
# 3 16.1096 22.4682 47.1961 0.0000 0.0000 0.0000
# 4 0.0000 0.0000 0.0000 28.8345 0.0000 0.0000
# 5 0.0000 0.0000 0.0000 0.0000 22.5768 0.0000
# 6 0.0000 0.0000 0.0000 0.0000 0.0000 27.1463
#
#
#
# Elastic Compliance Matrix: (Units=1/GPa)
#
#
# Indices 1 2 3 4 5 6 
#
# 1 0.013244 -0.002743 -0.003215 0.000000 0.000000 0.000000
# 2 -0.002743 0.015976 -0.006669 0.000000 0.000000 0.000000
# 3 -0.003215 -0.006669 0.025461 0.000000 0.000000 0.000000
# 4 0.000000 0.000000 0.000000 0.034681 0.000000 0.000000
# 5 0.000000 0.000000 0.000000 0.000000 0.044293 0.000000
# 6 0.000000 0.000000 0.000000 0.000000 0.000000 0.036837
#
#
# Mechanical properties :
#
#
# Convention : Reuss Voigt Hill
#
# Bulk Modulus (GPa) = 33.98259 36.21681 35.09970
# Shear Modulus (GPa) = 24.32426 25.50427 24.91427
#
# Velocity S-wave (km/s) = 3.38718 3.46836 3.42801
# Velocity P-wave (km/s) = 5.59694 5.75514 5.67659
#
# Compressibility (1/GPa) = 0.02942683
#
# Stress axis : x y z
#
# Youngs Moduli (GPa) = 75.50346 62.59312 39.27629
#
# Poissons Ratio (x) = 0.17167 0.12628
# Poissons Ratio (y) = 0.20708 0.26195
# Poissons Ratio (z) = 0.24275 0.41746
#
# Static dielectric constant tensor:
#      x y z
#    x 3.987640 0.000000 0.000000 
#    y 0.000000 3.779090 0.000000 
#    z 0.000000 0.000000 3.713400 
# 
# 
# High freq. dielectric constant tensor:
#      x y z
#    x 1.846320 0.000000 0.000000 
#    y 0.000000 1.830270 0.000000 
#    z 0.000000 0.000000 1.817750 
# 
# From -- ./inp_files/6659.got.cif
#   From: 2010.03.12/outbox.cif.g09.slc.cpg/sg19_4_cif.got.tgz:6659.got - 2010.04.10 18:59:41.
