data_PCOD8157100
_publ_section_title
;
Structure prediction by ZEFSAII (Michael W. Deem and Ramdas Pophale) SiO2 
 PCOD8157100
Probable space group: P 21 21 21
;
_chemical_formula_sum "Si O2"
_cell_formula_units_Z 24
_cell_length_a 17.787884
_cell_length_b 10.099659
_cell_length_c 6.808057
_cell_angle_alpha 90.000000
_cell_angle_beta 90.000000
_cell_angle_gamma 90.000000
_cell_volume 1223.078079
_symmetry_space_group_name_H-M "P 21 21 21"
_symmetry_group_IT_number 19
_symmetry_cell_setting 'orthorhombic'
loop_
_space_group_symop_operation_xyz
x,y,z
1/2-x,-y,1/2+z
1/2+x,1/2-y,-z
-x,1/2+y,1/2-z
loop_
_atom_site_type_symbol
_atom_site_label
_atom_site_fract_x
_atom_site_fract_y
_atom_site_fract_z
Si Si1 0.970031 0.909758 0.427011
Si Si2 0.712804 0.689558 0.837816
Si Si3 0.449994 0.305551 0.666378
Si Si4 0.155411 0.238594 0.924958
Si Si5 0.558845 0.390650 0.386488
Si Si6 0.693818 0.402626 0.680301
O O1 0.888523 0.871176 0.513684
O O2 0.008682 0.784410 0.326134
O O3 0.958585 0.036539 0.279460
O O4 0.024554 0.959795 0.605791
O O5 0.734873 0.653421 0.060670
O O6 0.637286 0.772979 0.847914
O O7 0.778562 0.774488 0.729545
O O8 0.703261 0.558544 0.708207
O O9 0.491788 0.288526 0.453299
O O10 0.093860 0.139917 0.824816
O O11 0.191354 0.169044 0.111941
O O12 0.619595 0.374063 0.558659
#
# Coordination Sequence:
#
# PCOD8157100 Si02
#       6
#     4   4   4   4   4   4
#     4  10  21  43  67  98 126 179 215 281 325 388
#     4  11  22  38  62  97 129 172 216 269 325 393
#     4  10  21  44  67  94 131 166 231 264 335 386
#     4  11  22  41  62  94 133 168 220 266 325 397
#     4   9  22  40  66  92 122 169 220 267 323 384
#     4  11  20  38  64  91 129 170 214 271 321 388
#
# _framework density 19.622622
#
# number of rings (size 3 to 8) (size 9 to 14) (size 15 to 20)
#    1.000    0.667    5.000    0.000    0.000    1.333 
#    6.000    0.000    0.000    0.000    0.000    0.000 
#    0.000    0.000    0.000    0.000    0.000    0.000 
#
# Total GULP energy -297325.349973 kJ/mol
# GULP energy per Si atom -12388.556249 kJ/mol
# Density = 1.957796 g / cm^3
# Si number density = 19.622622 Si / 1000 Ang^3
#
#
#
# Elastic Constant Matrix: (Units=GPa)
#
#
# Indices 1 2 3 4 5 6 
#
# 1 130.4196 56.2476 37.1994 0.0000 0.0000 0.0000
# 2 56.2476 95.1272 50.3108 0.0000 0.0000 0.0000
# 3 37.1994 50.3108 79.7357 0.0000 0.0000 0.0000
# 4 0.0000 0.0000 0.0000 25.9297 0.0000 0.0000
# 5 0.0000 0.0000 0.0000 0.0000 32.1979 0.0000
# 6 0.0000 0.0000 0.0000 0.0000 0.0000 35.2133
#
#
#
# Elastic Compliance Matrix: (Units=1/GPa)
#
#
# Indices 1 2 3 4 5 6 
#
# 1 0.010404 -0.005380 -0.001459 0.000000 0.000000 0.000000
# 2 -0.005380 0.018559 -0.009200 0.000000 0.000000 0.000000
# 3 -0.001459 -0.009200 0.019027 0.000000 0.000000 0.000000
# 4 0.000000 0.000000 0.000000 0.038566 0.000000 0.000000
# 5 0.000000 0.000000 0.000000 0.000000 0.031058 0.000000
# 6 0.000000 0.000000 0.000000 0.000000 0.000000 0.028398
#
#
# Mechanical properties :
#
#
# Convention : Reuss Voigt Hill
#
# Bulk Modulus (GPa) = 62.84778 65.86646 64.35712
# Shear Modulus (GPa) = 27.26341 29.43648 28.34995
#
# Velocity S-wave (km/s) = 3.73149 3.87735 3.80512
# Velocity P-wave (km/s) = 7.11780 7.32698 7.22315
#
# Compressibility (1/GPa) = 0.01591146
#
# Stress axis : x y z
#
# Youngs Moduli (GPa) = 96.11603 53.88140 52.55591
#
# Poissons Ratio (x) = 0.28989 0.07669
# Poissons Ratio (y) = 0.51711 0.48353
# Poissons Ratio (z) = 0.14025 0.49573
#
# Static dielectric constant tensor:
#      x y z
#    x 3.831340 0.000000 0.000000 
#    y 0.000000 3.393780 0.000000 
#    z 0.000000 0.000000 3.475610 
# 
# 
# High freq. dielectric constant tensor:
#      x y z
#    x 1.782000 0.000000 0.000000 
#    y 0.000000 1.741800 0.000000 
#    z 0.000000 0.000000 1.749320 
# 
# From -- ./inp_files/1715.got.cif
#   From: 2010.03.12/outbox.cif.g09.slc.cpg/sg19_1_cif.got.tgz:1715.got - 2010.04.10 18:59:41.
