data_PCOD8157897
_publ_section_title
;
Structure prediction by ZEFSAII (Michael W. Deem and Ramdas Pophale) SiO2 
 PCOD8157897
Probable space group: P 21 21 21
;
_chemical_formula_sum "Si O2"
_cell_formula_units_Z 28
_cell_length_a 5.895076
_cell_length_b 16.831677
_cell_length_c 11.971235
_cell_angle_alpha 90.000000
_cell_angle_beta 90.000000
_cell_angle_gamma 90.000000
_cell_volume 1187.834003
_symmetry_space_group_name_H-M "P 21 21 21"
_symmetry_group_IT_number 19
_symmetry_cell_setting 'orthorhombic'
loop_
_space_group_symop_operation_xyz
x,y,z
1/2-x,-y,1/2+z
1/2+x,1/2-y,-z
-x,1/2+y,1/2-z
loop_
_atom_site_type_symbol
_atom_site_label
_atom_site_fract_x
_atom_site_fract_y
_atom_site_fract_z
Si Si1 0.429810 0.322077 0.100906
Si Si2 0.261384 0.892340 0.222680
Si Si3 0.101585 0.462808 0.125846
Si Si4 0.109562 0.186266 0.135080
Si Si5 0.328037 0.755235 0.057234
Si Si6 0.257792 0.626679 0.221152
Si Si7 0.576970 0.546351 0.386520
O O1 0.649134 0.339818 0.174689
O O2 0.293702 0.253011 0.165078
O O3 0.300068 0.404670 0.088752
O O4 0.490861 0.286887 0.979997
O O5 0.020503 0.925885 0.264964
O O6 0.249032 0.837244 0.114565
O O7 0.417025 0.967597 0.189746
O O8 0.191061 0.549256 0.153010
O O9 0.945249 0.473730 0.016946
O O10 0.192509 0.095888 0.121359
O O11 0.948131 0.183660 0.241921
O O12 0.400357 0.682960 0.139080
O O13 0.580351 0.769362 0.000158
O O14 0.383457 0.603007 0.335745
#
# Coordination Sequence:
#
# PCOD8157897 Si02
#       7
#     4   4   4   4   4   4   4
#     4  12  26  44  72 110 150 191 249 313 388 461
#     4  12  27  48  77 109 155 201 256 318 392 468
#     4  12  25  46  75 110 149 199 253 318 387 461
#     4  12  26  44  72 110 150 191 249 313 388 461
#     4  12  32  54  78 114 162 212 266 322 390 476
#     4  12  27  48  77 109 155 201 256 318 392 468
#     4  12  25  46  75 110 149 199 253 318 387 461
#
# _framework density 23.572317999999999
#
# number of rings (size 3 to 8) (size 9 to 14) (size 15 to 20)
#    0.000    0.000    5.714    3.429    8.000    3.429 
#    0.000    0.000    0.000    0.000    0.000    0.000 
#    0.000    0.000    0.000    0.000    0.000    0.000 
#
# Total GULP energy -347031.826833 kJ/mol
# GULP energy per Si atom -12393.993815 kJ/mol
# Density = 2.351867 g / cm^3
# Si number density = 23.572318 Si / 1000 Ang^3
#
#
#
# Elastic Constant Matrix: (Units=GPa)
#
#
# Indices 1 2 3 4 5 6 
#
# 1 70.6937 13.9833 9.5031 0.0000 0.0000 0.0000
# 2 13.9833 116.0143 25.8701 0.0000 0.0000 0.0000
# 3 9.5031 25.8701 75.5762 0.0000 0.0000 0.0000
# 4 0.0000 0.0000 0.0000 45.1505 0.0000 0.0000
# 5 0.0000 0.0000 0.0000 0.0000 33.8349 0.0000
# 6 0.0000 0.0000 0.0000 0.0000 0.0000 43.4490
#
#
#
# Elastic Compliance Matrix: (Units=1/GPa)
#
#
# Indices 1 2 3 4 5 6 
#
# 1 0.014615 -0.001463 -0.001337 0.000000 0.000000 0.000000
# 2 -0.001463 0.009478 -0.003061 0.000000 0.000000 0.000000
# 3 -0.001337 -0.003061 0.014447 0.000000 0.000000 0.000000
# 4 0.000000 0.000000 0.000000 0.022148 0.000000 0.000000
# 5 0.000000 0.000000 0.000000 0.000000 0.029555 0.000000
# 6 0.000000 0.000000 0.000000 0.000000 0.000000 0.023016
#
#
# Mechanical properties :
#
#
# Convention : Reuss Voigt Hill
#
# Bulk Modulus (GPa) = 37.28675 40.11081 38.69878
# Shear Modulus (GPa) = 37.33555 38.68205 38.00880
#
# Velocity S-wave (km/s) = 3.98411 4.05531 4.01987
# Velocity P-wave (km/s) = 6.08412 6.24343 6.16429
#
# Compressibility (1/GPa) = 0.02681918
#
# Stress axis : x y z
#
# Youngs Moduli (GPa) = 68.42432 105.50209 69.21659
#
# Poissons Ratio (x) = 0.15440 0.09252
# Poissons Ratio (y) = 0.10013 0.21184
# Poissons Ratio (z) = 0.09147 0.32289
#
# Static dielectric constant tensor:
#      x y z
#    x 4.356210 0.000000 0.000000 
#    y 0.000000 4.350610 0.000000 
#    z 0.000000 0.000000 4.317790 
# 
# 
# High freq. dielectric constant tensor:
#      x y z
#    x 1.928010 0.000000 0.000000 
#    y 0.000000 1.955270 0.000000 
#    z 0.000000 0.000000 1.936590 
# 
# From -- ./inp_files/4500.got.cif
#   From: 2010.03.12/outbox.cif.g09.slc.cpg/sg19_3_cif.got.tgz:4500.got - 2010.04.10 18:59:41.
