data_PCOD8157149
_publ_section_title
;
Structure prediction by ZEFSAII (Michael W. Deem and Ramdas Pophale) SiO2 
 PCOD8157149
Probable space group: P 21 21 21
;
_chemical_formula_sum "Si O2"
_cell_formula_units_Z 28
_cell_length_a 14.879336
_cell_length_b 5.084599
_cell_length_c 18.684847
_cell_angle_alpha 90.000000
_cell_angle_beta 90.000000
_cell_angle_gamma 90.000000
_cell_volume 1413.610638
_symmetry_space_group_name_H-M "P 21 21 21"
_symmetry_group_IT_number 19
_symmetry_cell_setting 'orthorhombic'
loop_
_space_group_symop_operation_xyz
x,y,z
1/2-x,-y,1/2+z
1/2+x,1/2-y,-z
-x,1/2+y,1/2-z
loop_
_atom_site_type_symbol
_atom_site_label
_atom_site_fract_x
_atom_site_fract_y
_atom_site_fract_z
Si Si1 0.298597 0.779561 0.522452
Si Si2 0.153136 0.712060 0.094117
Si Si3 0.183991 0.572620 0.637421
Si Si4 0.694269 0.377447 0.141397
Si Si5 0.947677 0.075837 0.267258
Si Si6 0.237191 0.368451 0.283937
Si Si7 0.496656 0.961045 0.299857
O O1 0.356566 0.513779 0.533210
O O2 0.204144 0.753861 0.567227
O O3 0.359044 0.009745 0.556376
O O4 0.278457 0.828296 0.440244
O O5 0.253016 0.689012 0.130400
O O6 0.076992 0.670975 0.153278
O O7 0.219113 0.721028 0.708731
O O8 0.079638 0.498652 0.645066
O O9 0.705066 0.108636 0.184890
O O10 0.591432 0.468699 0.150688
O O11 0.760095 0.610221 0.166709
O O12 0.865012 0.959560 0.222470
O O13 0.982222 0.335372 0.226149
O O14 0.492535 0.186985 0.240896
#
# Coordination Sequence:
#
# PCOD8157149 Si02
#       7
#     4   4   4   4   4   4   4
#     4  10  22  39  64  85 127 173 209 237 326 388
#     4   9  21  38  65  81 120 173 204 242 324 384
#     4   9  22  38  65  88 123 169 206 252 314 388
#     4  12  23  41  62 100 128 167 206 272 317 383
#     4  11  22  38  63  96 117 155 220 272 302 374
#     4  11  23  39  66  87 127 164 209 261 330 368
#     4  12  23  37  63  99 126 157 216 268 309 367
#
# _framework density 19.807435000000002
#
# number of rings (size 3 to 8) (size 9 to 14) (size 15 to 20)
#    0.857    0.571    2.857    2.571    6.000    0.000 
#    0.000    4.286    3.143    0.000    0.000    0.000 
#    0.000    0.000    0.000    0.000    0.000    0.000 
#
# Total GULP energy -347075.824231 kJ/mol
# GULP energy per Si atom -12395.565151 kJ/mol
# Density = 1.976235 g / cm^3
# Si number density = 19.807435 Si / 1000 Ang^3
#
#
#
# Elastic Constant Matrix: (Units=GPa)
#
#
# Indices 1 2 3 4 5 6 
#
# 1 65.5752 9.9534 34.1620 0.0000 0.0000 0.0000
# 2 9.9534 86.2853 19.1767 0.0000 0.0000 0.0000
# 3 34.1620 19.1767 96.9144 0.0000 0.0000 0.0000
# 4 0.0000 0.0000 0.0000 23.3405 0.0000 0.0000
# 5 0.0000 0.0000 0.0000 0.0000 21.3316 0.0000
# 6 0.0000 0.0000 0.0000 0.0000 0.0000 23.8309
#
#
#
# Elastic Compliance Matrix: (Units=1/GPa)
#
#
# Indices 1 2 3 4 5 6 
#
# 1 0.018723 -0.000725 -0.006456 0.000000 0.000000 0.000000
# 2 -0.000725 0.012151 -0.002149 0.000000 0.000000 0.000000
# 3 -0.006456 -0.002149 0.013019 0.000000 0.000000 0.000000
# 4 0.000000 0.000000 0.000000 0.042844 0.000000 0.000000
# 5 0.000000 0.000000 0.000000 0.000000 0.046879 0.000000
# 6 0.000000 0.000000 0.000000 0.000000 0.000000 0.041962
#
#
# Mechanical properties :
#
#
# Convention : Reuss Voigt Hill
#
# Bulk Modulus (GPa) = 39.63044 41.70659 40.66851
# Shear Modulus (GPa) = 24.67312 26.06612 25.36962
#
# Velocity S-wave (km/s) = 3.53321 3.63157 3.58273
# Velocity P-wave (km/s) = 6.05772 6.21982 6.13931
#
# Compressibility (1/GPa) = 0.02523313
#
# Stress axis : x y z
#
# Youngs Moduli (GPa) = 53.40955 82.30029 76.80826
#
# Poissons Ratio (x) = 0.05966 0.49591
# Poissons Ratio (y) = 0.03872 0.16504
# Poissons Ratio (z) = 0.34484 0.17684
#
# Static dielectric constant tensor:
#      x y z
#    x 3.526650 0.000000 0.000000 
#    y 0.000000 3.666070 0.000000 
#    z 0.000000 0.000000 3.447960 
# 
# 
# High freq. dielectric constant tensor:
#      x y z
#    x 1.755200 0.000000 0.000000 
#    y 0.000000 1.784690 0.000000 
#    z 0.000000 0.000000 1.758860 
# 
# From -- ./inp_files/6771.got.cif
#   From: 2010.03.12/outbox.cif.g09.slc.cpg/sg19_4_cif.got.tgz:6771.got - 2010.04.10 18:59:41.
