data_PCOD8157105
_publ_section_title
;
Structure prediction by ZEFSAII (Michael W. Deem and Ramdas Pophale) SiO2 
 PCOD8157105
Probable space group: P 21 21 21
;
_chemical_formula_sum "Si O2"
_cell_formula_units_Z 28
_cell_length_a 8.150685
_cell_length_b 7.999192
_cell_length_c 19.004483
_cell_angle_alpha 90.000000
_cell_angle_beta 90.000000
_cell_angle_gamma 90.000000
_cell_volume 1239.071277
_symmetry_space_group_name_H-M "P 21 21 21"
_symmetry_group_IT_number 19
_symmetry_cell_setting 'orthorhombic'
loop_
_space_group_symop_operation_xyz
x,y,z
1/2-x,-y,1/2+z
1/2+x,1/2-y,-z
-x,1/2+y,1/2-z
loop_
_atom_site_type_symbol
_atom_site_label
_atom_site_fract_x
_atom_site_fract_y
_atom_site_fract_z
Si Si1 0.657863 0.973202 0.752764
Si Si2 0.550732 0.534759 0.347431
Si Si3 0.554524 0.269022 0.660774
Si Si4 0.209698 0.673586 0.386588
Si Si5 0.521367 0.150309 0.303082
Si Si6 0.879332 0.484857 0.421572
Si Si7 0.207660 0.963386 0.922591
O O1 0.659626 0.150455 0.712976
O O2 0.811412 0.956503 0.803938
O O3 0.493586 0.937784 0.797279
O O4 0.672064 0.820003 0.696758
O O5 0.387478 0.579415 0.393894
O O6 0.559322 0.641863 0.275111
O O7 0.714347 0.578409 0.393626
O O8 0.541521 0.339934 0.327784
O O9 0.396016 0.171644 0.631798
O O10 0.658176 0.321532 0.593110
O O11 0.215937 0.852184 0.423263
O O12 0.051452 0.584337 0.421323
O O13 0.422247 0.044470 0.360134
O O14 0.860813 0.421009 0.500891
#
# Coordination Sequence:
#
# PCOD8157105 Si02
#       7
#     4   4   4   4   4   4   4
#     4  10  21  43  70 103 141 179 239 304 357 415
#     4  11  24  48  76 106 143 184 245 304 353 427
#     4  11  24  45  71 105 141 186 240 296 359 434
#     4  10  25  48  68 104 141 183 245 290 355 434
#     4  11  22  43  72 107 136 181 241 301 354 413
#     4  11  27  48  71 100 151 196 232 290 371 433
#     4  12  27  45  72 105 147 189 238 299 365 436
#
# _framework density 22.597570000000001
#
# number of rings (size 3 to 8) (size 9 to 14) (size 15 to 20)
#    0.000    1.143    1.429    5.143    8.000    0.000 
#   10.286    0.000    0.000    0.000    0.000    0.000 
#    0.000    0.000    0.000    0.000    0.000    0.000 
#
# Total GULP energy -346989.755027 kJ/mol
# GULP energy per Si atom -12392.491251 kJ/mol
# Density = 2.254614 g / cm^3
# Si number density = 22.597570 Si / 1000 Ang^3
#
#
#
# Elastic Constant Matrix: (Units=GPa)
#
#
# Indices 1 2 3 4 5 6 
#
# 1 138.9148 37.8553 35.1510 0.0000 0.0000 0.0000
# 2 37.8553 93.0245 19.4749 0.0000 0.0000 0.0000
# 3 35.1510 19.4749 65.6908 0.0000 0.0000 0.0000
# 4 0.0000 0.0000 0.0000 20.5664 0.0000 0.0000
# 5 0.0000 0.0000 0.0000 0.0000 41.7670 0.0000
# 6 0.0000 0.0000 0.0000 0.0000 0.0000 19.9416
#
#
#
# Elastic Compliance Matrix: (Units=1/GPa)
#
#
# Indices 1 2 3 4 5 6 
#
# 1 0.008970 -0.002821 -0.003964 0.000000 0.000000 0.000000
# 2 -0.002821 0.012348 -0.002151 0.000000 0.000000 0.000000
# 3 -0.003964 -0.002151 0.017982 0.000000 0.000000 0.000000
# 4 0.000000 0.000000 0.000000 0.048623 0.000000 0.000000
# 5 0.000000 0.000000 0.000000 0.000000 0.023942 0.000000
# 6 0.000000 0.000000 0.000000 0.000000 0.000000 0.050147
#
#
# Mechanical properties :
#
#
# Convention : Reuss Voigt Hill
#
# Bulk Modulus (GPa) = 46.66701 53.62139 50.14420
# Shear Modulus (GPa) = 26.73419 30.13157 28.43288
#
# Velocity S-wave (km/s) = 3.44329 3.65553 3.55100
# Velocity P-wave (km/s) = 6.04190 6.44962 6.24908
#
# Compressibility (1/GPa) = 0.02142841
#
# Stress axis : x y z
#
# Youngs Moduli (GPa) = 111.47939 80.98437 55.61212
#
# Poissons Ratio (x) = 0.22842 0.22044
# Poissons Ratio (y) = 0.31443 0.11965
# Poissons Ratio (z) = 0.44188 0.17424
#
# Static dielectric constant tensor:
#      x y z
#    x 4.369030 0.000000 0.000000 
#    y 0.000000 3.875520 0.000000 
#    z 0.000000 0.000000 3.984160 
# 
# 
# High freq. dielectric constant tensor:
#      x y z
#    x 1.910520 0.000000 0.000000 
#    y 0.000000 1.881670 0.000000 
#    z 0.000000 0.000000 1.876020 
# 
# From -- ./inp_files/6602.got.cif
#   From: 2010.03.12/outbox.cif.g09.slc.cpg/sg19_4_cif.got.tgz:6602.got - 2010.04.10 18:59:41.
