data_PCOD8157041
_publ_section_title
;
Structure prediction by ZEFSAII (Michael W. Deem and Ramdas Pophale) SiO2 
 PCOD8157041
Probable space group: P 21 21 21
;
_chemical_formula_sum "Si O2"
_cell_formula_units_Z 20
_cell_length_a 8.056359
_cell_length_b 22.313354
_cell_length_c 5.157215
_cell_angle_alpha 90.000000
_cell_angle_beta 90.000000
_cell_angle_gamma 90.000000
_cell_volume 927.083610
_symmetry_space_group_name_H-M "P 21 21 21"
_symmetry_group_IT_number 19
_symmetry_cell_setting 'orthorhombic'
loop_
_space_group_symop_operation_xyz
x,y,z
1/2-x,-y,1/2+z
1/2+x,1/2-y,-z
-x,1/2+y,1/2-z
loop_
_atom_site_type_symbol
_atom_site_label
_atom_site_fract_x
_atom_site_fract_y
_atom_site_fract_z
Si Si1 0.348813 0.340619 0.158373
Si Si2 0.623323 0.776648 0.849610
Si Si3 0.686367 0.468927 0.466822
Si Si4 0.323128 0.833675 0.084123
Si Si5 0.315591 0.472086 0.268720
O O1 0.278988 0.303339 0.402387
O O2 0.551759 0.344091 0.172371
O O3 0.269327 0.406256 0.165338
O O4 0.293065 0.307340 0.899046
O O5 0.660139 0.705065 0.837646
O O6 0.428624 0.794990 0.869948
O O7 0.700138 0.503114 0.740752
O O8 0.733530 0.399021 0.516939
O O9 0.499001 0.476527 0.378622
O O10 0.198284 0.485991 0.515270
#
# Coordination Sequence:
#
# PCOD8157041 Si02
#       5
#     4   4   4   4   4
#     4   9  22  37  62  86 129 157 205 266 318 367
#     4  10  21  40  65  90 123 165 208 259 328 371
#     4  11  25  44  67  94 136 174 217 269 331 391
#     4   9  24  41  67  89 130 165 214 263 324 380
#     4  11  22  42  65  93 130 173 220 267 323 381
#
# _framework density 21.573025999999999
#
# number of rings (size 3 to 8) (size 9 to 14) (size 15 to 20)
#    1.200    0.800    0.000    2.400    8.400    0.000 
#   10.800    0.000    0.000    0.000    0.000    0.000 
#    0.000    0.000    0.000    0.000    0.000    0.000 
#
# Total GULP energy -247776.932410 kJ/mol
# GULP energy per Si atom -12388.846621 kJ/mol
# Density = 2.152393 g / cm^3
# Si number density = 21.573026 Si / 1000 Ang^3
#
#
#
# Elastic Constant Matrix: (Units=GPa)
#
#
# Indices 1 2 3 4 5 6 
#
# 1 24.2514 48.3053 13.0273 0.0000 0.0000 0.0000
# 2 48.3053 159.3932 37.0338 0.0000 0.0000 0.0000
# 3 13.0273 37.0338 126.9459 0.0000 0.0000 0.0000
# 4 0.0000 0.0000 0.0000 31.1650 0.0000 0.0000
# 5 0.0000 0.0000 0.0000 0.0000 18.8180 0.0000
# 6 0.0000 0.0000 0.0000 0.0000 0.0000 38.4345
#
#
#
# Elastic Compliance Matrix: (Units=1/GPa)
#
#
# Indices 1 2 3 4 5 6 
#
# 1 0.104334 -0.031250 -0.001590 0.000000 0.000000 0.000000
# 2 -0.031250 0.016090 -0.001487 0.000000 0.000000 0.000000
# 3 -0.001590 -0.001487 0.008474 0.000000 0.000000 0.000000
# 4 0.000000 0.000000 0.000000 0.032087 0.000000 0.000000
# 5 0.000000 0.000000 0.000000 0.000000 0.053141 0.000000
# 6 0.000000 0.000000 0.000000 0.000000 0.000000 0.026018
#
#
# Mechanical properties :
#
#
# Convention : Reuss Voigt Hill
#
# Bulk Modulus (GPa) = 16.59912 56.36924 36.48418
# Shear Modulus (GPa) = 15.20309 31.83177 23.51743
#
# Velocity S-wave (km/s) = 2.65755 3.84544 3.30530
# Velocity P-wave (km/s) = 4.13858 6.77516 5.61385
#
# Compressibility (1/GPa) = 0.06024417
#
# Stress axis : x y z
#
# Youngs Moduli (GPa) = 9.58457 62.15128 118.00284
#
# Poissons Ratio (x) = 1.94222 0.18767
# Poissons Ratio (y) = 0.29952 0.17547
# Poissons Ratio (z) = 0.01524 0.09242
#
# Static dielectric constant tensor:
#      x y z
#    x 3.466860 0.000000 0.000000 
#    y 0.000000 3.985010 0.000000 
#    z 0.000000 0.000000 3.846620 
# 
# 
# High freq. dielectric constant tensor:
#      x y z
#    x 1.810170 0.000000 0.000000 
#    y 0.000000 1.855090 0.000000 
#    z 0.000000 0.000000 1.847040 
# 
# From -- ./inp_files/452.got.cif
#   From: 2010.03.12/outbox.cif.g09.slc.cpg/sg19_1_cif.got.tgz:452.got - 2010.04.10 18:59:41.
