data_PCOD8157288
_publ_section_title
;
Structure prediction by ZEFSAII (Michael W. Deem and Ramdas Pophale) SiO2 
 PCOD8157288
Probable space group: P 21 21 21
;
_chemical_formula_sum "Si O2"
_cell_formula_units_Z 32
_cell_length_a 10.426407
_cell_length_b 15.785926
_cell_length_c 8.941818
_cell_angle_alpha 90.000000
_cell_angle_beta 90.000000
_cell_angle_gamma 90.000000
_cell_volume 1471.738200
_symmetry_space_group_name_H-M "P 21 21 21"
_symmetry_group_IT_number 19
_symmetry_cell_setting 'orthorhombic'
loop_
_space_group_symop_operation_xyz
x,y,z
1/2-x,-y,1/2+z
1/2+x,1/2-y,-z
-x,1/2+y,1/2-z
loop_
_atom_site_type_symbol
_atom_site_label
_atom_site_fract_x
_atom_site_fract_y
_atom_site_fract_z
Si Si1 0.026443 0.295820 0.461227
Si Si2 0.501261 0.793264 0.255594
Si Si3 0.756257 0.100119 0.674483
Si Si4 0.917829 0.367353 0.915220
Si Si5 0.649359 0.397186 0.022340
Si Si6 0.617943 0.012361 0.935360
Si Si7 0.954804 0.632373 0.207123
Si Si8 0.823432 0.412186 0.599190
O O1 0.136774 0.360454 0.413328
O O2 0.999252 0.227421 0.331246
O O3 0.069816 0.247665 0.613039
O O4 0.894885 0.346874 0.489329
O O5 0.637965 0.827577 0.198929
O O6 0.519331 0.723743 0.385100
O O7 0.414321 0.868107 0.322276
O O8 0.718018 0.063558 0.834924
O O9 0.809570 0.021294 0.580739
O O10 0.785201 0.350792 0.002389
O O11 0.893736 0.415888 0.759149
O O12 0.007216 0.423080 0.019468
O O13 0.556728 0.374664 0.884933
O O14 0.672462 0.497070 0.022283
O O15 0.561095 0.933822 0.844415
O O16 0.822440 0.616351 0.119625
#
# Coordination Sequence:
#
# PCOD8157288 Si02
#       8
#     4   4   4   4   4   4   4   4
#     4  11  24  47  70  99 140 187 229 292 353 412
#     4  11  26  47  72 100 145 186 233 297 350 425
#     4  12  28  48  70 107 146 193 237 295 360 436
#     4  10  24  45  69 105 135 179 235 294 347 420
#     4  11  23  45  73 104 134 181 231 291 345 415
#     4  12  27  47  70 106 144 191 235 295 360 430
#     4  11  24  44  69 106 135 179 239 285 350 422
#     4  10  22  43  73  97 137 178 233 289 349 418
#
# _framework density 21.742996000000002
#
# number of rings (size 3 to 8) (size 9 to 14) (size 15 to 20)
#    0.000    1.000    2.500    3.750   10.500    0.000 
#    6.750    0.000    0.000    0.000    0.000    0.000 
#    0.000    0.000    0.000    0.000    0.000    0.000 
#
# Total GULP energy -397027.823550 kJ/mol
# GULP energy per Si atom -12407.119486 kJ/mol
# Density = 2.169351 g / cm^3
# Si number density = 21.742996 Si / 1000 Ang^3
#
#
#
# Elastic Constant Matrix: (Units=GPa)
#
#
# Indices 1 2 3 4 5 6 
#
# 1 41.0668 3.0795 10.8339 0.0000 0.0000 0.0000
# 2 3.0795 70.8559 10.2631 0.0000 0.0000 0.0000
# 3 10.8339 10.2631 61.8292 0.0000 0.0000 0.0000
# 4 0.0000 0.0000 0.0000 33.9981 0.0000 0.0000
# 5 0.0000 0.0000 0.0000 0.0000 41.8561 0.0000
# 6 0.0000 0.0000 0.0000 0.0000 0.0000 24.7676
#
#
#
# Elastic Compliance Matrix: (Units=1/GPa)
#
#
# Indices 1 2 3 4 5 6 
#
# 1 0.025546 -0.000473 -0.004398 0.000000 0.000000 0.000000
# 2 -0.000473 0.014470 -0.002319 0.000000 0.000000 0.000000
# 3 -0.004398 -0.002319 0.017329 0.000000 0.000000 0.000000
# 4 0.000000 0.000000 0.000000 0.029413 0.000000 0.000000
# 5 0.000000 0.000000 0.000000 0.000000 0.023891 0.000000
# 6 0.000000 0.000000 0.000000 0.000000 0.000000 0.040375
#
#
# Mechanical properties :
#
#
# Convention : Reuss Voigt Hill
#
# Bulk Modulus (GPa) = 23.27469 24.67831 23.97650
# Shear Modulus (GPa) = 27.82004 30.09605 28.95805
#
# Velocity S-wave (km/s) = 3.58088 3.72448 3.65339
# Velocity P-wave (km/s) = 5.27491 5.46538 5.37099
#
# Compressibility (1/GPa) = 0.04296512
#
# Stress axis : x y z
#
# Youngs Moduli (GPa) = 39.14472 69.11041 57.70642
#
# Poissons Ratio (x) = 0.03271 0.25378
# Poissons Ratio (y) = 0.01853 0.13382
# Poissons Ratio (z) = 0.17215 0.16026
#
# Static dielectric constant tensor:
#      x y z
#    x 3.872960 0.000000 0.000000 
#    y 0.000000 4.001750 0.000000 
#    z 0.000000 0.000000 3.960120 
# 
# 
# High freq. dielectric constant tensor:
#      x y z
#    x 1.852260 0.000000 0.000000 
#    y 0.000000 1.866740 0.000000 
#    z 0.000000 0.000000 1.858780 
# 
# From -- ./inp_files/3623.got.cif
#   From: 2010.03.12/outbox.cif.g09.slc.cpg/sg19_2_cif.got.tgz:3623.got - 2010.04.10 18:59:41.
