data_PCOD8157657
_publ_section_title
;
Structure prediction by ZEFSAII (Michael W. Deem and Ramdas Pophale) SiO2 
 PCOD8157657
Probable space group: P 21 21 21
;
_chemical_formula_sum "Si O2"
_cell_formula_units_Z 32
_cell_length_a 6.636090
_cell_length_b 26.200152
_cell_length_c 8.837326
_cell_angle_alpha 90.000000
_cell_angle_beta 90.000000
_cell_angle_gamma 90.000000
_cell_volume 1536.515530
_symmetry_space_group_name_H-M "P 21 21 21"
_symmetry_group_IT_number 19
_symmetry_cell_setting 'orthorhombic'
loop_
_space_group_symop_operation_xyz
x,y,z
1/2-x,-y,1/2+z
1/2+x,1/2-y,-z
-x,1/2+y,1/2-z
loop_
_atom_site_type_symbol
_atom_site_label
_atom_site_fract_x
_atom_site_fract_y
_atom_site_fract_z
Si Si1 0.868671 0.390265 0.884862
Si Si2 0.958171 0.138677 0.616349
Si Si3 0.734965 0.573084 0.708045
Si Si4 0.841923 0.951537 0.116711
Si Si5 0.558234 0.324026 0.706852
Si Si6 0.675784 0.767532 0.298778
Si Si7 0.169067 0.301651 0.882632
Si Si8 0.033294 0.483123 0.707748
O O1 0.679831 0.366907 0.797040
O O2 0.987318 0.427917 0.774550
O O3 0.020626 0.346215 0.938563
O O4 0.787068 0.420066 0.029357
O O5 0.134586 0.119610 0.726735
O O6 0.061332 0.162309 0.469138
O O7 0.812831 0.092563 0.568037
O O8 0.827079 0.180588 0.704281
O O9 0.518374 0.573461 0.785604
O O10 0.842807 0.519322 0.738802
O O11 0.733984 0.994586 0.216611
O O12 0.930545 0.978866 0.970227
O O13 0.654374 0.268224 0.725769
O O14 0.330765 0.324027 0.766436
O O15 0.456894 0.741104 0.292126
O O16 0.722578 0.777377 0.473787
#
# Coordination Sequence:
#
# PCOD8157657 Si02
#       8
#     4   4   4   4   4   4   4   4
#     4  11  24  42  67  96 129 173 219 271 325 392
#     4  11  26  42  64  96 132 171 215 267 331 391
#     4  11  24  42  68  95 131 175 217 271 328 387
#     4  11  24  43  66  97 134 174 218 276 328 396
#     4  11  25  43  64  94 130 169 213 273 325 388
#     4  11  24  42  65  92 125 167 218 265 323 389
#     4  11  23  42  66  91 122 169 215 265 320 384
#     4  11  24  42  66  99 133 172 223 268 332 393
#
# _framework density 20.826343999999999
#
# number of rings (size 3 to 8) (size 9 to 14) (size 15 to 20)
#    0.000    1.000    1.250    4.500    3.500   10.000 
#    0.000    0.000    0.000    0.000    0.000    0.000 
#    0.000    0.000    0.000    0.000    0.000    0.000 
#
# Total GULP energy -397104.007864 kJ/mol
# GULP energy per Si atom -12409.500246 kJ/mol
# Density = 2.077894 g / cm^3
# Si number density = 20.826344 Si / 1000 Ang^3
#
#
#
# Elastic Constant Matrix: (Units=GPa)
#
#
# Indices 1 2 3 4 5 6 
#
# 1 93.2376 19.8315 23.4662 0.0000 0.0000 0.0000
# 2 19.8315 81.6894 14.7363 0.0000 0.0000 0.0000
# 3 23.4662 14.7363 94.7087 0.0000 0.0000 0.0000
# 4 0.0000 0.0000 0.0000 36.7606 0.0000 0.0000
# 5 0.0000 0.0000 0.0000 0.0000 19.1499 0.0000
# 6 0.0000 0.0000 0.0000 0.0000 0.0000 26.7411
#
#
#
# Elastic Compliance Matrix: (Units=1/GPa)
#
#
# Indices 1 2 3 4 5 6 
#
# 1 0.011887 -0.002422 -0.002568 0.000000 0.000000 0.000000
# 2 -0.002422 0.013089 -0.001436 0.000000 0.000000 0.000000
# 3 -0.002568 -0.001436 0.011419 0.000000 0.000000 0.000000
# 4 0.000000 0.000000 0.000000 0.027203 0.000000 0.000000
# 5 0.000000 0.000000 0.000000 0.000000 0.052220 0.000000
# 6 0.000000 0.000000 0.000000 0.000000 0.000000 0.037396
#
#
# Mechanical properties :
#
#
# Convention : Reuss Voigt Hill
#
# Bulk Modulus (GPa) = 42.48099 42.85597 42.66848
# Shear Modulus (GPa) = 28.74996 30.63711 29.69353
#
# Velocity S-wave (km/s) = 3.71949 3.83962 3.78003
# Velocity P-wave (km/s) = 6.23603 6.34660 6.29156
#
# Compressibility (1/GPa) = 0.02353994
#
# Stress axis : x y z
#
# Youngs Moduli (GPa) = 84.12598 76.40189 87.57690
#
# Poissons Ratio (x) = 0.18508 0.22493
# Poissons Ratio (y) = 0.20379 0.12579
# Poissons Ratio (z) = 0.21606 0.10974
#
# Static dielectric constant tensor:
#      x y z
#    x 3.824530 0.000000 0.000000 
#    y 0.000000 3.813030 0.000000 
#    z 0.000000 0.000000 3.644870 
# 
# 
# High freq. dielectric constant tensor:
#      x y z
#    x 1.827680 0.000000 0.000000 
#    y 0.000000 1.827340 0.000000 
#    z 0.000000 0.000000 1.820540 
# 
# From -- ./inp_files/2478.got.cif
#   From: 2010.03.12/outbox.cif.g09.slc.cpg/sg19_2_cif.got.tgz:2478.got - 2010.04.10 18:59:41.
