data_PCOD8157841
_publ_section_title
;
Structure prediction by ZEFSAII (Michael W. Deem and Ramdas Pophale) SiO2 
 PCOD8157841
Probable space group: P 21 21 21
;
_chemical_formula_sum "Si O2"
_cell_formula_units_Z 20
_cell_length_a 7.499230
_cell_length_b 9.607815
_cell_length_c 11.697029
_cell_angle_alpha 90.000000
_cell_angle_beta 90.000000
_cell_angle_gamma 90.000000
_cell_volume 842.785145
_symmetry_space_group_name_H-M "P 21 21 21"
_symmetry_group_IT_number 19
_symmetry_cell_setting 'orthorhombic'
loop_
_space_group_symop_operation_xyz
x,y,z
1/2-x,-y,1/2+z
1/2+x,1/2-y,-z
-x,1/2+y,1/2-z
loop_
_atom_site_type_symbol
_atom_site_label
_atom_site_fract_x
_atom_site_fract_y
_atom_site_fract_z
Si Si1 0.583385 0.245894 0.072812
Si Si2 0.309850 0.604227 0.208954
Si Si3 0.718441 0.194216 0.839745
Si Si4 0.535406 0.279966 0.619648
Si Si5 0.615695 0.574711 0.046575
O O1 0.713839 0.187203 0.171790
O O2 0.384055 0.213881 0.115570
O O3 0.618346 0.408441 0.047854
O O4 0.606711 0.160196 0.955028
O O5 0.294313 0.439199 0.227496
O O6 0.504279 0.636044 0.154371
O O7 0.152857 0.640614 0.120009
O O8 0.597263 0.276211 0.750915
O O9 0.683761 0.364597 0.547794
O O10 0.491843 0.128311 0.565753
#
# Coordination Sequence:
#
# PCOD8157841 Si02
#       5
#     4   4   4   4   4
#     4  11  26  50  71 109 148 196 250 308 370 449
#     4  11  26  47  72 103 151 190 252 305 371 445
#     4  11  27  45  77 107 147 199 246 312 369 447
#     4  12  25  47  72 108 145 200 243 313 373 433
#     4  11  26  47  72 105 149 195 247 306 369 440
#
# _framework density 23.730837999999999
#
# number of rings (size 3 to 8) (size 9 to 14) (size 15 to 20)
#    0.000    0.800    4.000    1.200   14.000    0.000 
#    0.000    0.000    0.000    0.000    0.000    0.000 
#    0.000    0.000    0.000    0.000    0.000    0.000 
#
# Total GULP energy -247951.443774 kJ/mol
# GULP energy per Si atom -12397.572189 kJ/mol
# Density = 2.367683 g / cm^3
# Si number density = 23.730838 Si / 1000 Ang^3
#
#
#
# Elastic Constant Matrix: (Units=GPa)
#
#
# Indices 1 2 3 4 5 6 
#
# 1 98.3613 23.9532 25.6959 0.0000 0.0000 0.0000
# 2 23.9532 67.5171 30.2416 0.0000 0.0000 0.0000
# 3 25.6959 30.2416 119.7228 0.0000 0.0000 0.0000
# 4 0.0000 0.0000 0.0000 41.1463 0.0000 0.0000
# 5 0.0000 0.0000 0.0000 0.0000 42.5452 0.0000
# 6 0.0000 0.0000 0.0000 0.0000 0.0000 30.7811
#
#
#
# Elastic Compliance Matrix: (Units=1/GPa)
#
#
# Indices 1 2 3 4 5 6 
#
# 1 0.011396 -0.003323 -0.001606 0.000000 0.000000 0.000000
# 2 -0.003323 0.017670 -0.003750 0.000000 0.000000 0.000000
# 3 -0.001606 -0.003750 0.009645 0.000000 0.000000 0.000000
# 4 0.000000 0.000000 0.000000 0.024304 0.000000 0.000000
# 5 0.000000 0.000000 0.000000 0.000000 0.023504 0.000000
# 6 0.000000 0.000000 0.000000 0.000000 0.000000 0.032488
#
#
# Mechanical properties :
#
#
# Convention : Reuss Voigt Hill
#
# Bulk Modulus (GPa) = 46.83726 49.48696 48.16211
# Shear Modulus (GPa) = 34.84766 36.60855 35.72811
#
# Velocity S-wave (km/s) = 3.83620 3.93193 3.88436
# Velocity P-wave (km/s) = 6.27707 6.44299 6.36057
#
# Compressibility (1/GPa) = 0.02135052
#
# Stress axis : x y z
#
# Youngs Moduli (GPa) = 87.75356 56.59381 103.68452
#
# Poissons Ratio (x) = 0.18808 0.16655
# Poissons Ratio (y) = 0.29163 0.38882
# Poissons Ratio (z) = 0.14096 0.21223
#
# Static dielectric constant tensor:
#      x y z
#    x 4.466050 0.000000 0.000000 
#    y 0.000000 3.858200 0.000000 
#    z 0.000000 0.000000 4.219890 
# 
# 
# High freq. dielectric constant tensor:
#      x y z
#    x 1.957730 0.000000 0.000000 
#    y 0.000000 1.920020 0.000000 
#    z 0.000000 0.000000 1.941030 
# 
# From -- ./inp_files/2613.got.cif
#   From: 2010.03.12/outbox.cif.g09.slc.cpg/sg19_2_cif.got.tgz:2613.got - 2010.04.10 18:59:41.
