data_PCOD8157139
_publ_section_title
;
Structure prediction by ZEFSAII (Michael W. Deem and Ramdas Pophale) SiO2 
 PCOD8157139
Probable space group: P 21 21 21
;
_chemical_formula_sum "Si O2"
_cell_formula_units_Z 32
_cell_length_a 11.452653
_cell_length_b 22.838520
_cell_length_c 5.919069
_cell_angle_alpha 90.000000
_cell_angle_beta 90.000000
_cell_angle_gamma 90.000000
_cell_volume 1548.201422
_symmetry_space_group_name_H-M "P 21 21 21"
_symmetry_group_IT_number 19
_symmetry_cell_setting 'orthorhombic'
loop_
_space_group_symop_operation_xyz
x,y,z
1/2-x,-y,1/2+z
1/2+x,1/2-y,-z
-x,1/2+y,1/2-z
loop_
_atom_site_type_symbol
_atom_site_label
_atom_site_fract_x
_atom_site_fract_y
_atom_site_fract_z
Si Si1 0.956667 0.432981 0.772759
Si Si2 0.249998 0.883683 1.000000
Si Si3 0.933374 0.652428 0.344050
Si Si4 0.566622 0.652428 0.655951
Si Si5 0.500002 0.250000 0.172072
Si Si6 0.114611 0.657449 0.967727
Si Si7 0.956662 0.567019 0.727244
Si Si8 0.114617 0.342553 0.532276
O O1 0.838594 0.425144 0.631559
O O2 0.993779 0.500001 0.750002
O O3 0.063606 0.396969 0.669999
O O4 0.934575 0.410742 0.029510
O O5 0.177168 0.843209 0.174852
O O6 0.338590 0.925145 0.131557
O O7 0.322828 0.843209 0.825148
O O8 0.923587 0.704322 0.526634
O O9 0.934571 0.589259 0.470494
O O10 0.054268 0.661367 0.211985
O O11 0.576408 0.704321 0.473366
O O12 0.445727 0.661366 0.788019
O O13 0.406885 0.282979 0.329574
O O14 0.593120 0.217020 0.329573
O O15 0.249997 0.646762 1.000000
O O16 0.063597 0.603032 0.830010
#
# Coordination Sequence:
#
# PCOD8157139 Si02
#       8
#     4   4   4   4   4   4   4   4
#     4  10  23  41  66  98 129 171 215 266 330 386
#     4  10  22  38  66  94 138 162 212 266 330 390
#     4  10  22  44  61  98 134 165 216 267 326 392
#     4  10  22  44  61  98 134 165 216 267 326 392
#     4  10  22  44  64  96 128 174 216 268 324 386
#     4  10  23  46  63  96 130 171 222 266 324 390
#     4  10  23  41  66  98 129 171 215 266 330 386
#     4  10  23  46  63  96 130 171 222 266 324 390
#
# _framework density 20.669143999999999
#
# number of rings (size 3 to 8) (size 9 to 14) (size 15 to 20)
#    0.000    2.000    0.000    1.500    3.500    7.000 
#   58.500    0.000    0.000    0.000    0.000    0.000 
#    0.000    0.000    0.000    0.000    0.000    0.000 
#
# Total GULP energy -396892.460334 kJ/mol
# GULP energy per Si atom -12402.889385 kJ/mol
# Density = 2.062210 g / cm^3
# Si number density = 20.669144 Si / 1000 Ang^3
#
#
#
# Elastic Constant Matrix: (Units=GPa)
#
#
# Indices 1 2 3 4 5 6 
#
# 1 168.4566 51.3286 61.0640 0.0000 0.0000 0.0000
# 2 51.3286 135.9184 59.4972 0.0000 0.0000 0.0000
# 3 61.0640 59.4972 137.4511 0.0000 0.0000 0.0000
# 4 0.0000 0.0000 0.0000 19.4529 0.0000 0.0000
# 5 0.0000 0.0000 0.0000 0.0000 21.4096 0.0000
# 6 0.0000 0.0000 0.0000 0.0000 0.0000 15.5411
#
#
#
# Elastic Compliance Matrix: (Units=1/GPa)
#
#
# Indices 1 2 3 4 5 6 
#
# 1 0.007369 -0.001665 -0.002553 0.000000 0.000000 0.000000
# 2 -0.001665 0.009454 -0.003352 0.000000 0.000000 0.000000
# 3 -0.002553 -0.003352 0.009861 0.000000 0.000000 0.000000
# 4 0.000000 0.000000 0.000000 0.051406 0.000000 0.000000
# 5 0.000000 0.000000 0.000000 0.000000 0.046708 0.000000
# 6 0.000000 0.000000 0.000000 0.000000 0.000000 0.064345
#
#
# Mechanical properties :
#
#
# Convention : Reuss Voigt Hill
#
# Bulk Modulus (GPa) = 86.63854 87.28951 86.96402
# Shear Modulus (GPa) = 24.02327 29.27648 26.64988
#
# Velocity S-wave (km/s) = 3.41292 3.76764 3.59466
# Velocity P-wave (km/s) = 7.58541 7.82625 7.70678
#
# Compressibility (1/GPa) = 0.01154221
#
# Stress axis : x y z
#
# Youngs Moduli (GPa) = 135.70190 105.77864 101.41419
#
# Poissons Ratio (x) = 0.17616 0.25890
# Poissons Ratio (y) = 0.22599 0.33997
# Poissons Ratio (z) = 0.34644 0.35460
#
# Static dielectric constant tensor:
#      x y z
#    x 3.532500 0.000000 0.000000 
#    y 0.000000 3.619750 0.000000 
#    z 0.000000 0.000000 4.153840 
# 
# 
# High freq. dielectric constant tensor:
#      x y z
#    x 1.799920 0.000000 0.000000 
#    y 0.000000 1.799510 0.000000 
#    z 0.000000 0.000000 1.829840 
# 
# From -- ./inp_files/1222.got.cif
#   From: 2010.03.12/outbox.cif.g09.slc.cpg/sg19_1_cif.got.tgz:1222.got - 2010.04.10 18:59:41.
