data_PCOD8157048
_publ_section_title
;
Structure prediction by ZEFSAII (Michael W. Deem and Ramdas Pophale) SiO2 
 PCOD8157048
Probable space group: P 21 21 21
;
_chemical_formula_sum "Si O2"
_cell_formula_units_Z 32
_cell_length_a 13.218898
_cell_length_b 20.315717
_cell_length_c 5.341290
_cell_angle_alpha 90.000000
_cell_angle_beta 90.000000
_cell_angle_gamma 90.000000
_cell_volume 1434.410858
_symmetry_space_group_name_H-M "P 21 21 21"
_symmetry_group_IT_number 19
_symmetry_cell_setting 'orthorhombic'
loop_
_space_group_symop_operation_xyz
x,y,z
1/2-x,-y,1/2+z
1/2+x,1/2-y,-z
-x,1/2+y,1/2-z
loop_
_atom_site_type_symbol
_atom_site_label
_atom_site_fract_x
_atom_site_fract_y
_atom_site_fract_z
Si Si1 0.035561 0.512292 0.837201
Si Si2 0.844969 0.669856 0.798320
Si Si3 0.976034 0.198881 0.389683
Si Si4 0.392478 0.420653 0.856762
Si Si5 0.891751 0.774073 0.428412
Si Si6 0.673812 0.108174 0.224022
Si Si7 0.231404 0.717809 0.943810
Si Si8 0.803675 0.522862 0.794613
O O1 0.049114 0.564742 0.614347
O O2 0.097104 0.450756 0.720169
O O3 0.916366 0.496618 0.854503
O O4 0.076718 0.535669 0.110263
O O5 0.908614 0.707663 0.586317
O O6 0.799129 0.600146 0.720623
O O7 0.929735 0.655691 0.010019
O O8 0.757015 0.720591 0.877057
O O9 0.021781 0.268165 0.285581
O O10 0.918724 0.155592 0.184129
O O11 0.889379 0.215465 0.592813
O O12 0.271782 0.424302 0.911039
O O13 0.898641 0.843441 0.564943
O O14 0.777138 0.769015 0.326838
O O15 0.716826 0.149052 0.461559
O O16 0.760763 0.486225 0.549348
#
# Coordination Sequence:
#
# PCOD8157048 Si02
#       8
#     4   4   4   4   4   4   4   4
#     4  12  25  45  70 100 142 183 231 282 350 416
#     4  10  22  43  64  94 129 176 231 282 338 417
#     4  10  21  40  69  95 128 178 235 277 349 412
#     4  11  24  41  74 103 132 185 227 282 349 426
#     4  10  22  40  67  93 139 174 223 294 345 410
#     4  10  24  40  66 106 139 172 220 296 351 425
#     4   9  22  40  64  99 131 172 226 288 344 407
#     4  12  28  47  68  98 134 188 239 283 336 409
#
# _framework density 22.308810000000001
#
# number of rings (size 3 to 8) (size 9 to 14) (size 15 to 20)
#    0.000    1.500    1.250    2.250    8.750    3.000 
#    6.750    0.000    0.000    0.000    0.000    0.000 
#    0.000    0.000    0.000    0.000    0.000    0.000 
#
# Total GULP energy -396491.898819 kJ/mol
# GULP energy per Si atom -12390.371838 kJ/mol
# Density = 2.225803 g / cm^3
# Si number density = 22.308810 Si / 1000 Ang^3
#
#
#
# Elastic Constant Matrix: (Units=GPa)
#
#
# Indices 1 2 3 4 5 6 
#
# 1 118.4574 39.8678 12.2031 0.0000 0.0000 0.0000
# 2 39.8678 68.8682 1.4947 0.0000 0.0000 0.0000
# 3 12.2031 1.4947 66.5421 0.0000 0.0000 0.0000
# 4 0.0000 0.0000 0.0000 17.6753 0.0000 0.0000
# 5 0.0000 0.0000 0.0000 0.0000 23.8555 0.0000
# 6 0.0000 0.0000 0.0000 0.0000 0.0000 24.5124
#
#
#
# Elastic Compliance Matrix: (Units=1/GPa)
#
#
# Indices 1 2 3 4 5 6 
#
# 1 0.010701 -0.006155 -0.001824 0.000000 0.000000 0.000000
# 2 -0.006155 0.018068 0.000723 0.000000 0.000000 0.000000
# 3 -0.001824 0.000723 0.015346 0.000000 0.000000 0.000000
# 4 0.000000 0.000000 0.000000 0.056576 0.000000 0.000000
# 5 0.000000 0.000000 0.000000 0.000000 0.041919 0.000000
# 6 0.000000 0.000000 0.000000 0.000000 0.000000 0.040796
#
#
# Mechanical properties :
#
#
# Convention : Reuss Voigt Hill
#
# Bulk Modulus (GPa) = 33.78088 40.11100 36.94594
# Shear Modulus (GPa) = 24.06301 26.56213 25.31257
#
# Velocity S-wave (km/s) = 3.28782 3.45433 3.37210
# Velocity P-wave (km/s) = 5.43951 5.82484 5.63547
#
# Compressibility (1/GPa) = 0.02960254
#
# Stress axis : x y z
#
# Youngs Moduli (GPa) = 93.44526 55.34589 65.16192
#
# Poissons Ratio (x) = 0.34068 0.11887
# Poissons Ratio (y) = 0.57520 -0.04711
# Poissons Ratio (z) = 0.17047 -0.04001
#
# Static dielectric constant tensor:
#      x y z
#    x 4.111210 0.000000 0.000000 
#    y 0.000000 3.933210 0.000000 
#    z 0.000000 0.000000 3.949270 
# 
# 
# High freq. dielectric constant tensor:
#      x y z
#    x 1.884880 0.000000 0.000000 
#    y 0.000000 1.872300 0.000000 
#    z 0.000000 0.000000 1.873150 
# 
# From -- ./inp_files/1211.got.cif
#   From: 2010.03.12/outbox.cif.g09.slc.cpg/sg19_1_cif.got.tgz:1211.got - 2010.04.10 18:59:41.
