data_PCOD8157420
_publ_section_title
;
Structure prediction by ZEFSAII (Michael W. Deem and Ramdas Pophale) SiO2 
 PCOD8157420
Probable space group: P 21 21 21
;
_chemical_formula_sum "Si O2"
_cell_formula_units_Z 28
_cell_length_a 12.264640
_cell_length_b 5.421427
_cell_length_c 18.044400
_cell_angle_alpha 90.000000
_cell_angle_beta 90.000000
_cell_angle_gamma 90.000000
_cell_volume 1199.805546
_symmetry_space_group_name_H-M "P 21 21 21"
_symmetry_group_IT_number 19
_symmetry_cell_setting 'orthorhombic'
loop_
_space_group_symop_operation_xyz
x,y,z
1/2-x,-y,1/2+z
1/2+x,1/2-y,-z
-x,1/2+y,1/2-z
loop_
_atom_site_type_symbol
_atom_site_label
_atom_site_fract_x
_atom_site_fract_y
_atom_site_fract_z
Si Si1 0.666477 0.976155 0.923393
Si Si2 0.933485 0.994542 0.265374
Si Si3 0.110903 0.267228 0.930069
Si Si4 0.273250 0.889420 0.978400
Si Si5 0.431644 0.087324 0.244146
Si Si6 0.235665 0.639212 0.838065
Si Si7 0.122684 0.796634 0.590401
O O1 0.591913 0.958416 0.851442
O O2 0.780822 0.104334 0.905449
O O3 0.697146 0.707207 0.954556
O O4 0.603833 0.115360 0.988322
O O5 0.821162 0.980609 0.219118
O O6 0.997803 0.734315 0.260019
O O7 0.139218 0.455538 0.863426
O O8 0.991892 0.150964 0.915384
O O9 0.202400 0.064239 0.926684
O O10 0.373135 0.027251 0.017496
O O11 0.306557 0.694502 0.914116
O O12 0.503729 0.338974 0.235191
O O13 0.330962 0.133041 0.301080
O O14 0.376176 0.037485 0.164297
#
# Coordination Sequence:
#
# PCOD8157420 Si02
#       7
#     4   4   4   4   4   4   4
#     4  10  25  45  68 109 142 198 246 308 362 452
#     4  12  31  49  77 109 149 204 250 306 371 443
#     4  10  23  45  70 109 144 195 246 311 372 439
#     4  10  25  45  74 101 155 192 248 312 365 449
#     4  12  26  43  77 114 151 192 239 312 384 437
#     4  11  25  48  72 109 151 189 257 307 370 443
#     4  11  23  43  74 107 148 192 250 306 378 433
#
# _framework density 23.337112999999999
#
# number of rings (size 3 to 8) (size 9 to 14) (size 15 to 20)
#    0.000    1.143    2.857    0.857   10.000    4.571 
#    0.000    0.000    0.000    0.000    0.000    0.000 
#    0.000    0.000    0.000    0.000    0.000    0.000 
#
# Total GULP energy -346939.798806 kJ/mol
# GULP energy per Si atom -12390.707100 kJ/mol
# Density = 2.328400 g / cm^3
# Si number density = 23.337113 Si / 1000 Ang^3
#
#
#
# Elastic Constant Matrix: (Units=GPa)
#
#
# Indices 1 2 3 4 5 6 
#
# 1 83.6466 13.8094 39.4894 0.0000 0.0000 0.0000
# 2 13.8094 79.6887 13.8690 0.0000 0.0000 0.0000
# 3 39.4894 13.8690 128.4233 0.0000 0.0000 0.0000
# 4 0.0000 0.0000 0.0000 31.8422 0.0000 0.0000
# 5 0.0000 0.0000 0.0000 0.0000 34.9278 0.0000
# 6 0.0000 0.0000 0.0000 0.0000 0.0000 -24.9255
#
#
#
# Elastic Compliance Matrix: (Units=1/GPa)
#
#
# Indices 1 2 3 4 5 6 
#
# 1 0.014217 -0.001735 -0.004184 0.000000 0.000000 0.000000
# 2 -0.001735 0.013001 -0.000870 0.000000 0.000000 0.000000
# 3 -0.004184 -0.000870 0.009167 0.000000 0.000000 0.000000
# 4 0.000000 0.000000 0.000000 0.031405 0.000000 0.000000
# 5 0.000000 0.000000 0.000000 0.000000 0.028630 0.000000
# 6 0.000000 0.000000 0.000000 0.000000 0.000000 -0.040120
#
#
# Mechanical properties :
#
#
# Convention : Reuss Voigt Hill
#
# Bulk Modulus (GPa) = 43.84960 47.34380 45.59670
# Shear Modulus (GPa) = 64.53032 23.34162 43.93597
#
# Velocity S-wave (km/s) = 5.26416 3.16601 4.34368
# Velocity P-wave (km/s) = 7.46853 5.80481 6.68860
#
# Compressibility (1/GPa) = 0.02280522
#
# Stress axis : x y z
#
# Youngs Moduli (GPa) = 70.33876 76.91687 109.08269
#
# Poissons Ratio (x) = 0.13349 0.45642
# Poissons Ratio (y) = 0.12207 0.09494
# Poissons Ratio (z) = 0.29431 0.06695
#
# Static dielectric constant tensor:
#      x y z
#    x 4.028870 0.000000 0.000000 
#    y 0.000000 4.189840 0.000000 
#    z 0.000000 0.000000 4.647780 
# 
# 
# High freq. dielectric constant tensor:
#      x y z
#    x 1.912920 0.000000 0.000000 
#    y 0.000000 1.910350 0.000000 
#    z 0.000000 0.000000 1.957920 
# 
# From -- ./inp_files/1066.got.cif
#   From: 2010.03.12/outbox.cif.g09.slc.cpg/sg19_1_cif.got.tgz:1066.got - 2010.04.10 18:59:41.
