data_PCOD8157638
_publ_section_title
;
Structure prediction by ZEFSAII (Michael W. Deem and Ramdas Pophale) SiO2 
 PCOD8157638
Probable space group: P 21 21 21
;
_chemical_formula_sum "Si O2"
_cell_formula_units_Z 28
_cell_length_a 7.666895
_cell_length_b 6.870749
_cell_length_c 20.987823
_cell_angle_alpha 90.000000
_cell_angle_beta 90.000000
_cell_angle_gamma 90.000000
_cell_volume 1105.582083
_symmetry_space_group_name_H-M "P 21 21 21"
_symmetry_group_IT_number 19
_symmetry_cell_setting 'orthorhombic'
loop_
_space_group_symop_operation_xyz
x,y,z
1/2-x,-y,1/2+z
1/2+x,1/2-y,-z
-x,1/2+y,1/2-z
loop_
_atom_site_type_symbol
_atom_site_label
_atom_site_fract_x
_atom_site_fract_y
_atom_site_fract_z
Si Si1 0.068065 0.804170 0.625657
Si Si2 0.570473 0.183056 0.928922
Si Si3 0.431513 0.977468 0.464828
Si Si4 0.259555 0.125655 0.255845
Si Si5 0.102664 0.745243 0.298815
Si Si6 0.715053 0.903223 0.139262
Si Si7 0.417808 0.813908 0.966237
O O1 0.249024 0.787077 0.588523
O O2 0.103650 0.820938 0.700678
O O3 0.958195 0.609345 0.606516
O O4 0.952515 0.993862 0.605387
O O5 0.439098 0.181492 0.869854
O O6 0.584677 0.952663 0.948225
O O7 0.495720 0.312630 0.986961
O O8 0.231057 0.026884 0.479720
O O9 0.533763 0.182485 0.472596
O O10 0.340146 0.211938 0.321131
O O11 0.069535 0.218814 0.243152
O O12 0.232490 0.894454 0.263226
O O13 0.206002 0.545054 0.306943
O O14 0.862182 0.839241 0.088614
#
# Coordination Sequence:
#
# PCOD8157638 Si02
#       7
#     4   4   4   4   4   4   4
#     4  11  29  46  73 109 159 199 252 329 390 467
#     4  11  24  49  74 107 150 200 259 325 385 475
#     4  12  27  47  74 112 154 205 262 327 391 482
#     4  11  25  47  74 108 149 199 259 318 399 467
#     4  11  22  47  76 108 143 199 258 327 383 464
#     4  12  26  46  73 112 149 200 257 323 388 468
#     4  12  27  46  80 108 156 206 263 323 408 467
#
# _framework density 25.326025999999999
#
# number of rings (size 3 to 8) (size 9 to 14) (size 15 to 20)
#    0.000    0.571    4.286    2.571    8.000    0.000 
#    0.000    0.000    0.000    0.000    0.000    0.000 
#    0.000    0.000    0.000    0.000    0.000    0.000 
#
# Total GULP energy -347068.625597 kJ/mol
# GULP energy per Si atom -12395.308057 kJ/mol
# Density = 2.526838 g / cm^3
# Si number density = 25.326026 Si / 1000 Ang^3
#
#
#
# Elastic Constant Matrix: (Units=GPa)
#
#
# Indices 1 2 3 4 5 6 
#
# 1 75.4460 31.3542 11.0019 0.0000 0.0000 0.0000
# 2 31.3542 143.1206 47.0282 0.0000 0.0000 0.0000
# 3 11.0019 47.0282 49.7494 0.0000 0.0000 0.0000
# 4 0.0000 0.0000 0.0000 54.5741 0.0000 0.0000
# 5 0.0000 0.0000 0.0000 0.0000 27.3922 0.0000
# 6 0.0000 0.0000 0.0000 0.0000 0.0000 51.5091
#
#
#
# Elastic Compliance Matrix: (Units=1/GPa)
#
#
# Indices 1 2 3 4 5 6 
#
# 1 0.014585 -0.003098 -0.000297 0.000000 0.000000 0.000000
# 2 -0.003098 0.010793 -0.009518 0.000000 0.000000 0.000000
# 3 -0.000297 -0.009518 0.029164 0.000000 0.000000 0.000000
# 4 0.000000 0.000000 0.000000 0.018324 0.000000 0.000000
# 5 0.000000 0.000000 0.000000 0.000000 0.036507 0.000000
# 6 0.000000 0.000000 0.000000 0.000000 0.000000 0.019414
#
#
# Mechanical properties :
#
#
# Convention : Reuss Voigt Hill
#
# Bulk Modulus (GPa) = 34.82298 49.67606 42.24952
# Shear Modulus (GPa) = 30.45362 38.62386 34.53874
#
# Velocity S-wave (km/s) = 3.47142 3.90945 3.69692
# Velocity P-wave (km/s) = 5.46328 6.32737 5.91113
#
# Compressibility (1/GPa) = 0.02871667
#
# Stress axis : x y z
#
# Youngs Moduli (GPa) = 68.56279 92.65105 34.28922
#
# Poissons Ratio (x) = 0.28699 0.01020
# Poissons Ratio (y) = 0.21238 0.32636
# Poissons Ratio (z) = 0.02039 0.88183
#
# Static dielectric constant tensor:
#      x y z
#    x 4.498930 0.000000 0.000000 
#    y 0.000000 4.684930 0.000000 
#    z 0.000000 0.000000 4.453900 
# 
# 
# High freq. dielectric constant tensor:
#      x y z
#    x 2.002450 0.000000 0.000000 
#    y 0.000000 2.026950 0.000000 
#    z 0.000000 0.000000 2.005550 
# 
# From -- ./inp_files/7334.got.cif
#   From: 2010.03.12/outbox.cif.g09.slc.cpg/sg19_4_cif.got.tgz:7334.got - 2010.04.10 18:59:41.
