data_PCOD8157719
_publ_section_title
;
Structure prediction by ZEFSAII (Michael W. Deem and Ramdas Pophale) SiO2 
 PCOD8157719
Probable space group: P 21 21 21
;
_chemical_formula_sum "Si O2"
_cell_formula_units_Z 32
_cell_length_a 12.515736
_cell_length_b 9.255189
_cell_length_c 13.957819
_cell_angle_alpha 90.000000
_cell_angle_beta 90.000000
_cell_angle_gamma 90.000000
_cell_volume 1616.810973
_symmetry_space_group_name_H-M "P 21 21 21"
_symmetry_group_IT_number 19
_symmetry_cell_setting 'orthorhombic'
loop_
_space_group_symop_operation_xyz
x,y,z
1/2-x,-y,1/2+z
1/2+x,1/2-y,-z
-x,1/2+y,1/2-z
loop_
_atom_site_type_symbol
_atom_site_label
_atom_site_fract_x
_atom_site_fract_y
_atom_site_fract_z
Si Si1 0.721992 0.334481 0.334175
Si Si2 0.539085 0.344126 0.481888
Si Si3 0.726265 0.665715 0.326594
Si Si4 0.904398 0.170145 0.692480
Si Si5 0.590420 0.161617 0.203527
Si Si6 0.041888 0.826508 0.527204
Si Si7 0.971642 0.661967 0.346951
Si Si8 0.965253 0.326946 0.342158
O O1 0.641279 0.293548 0.419844
O O2 0.703335 0.499178 0.302083
O O3 0.699969 0.236366 0.239528
O O4 0.841460 0.308334 0.370487
O O5 0.428246 0.325136 0.421427
O O6 0.553536 0.510749 0.513042
O O7 0.536360 0.245996 0.575738
O O8 0.706491 0.756832 0.227931
O O9 0.646101 0.717066 0.410646
O O10 0.846203 0.691883 0.361298
O O11 0.995595 0.264140 0.740201
O O12 0.907176 0.006716 0.730207
O O13 0.566750 0.184001 0.090780
O O14 0.034224 0.715177 0.440488
O O15 0.997274 0.493856 0.332484
O O16 0.014491 0.749642 0.257415
#
# Coordination Sequence:
#
# PCOD8157719 Si02
#       8
#     4   4   4   4   4   4   4   4
#     4   9  20  38  58  81 112 149 186 228 279 331
#     4   9  19  37  58  82 111 143 184 230 274 328
#     4   9  20  38  58  81 112 149 186 228 279 331
#     4   9  17  31  55  85 113 141 179 227 274 323
#     4   9  17  31  55  85 113 141 179 227 274 323
#     4   9  19  37  58  82 111 143 184 230 274 328
#     4  11  24  40  57  80 112 149 187 229 280 334
#     4  11  24  40  57  80 112 149 187 229 280 334
#
# _framework density 19.792047
#
# number of rings (size 3 to 8) (size 9 to 14) (size 15 to 20)
#    0.000    2.500    0.000    3.000    0.000    9.000 
#    0.000    7.500    0.000    0.000    0.000    0.000 
#    0.000    0.000    0.000    0.000    0.000    0.000 
#
# Total GULP energy -396699.303233 kJ/mol
# GULP energy per Si atom -12396.853226 kJ/mol
# Density = 1.974700 g / cm^3
# Si number density = 19.792047 Si / 1000 Ang^3
#
#
#
# Elastic Constant Matrix: (Units=GPa)
#
#
# Indices 1 2 3 4 5 6 
#
# 1 59.0282 16.2634 11.3722 0.0000 0.0000 0.0000
# 2 16.2634 78.5057 19.2097 0.0000 0.0000 0.0000
# 3 11.3722 19.2097 55.4183 0.0000 0.0000 0.0000
# 4 0.0000 0.0000 0.0000 40.2367 0.0000 0.0000
# 5 0.0000 0.0000 0.0000 0.0000 25.4653 0.0000
# 6 0.0000 0.0000 0.0000 0.0000 0.0000 28.8740
#
#
#
# Elastic Compliance Matrix: (Units=1/GPa)
#
#
# Indices 1 2 3 4 5 6 
#
# 1 0.018321 -0.003142 -0.002671 0.000000 0.000000 0.000000
# 2 -0.003142 0.014457 -0.004367 0.000000 0.000000 0.000000
# 3 -0.002671 -0.004367 0.020106 0.000000 0.000000 0.000000
# 4 0.000000 0.000000 0.000000 0.024853 0.000000 0.000000
# 5 0.000000 0.000000 0.000000 0.000000 0.039269 0.000000
# 6 0.000000 0.000000 0.000000 0.000000 0.000000 0.034633
#
#
# Mechanical properties :
#
#
# Convention : Reuss Voigt Hill
#
# Bulk Modulus (GPa) = 30.74418 31.84921 31.29669
# Shear Modulus (GPa) = 27.34624 28.65565 28.00094
#
# Velocity S-wave (km/s) = 3.72113 3.80917 3.76541
# Velocity P-wave (km/s) = 5.83350 5.95594 5.89504
#
# Compressibility (1/GPa) = 0.03252648
#
# Stress axis : x y z
#
# Youngs Moduli (GPa) = 54.58143 69.16921 49.73596
#
# Poissons Ratio (x) = 0.21733 0.13282
# Poissons Ratio (y) = 0.17150 0.21718
# Poissons Ratio (z) = 0.14576 0.30203
#
# Static dielectric constant tensor:
#      x y z
#    x 3.764430 0.000000 0.000000 
#    y 0.000000 3.803190 0.000000 
#    z 0.000000 0.000000 3.678700 
# 
# 
# High freq. dielectric constant tensor:
#      x y z
#    x 1.760420 0.000000 0.000000 
#    y 0.000000 1.779130 0.000000 
#    z 0.000000 0.000000 1.760460 
# 
# From -- ./inp_files/6129.got.cif
#   From: 2010.03.12/outbox.cif.g09.slc.cpg/sg19_4_cif.got.tgz:6129.got - 2010.04.10 18:59:41.
