data_PCOD8157615
_publ_section_title
;
Structure prediction by ZEFSAII (Michael W. Deem and Ramdas Pophale) SiO2 
 PCOD8157615
Probable space group: P 21 21 21
;
_chemical_formula_sum "Si O2"
_cell_formula_units_Z 28
_cell_length_a 6.703977
_cell_length_b 14.282574
_cell_length_c 13.798471
_cell_angle_alpha 90.000000
_cell_angle_beta 90.000000
_cell_angle_gamma 90.000000
_cell_volume 1321.204255
_symmetry_space_group_name_H-M "P 21 21 21"
_symmetry_group_IT_number 19
_symmetry_cell_setting 'orthorhombic'
loop_
_space_group_symop_operation_xyz
x,y,z
1/2-x,-y,1/2+z
1/2+x,1/2-y,-z
-x,1/2+y,1/2-z
loop_
_atom_site_type_symbol
_atom_site_label
_atom_site_fract_x
_atom_site_fract_y
_atom_site_fract_z
Si Si1 0.970652 0.774355 0.641860
Si Si2 0.448235 0.648074 0.913496
Si Si3 0.895920 0.149845 0.446169
Si Si4 0.784487 0.871940 0.290946
Si Si5 0.288078 0.034509 0.455803
Si Si6 0.624538 0.662954 0.561879
Si Si7 0.604551 0.075328 0.295814
O O1 0.106486 0.703104 0.703676
O O2 0.071544 0.787224 0.538042
O O3 0.747008 0.734651 0.629400
O O4 0.957135 0.873826 0.696381
O O5 0.522247 0.746093 0.956161
O O6 0.429607 0.651678 0.798363
O O7 0.233893 0.625224 0.959431
O O8 0.606615 0.568759 0.945163
O O9 0.767341 0.140172 0.348630
O O10 0.069497 0.074965 0.444864
O O11 0.920987 0.869806 0.386555
O O12 0.692568 0.973764 0.273546
O O13 0.410936 0.066952 0.362512
O O14 0.272980 0.922908 0.460260
#
# Coordination Sequence:
#
# PCOD8157615 Si02
#       7
#     4   4   4   4   4   4   4
#     4  12  27  47  72 103 138 192 238 285 351 420
#     4  11  25  40  71 101 139 178 228 288 353 413
#     4  11  22  44  67 100 141 176 221 288 351 413
#     4  12  26  46  69 105 137 181 238 290 347 419
#     4  11  24  45  68 104 138 182 228 290 353 411
#     4  12  26  48  73  97 148 185 237 291 343 424
#     4  11  26  44  72 100 139 182 234 290 348 414
#
# _framework density 21.192786000000002
#
# number of rings (size 3 to 8) (size 9 to 14) (size 15 to 20)
#    0.000    0.571    5.714    1.714    4.000    3.429 
#    2.571    0.000    0.000    0.000    0.000    0.000 
#    0.000    0.000    0.000    0.000    0.000    0.000 
#
# Total GULP energy -347424.215755 kJ/mol
# GULP energy per Si atom -12408.007706 kJ/mol
# Density = 2.114455 g / cm^3
# Si number density = 21.192786 Si / 1000 Ang^3
#
#
#
# Elastic Constant Matrix: (Units=GPa)
#
#
# Indices 1 2 3 4 5 6 
#
# 1 101.5946 31.7955 21.7461 0.0000 0.0000 0.0000
# 2 31.7955 112.8522 23.3186 0.0000 0.0000 0.0000
# 3 21.7461 23.3186 81.9353 0.0000 0.0000 0.0000
# 4 0.0000 0.0000 0.0000 33.0099 0.0000 0.0000
# 5 0.0000 0.0000 0.0000 0.0000 27.0679 0.0000
# 6 0.0000 0.0000 0.0000 0.0000 0.0000 43.9516
#
#
#
# Elastic Compliance Matrix: (Units=1/GPa)
#
#
# Indices 1 2 3 4 5 6 
#
# 1 0.011155 -0.002689 -0.002195 0.000000 0.000000 0.000000
# 2 -0.002689 0.010063 -0.002150 0.000000 0.000000 0.000000
# 3 -0.002195 -0.002150 0.013399 0.000000 0.000000 0.000000
# 4 0.000000 0.000000 0.000000 0.030294 0.000000 0.000000
# 5 0.000000 0.000000 0.000000 0.000000 0.036944 0.000000
# 6 0.000000 0.000000 0.000000 0.000000 0.000000 0.022752
#
#
# Mechanical properties :
#
#
# Convention : Reuss Voigt Hill
#
# Bulk Modulus (GPa) = 48.66678 50.01138 49.33908
# Shear Modulus (GPa) = 34.35820 35.44067 34.89944
#
# Velocity S-wave (km/s) = 4.03081 4.09381 4.06243
# Velocity P-wave (km/s) = 6.68408 6.78198 6.73321
#
# Compressibility (1/GPa) = 0.02054790
#
# Stress axis : x y z
#
# Youngs Moduli (GPa) = 89.64978 99.37298 74.63076
#
# Poissons Ratio (x) = 0.26723 0.16383
# Poissons Ratio (y) = 0.24108 0.16047
# Poissons Ratio (z) = 0.19679 0.21367
#
# Static dielectric constant tensor:
#      x y z
#    x 3.968280 0.000000 0.000000 
#    y 0.000000 3.839870 0.000000 
#    z 0.000000 0.000000 3.786620 
# 
# 
# High freq. dielectric constant tensor:
#      x y z
#    x 1.845960 0.000000 0.000000 
#    y 0.000000 1.839790 0.000000 
#    z 0.000000 0.000000 1.827640 
# 
# From -- ./inp_files/5707.got.cif
#   From: 2010.03.12/outbox.cif.g09.slc.cpg/sg19_3_cif.got.tgz:5707.got - 2010.04.10 18:59:41.
