data_PCOD8157766
_publ_section_title
;
Structure prediction by ZEFSAII (Michael W. Deem and Ramdas Pophale) SiO2 
 PCOD8157766
Probable space group: P 21 21 21
;
_chemical_formula_sum "Si O2"
_cell_formula_units_Z 24
_cell_length_a 5.805762
_cell_length_b 12.546019
_cell_length_c 13.560890
_cell_angle_alpha 90.000000
_cell_angle_beta 90.000000
_cell_angle_gamma 90.000000
_cell_volume 987.764384
_symmetry_space_group_name_H-M "P 21 21 21"
_symmetry_group_IT_number 19
_symmetry_cell_setting 'orthorhombic'
loop_
_space_group_symop_operation_xyz
x,y,z
1/2-x,-y,1/2+z
1/2+x,1/2-y,-z
-x,1/2+y,1/2-z
loop_
_atom_site_type_symbol
_atom_site_label
_atom_site_fract_x
_atom_site_fract_y
_atom_site_fract_z
Si Si1 0.769432 0.904748 0.977886
Si Si2 0.993909 0.251598 0.056684
Si Si3 0.914308 0.398741 0.231374
Si Si4 0.566069 0.267930 0.628078
Si Si5 0.577332 0.583562 0.204720
Si Si6 0.296996 0.441503 0.850766
O O1 0.546250 0.875929 0.913986
O O2 0.972042 0.934413 0.903467
O O3 0.833126 0.799861 0.039110
O O4 0.711762 0.003925 0.048111
O O5 0.986401 0.357753 0.123363
O O6 0.994754 0.144835 0.124124
O O7 0.739090 0.246867 0.001171
O O8 0.685973 0.469056 0.230703
O O9 0.882017 0.300248 0.307920
O O10 0.120874 0.470017 0.273469
O O11 0.759498 0.313071 0.701305
O O12 0.411589 0.616496 0.294942
#
# Coordination Sequence:
#
# PCOD8157766 Si02
#       6
#     4   4   4   4   4   4
#     4  11  24  46  74 110 143 194 249 314 385 461
#     4  12  30  52  79 113 163 210 262 325 402 473
#     4  11  27  47  74 110 154 197 266 319 391 460
#     4  11  25  45  75 110 146 196 256 316 387 465
#     4  12  25  45  78 105 154 193 260 323 386 466
#     4  11  29  47  76 112 154 202 263 319 397 465
#
# _framework density 24.297291000000001
#
# number of rings (size 3 to 8) (size 9 to 14) (size 15 to 20)
#    0.000    0.667    1.667    4.000   14.000    1.333 
#    0.000    0.000    0.000    0.000    0.000    0.000 
#    0.000    0.000    0.000    0.000    0.000    0.000 
#
# Total GULP energy -297541.387011 kJ/mol
# GULP energy per Si atom -12397.557792 kJ/mol
# Density = 2.424199 g / cm^3
# Si number density = 24.297291 Si / 1000 Ang^3
#
#
#
# Elastic Constant Matrix: (Units=GPa)
#
#
# Indices 1 2 3 4 5 6 
#
# 1 103.1518 30.1831 50.6161 0.0000 0.0000 0.0000
# 2 30.1831 78.0531 49.4915 0.0000 0.0000 0.0000
# 3 50.6161 49.4915 105.9379 0.0000 0.0000 0.0000
# 4 0.0000 0.0000 0.0000 57.0427 0.0000 0.0000
# 5 0.0000 0.0000 0.0000 0.0000 41.0747 0.0000
# 6 0.0000 0.0000 0.0000 0.0000 0.0000 37.4739
#
#
#
# Elastic Compliance Matrix: (Units=1/GPa)
#
#
# Indices 1 2 3 4 5 6 
#
# 1 0.012789 -0.001522 -0.005400 0.000000 0.000000 0.000000
# 2 -0.001522 0.018385 -0.007862 0.000000 0.000000 0.000000
# 3 -0.005400 -0.007862 0.015692 0.000000 0.000000 0.000000
# 4 0.000000 0.000000 0.000000 0.017531 0.000000 0.000000
# 5 0.000000 0.000000 0.000000 0.000000 0.024346 0.000000
# 6 0.000000 0.000000 0.000000 0.000000 0.000000 0.026685
#
#
# Mechanical properties :
#
#
# Convention : Reuss Voigt Hill
#
# Bulk Modulus (GPa) = 57.80361 60.85826 59.33094
# Shear Modulus (GPa) = 33.16468 37.57506 35.36987
#
# Velocity S-wave (km/s) = 3.69854 3.93679 3.81952
# Velocity P-wave (km/s) = 6.48696 6.76506 6.62747
#
# Compressibility (1/GPa) = 0.01729996
#
# Stress axis : x y z
#
# Youngs Moduli (GPa) = 78.19009 54.39089 63.72532
#
# Poissons Ratio (x) = 0.08278 0.34409
# Poissons Ratio (y) = 0.11899 0.50101
# Poissons Ratio (z) = 0.42220 0.42763
#
# Static dielectric constant tensor:
#      x y z
#    x 4.227710 0.000000 0.000000 
#    y 0.000000 4.462380 0.000000 
#    z 0.000000 0.000000 4.669170 
# 
# 
# High freq. dielectric constant tensor:
#      x y z
#    x 1.950880 0.000000 0.000000 
#    y 0.000000 1.979700 0.000000 
#    z 0.000000 0.000000 1.987140 
# 
# From -- ./inp_files/934.got.cif
#   From: 2010.03.12/outbox.cif.g09.slc.cpg/sg19_1_cif.got.tgz:934.got - 2010.04.10 18:59:41.
