data_PCOD8157230
_publ_section_title
;
Structure prediction by ZEFSAII (Michael W. Deem and Ramdas Pophale) SiO2 
 PCOD8157230
Probable space group: P 21 21 21
;
_chemical_formula_sum "Si O2"
_cell_formula_units_Z 28
_cell_length_a 8.364648
_cell_length_b 16.300159
_cell_length_c 10.010618
_cell_angle_alpha 90.000000
_cell_angle_beta 90.000000
_cell_angle_gamma 90.000000
_cell_volume 1364.898636
_symmetry_space_group_name_H-M "P 21 21 21"
_symmetry_group_IT_number 19
_symmetry_cell_setting 'orthorhombic'
loop_
_space_group_symop_operation_xyz
x,y,z
1/2-x,-y,1/2+z
1/2+x,1/2-y,-z
-x,1/2+y,1/2-z
loop_
_atom_site_type_symbol
_atom_site_label
_atom_site_fract_x
_atom_site_fract_y
_atom_site_fract_z
Si Si1 0.805807 0.231235 0.809344
Si Si2 0.530556 0.180181 0.011981
Si Si3 0.543792 0.312131 0.664782
Si Si4 0.149389 0.483843 0.947799
Si Si5 0.422503 0.491475 0.743902
Si Si6 0.525076 0.363945 0.369887
Si Si7 0.136933 0.852168 0.260899
O O1 0.677916 0.204722 0.918915
O O2 0.724258 0.303225 0.721772
O O3 0.862118 0.161156 0.707041
O O4 0.972218 0.254119 0.881037
O O5 0.377045 0.156890 0.920974
O O6 0.589032 0.104374 0.100409
O O7 0.478950 0.396615 0.730405
O O8 0.548897 0.312452 0.504941
O O9 0.445006 0.229444 0.699198
O O10 0.313648 0.502177 0.874022
O O11 0.002843 0.542619 0.910246
O O12 0.174505 0.485222 0.108901
O O13 0.558720 0.559410 0.774980
O O14 0.679195 0.354662 0.278017
#
# Coordination Sequence:
#
# PCOD8157230 Si02
#       7
#     4   4   4   4   4   4   4
#     4  11  23  40  65  92 126 167 213 262 318 380
#     4  10  23  40  62  92 124 164 214 262 313 384
#     4  10  23  41  65  92 127 168 216 260 321 382
#     4  10  22  42  60  93 127 165 211 259 325 377
#     4  10  23  43  65  91 131 168 214 266 316 387
#     4  11  22  40  65  93 129 166 208 266 322 383
#     4  10  22  42  62  91 130 164 214 263 317 377
#
# _framework density 20.514344000000001
#
# number of rings (size 3 to 8) (size 9 to 14) (size 15 to 20)
#    0.000    1.714    0.000    4.286    8.000    1.143 
#    5.143    0.000    0.000    0.000    0.000    0.000 
#    0.000    0.000    0.000    0.000    0.000    0.000 
#
# Total GULP energy -346923.677482 kJ/mol
# GULP energy per Si atom -12390.131339 kJ/mol
# Density = 2.046765 g / cm^3
# Si number density = 20.514344 Si / 1000 Ang^3
#
#
#
# Elastic Constant Matrix: (Units=GPa)
#
#
# Indices 1 2 3 4 5 6 
#
# 1 98.1155 40.2514 47.8772 0.0000 0.0000 0.0000
# 2 40.2514 113.8340 30.9835 0.0000 0.0000 0.0000
# 3 47.8772 30.9835 73.5751 0.0000 0.0000 0.0000
# 4 0.0000 0.0000 0.0000 27.0670 0.0000 0.0000
# 5 0.0000 0.0000 0.0000 0.0000 43.2864 0.0000
# 6 0.0000 0.0000 0.0000 0.0000 0.0000 22.4459
#
#
#
# Elastic Compliance Matrix: (Units=1/GPa)
#
#
# Indices 1 2 3 4 5 6 
#
# 1 0.015884 -0.003166 -0.009003 0.000000 0.000000 0.000000
# 2 -0.003166 0.010553 -0.002384 0.000000 0.000000 0.000000
# 3 -0.009003 -0.002384 0.020454 0.000000 0.000000 0.000000
# 4 0.000000 0.000000 0.000000 0.036945 0.000000 0.000000
# 5 0.000000 0.000000 0.000000 0.000000 0.023102 0.000000
# 6 0.000000 0.000000 0.000000 0.000000 0.000000 0.044552
#
#
# Mechanical properties :
#
#
# Convention : Reuss Voigt Hill
#
# Bulk Modulus (GPa) = 56.22592 58.19432 57.21012
# Shear Modulus (GPa) = 26.80622 29.65402 28.23012
#
# Velocity S-wave (km/s) = 3.61876 3.80613 3.71363
# Velocity P-wave (km/s) = 6.70285 6.90976 6.80709
#
# Compressibility (1/GPa) = 0.01778539
#
# Stress axis : x y z
#
# Youngs Moduli (GPa) = 62.95608 94.75912 48.89071
#
# Poissons Ratio (x) = 0.30002 0.44016
# Poissons Ratio (y) = 0.19933 0.11654
# Poissons Ratio (z) = 0.56679 0.22588
#
# Static dielectric constant tensor:
#      x y z
#    x 3.618710 0.000000 0.000000 
#    y 0.000000 3.954630 0.000000 
#    z 0.000000 0.000000 3.863390 
# 
# 
# High freq. dielectric constant tensor:
#      x y z
#    x 1.792690 0.000000 0.000000 
#    y 0.000000 1.815710 0.000000 
#    z 0.000000 0.000000 1.807310 
# 
# From -- ./inp_files/3039.got.cif
#   From: 2010.03.12/outbox.cif.g09.slc.cpg/sg19_2_cif.got.tgz:3039.got - 2010.04.10 18:59:41.
