data_PCOD8157370
_publ_section_title
;
Structure prediction by ZEFSAII (Michael W. Deem and Ramdas Pophale) SiO2 
 PCOD8157370
Probable space group: P 21 21 21
;
_chemical_formula_sum "Si O2"
_cell_formula_units_Z 28
_cell_length_a 14.298358
_cell_length_b 13.783211
_cell_length_c 6.834196
_cell_angle_alpha 90.000000
_cell_angle_beta 90.000000
_cell_angle_gamma 90.000000
_cell_volume 1346.864795
_symmetry_space_group_name_H-M "P 21 21 21"
_symmetry_group_IT_number 19
_symmetry_cell_setting 'orthorhombic'
loop_
_space_group_symop_operation_xyz
x,y,z
1/2-x,-y,1/2+z
1/2+x,1/2-y,-z
-x,1/2+y,1/2-z
loop_
_atom_site_type_symbol
_atom_site_label
_atom_site_fract_x
_atom_site_fract_y
_atom_site_fract_z
Si Si1 0.347768 0.038933 0.892610
Si Si2 0.328222 0.559788 0.064415
Si Si3 0.962573 0.451493 0.495496
Si Si4 0.128895 0.292648 0.889578
Si Si5 0.650067 0.414850 0.255341
Si Si6 0.265949 0.355419 0.204736
Si Si7 0.082667 0.803777 0.677075
O O1 0.420658 0.048448 0.719308
O O2 0.244327 0.029945 0.807119
O O3 0.354553 0.131057 0.034947
O O4 0.370536 0.941927 0.018297
O O5 0.427251 0.544051 0.959584
O O6 0.263793 0.626913 0.928016
O O7 0.343197 0.611306 0.271773
O O8 0.279159 0.457022 0.095207
O O9 0.932850 0.547039 0.616260
O O10 0.931362 0.354942 0.612477
O O11 0.160461 0.200018 0.762407
O O12 0.017672 0.286727 0.925582
O O13 0.183970 0.295192 0.095002
O O14 0.363434 0.297003 0.208704
#
# Coordination Sequence:
#
# PCOD8157370 Si02
#       7
#     4   4   4   4   4   4   4
#     4  11  21  39  64  93 127 164 203 264 325 376
#     4  11  25  43  65  92 130 173 216 271 312 389
#     4  10  23  43  62  97 131 163 217 260 326 383
#     4  11  24  44  63  96 130 164 222 267 320 389
#     4  11  22  37  67  93 126 164 206 265 319 385
#     4  12  23  43  69  93 128 176 218 260 333 378
#     4  10  24  41  66  94 130 170 210 273 319 382
#
# _framework density 20.789021000000002
#
# number of rings (size 3 to 8) (size 9 to 14) (size 15 to 20)
#    0.000    1.143    4.286    1.714    2.000    1.143 
#    2.571    1.429    0.000    0.000    0.000    0.000 
#    0.000    0.000    0.000    0.000    0.000    0.000 
#
# Total GULP energy -347346.012962 kJ/mol
# GULP energy per Si atom -12405.214749 kJ/mol
# Density = 2.074170 g / cm^3
# Si number density = 20.789021 Si / 1000 Ang^3
#
#
#
# Elastic Constant Matrix: (Units=GPa)
#
#
# Indices 1 2 3 4 5 6 
#
# 1 98.5556 20.3020 22.5695 0.0000 0.0000 0.0000
# 2 20.3020 72.5360 6.3056 0.0000 0.0000 0.0000
# 3 22.5695 6.3056 77.7873 0.0000 0.0000 0.0000
# 4 0.0000 0.0000 0.0000 26.5731 0.0000 0.0000
# 5 0.0000 0.0000 0.0000 0.0000 32.4811 0.0000
# 6 0.0000 0.0000 0.0000 0.0000 0.0000 33.7816
#
#
#
# Elastic Compliance Matrix: (Units=1/GPa)
#
#
# Indices 1 2 3 4 5 6 
#
# 1 0.011459 -0.002939 -0.003086 0.000000 0.000000 0.000000
# 2 -0.002939 0.014638 -0.000334 0.000000 0.000000 0.000000
# 3 -0.003086 -0.000334 0.013778 0.000000 0.000000 0.000000
# 4 0.000000 0.000000 0.000000 0.037632 0.000000 0.000000
# 5 0.000000 0.000000 0.000000 0.000000 0.030787 0.000000
# 6 0.000000 0.000000 0.000000 0.000000 0.000000 0.029602
#
#
# Mechanical properties :
#
#
# Convention : Reuss Voigt Hill
#
# Bulk Modulus (GPa) = 36.82381 38.58146 37.70264
# Shear Modulus (GPa) = 31.31529 31.88061 31.59795
#
# Velocity S-wave (km/s) = 3.88537 3.92028 3.90286
# Velocity P-wave (km/s) = 6.15465 6.25223 6.20363
#
# Compressibility (1/GPa) = 0.02715634
#
# Stress axis : x y z
#
# Youngs Moduli (GPa) = 87.26950 68.31613 72.57867
#
# Poissons Ratio (x) = 0.20077 0.22401
# Poissons Ratio (y) = 0.25647 0.02423
# Poissons Ratio (z) = 0.26935 0.02281
#
# Static dielectric constant tensor:
#      x y z
#    x 3.820690 0.000000 0.000000 
#    y 0.000000 3.683950 0.000000 
#    z 0.000000 0.000000 3.666950 
# 
# 
# High freq. dielectric constant tensor:
#      x y z
#    x 1.822480 0.000000 0.000000 
#    y 0.000000 1.811950 0.000000 
#    z 0.000000 0.000000 1.811010 
# 
# From -- ./inp_files/1503.got.cif
#   From: 2010.03.12/outbox.cif.g09.slc.cpg/sg19_1_cif.got.tgz:1503.got - 2010.04.10 18:59:41.
