data_PCOD8157956
_publ_section_title
;
Structure prediction by ZEFSAII (Michael W. Deem and Ramdas Pophale) SiO2 
 PCOD8157956
Probable space group: C 2 2 21
;
_chemical_formula_sum "Si O2"
_cell_formula_units_Z 64
_cell_length_a 5.307604
_cell_length_b 23.153020
_cell_length_c 28.967173
_cell_angle_alpha 90.000000
_cell_angle_beta 90.000000
_cell_angle_gamma 90.000000
_cell_volume 3559.690772
_symmetry_space_group_name_H-M "C 2 2 21"
_symmetry_group_IT_number 20
_symmetry_cell_setting 'orthorhombic'
loop_
_space_group_symop_operation_xyz
x,y,z
-x,-y,1/2+z
x,-y,-z
-x,y,1/2-z
1/2+x,1/2+y,z
1/2-x,1/2-y,1/2+z
1/2+x,1/2-y,-z
1/2-x,1/2+y,1/2-z
loop_
_atom_site_type_symbol
_atom_site_label
_atom_site_fract_x
_atom_site_fract_y
_atom_site_fract_z
Si Si1 0.250000 0.400130 0.877902
Si Si2 0.250000 0.579174 0.225713
Si Si3 0.750000 0.819481 0.474220
Si Si4 0.750000 0.171796 0.369363
Si Si5 0.750001 0.994291 0.055334
Si Si6 0.250000 0.734977 0.941028
Si Si7 0.250000 0.796110 0.764083
Si Si8 0.250001 0.049679 0.961610
O O1 0.250000 0.434314 0.829029
O O2 0.499541 0.361926 0.884299
O O3 0.250000 0.444163 0.920229
O O4 0.000459 0.361926 0.884299
O O5 0.500000 0.552569 0.250000
O O6 0.250000 0.648536 0.229861
O O7 0.000000 0.552569 0.250000
O O8 0.750000 0.787221 0.522686
O O9 0.499674 0.803707 0.445549
O O10 0.750000 0.887440 0.484931
O O11 0.000328 0.803707 0.445549
O O12 0.749999 0.235546 0.391083
O O13 0.750000 0.180288 0.315117
O O14 0.499532 0.958617 0.069966
O O15 0.000471 0.958617 0.069966
O O16 0.750002 0.000000 0.000000
O O17 0.500000 0.759632 0.750000
O O18 0.000000 0.759632 0.750000
O O19 0.250003 0.000000 0.000000
#
# Coordination Sequence:
#
# PCOD8157956 Si02
#       8
#     8   8   8   8   8   8   8   8
#     4  12  21  31  51  77 117 150 177 227 263 347
#     4  10  16  30  46  70 106 152 167 204 289 331
#     4  10  21  41  55  72 112 138 190 227 268 322
#     4  12  21  31  53  79 112 150 181 214 264 352
#     4  10  23  34  48  79 106 141 192 225 281 313
#     4  10  23  35  55  82 101 152 178 221 271 320
#     4  10  16  30  45  73 109 146 168 208 276 331
#     4  10  21  38  57  76  98 143 184 238 282 306
#
# _framework density 17.979088999999998
#
# number of rings (size 3 to 8) (size 9 to 14) (size 15 to 20)
#    0.000    1.500    5.000    2.250    7.000    0.000 
#    0.000    0.000    0.000    0.000    0.000    0.000 
#    0.000   20.000    0.000    0.000    0.000    0.000 
#
# Total GULP energy -396633.350751 kJ/mol
# GULP energy per Si atom -12394.792211 kJ/mol
# Density = 1.793817 g / cm^3
# Si number density = 17.979089 Si / 1000 Ang^3
#
#
#
# Elastic Constant Matrix: (Units=GPa)
#
#
# Indices 1 2 3 4 5 6 
#
# 1 206.7315 44.6485 25.9350 0.0000 0.0000 0.0000
# 2 44.6485 91.0340 27.7768 0.0000 0.0000 0.0000
# 3 25.9350 27.7768 70.1562 0.0000 0.0000 0.0000
# 4 0.0000 0.0000 0.0000 3.9480 0.0000 0.0000
# 5 0.0000 0.0000 0.0000 0.0000 13.8323 0.0000
# 6 0.0000 0.0000 0.0000 0.0000 0.0000 19.4944
#
#
#
# Elastic Compliance Matrix: (Units=1/GPa)
#
#
# Indices 1 2 3 4 5 6 
#
# 1 0.005483 -0.002355 -0.001094 0.000000 0.000000 0.000000
# 2 -0.002355 0.013506 -0.004477 0.000000 0.000000 0.000000
# 3 -0.001094 -0.004477 0.016431 0.000000 0.000000 0.000000
# 4 0.000000 0.000000 0.000000 0.253293 0.000000 0.000000
# 5 0.000000 0.000000 0.000000 0.000000 0.072294 0.000000
# 6 0.000000 0.000000 0.000000 0.000000 0.000000 0.051297
#
#
# Mechanical properties :
#
#
# Convention : Reuss Voigt Hill
#
# Bulk Modulus (GPa) = 51.10596 62.73804 56.92200
# Shear Modulus (GPa) = 11.50271 25.42569 18.46420
#
# Velocity S-wave (km/s) = 2.53214 3.76464 3.20813
# Velocity P-wave (km/s) = 6.08571 7.33944 6.74179
#
# Compressibility (1/GPa) = 0.01956719
#
# Stress axis : x y z
#
# Youngs Moduli (GPa) = 182.37572 74.04078 60.86076
#
# Poissons Ratio (x) = 0.17439 0.06661
# Poissons Ratio (y) = 0.42956 0.27246
# Poissons Ratio (z) = 0.19960 0.33146
#
# Static dielectric constant tensor:
#      x y z
#    x 5.461510 0.000000 0.000000 
#    y 0.000000 2.874070 0.000000 
#    z 0.000000 0.000000 3.398010 
# 
# 
# High freq. dielectric constant tensor:
#      x y z
#    x 1.743140 0.000000 0.000000 
#    y 0.000000 1.637700 0.000000 
#    z 0.000000 0.000000 1.674100 
# 
# From -- ./inp_files/29989.got.cif
#   From: 2010.03.12/outbox.cif.g09.slc.cpg/sg20_15_cif.got.tgz:29989.got - 2010.04.14 01:38:04.
