data_PCOD8157150
_publ_section_title
;
Structure prediction by ZEFSAII (Michael W. Deem and Ramdas Pophale) SiO2 
 PCOD8157150
Probable space group: P 21 21 21
;
_chemical_formula_sum "Si O2"
_cell_formula_units_Z 28
_cell_length_a 9.289100
_cell_length_b 15.314960
_cell_length_c 8.476942
_cell_angle_alpha 90.000000
_cell_angle_beta 90.000000
_cell_angle_gamma 90.000000
_cell_volume 1205.948375
_symmetry_space_group_name_H-M "P 21 21 21"
_symmetry_group_IT_number 19
_symmetry_cell_setting 'orthorhombic'
loop_
_space_group_symop_operation_xyz
x,y,z
1/2-x,-y,1/2+z
1/2+x,1/2-y,-z
-x,1/2+y,1/2-z
loop_
_atom_site_type_symbol
_atom_site_label
_atom_site_fract_x
_atom_site_fract_y
_atom_site_fract_z
Si Si1 0.979471 0.203181 0.077579
Si Si2 0.464449 0.605266 0.100834
Si Si3 0.836981 0.831360 0.599830
Si Si4 0.284730 0.079329 0.580294
Si Si5 0.574679 0.439741 0.707627
Si Si6 0.971744 0.581734 0.717201
Si Si7 0.672098 0.969317 0.015228
O O1 0.981171 0.140384 0.926663
O O2 0.062387 0.292854 0.038598
O O3 0.811842 0.222643 0.114747
O O4 0.058032 0.159125 0.227519
O O5 0.425617 0.675638 0.235467
O O6 0.588461 0.644957 0.982985
O O7 0.543884 0.520422 0.175110
O O8 0.323451 0.577400 0.007432
O O9 0.799835 0.931966 0.569142
O O10 0.182716 0.050794 0.437107
O O11 0.182354 0.118102 0.717245
O O12 0.371659 0.995657 0.644380
O O13 0.417279 0.471317 0.648381
O O14 0.092475 0.588275 0.852759
#
# Coordination Sequence:
#
# PCOD8157150 Si02
#       7
#     4   4   4   4   4   4   4
#     4  12  24  44  64  95 140 169 217 275 347 393
#     4  11  20  41  66  98 128 173 235 260 318 398
#     4  11  26  40  68 100 129 181 215 276 332 405
#     4  11  21  35  65  97 128 166 227 272 324 383
#     4  11  21  39  66  97 131 172 217 278 324 394
#     4  10  22  39  64  95 134 171 215 278 326 393
#     4  10  22  42  71  94 126 176 238 263 317 394
#
# _framework density 23.218242
#
# number of rings (size 3 to 8) (size 9 to 14) (size 15 to 20)
#    0.000    1.143    5.714    0.000    4.000    1.143 
#    0.000    1.429    6.286    0.000    0.000    0.000 
#    0.000    0.000    0.000    0.000    0.000    0.000 
#
# Total GULP energy -347129.748415 kJ/mol
# GULP energy per Si atom -12397.491015 kJ/mol
# Density = 2.316540 g / cm^3
# Si number density = 23.218242 Si / 1000 Ang^3
#
#
#
# Elastic Constant Matrix: (Units=GPa)
#
#
# Indices 1 2 3 4 5 6 
#
# 1 144.2989 -3.8875 32.5860 0.0000 0.0000 0.0000
# 2 -3.8875 15.0399 0.1713 0.0000 0.0000 0.0000
# 3 32.5860 0.1713 75.9324 0.0000 0.0000 0.0000
# 4 0.0000 0.0000 0.0000 23.1277 0.0000 0.0000
# 5 0.0000 0.0000 0.0000 0.0000 47.9991 0.0000
# 6 0.0000 0.0000 0.0000 0.0000 0.0000 21.0272
#
#
#
# Elastic Compliance Matrix: (Units=1/GPa)
#
#
# Indices 1 2 3 4 5 6 
#
# 1 0.007736 0.002037 -0.003324 0.000000 0.000000 0.000000
# 2 0.002037 0.067028 -0.001026 0.000000 0.000000 0.000000
# 3 -0.003324 -0.001026 0.014599 0.000000 0.000000 0.000000
# 4 0.000000 0.000000 0.000000 0.043238 0.000000 0.000000
# 5 0.000000 0.000000 0.000000 0.000000 0.020834 0.000000
# 6 0.000000 0.000000 0.000000 0.000000 0.000000 0.047558
#
#
# Mechanical properties :
#
#
# Convention : Reuss Voigt Hill
#
# Bulk Modulus (GPa) = 11.80118 32.55676 22.17897
# Shear Modulus (GPa) = 21.38008 32.19087 26.78548
#
# Velocity S-wave (km/s) = 3.03781 3.72754 3.40021
# Velocity P-wave (km/s) = 4.17111 5.70777 4.99884
#
# Compressibility (1/GPa) = 0.08473726
#
# Stress axis : x y z
#
# Youngs Moduli (GPa) = 129.27154 14.91912 68.50000
#
# Poissons Ratio (x) = -0.03040 0.22772
# Poissons Ratio (y) = -0.26337 0.07025
# Poissons Ratio (z) = 0.42974 0.01530
#
# Static dielectric constant tensor:
#      x y z
#    x 4.613790 0.000000 0.000000 
#    y 0.000000 3.590910 0.000000 
#    z 0.000000 0.000000 4.528890 
# 
# 
# High freq. dielectric constant tensor:
#      x y z
#    x 1.944850 0.000000 0.000000 
#    y 0.000000 1.861540 0.000000 
#    z 0.000000 0.000000 1.933610 
# 
# From -- ./inp_files/3003.got.cif
#   From: 2010.03.12/outbox.cif.g09.slc.cpg/sg19_2_cif.got.tgz:3003.got - 2010.04.10 18:59:41.
