data_PCOD8157232
_publ_section_title
;
Structure prediction by ZEFSAII (Michael W. Deem and Ramdas Pophale) SiO2 
 PCOD8157232
Probable space group: P 21 21 21
;
_chemical_formula_sum "Si O2"
_cell_formula_units_Z 32
_cell_length_a 13.031419
_cell_length_b 15.514118
_cell_length_c 7.632309
_cell_angle_alpha 90.000000
_cell_angle_beta 90.000000
_cell_angle_gamma 90.000000
_cell_volume 1543.031330
_symmetry_space_group_name_H-M "P 21 21 21"
_symmetry_group_IT_number 19
_symmetry_cell_setting 'orthorhombic'
loop_
_space_group_symop_operation_xyz
x,y,z
1/2-x,-y,1/2+z
1/2+x,1/2-y,-z
-x,1/2+y,1/2-z
loop_
_atom_site_type_symbol
_atom_site_label
_atom_site_fract_x
_atom_site_fract_y
_atom_site_fract_z
Si Si1 0.698412 0.676511 0.070110
Si Si2 0.064452 0.654069 0.932330
Si Si3 0.353545 0.850280 0.234737
Si Si4 0.274291 0.389011 0.968598
Si Si5 0.574223 0.507550 0.082163
Si Si6 0.508762 0.867809 0.681167
Si Si7 0.684711 0.274115 0.902255
Si Si8 0.861084 0.993673 0.766320
O O1 0.632936 0.592510 0.023921
O O2 0.742073 0.673398 0.268326
O O3 0.631138 0.760994 0.034471
O O4 0.793810 0.674566 0.939268
O O5 0.017519 0.616597 0.112211
O O6 0.134860 0.578360 0.855708
O O7 0.972959 0.676394 0.795281
O O8 0.299620 0.801602 0.396184
O O9 0.354547 0.951832 0.285329
O O10 0.218115 0.325583 0.105584
O O11 0.298193 0.479477 0.061500
O O12 0.379969 0.346561 0.899777
O O13 0.196702 0.411503 0.812690
O O14 0.473819 0.539182 0.185046
O O15 0.543870 0.450794 0.911286
O O16 0.434637 0.785625 0.649492
#
# Coordination Sequence:
#
# PCOD8157232 Si02
#       8
#     4   4   4   4   4   4   4   4
#     4  12  24  44  70  99 128 180 228 267 340 411
#     4  11  22  44  66  94 138 170 221 285 329 398
#     4  10  24  42  65  96 134 173 215 282 339 388
#     4  11  22  41  69  94 132 178 221 275 341 396
#     4   9  24  42  68  97 134 171 223 279 334 406
#     4  10  22  45  64  97 137 170 218 281 338 392
#     4  11  24  42  69  96 133 176 219 277 332 403
#     4  10  22  42  61  97 128 174 217 274 333 398
#
# _framework density 20.738401
#
# number of rings (size 3 to 8) (size 9 to 14) (size 15 to 20)
#    0.000    1.500    2.500    2.250    5.250    0.000 
#   11.250    0.000    0.000    0.000    0.000    0.000 
#    0.000    0.000    0.000    0.000    0.000    0.000 
#
# Total GULP energy -396778.470760 kJ/mol
# GULP energy per Si atom -12399.327211 kJ/mol
# Density = 2.069120 g / cm^3
# Si number density = 20.738401 Si / 1000 Ang^3
#
#
#
# Elastic Constant Matrix: (Units=GPa)
#
#
# Indices 1 2 3 4 5 6 
#
# 1 99.7158 48.6440 32.1669 0.0000 0.0000 0.0000
# 2 48.6440 58.9074 14.6523 0.0000 0.0000 0.0000
# 3 32.1669 14.6523 104.1301 0.0000 0.0000 0.0000
# 4 0.0000 0.0000 0.0000 26.4944 0.0000 0.0000
# 5 0.0000 0.0000 0.0000 0.0000 32.8278 0.0000
# 6 0.0000 0.0000 0.0000 0.0000 0.0000 26.3831
#
#
#
# Elastic Compliance Matrix: (Units=1/GPa)
#
#
# Indices 1 2 3 4 5 6 
#
# 1 0.018005 -0.013974 -0.003596 0.000000 0.000000 0.000000
# 2 -0.013974 0.028437 0.000315 0.000000 0.000000 0.000000
# 3 -0.003596 0.000315 0.010670 0.000000 0.000000 0.000000
# 4 0.000000 0.000000 0.000000 0.037744 0.000000 0.000000
# 5 0.000000 0.000000 0.000000 0.000000 0.030462 0.000000
# 6 0.000000 0.000000 0.000000 0.000000 0.000000 0.037903
#
#
# Mechanical properties :
#
#
# Convention : Reuss Voigt Hill
#
# Bulk Modulus (GPa) = 44.24176 50.40884 47.32530
# Shear Modulus (GPa) = 24.35897 28.29374 26.32635
#
# Velocity S-wave (km/s) = 3.43094 3.69767 3.56680
# Velocity P-wave (km/s) = 6.08890 6.52611 6.31129
#
# Compressibility (1/GPa) = 0.02260308
#
# Stress axis : x y z
#
# Youngs Moduli (GPa) = 55.53940 35.16602 93.72278
#
# Poissons Ratio (x) = 0.49140 0.33700
# Poissons Ratio (y) = 0.77610 -0.02955
# Poissons Ratio (z) = 0.19971 -0.01109
#
# Static dielectric constant tensor:
#      x y z
#    x 3.807490 0.000000 0.000000 
#    y 0.000000 3.485780 0.000000 
#    z 0.000000 0.000000 3.874400 
# 
# 
# High freq. dielectric constant tensor:
#      x y z
#    x 1.820770 0.000000 0.000000 
#    y 0.000000 1.790860 0.000000 
#    z 0.000000 0.000000 1.821320 
# 
# From -- ./inp_files/3601.got.cif
#   From: 2010.03.12/outbox.cif.g09.slc.cpg/sg19_2_cif.got.tgz:3601.got - 2010.04.10 18:59:41.
