data_PCOD8157003
_publ_section_title
;
Structure prediction by ZEFSAII (Michael W. Deem and Ramdas Pophale) SiO2 
 PCOD8157003
Probable space group: P 21 21 21
;
_chemical_formula_sum "Si O2"
_cell_formula_units_Z 24
_cell_length_a 5.008527
_cell_length_b 25.656725
_cell_length_c 8.845765
_cell_angle_alpha 90.000000
_cell_angle_beta 90.000000
_cell_angle_gamma 90.000000
_cell_volume 1136.702031
_symmetry_space_group_name_H-M "P 21 21 21"
_symmetry_group_IT_number 19
_symmetry_cell_setting 'orthorhombic'
loop_
_space_group_symop_operation_xyz
x,y,z
1/2-x,-y,1/2+z
1/2+x,1/2-y,-z
-x,1/2+y,1/2-z
loop_
_atom_site_type_symbol
_atom_site_label
_atom_site_fract_x
_atom_site_fract_y
_atom_site_fract_z
Si Si1 0.246279 0.879552 0.524238
Si Si2 0.746236 0.944458 0.526171
Si Si3 0.744096 0.380689 0.331799
Si Si4 0.580855 0.267548 0.911715
Si Si5 0.582620 0.730064 0.918037
Si Si6 0.741800 0.054260 0.672392
O O1 0.457988 0.923301 0.573896
O O2 0.246763 0.867830 0.345894
O O3 0.310514 0.825971 0.609398
O O4 0.960802 0.901084 0.577222
O O5 0.755304 0.954195 0.349621
O O6 0.811137 0.999065 0.601775
O O7 0.807138 0.328693 0.424545
O O8 0.455654 0.402303 0.379013
O O9 0.954049 0.425248 0.379092
O O10 0.506722 0.244726 0.749895
O O11 0.318258 0.267670 0.017980
O O12 0.325617 0.733386 0.027178
#
# Coordination Sequence:
#
# PCOD8157003 Si02
#       6
#     4   4   4   4   4   4
#     4  10  21  39  66  91 118 165 220 265 302 380
#     4  10  21  39  61  91 123 156 211 266 316 376
#     4  10  21  41  65  86 123 176 206 248 330 396
#     4  12  24  42  72  96 126 175 228 265 313 396
#     4  12  26  44  64  99 140 168 215 276 334 390
#     4  10  21  39  64  87 120 164 210 260 317 382
#
# _framework density 21.113714999999999
#
# number of rings (size 3 to 8) (size 9 to 14) (size 15 to 20)
#    0.000    1.333    1.667    4.000    4.667    0.000 
#    9.000    0.000    0.000    0.000    0.000    0.000 
#    0.000    0.000    0.000    0.000    0.000    0.000 
#
# Total GULP energy -297709.380419 kJ/mol
# GULP energy per Si atom -12404.557517 kJ/mol
# Density = 2.106566 g / cm^3
# Si number density = 21.113715 Si / 1000 Ang^3
#
#
#
# Elastic Constant Matrix: (Units=GPa)
#
#
# Indices 1 2 3 4 5 6 
#
# 1 124.8392 29.2253 40.5358 0.0000 0.0000 0.0000
# 2 29.2253 126.2375 45.9616 0.0000 0.0000 0.0000
# 3 40.5358 45.9616 54.2661 0.0000 0.0000 0.0000
# 4 0.0000 0.0000 0.0000 24.5278 0.0000 0.0000
# 5 0.0000 0.0000 0.0000 0.0000 29.5300 0.0000
# 6 0.0000 0.0000 0.0000 0.0000 0.0000 24.6979
#
#
#
# Elastic Compliance Matrix: (Units=1/GPa)
#
#
# Indices 1 2 3 4 5 6 
#
# 1 0.010609 0.000621 -0.008450 0.000000 0.000000 0.000000
# 2 0.000621 0.011490 -0.010195 0.000000 0.000000 0.000000
# 3 -0.008450 -0.010195 0.033375 0.000000 0.000000 0.000000
# 4 0.000000 0.000000 0.000000 0.040770 0.000000 0.000000
# 5 0.000000 0.000000 0.000000 0.000000 0.033864 0.000000
# 6 0.000000 0.000000 0.000000 0.000000 0.000000 0.040489
#
#
# Mechanical properties :
#
#
# Convention : Reuss Voigt Hill
#
# Bulk Modulus (GPa) = 51.48269 59.64313 55.56291
# Shear Modulus (GPa) = 23.46091 28.39249 25.92670
#
# Velocity S-wave (km/s) = 3.33704 3.67105 3.50802
# Velocity P-wave (km/s) = 6.26771 6.80284 6.54075
#
# Compressibility (1/GPa) = 0.01942400
#
# Stress axis : x y z
#
# Youngs Moduli (GPa) = 94.26100 87.03374 29.96282
#
# Poissons Ratio (x) = -0.05401 0.25319
# Poissons Ratio (y) = -0.05849 0.30547
# Poissons Ratio (z) = 0.79653 0.88731
#
# Static dielectric constant tensor:
#      x y z
#    x 4.265070 0.000000 0.000000 
#    y 0.000000 3.793130 0.000000 
#    z 0.000000 0.000000 3.555620 
# 
# 
# High freq. dielectric constant tensor:
#      x y z
#    x 1.851050 0.000000 0.000000 
#    y 0.000000 1.836680 0.000000 
#    z 0.000000 0.000000 1.799460 
# 
# From -- ./inp_files/2456.got.cif
#   From: 2010.03.12/outbox.cif.g09.slc.cpg/sg19_2_cif.got.tgz:2456.got - 2010.04.10 18:59:41.
