data_PCOD8157118
_publ_section_title
;
Structure prediction by ZEFSAII (Michael W. Deem and Ramdas Pophale) SiO2 
 PCOD8157118
Probable space group: P 21 21 21
;
_chemical_formula_sum "Si O2"
_cell_formula_units_Z 28
_cell_length_a 14.717726
_cell_length_b 9.344481
_cell_length_c 9.331308
_cell_angle_alpha 90.000000
_cell_angle_beta 90.000000
_cell_angle_gamma 90.000000
_cell_volume 1283.330226
_symmetry_space_group_name_H-M "P 21 21 21"
_symmetry_group_IT_number 19
_symmetry_cell_setting 'orthorhombic'
loop_
_space_group_symop_operation_xyz
x,y,z
1/2-x,-y,1/2+z
1/2+x,1/2-y,-z
-x,1/2+y,1/2-z
loop_
_atom_site_type_symbol
_atom_site_label
_atom_site_fract_x
_atom_site_fract_y
_atom_site_fract_z
Si Si1 0.540313 0.038488 0.431051
Si Si2 0.923059 0.654915 0.028723
Si Si3 0.792429 0.517675 0.818693
Si Si4 0.102608 0.078657 0.152340
Si Si5 0.133325 0.747245 0.567026
Si Si6 0.972051 0.932005 0.618656
Si Si7 0.310819 0.755074 0.415097
O O1 0.590392 0.181551 0.483173
O O2 0.487559 0.064770 0.281210
O O3 0.476289 0.994850 0.561854
O O4 0.614837 0.916769 0.389970
O O5 0.935001 0.637939 0.198126
O O6 0.834268 0.569664 0.971356
O O7 0.013919 0.587024 0.954734
O O8 0.683715 0.536199 0.821880
O O9 0.820395 0.348144 0.809318
O O10 0.833617 0.613902 0.691797
O O11 0.145876 0.211519 0.068830
O O12 0.202287 0.735410 0.430481
O O13 0.034348 0.817314 0.529364
O O14 0.865718 0.887789 0.631445
#
# Coordination Sequence:
#
# PCOD8157118 Si02
#       7
#     4   4   4   4   4   4   4
#     4  12  24  45  68 103 139 182 234 295 348 418
#     4  11  25  40  67 103 134 179 235 284 357 415
#     4  10  21  45  69  97 133 187 234 272 352 429
#     4  11  23  39  69  96 142 179 226 290 347 409
#     4  10  23  40  71 101 135 176 232 288 340 406
#     4  11  22  45  70  96 139 189 234 281 353 429
#     4  11  22  44  70 100 140 186 231 292 347 424
#
# _framework density 21.818232999999999
#
# number of rings (size 3 to 8) (size 9 to 14) (size 15 to 20)
#    0.000    1.143    2.857    5.143    2.000    2.286 
#    7.714    0.000    0.000    0.000    0.000    0.000 
#    0.000    0.000    0.000    0.000    0.000    0.000 
#
# Total GULP energy -346909.476416 kJ/mol
# GULP energy per Si atom -12389.624158 kJ/mol
# Density = 2.176857 g / cm^3
# Si number density = 21.818233 Si / 1000 Ang^3
#
#
#
# Elastic Constant Matrix: (Units=GPa)
#
#
# Indices 1 2 3 4 5 6 
#
# 1 97.8912 45.0155 30.9403 0.0000 0.0000 0.0000
# 2 45.0155 136.0015 41.9747 0.0000 0.0000 0.0000
# 3 30.9403 41.9747 135.5292 0.0000 0.0000 0.0000
# 4 0.0000 0.0000 0.0000 26.6138 0.0000 0.0000
# 5 0.0000 0.0000 0.0000 0.0000 28.8348 0.0000
# 6 0.0000 0.0000 0.0000 0.0000 0.0000 28.0608
#
#
#
# Elastic Compliance Matrix: (Units=1/GPa)
#
#
# Indices 1 2 3 4 5 6 
#
# 1 0.012404 -0.003573 -0.001725 0.000000 0.000000 0.000000
# 2 -0.003573 0.009159 -0.002021 0.000000 0.000000 0.000000
# 3 -0.001725 -0.002021 0.008398 0.000000 0.000000 0.000000
# 4 0.000000 0.000000 0.000000 0.037574 0.000000 0.000000
# 5 0.000000 0.000000 0.000000 0.000000 0.034680 0.000000
# 6 0.000000 0.000000 0.000000 0.000000 0.000000 0.035637
#
#
# Mechanical properties :
#
#
# Convention : Reuss Voigt Hill
#
# Bulk Modulus (GPa) = 65.26182 67.25367 66.25775
# Shear Modulus (GPa) = 31.72609 33.46798 32.59704
#
# Velocity S-wave (km/s) = 3.81742 3.92081 3.86946
# Velocity P-wave (km/s) = 7.02899 7.16857 7.09913
#
# Compressibility (1/GPa) = 0.01532289
#
# Stress axis : x y z
#
# Youngs Moduli (GPa) = 80.62061 109.17863 119.07286
#
# Poissons Ratio (x) = 0.39011 0.20541
# Poissons Ratio (y) = 0.28807 0.24065
# Poissons Ratio (z) = 0.13907 0.22065
#
# Static dielectric constant tensor:
#      x y z
#    x 4.073680 0.000000 0.000000 
#    y 0.000000 3.931070 0.000000 
#    z 0.000000 0.000000 3.861730 
# 
# 
# High freq. dielectric constant tensor:
#      x y z
#    x 1.852270 0.000000 0.000000 
#    y 0.000000 1.849250 0.000000 
#    z 0.000000 0.000000 1.847890 
# 
# From -- ./inp_files/4158.got.cif
#   From: 2010.03.12/outbox.cif.g09.slc.cpg/sg19_3_cif.got.tgz:4158.got - 2010.04.10 18:59:41.
