data_PCOD8157587
_publ_section_title
;
Structure prediction by ZEFSAII (Michael W. Deem and Ramdas Pophale) SiO2 
 PCOD8157587
Probable space group: P 21 21 21
;
_chemical_formula_sum "Si O2"
_cell_formula_units_Z 32
_cell_length_a 9.361504
_cell_length_b 13.728974
_cell_length_c 11.337155
_cell_angle_alpha 90.000000
_cell_angle_beta 90.000000
_cell_angle_gamma 90.000000
_cell_volume 1457.094752
_symmetry_space_group_name_H-M "P 21 21 21"
_symmetry_group_IT_number 19
_symmetry_cell_setting 'orthorhombic'
loop_
_space_group_symop_operation_xyz
x,y,z
1/2-x,-y,1/2+z
1/2+x,1/2-y,-z
-x,1/2+y,1/2-z
loop_
_atom_site_type_symbol
_atom_site_label
_atom_site_fract_x
_atom_site_fract_y
_atom_site_fract_z
Si Si1 0.891024 0.957085 0.278647
Si Si2 0.668431 0.541397 0.599006
Si Si3 0.705407 0.340799 0.497304
Si Si4 0.209060 0.865475 0.635972
Si Si5 0.016385 0.785796 0.140778
Si Si6 0.373237 0.349024 0.116485
Si Si7 0.543310 0.857018 0.655882
Si Si8 0.387846 0.937980 0.224392
O O1 0.761259 0.915070 0.353227
O O2 0.002087 0.978562 0.383408
O O3 0.950754 0.889411 0.174379
O O4 0.858129 0.058096 0.211821
O O5 0.748529 0.440165 0.565234
O O6 0.694577 0.625275 0.504090
O O7 0.731452 0.581852 0.721491
O O8 0.616389 0.270805 0.581800
O O9 0.851622 0.291781 0.450811
O O10 0.599096 0.372181 0.391445
O O11 0.154673 0.758016 0.671778
O O12 0.375116 0.883556 0.667661
O O13 0.105125 0.946263 0.695136
O O14 0.068913 0.737912 0.263857
O O15 0.500528 0.405347 0.178645
O O16 0.405756 0.339281 0.977699
#
# Coordination Sequence:
#
# PCOD8157587 Si02
#       8
#     4   4   4   4   4   4   4   4
#     4  12  25  47  73 106 151 189 243 309 370 431
#     4  11  21  46  73  98 143 198 240 285 372 440
#     4  11  26  43  75 104 145 192 246 300 368 439
#     4  11  23  46  76 101 150 198 239 298 366 447
#     4  12  25  47  74 106 146 197 245 303 369 444
#     4  12  29  44  77 117 143 189 259 307 361 446
#     4  12  25  49  74 106 152 199 235 310 383 433
#     4  11  24  46  72 110 142 194 249 298 363 448
#
# _framework density 21.961509
#
# number of rings (size 3 to 8) (size 9 to 14) (size 15 to 20)
#    0.000    0.500    6.250    1.500    1.750    3.000 
#    2.250    0.000    0.000    0.000    0.000    0.000 
#    0.000    0.000    0.000    0.000    0.000    0.000 
#
# Total GULP energy -396712.204464 kJ/mol
# GULP energy per Si atom -12397.256389 kJ/mol
# Density = 2.191152 g / cm^3
# Si number density = 21.961509 Si / 1000 Ang^3
#
#
#
# Elastic Constant Matrix: (Units=GPa)
#
#
# Indices 1 2 3 4 5 6 
#
# 1 87.6327 15.3722 23.6623 0.0000 0.0000 0.0000
# 2 15.3722 64.9027 2.3526 0.0000 0.0000 0.0000
# 3 23.6623 2.3526 87.8161 0.0000 0.0000 0.0000
# 4 0.0000 0.0000 0.0000 39.8210 0.0000 0.0000
# 5 0.0000 0.0000 0.0000 0.0000 31.8970 0.0000
# 6 0.0000 0.0000 0.0000 0.0000 0.0000 31.2693
#
#
#
# Elastic Compliance Matrix: (Units=1/GPa)
#
#
# Indices 1 2 3 4 5 6 
#
# 1 0.012836 -0.002918 -0.003380 0.000000 0.000000 0.000000
# 2 -0.002918 0.016086 0.000355 0.000000 0.000000 0.000000
# 3 -0.003380 0.000355 0.012289 0.000000 0.000000 0.000000
# 4 0.000000 0.000000 0.000000 0.025112 0.000000 0.000000
# 5 0.000000 0.000000 0.000000 0.000000 0.031351 0.000000
# 6 0.000000 0.000000 0.000000 0.000000 0.000000 0.031980
#
#
# Mechanical properties :
#
#
# Convention : Reuss Voigt Hill
#
# Bulk Modulus (GPa) = 34.10096 35.90286 35.00191
# Shear Modulus (GPa) = 33.04372 33.86177 33.45275
#
# Velocity S-wave (km/s) = 3.88315 3.93092 3.90711
# Velocity P-wave (km/s) = 5.97214 6.08165 6.02714
#
# Compressibility (1/GPa) = 0.02932469
#
# Stress axis : x y z
#
# Youngs Moduli (GPa) = 77.90677 62.16647 81.37489
#
# Poissons Ratio (x) = 0.18138 0.27509
# Poissons Ratio (y) = 0.22730 -0.02891
# Poissons Ratio (z) = 0.26336 -0.02208
#
# Static dielectric constant tensor:
#      x y z
#    x -2.582950 0.000000 0.000000 
#    y 0.000000 3.994480 0.000000 
#    z 0.000000 0.000000 4.111860 
# 
# 
# High freq. dielectric constant tensor:
#      x y z
#    x 1.847410 0.000000 0.000000 
#    y 0.000000 1.873370 0.000000 
#    z 0.000000 0.000000 1.881290 
# 
# From -- ./inp_files/4735.got.cif
#   From: 2010.03.12/outbox.cif.g09.slc.cpg/sg19_3_cif.got.tgz:4735.got - 2010.04.10 18:59:41.
