data_PCOD8157716
_publ_section_title
;
Structure prediction by ZEFSAII (Michael W. Deem and Ramdas Pophale) SiO2 
 PCOD8157716
Probable space group: P 21 21 21
;
_chemical_formula_sum "Si O2"
_cell_formula_units_Z 32
_cell_length_a 12.953125
_cell_length_b 20.098897
_cell_length_c 5.087689
_cell_angle_alpha 90.000000
_cell_angle_beta 90.000000
_cell_angle_gamma 90.000000
_cell_volume 1324.546889
_symmetry_space_group_name_H-M "P 21 21 21"
_symmetry_group_IT_number 19
_symmetry_cell_setting 'orthorhombic'
loop_
_space_group_symop_operation_xyz
x,y,z
1/2-x,-y,1/2+z
1/2+x,1/2-y,-z
-x,1/2+y,1/2-z
loop_
_atom_site_type_symbol
_atom_site_label
_atom_site_fract_x
_atom_site_fract_y
_atom_site_fract_z
Si Si1 0.160762 0.907685 0.458678
Si Si2 0.825589 0.665823 0.838312
Si Si3 0.064192 0.364937 0.920932
Si Si4 0.855825 0.553802 0.222785
Si Si5 0.883193 0.138815 0.512251
Si Si6 0.660366 0.196820 0.567239
Si Si7 0.005619 0.147908 0.023712
Si Si8 0.682617 0.001689 0.989100
O O1 0.212766 0.853600 0.266077
O O2 0.238594 0.928035 0.691976
O O3 0.058653 0.871409 0.557314
O O4 0.131127 0.975462 0.309116
O O5 0.819914 0.723729 0.055576
O O6 0.900387 0.691501 0.599647
O O7 0.877610 0.599235 0.964800
O O8 0.117382 0.321525 0.148230
O O9 0.113911 0.437677 0.913277
O O10 0.078036 0.328087 0.645321
O O11 0.941181 0.575074 0.438152
O O12 0.767316 0.163168 0.485113
O O13 0.913686 0.147511 0.814358
O O14 0.889919 0.061417 0.426300
O O15 0.958534 0.176303 0.299722
O O16 0.741489 0.021459 0.723180
#
# Coordination Sequence:
#
# PCOD8157716 Si02
#       8
#     4   4   4   4   4   4   4   4
#     4  11  26  44  82 107 150 188 251 308 383 432
#     4  11  27  50  71 106 148 195 242 316 367 447
#     4  12  27  48  73 111 147 199 242 310 359 451
#     4  11  23  50  72 116 141 185 243 319 372 434
#     4  12  23  46  72 107 136 195 238 297 358 447
#     4  12  29  48  71 102 158 194 247 295 371 440
#     4  11  25  43  74 104 137 182 242 297 366 429
#     4  12  22  43  71 103 143 184 235 294 362 416
#
# _framework density 24.159206000000001
#
# number of rings (size 3 to 8) (size 9 to 14) (size 15 to 20)
#    0.000    0.500    5.000    2.250    5.250    3.000 
#    0.000    0.000    0.000    0.000    0.000    0.000 
#    0.000    0.000    0.000    0.000    0.000    0.000 
#
# Total GULP energy -396775.046249 kJ/mol
# GULP energy per Si atom -12399.220195 kJ/mol
# Density = 2.410422 g / cm^3
# Si number density = 24.159206 Si / 1000 Ang^3
#
#
#
# Elastic Constant Matrix: (Units=GPa)
#
#
# Indices 1 2 3 4 5 6 
#
# 1 94.5962 14.1900 20.9623 0.0000 0.0000 0.0000
# 2 14.1900 67.6403 -10.9159 0.0000 0.0000 0.0000
# 3 20.9623 -10.9159 90.1824 0.0000 0.0000 0.0000
# 4 0.0000 0.0000 0.0000 31.9458 0.0000 0.0000
# 5 0.0000 0.0000 0.0000 0.0000 44.6628 0.0000
# 6 0.0000 0.0000 0.0000 0.0000 0.0000 3.7775
#
#
#
# Elastic Compliance Matrix: (Units=1/GPa)
#
#
# Indices 1 2 3 4 5 6 
#
# 1 0.011695 -0.002950 -0.003076 0.000000 0.000000 0.000000
# 2 -0.002950 0.015823 0.002601 0.000000 0.000000 0.000000
# 3 -0.003076 0.002601 0.012118 0.000000 0.000000 0.000000
# 4 0.000000 0.000000 0.000000 0.031303 0.000000 0.000000
# 5 0.000000 0.000000 0.000000 0.000000 0.022390 0.000000
# 6 0.000000 0.000000 0.000000 0.000000 0.000000 0.264727
#
#
# Mechanical properties :
#
#
# Convention : Reuss Voigt Hill
#
# Bulk Modulus (GPa) = 30.49962 33.43239 31.96601
# Shear Modulus (GPa) = 13.30373 31.28938 22.29656
#
# Velocity S-wave (km/s) = 2.34918 3.60270 3.04122
# Velocity P-wave (km/s) = 4.47326 5.58340 5.05887
#
# Compressibility (1/GPa) = 0.03278730
#
# Stress axis : x y z
#
# Youngs Moduli (GPa) = 85.50465 63.20047 82.51952
#
# Poissons Ratio (x) = 0.18643 0.25379
# Poissons Ratio (y) = 0.25223 -0.21462
# Poissons Ratio (z) = 0.26297 -0.16438
#
# Static dielectric constant tensor:
#      x y z
#    x 4.453830 0.000000 0.000000 
#    y 0.000000 4.211220 0.000000 
#    z 0.000000 0.000000 4.378250 
# 
# 
# High freq. dielectric constant tensor:
#      x y z
#    x 1.969690 0.000000 0.000000 
#    y 0.000000 1.946590 0.000000 
#    z 0.000000 0.000000 1.967920 
# 
# From -- ./inp_files/1255.got.cif
#   From: 2010.03.12/outbox.cif.g09.slc.cpg/sg19_1_cif.got.tgz:1255.got - 2010.04.10 18:59:41.
