data_PCOD8157005
_publ_section_title
;
Structure prediction by ZEFSAII (Michael W. Deem and Ramdas Pophale) SiO2 
 PCOD8157005
Probable space group: P 21 21 21
;
_chemical_formula_sum "Si O2"
_cell_formula_units_Z 32
_cell_length_a 11.442146
_cell_length_b 9.200237
_cell_length_c 14.778123
_cell_angle_alpha 90.000000
_cell_angle_beta 90.000000
_cell_angle_gamma 90.000000
_cell_volume 1555.699732
_symmetry_space_group_name_H-M "P 21 21 21"
_symmetry_group_IT_number 19
_symmetry_cell_setting 'orthorhombic'
loop_
_space_group_symop_operation_xyz
x,y,z
1/2-x,-y,1/2+z
1/2+x,1/2-y,-z
-x,1/2+y,1/2-z
loop_
_atom_site_type_symbol
_atom_site_label
_atom_site_fract_x
_atom_site_fract_y
_atom_site_fract_z
Si Si1 0.852305 0.700664 0.184501
Si Si2 0.132036 0.443667 0.453040
Si Si3 0.598881 0.804555 0.224904
Si Si4 0.984461 0.677267 0.362171
Si Si5 0.592979 0.553499 0.568649
Si Si6 0.890794 0.989791 0.561194
Si Si7 0.670935 0.335217 0.029266
Si Si8 0.496628 0.019742 0.364684
O O1 0.906487 0.814430 0.113581
O O2 0.735013 0.760996 0.231151
O O3 0.946835 0.651982 0.259273
O O4 0.829841 0.557449 0.126288
O O5 0.270363 0.440081 0.474904
O O6 0.072555 0.427370 0.550170
O O7 0.096737 0.586105 0.395312
O O8 0.524584 0.659109 0.200611
O O9 0.577006 0.933918 0.154548
O O10 0.560219 0.880942 0.318135
O O11 0.877830 0.640446 0.428803
O O12 0.016344 0.846452 0.365827
O O13 0.501788 0.474585 0.502021
O O14 0.689176 0.652739 0.516969
O O15 0.872335 0.817327 0.571065
O O16 0.625780 0.460920 0.096734
#
# Coordination Sequence:
#
# PCOD8157005 Si02
#       8
#     4   4   4   4   4   4   4   4
#     4  11  23  40  62  95 129 165 212 272 322 382
#     4  10  22  42  63  92 133 164 215 261 327 384
#     4  11  24  40  65  90 131 163 220 268 319 389
#     4  10  22  37  66  88 123 166 212 263 316 385
#     4  11  21  40  63  88 130 163 217 259 324 386
#     4  10  22  40  64  92 122 174 210 267 317 390
#     4  10  21  39  62  91 122 164 214 255 321 385
#     4  11  23  42  63  92 126 171 206 271 320 379
#
# _framework density 20.569523
#
# number of rings (size 3 to 8) (size 9 to 14) (size 15 to 20)
#    0.000    1.500    2.500    2.250    3.500    1.000 
#    0.000    0.000    0.000    0.000    0.000    0.000 
#    0.000    0.000    0.000    0.000    0.000    0.000 
#
# Total GULP energy -396629.392382 kJ/mol
# GULP energy per Si atom -12394.668512 kJ/mol
# Density = 2.052271 g / cm^3
# Si number density = 20.569523 Si / 1000 Ang^3
#
#
#
# Elastic Constant Matrix: (Units=GPa)
#
#
# Indices 1 2 3 4 5 6 
#
# 1 101.6474 24.2550 45.9434 0.0000 0.0000 0.0000
# 2 24.2550 74.6430 45.5683 0.0000 0.0000 0.0000
# 3 45.9434 45.5683 95.4237 0.0000 0.0000 0.0000
# 4 0.0000 0.0000 0.0000 36.1156 0.0000 0.0000
# 5 0.0000 0.0000 0.0000 0.0000 18.2377 0.0000
# 6 0.0000 0.0000 0.0000 0.0000 0.0000 24.1103
#
#
#
# Elastic Compliance Matrix: (Units=1/GPa)
#
#
# Indices 1 2 3 4 5 6 
#
# 1 0.012590 -0.000551 -0.005799 0.000000 0.000000 0.000000
# 2 -0.000551 0.018934 -0.008776 0.000000 0.000000 0.000000
# 3 -0.005799 -0.008776 0.017462 0.000000 0.000000 0.000000
# 4 0.000000 0.000000 0.000000 0.027689 0.000000 0.000000
# 5 0.000000 0.000000 0.000000 0.000000 0.054831 0.000000
# 6 0.000000 0.000000 0.000000 0.000000 0.000000 0.041476
#
#
# Mechanical properties :
#
#
# Convention : Reuss Voigt Hill
#
# Bulk Modulus (GPa) = 53.37741 55.91640 54.64691
# Shear Modulus (GPa) = 23.86862 26.08923 24.97892
#
# Velocity S-wave (km/s) = 3.41014 3.56525 3.48856
# Velocity P-wave (km/s) = 6.44294 6.64764 6.54609
#
# Compressibility (1/GPa) = 0.01873452
#
# Stress axis : x y z
#
# Youngs Moduli (GPa) = 79.42583 52.81506 57.26585
#
# Poissons Ratio (x) = 0.02911 0.33206
# Poissons Ratio (y) = 0.04378 0.50258
# Poissons Ratio (z) = 0.46056 0.46352
#
# Static dielectric constant tensor:
#      x y z
#    x 3.659630 0.000000 0.000000 
#    y 0.000000 3.776320 0.000000 
#    z 0.000000 0.000000 3.540640 
# 
# 
# High freq. dielectric constant tensor:
#      x y z
#    x 1.807060 0.000000 0.000000 
#    y 0.000000 1.813520 0.000000 
#    z 0.000000 0.000000 1.792700 
# 
# From -- ./inp_files/3565.got.cif
#   From: 2010.03.12/outbox.cif.g09.slc.cpg/sg19_2_cif.got.tgz:3565.got - 2010.04.10 18:59:41.
