data_PCOD8157553
_publ_section_title
;
Structure prediction by ZEFSAII (Michael W. Deem and Ramdas Pophale) SiO2 
 PCOD8157553
Probable space group: P 21 21 21
;
_chemical_formula_sum "Si O2"
_cell_formula_units_Z 32
_cell_length_a 6.433909
_cell_length_b 11.992245
_cell_length_c 19.250152
_cell_angle_alpha 90.000000
_cell_angle_beta 90.000000
_cell_angle_gamma 90.000000
_cell_volume 1485.284229
_symmetry_space_group_name_H-M "P 21 21 21"
_symmetry_group_IT_number 19
_symmetry_cell_setting 'orthorhombic'
loop_
_space_group_symop_operation_xyz
x,y,z
1/2-x,-y,1/2+z
1/2+x,1/2-y,-z
-x,1/2+y,1/2-z
loop_
_atom_site_type_symbol
_atom_site_label
_atom_site_fract_x
_atom_site_fract_y
_atom_site_fract_z
Si Si1 0.596778 0.151320 0.420999
Si Si2 0.945270 0.988807 0.377368
Si Si3 0.769325 0.758187 0.316490
Si Si4 0.438777 0.171481 0.573876
Si Si5 0.791816 0.678324 0.165400
Si Si6 0.226373 0.880696 0.483418
Si Si7 0.504794 0.930728 0.602081
Si Si8 0.094969 0.313565 0.901379
O O1 0.477848 0.143216 0.493634
O O2 0.717539 0.268841 0.416160
O O3 0.439516 0.141953 0.356165
O O4 0.749469 0.046064 0.414269
O O5 0.870101 0.873285 0.343348
O O6 0.124091 0.975905 0.436147
O O7 0.055500 0.071437 0.321649
O O8 0.786181 0.754167 0.233841
O O9 0.525241 0.744942 0.337105
O O10 0.886888 0.652402 0.347216
O O11 0.622329 0.249170 0.601667
O O12 0.437620 0.057398 0.618758
O O13 0.445457 0.911251 0.519973
O O14 0.248006 0.774337 0.434762
O O15 0.072187 0.856271 0.545418
O O16 0.751971 0.916284 0.617247
#
# Coordination Sequence:
#
# PCOD8157553 Si02
#       8
#     4   4   4   4   4   4   4   4
#     4  11  24  46  71 102 132 181 229 292 347 404
#     4  11  25  44  74  98 136 180 236 285 348 416
#     4  11  27  45  65 104 137 187 227 275 351 420
#     4  11  24  43  74  99 132 175 234 288 340 406
#     4  11  27  48  68  97 137 182 231 283 346 412
#     4  11  20  37  65 103 132 175 220 278 337 395
#     4  11  24  39  70 101 143 174 224 284 344 402
#     4  11  21  38  63 102 143 172 219 273 339 407
#
# _framework density 21.544698
#
# number of rings (size 3 to 8) (size 9 to 14) (size 15 to 20)
#    0.000    1.000    3.750    2.250    7.000    4.000 
#    2.250    0.000    0.000    0.000    0.000    0.000 
#    0.000    0.000    0.000    0.000    0.000    0.000 
#
# Total GULP energy -396742.846830 kJ/mol
# GULP energy per Si atom -12398.213963 kJ/mol
# Density = 2.149566 g / cm^3
# Si number density = 21.544698 Si / 1000 Ang^3
#
#
#
# Elastic Constant Matrix: (Units=GPa)
#
#
# Indices 1 2 3 4 5 6 
#
# 1 120.4256 50.4546 40.2265 0.0000 0.0000 0.0000
# 2 50.4546 139.5099 30.7468 0.0000 0.0000 0.0000
# 3 40.2265 30.7468 97.9269 0.0000 0.0000 0.0000
# 4 0.0000 0.0000 0.0000 11.2041 0.0000 0.0000
# 5 0.0000 0.0000 0.0000 0.0000 22.7475 0.0000
# 6 0.0000 0.0000 0.0000 0.0000 0.0000 35.9177
#
#
#
# Elastic Compliance Matrix: (Units=1/GPa)
#
#
# Indices 1 2 3 4 5 6 
#
# 1 0.010766 -0.003136 -0.003438 0.000000 0.000000 0.000000
# 2 -0.003136 0.008614 -0.001416 0.000000 0.000000 0.000000
# 3 -0.003438 -0.001416 0.012069 0.000000 0.000000 0.000000
# 4 0.000000 0.000000 0.000000 0.089253 0.000000 0.000000
# 5 0.000000 0.000000 0.000000 0.000000 0.043961 0.000000
# 6 0.000000 0.000000 0.000000 0.000000 0.000000 0.027841
#
#
# Mechanical properties :
#
#
# Convention : Reuss Voigt Hill
#
# Bulk Modulus (GPa) = 64.64805 66.74648 65.69726
# Shear Modulus (GPa) = 23.40376 29.73618 26.56997
#
# Velocity S-wave (km/s) = 3.29946 3.71915 3.51557
# Velocity P-wave (km/s) = 6.67734 7.03495 6.85848
#
# Compressibility (1/GPa) = 0.01546837
#
# Stress axis : x y z
#
# Youngs Moduli (GPa) = 92.88387 116.08649 82.85923
#
# Poissons Ratio (x) = 0.36404 0.28486
# Poissons Ratio (y) = 0.29128 0.11737
# Poissons Ratio (z) = 0.31933 0.16444
#
# Static dielectric constant tensor:
#      x y z
#    x 4.184580 0.000000 0.000000 
#    y 0.000000 4.010820 0.000000 
#    z 0.000000 0.000000 3.736320 
# 
# 
# High freq. dielectric constant tensor:
#      x y z
#    x 1.858500 0.000000 0.000000 
#    y 0.000000 1.855020 0.000000 
#    z 0.000000 0.000000 1.820670 
# 
# From -- ./inp_files/1195.got.cif
#   From: 2010.03.12/outbox.cif.g09.slc.cpg/sg19_1_cif.got.tgz:1195.got - 2010.04.10 18:59:41.
