data_PCOD8157992
_publ_section_title
;
Structure prediction by ZEFSAII (Michael W. Deem and Ramdas Pophale) SiO2 
 PCOD8157992
Probable space group: C 2 2 21
;
_chemical_formula_sum "Si O2"
_cell_formula_units_Z 56
_cell_length_a 8.654765
_cell_length_b 17.061628
_cell_length_c 19.349497
_cell_angle_alpha 90.000000
_cell_angle_beta 90.000000
_cell_angle_gamma 90.000000
_cell_volume 2857.231494
_symmetry_space_group_name_H-M "C 2 2 21"
_symmetry_group_IT_number 20
_symmetry_cell_setting 'orthorhombic'
loop_
_space_group_symop_operation_xyz
x,y,z
-x,-y,1/2+z
x,-y,-z
-x,y,1/2-z
1/2+x,1/2+y,z
1/2-x,1/2-y,1/2+z
1/2+x,1/2-y,-z
1/2-x,1/2+y,1/2-z
loop_
_atom_site_type_symbol
_atom_site_label
_atom_site_fract_x
_atom_site_fract_y
_atom_site_fract_z
Si Si1 0.248950 0.709864 0.079819
Si Si2 0.155109 0.965751 0.073647
Si Si3 0.014063 0.268341 0.171478
Si Si4 0.475668 0.087151 0.420616
Si Si5 0.018142 0.824829 0.019464
Si Si6 0.518180 0.910702 0.419640
Si Si7 0.807963 0.870179 0.614448
O O1 0.347798 0.743456 0.142320
O O2 0.183602 0.626214 0.105022
O O3 0.092471 0.759207 0.068023
O O4 0.351997 0.700426 0.009952
O O5 0.008046 0.907787 0.062355
O O6 0.299332 0.913580 0.100835
O O7 0.116913 0.041303 0.122303
O O8 0.215964 0.000000 0.000000
O O9 0.067609 0.343995 0.126264
O O10 0.000000 0.296018 0.250000
O O11 0.131076 0.193661 0.169729
O O12 0.496736 0.111162 0.500649
O O13 0.623954 0.119957 0.379056
O O14 0.447103 0.995942 0.405576
O O15 0.141928 0.835912 0.958914
#
# Coordination Sequence:
#
# PCOD8157992 Si02
#       7
#     8   8   8   8   8   8   8
#     4  11  21  32  57  86 118 142 192 239 294 352
#     4   9  14  30  55  83 109 143 176 215 303 357
#     4  11  23  38  55  80 116 164 204 235 279 348
#     4  10  18  35  60  93 109 141 185 252 306 348
#     4  10  17  30  53  86 116 143 181 230 302 341
#     4  10  17  34  59  86 119 138 186 242 296 354
#     4   9  17  33  57  75 111 148 187 226 287 340
#
# _framework density 19.599392000000002
#
# number of rings (size 3 to 8) (size 9 to 14) (size 15 to 20)
#    0.000    2.000    5.714    2.571    0.000    0.000 
#   12.857    3.571    0.000    0.000    0.000    0.000 
#    0.000    0.000    0.000    0.000    0.000    0.000 
#
# Total GULP energy -346890.124806 kJ/mol
# GULP energy per Si atom -12388.933029 kJ/mol
# Density = 1.955478 g / cm^3
# Si number density = 19.599392 Si / 1000 Ang^3
#
#
#
# Elastic Constant Matrix: (Units=GPa)
#
#
# Indices 1 2 3 4 5 6 
#
# 1 63.8835 44.0239 13.2215 0.0000 0.0000 0.0000
# 2 44.0239 125.1412 42.4061 0.0000 0.0000 0.0000
# 3 13.2215 42.4061 58.2470 0.0000 0.0000 0.0000
# 4 0.0000 0.0000 0.0000 15.5533 0.0000 0.0000
# 5 0.0000 0.0000 0.0000 0.0000 10.7683 0.0000
# 6 0.0000 0.0000 0.0000 0.0000 0.0000 36.2633
#
#
#
# Elastic Compliance Matrix: (Units=1/GPa)
#
#
# Indices 1 2 3 4 5 6 
#
# 1 0.020691 -0.007550 0.000800 0.000000 0.000000 0.000000
# 2 -0.007550 0.013363 -0.008015 0.000000 0.000000 0.000000
# 3 0.000800 -0.008015 0.022822 0.000000 0.000000 0.000000
# 4 0.000000 0.000000 0.000000 0.064295 0.000000 0.000000
# 5 0.000000 0.000000 0.000000 0.000000 0.092866 0.000000
# 6 0.000000 0.000000 0.000000 0.000000 0.000000 0.027576
#
#
# Mechanical properties :
#
#
# Convention : Reuss Voigt Hill
#
# Bulk Modulus (GPa) = 36.56861 49.61941 43.09401
# Shear Modulus (GPa) = 17.84071 22.35831 20.09951
#
# Velocity S-wave (km/s) = 3.02034 3.38119 3.20584
# Velocity P-wave (km/s) = 5.55534 6.37299 5.97816
#
# Compressibility (1/GPa) = 0.02734586
#
# Stress axis : x y z
#
# Youngs Moduli (GPa) = 48.33056 74.83317 43.81757
#
# Poissons Ratio (x) = 0.56499 -0.03506
# Poissons Ratio (y) = 0.36490 0.35120
# Poissons Ratio (z) = -0.03867 0.59979
#
# Static dielectric constant tensor:
#      x y z
#    x 3.384470 0.000000 0.000000 
#    y 0.000000 4.162640 0.000000 
#    z 0.000000 0.000000 2.945310 
# 
# 
# High freq. dielectric constant tensor:
#      x y z
#    x 1.742610 0.000000 0.000000 
#    y 0.000000 1.797680 0.000000 
#    z 0.000000 0.000000 1.681520 
# 
# From -- ./inp_files/26836.got.cif
#   From: 2010.03.12/outbox.cif.g09.slc.cpg/sg20_14_cif.got.tgz:26836.got - 2010.04.14 01:38:04.
