data_PCOD8157460
_publ_section_title
;
Structure prediction by ZEFSAII (Michael W. Deem and Ramdas Pophale) SiO2 
 PCOD8157460
Probable space group: P 21 21 21
;
_chemical_formula_sum "Si O2"
_cell_formula_units_Z 28
_cell_length_a 12.333019
_cell_length_b 7.888281
_cell_length_c 11.953979
_cell_angle_alpha 90.000000
_cell_angle_beta 90.000000
_cell_angle_gamma 90.000000
_cell_volume 1162.958620
_symmetry_space_group_name_H-M "P 21 21 21"
_symmetry_group_IT_number 19
_symmetry_cell_setting 'orthorhombic'
loop_
_space_group_symop_operation_xyz
x,y,z
1/2-x,-y,1/2+z
1/2+x,1/2-y,-z
-x,1/2+y,1/2-z
loop_
_atom_site_type_symbol
_atom_site_label
_atom_site_fract_x
_atom_site_fract_y
_atom_site_fract_z
Si Si1 0.491231 0.594964 0.156715
Si Si2 0.076294 0.534968 0.278769
Si Si3 0.930490 0.370131 0.107510
Si Si4 0.252989 0.681861 0.885741
Si Si5 0.233306 0.308553 0.638224
Si Si6 0.703193 0.461180 0.172631
Si Si7 0.538060 0.979130 0.108562
O O1 0.364821 0.550341 0.134179
O O2 0.582780 0.459759 0.111568
O O3 0.506052 0.781854 0.106583
O O4 0.511096 0.589096 0.290900
O O5 0.043548 0.673756 0.370792
O O6 0.128695 0.380502 0.348216
O O7 0.159031 0.604832 0.185083
O O8 0.967402 0.473170 0.218219
O O9 0.800553 0.395012 0.093239
O O10 0.998222 0.431911 0.003035
O O11 0.220416 0.837123 0.803747
O O12 0.169876 0.521399 0.880196
O O13 0.250402 0.755665 0.012020
O O14 0.198660 0.146386 0.712914
#
# Coordination Sequence:
#
# PCOD8157460 Si02
#       7
#     4   4   4   4   4   4   4
#     4  11  22  41  67 101 137 178 231 285 341 412
#     4  11  24  45  72 101 139 184 232 296 337 433
#     4  11  24  47  67 104 143 183 238 284 358 412
#     4  11  23  45  73 102 134 192 230 284 364 401
#     4  11  22  44  69  99 141 176 233 291 350 412
#     4  10  24  42  66 100 137 181 231 288 339 422
#     4  11  23  42  72  97 143 178 231 288 343 424
#
# _framework density 24.076523999999999
#
# number of rings (size 3 to 8) (size 9 to 14) (size 15 to 20)
#    0.000    1.143    4.286    1.714    0.000    1.143 
#    2.571    1.429    0.000    0.000    0.000    0.000 
#    0.000    0.000    0.000    0.000    0.000    0.000 
#
# Total GULP energy -346968.984146 kJ/mol
# GULP energy per Si atom -12391.749434 kJ/mol
# Density = 2.402172 g / cm^3
# Si number density = 24.076524 Si / 1000 Ang^3
#
#
#
# Elastic Constant Matrix: (Units=GPa)
#
#
# Indices 1 2 3 4 5 6 
#
# 1 94.1557 7.6821 0.7789 0.0000 0.0000 0.0000
# 2 7.6821 57.0019 7.5283 0.0000 0.0000 0.0000
# 3 0.7789 7.5283 58.2416 0.0000 0.0000 0.0000
# 4 0.0000 0.0000 0.0000 35.9133 0.0000 0.0000
# 5 0.0000 0.0000 0.0000 0.0000 21.9689 0.0000
# 6 0.0000 0.0000 0.0000 0.0000 0.0000 40.2517
#
#
#
# Elastic Compliance Matrix: (Units=1/GPa)
#
#
# Indices 1 2 3 4 5 6 
#
# 1 0.010739 -0.001453 0.000044 0.000000 0.000000 0.000000
# 2 -0.001453 0.018045 -0.002313 0.000000 0.000000 0.000000
# 3 0.000044 -0.002313 0.017468 0.000000 0.000000 0.000000
# 4 0.000000 0.000000 0.000000 0.027845 0.000000 0.000000
# 5 0.000000 0.000000 0.000000 0.000000 0.045519 0.000000
# 6 0.000000 0.000000 0.000000 0.000000 0.000000 0.024844
#
#
# Mechanical properties :
#
#
# Convention : Reuss Voigt Hill
#
# Bulk Modulus (GPa) = 25.76793 26.81975 26.29384
# Shear Modulus (GPa) = 30.33264 32.52077 31.42670
#
# Velocity S-wave (km/s) = 3.55328 3.67921 3.61679
# Velocity P-wave (km/s) = 5.24977 5.40484 5.32787
#
# Compressibility (1/GPa) = 0.03880793
#
# Stress axis : x y z
#
# Youngs Moduli (GPa) = 93.11940 55.41830 57.24669
#
# Poissons Ratio (x) = 0.08053 -0.00253
# Poissons Ratio (y) = 0.13531 0.13241
# Poissons Ratio (z) = -0.00412 0.12818
#
# Static dielectric constant tensor:
#      x y z
#    x 4.964520 0.000000 0.000000 
#    y 0.000000 4.181820 0.000000 
#    z 0.000000 0.000000 4.010590 
# 
# 
# High freq. dielectric constant tensor:
#      x y z
#    x 1.981510 0.000000 0.000000 
#    y 0.000000 1.942020 0.000000 
#    z 0.000000 0.000000 1.930260 
# 
# From -- ./inp_files/3433.got.cif
#   From: 2010.03.12/outbox.cif.g09.slc.cpg/sg19_2_cif.got.tgz:3433.got - 2010.04.10 18:59:41.
