data_PCOD8157586
_publ_section_title
;
Structure prediction by ZEFSAII (Michael W. Deem and Ramdas Pophale) SiO2 
 PCOD8157586
Probable space group: P 21 21 21
;
_chemical_formula_sum "Si O2"
_cell_formula_units_Z 20
_cell_length_a 13.159318
_cell_length_b 6.618553
_cell_length_c 9.858153
_cell_angle_alpha 90.000000
_cell_angle_beta 90.000000
_cell_angle_gamma 90.000000
_cell_volume 858.602181
_symmetry_space_group_name_H-M "P 21 21 21"
_symmetry_group_IT_number 19
_symmetry_cell_setting 'orthorhombic'
loop_
_space_group_symop_operation_xyz
x,y,z
1/2-x,-y,1/2+z
1/2+x,1/2-y,-z
-x,1/2+y,1/2-z
loop_
_atom_site_type_symbol
_atom_site_label
_atom_site_fract_x
_atom_site_fract_y
_atom_site_fract_z
Si Si1 0.725533 0.705198 0.228667
Si Si2 0.155478 0.991315 0.515905
Si Si3 0.883998 0.985516 0.332589
Si Si4 0.980101 0.146539 0.073857
Si Si5 0.957341 0.251913 0.554523
O O1 0.726904 0.545226 0.353135
O O2 0.775245 0.920451 0.271514
O O3 0.785307 0.608556 0.101978
O O4 0.609079 0.757748 0.191453
O O5 0.056042 0.112548 0.563173
O O6 0.121781 0.770007 0.463001
O O7 0.964771 0.029594 0.214822
O O8 0.881377 0.177758 0.432980
O O9 0.923460 0.792096 0.415645
O O10 0.007064 0.982087 0.960964
#
# Coordination Sequence:
#
# PCOD8157586 Si02
#       5
#     4   4   4   4   4
#     4  12  27  48  73 110 145 195 242 300 362 437
#     4  11  28  48  72 109 146 190 242 301 364 436
#     4  11  22  42  72 104 138 192 240 290 359 434
#     4  11  21  45  72 101 142 189 239 294 361 425
#     4  11  26  47  73 106 151 190 239 305 362 426
#
# _framework density 23.293673999999999
#
# number of rings (size 3 to 8) (size 9 to 14) (size 15 to 20)
#    0.000    0.800    4.000    2.400    8.400    0.000 
#    0.000    0.000    0.000    0.000    0.000    0.000 
#    0.000    0.000    0.000    0.000    0.000    0.000 
#
# Total GULP energy -248038.499903 kJ/mol
# GULP energy per Si atom -12401.924995 kJ/mol
# Density = 2.324066 g / cm^3
# Si number density = 23.293674 Si / 1000 Ang^3
#
#
#
# Elastic Constant Matrix: (Units=GPa)
#
#
# Indices 1 2 3 4 5 6 
#
# 1 78.4690 32.6465 31.0704 0.0000 0.0000 0.0000
# 2 32.6465 98.2208 11.5184 0.0000 0.0000 0.0000
# 3 31.0704 11.5184 78.2262 0.0000 0.0000 0.0000
# 4 0.0000 0.0000 0.0000 31.5394 0.0000 0.0000
# 5 0.0000 0.0000 0.0000 0.0000 46.7684 0.0000
# 6 0.0000 0.0000 0.0000 0.0000 0.0000 31.2898
#
#
#
# Elastic Compliance Matrix: (Units=1/GPa)
#
#
# Indices 1 2 3 4 5 6 
#
# 1 0.017252 -0.005017 -0.006113 0.000000 0.000000 0.000000
# 2 -0.005017 0.011819 0.000252 0.000000 0.000000 0.000000
# 3 -0.006113 0.000252 0.015174 0.000000 0.000000 0.000000
# 4 0.000000 0.000000 0.000000 0.031706 0.000000 0.000000
# 5 0.000000 0.000000 0.000000 0.000000 0.021382 0.000000
# 6 0.000000 0.000000 0.000000 0.000000 0.000000 0.031959
#
#
# Mechanical properties :
#
#
# Convention : Reuss Voigt Hill
#
# Bulk Modulus (GPa) = 44.46606 45.04295 44.75450
# Shear Modulus (GPa) = 31.53658 33.89824 32.71741
#
# Velocity S-wave (km/s) = 3.68349 3.81892 3.75181
# Velocity P-wave (km/s) = 6.10095 6.23093 6.16628
#
# Compressibility (1/GPa) = 0.02248906
#
# Stress axis : x y z
#
# Youngs Moduli (GPa) = 57.96450 84.60842 65.90026
#
# Poissons Ratio (x) = 0.42450 0.40288
# Poissons Ratio (y) = 0.29082 -0.01664
# Poissons Ratio (z) = 0.35436 -0.02136
#
# Static dielectric constant tensor:
#      x y z
#    x 4.093820 0.000000 0.000000 
#    y 0.000000 4.251630 0.000000 
#    z 0.000000 0.000000 4.196970 
# 
# 
# High freq. dielectric constant tensor:
#      x y z
#    x 1.916440 0.000000 0.000000 
#    y 0.000000 1.926610 0.000000 
#    z 0.000000 0.000000 1.916970 
# 
# From -- ./inp_files/1378.got.cif
#   From: 2010.03.12/outbox.cif.g09.slc.cpg/sg19_1_cif.got.tgz:1378.got - 2010.04.10 18:59:41.
