data_PCOD8157851
_publ_section_title
;
Structure prediction by ZEFSAII (Michael W. Deem and Ramdas Pophale) SiO2 
 PCOD8157851
Probable space group: P 21 21 21
;
_chemical_formula_sum "Si O2"
_cell_formula_units_Z 24
_cell_length_a 11.403280
_cell_length_b 9.630886
_cell_length_c 8.820058
_cell_angle_alpha 90.000000
_cell_angle_beta 90.000000
_cell_angle_gamma 90.000000
_cell_volume 968.651313
_symmetry_space_group_name_H-M "P 21 21 21"
_symmetry_group_IT_number 19
_symmetry_cell_setting 'orthorhombic'
loop_
_space_group_symop_operation_xyz
x,y,z
1/2-x,-y,1/2+z
1/2+x,1/2-y,-z
-x,1/2+y,1/2-z
loop_
_atom_site_type_symbol
_atom_site_label
_atom_site_fract_x
_atom_site_fract_y
_atom_site_fract_z
Si Si1 0.769609 0.789312 0.715447
Si Si2 0.717823 0.918777 0.155231
Si Si3 0.727910 0.673857 0.389620
Si Si4 0.078986 0.304560 0.528584
Si Si5 0.017212 0.002720 0.489671
Si Si6 0.403125 0.064340 0.677347
O O1 0.778520 0.736813 0.544136
O O2 0.902147 0.788716 0.789698
O O3 0.686623 0.691391 0.814630
O O4 0.717445 0.946465 0.726723
O O5 0.691815 0.799485 0.278211
O O6 0.794116 0.857599 0.021807
O O7 0.601550 0.989504 0.084469
O O8 0.614082 0.578884 0.412201
O O9 0.832980 0.580234 0.323475
O O10 0.056794 0.158064 0.451252
O O11 0.977728 0.413043 0.477609
O O12 0.009246 0.929904 0.323349
#
# Coordination Sequence:
#
# PCOD8157851 Si02
#       6
#     4   4   4   4   4   4
#     4  11  27  50  75 118 156 201 267 323 398 477
#     4  12  28  49  77 116 154 210 262 329 397 475
#     4  11  26  53  81 113 161 212 266 330 406 475
#     4  12  26  45  81 107 159 201 256 330 386 478
#     4  11  27  47  78 116 158 207 271 321 398 479
#     4  11  26  50  82 114 160 213 258 337 401 478
#
# _framework density 24.776717999999999
#
# number of rings (size 3 to 8) (size 9 to 14) (size 15 to 20)
#    0.000    0.667    3.333    2.000    9.333    1.333 
#    3.000    0.000    0.000    0.000    0.000    0.000 
#    0.000    0.000    0.000    0.000    0.000    0.000 
#
# Total GULP energy -297503.398441 kJ/mol
# GULP energy per Si atom -12395.974935 kJ/mol
# Density = 2.472033 g / cm^3
# Si number density = 24.776718 Si / 1000 Ang^3
#
#
#
# Elastic Constant Matrix: (Units=GPa)
#
#
# Indices 1 2 3 4 5 6 
#
# 1 88.4804 31.7111 53.0639 0.0000 0.0000 0.0000
# 2 31.7111 119.3777 21.5306 0.0000 0.0000 0.0000
# 3 53.0639 21.5306 75.3728 0.0000 0.0000 0.0000
# 4 0.0000 0.0000 0.0000 46.9511 0.0000 0.0000
# 5 0.0000 0.0000 0.0000 0.0000 45.7817 0.0000
# 6 0.0000 0.0000 0.0000 0.0000 0.0000 34.0708
#
#
#
# Elastic Compliance Matrix: (Units=1/GPa)
#
#
# Indices 1 2 3 4 5 6 
#
# 1 0.020533 -0.003002 -0.013598 0.000000 0.000000 0.000000
# 2 -0.003002 0.009271 -0.000535 0.000000 0.000000 0.000000
# 3 -0.013598 -0.000535 0.022993 0.000000 0.000000 0.000000
# 4 0.000000 0.000000 0.000000 0.021299 0.000000 0.000000
# 5 0.000000 0.000000 0.000000 0.000000 0.021843 0.000000
# 6 0.000000 0.000000 0.000000 0.000000 0.000000 0.029351
#
#
# Mechanical properties :
#
#
# Convention : Reuss Voigt Hill
#
# Bulk Modulus (GPa) = 53.97379 55.09357 54.53368
# Shear Modulus (GPa) = 30.16878 37.15575 33.66226
#
# Velocity S-wave (km/s) = 3.49324 3.87670 3.68995
# Velocity P-wave (km/s) = 6.17265 6.50559 6.34131
#
# Compressibility (1/GPa) = 0.01852751
#
# Stress axis : x y z
#
# Youngs Moduli (GPa) = 48.70254 107.86762 43.49067
#
# Poissons Ratio (x) = 0.32379 0.59139
# Poissons Ratio (y) = 0.14619 0.02326
# Poissons Ratio (z) = 0.66226 0.05770
#
# Static dielectric constant tensor:
#      x y z
#    x 4.378140 0.000000 0.000000 
#    y 0.000000 4.899690 0.000000 
#    z 0.000000 0.000000 4.407840 
# 
# 
# High freq. dielectric constant tensor:
#      x y z
#    x 1.977170 0.000000 0.000000 
#    y 0.000000 2.007340 0.000000 
#    z 0.000000 0.000000 1.994670 
# 
# From -- ./inp_files/3316.got.cif
#   From: 2010.03.12/outbox.cif.g09.slc.cpg/sg19_2_cif.got.tgz:3316.got - 2010.04.10 18:59:41.
