data_PCOD8157833
_publ_section_title
;
Structure prediction by ZEFSAII (Michael W. Deem and Ramdas Pophale) SiO2 
 PCOD8157833
Probable space group: P 21 21 21
;
_chemical_formula_sum "Si O2"
_cell_formula_units_Z 28
_cell_length_a 14.239019
_cell_length_b 5.563718
_cell_length_c 14.349145
_cell_angle_alpha 90.000000
_cell_angle_beta 90.000000
_cell_angle_gamma 90.000000
_cell_volume 1136.766334
_symmetry_space_group_name_H-M "P 21 21 21"
_symmetry_group_IT_number 19
_symmetry_cell_setting 'orthorhombic'
loop_
_space_group_symop_operation_xyz
x,y,z
1/2-x,-y,1/2+z
1/2+x,1/2-y,-z
-x,1/2+y,1/2-z
loop_
_atom_site_type_symbol
_atom_site_label
_atom_site_fract_x
_atom_site_fract_y
_atom_site_fract_z
Si Si1 0.255564 0.738701 0.432462
Si Si2 0.048230 0.354552 0.279171
Si Si3 0.203210 0.075809 0.590419
Si Si4 0.111940 0.765953 0.743874
Si Si5 0.447376 0.854017 0.381877
Si Si6 0.910219 0.914188 0.013070
Si Si7 0.231141 0.593324 0.238582
O O1 0.366875 0.676717 0.422634
O O2 0.194184 0.530056 0.480030
O O3 0.212235 0.771730 0.327481
O O4 0.250605 0.976029 0.496391
O O5 0.051213 0.317697 0.389813
O O6 0.152221 0.385475 0.235778
O O7 0.005864 0.108219 0.238803
O O8 0.104375 0.195912 0.559066
O O9 0.273176 0.264442 0.641229
O O10 0.179293 0.878309 0.666077
O O11 0.163788 0.510778 0.759015
O O12 0.005736 0.754009 0.704598
O O13 0.107906 0.912391 0.840710
O O14 0.516034 0.903660 0.468183
#
# Coordination Sequence:
#
# PCOD8157833 Si02
#       7
#     4   4   4   4   4   4   4
#     4  11  26  44  74 109 154 200 262 324 410 473
#     4  11  30  51  81 113 158 219 276 328 407 500
#     4  12  24  49  73 110 156 203 257 336 406 477
#     4  12  25  48  76 111 158 197 267 338 412 479
#     4  12  24  45  76 111 147 201 257 326 408 488
#     4  11  27  47  70 114 155 198 265 336 392 488
#     4  11  26  48  76 110 158 210 264 340 407 481
#
# _framework density 24.631271999999999
#
# number of rings (size 3 to 8) (size 9 to 14) (size 15 to 20)
#    0.000    0.571    4.286    1.714   12.000    1.143 
#    0.000    0.000    0.000    0.000    0.000    0.000 
#    0.000    0.000    0.000    0.000    0.000    0.000 
#
# Total GULP energy -347035.980250 kJ/mol
# GULP energy per Si atom -12394.142152 kJ/mol
# Density = 2.457521 g / cm^3
# Si number density = 24.631272 Si / 1000 Ang^3
#
#
#
# Elastic Constant Matrix: (Units=GPa)
#
#
# Indices 1 2 3 4 5 6 
#
# 1 120.5611 14.6942 20.6660 0.0000 0.0000 0.0000
# 2 14.6942 64.6628 31.6940 0.0000 0.0000 0.0000
# 3 20.6660 31.6940 131.4552 0.0000 0.0000 0.0000
# 4 0.0000 0.0000 0.0000 39.4405 0.0000 0.0000
# 5 0.0000 0.0000 0.0000 0.0000 44.4667 0.0000
# 6 0.0000 0.0000 0.0000 0.0000 0.0000 29.9796
#
#
#
# Elastic Compliance Matrix: (Units=1/GPa)
#
#
# Indices 1 2 3 4 5 6 
#
# 1 0.008646 -0.001473 -0.001004 0.000000 0.000000 0.000000
# 2 -0.001473 0.017788 -0.004057 0.000000 0.000000 0.000000
# 3 -0.001004 -0.004057 0.008743 0.000000 0.000000 0.000000
# 4 0.000000 0.000000 0.000000 0.025355 0.000000 0.000000
# 5 0.000000 0.000000 0.000000 0.000000 0.022489 0.000000
# 6 0.000000 0.000000 0.000000 0.000000 0.000000 0.033356
#
#
# Mechanical properties :
#
#
# Convention : Reuss Voigt Hill
#
# Bulk Modulus (GPa) = 45.22951 50.08747 47.65849
# Shear Modulus (GPa) = 36.54576 39.41901 37.98238
#
# Velocity S-wave (km/s) = 3.85608 4.00480 3.93114
# Velocity P-wave (km/s) = 6.18290 6.46247 6.32423
#
# Compressibility (1/GPa) = 0.02210946
#
# Stress axis : x y z
#
# Youngs Moduli (GPa) = 115.65820 56.21743 114.37422
#
# Poissons Ratio (x) = 0.08278 0.11486
# Poissons Ratio (y) = 0.17031 0.46404
# Poissons Ratio (z) = 0.11615 0.22809
#
# Static dielectric constant tensor:
#      x y z
#    x 4.531350 0.000000 0.000000 
#    y 0.000000 4.232080 0.000000 
#    z 0.000000 0.000000 4.535150 
# 
# 
# High freq. dielectric constant tensor:
#      x y z
#    x 1.979530 0.000000 0.000000 
#    y 0.000000 1.962390 0.000000 
#    z 0.000000 0.000000 1.996270 
# 
# From -- ./inp_files/6237.got.cif
#   From: 2010.03.12/outbox.cif.g09.slc.cpg/sg19_4_cif.got.tgz:6237.got - 2010.04.10 18:59:41.
