data_PCOD8157946
_publ_section_title
;
Structure prediction by ZEFSAII (Michael W. Deem and Ramdas Pophale) SiO2 
 PCOD8157946
Probable space group: P 21 21 21
;
_chemical_formula_sum "Si O2"
_cell_formula_units_Z 20
_cell_length_a 13.345574
_cell_length_b 13.345555
_cell_length_c 6.373663
_cell_angle_alpha 90.000000
_cell_angle_beta 90.000000
_cell_angle_gamma 90.000000
_cell_volume 1135.175460
_symmetry_space_group_name_H-M "P 21 21 21"
_symmetry_group_IT_number 19
_symmetry_cell_setting 'orthorhombic'
loop_
_space_group_symop_operation_xyz
x,y,z
1/2-x,-y,1/2+z
1/2+x,1/2-y,-z
-x,1/2+y,1/2-z
loop_
_atom_site_type_symbol
_atom_site_label
_atom_site_fract_x
_atom_site_fract_y
_atom_site_fract_z
Si Si1 0.634908 0.216521 0.504215
Si Si2 0.533479 0.615092 0.754215
Si Si3 0.000000 0.750000 0.625000
Si Si4 0.533479 0.384908 0.745785
Si Si5 0.865092 0.216521 0.495785
O O1 0.572436 0.130841 0.626475
O O2 0.596510 0.225167 0.266309
O O3 0.619159 0.322436 0.623525
O O4 0.750000 0.184966 0.499999
O O5 0.524834 0.653490 0.516309
O O6 0.565033 0.500000 0.749998
O O7 0.619159 0.677563 0.876477
O O8 0.975166 0.653489 0.483691
O O9 0.096510 0.725166 0.766309
O O10 0.427564 0.369158 0.626476
#
# Coordination Sequence:
#
# PCOD8157946 Si02
#       5
#     4   4   4   4   4
#     4   9  19  35  52  78 106 139 179 213 266 318
#     4   9  19  35  52  78 106 139 179 213 266 318
#     4   8  18  36  56  66 116 140 154 232 264 294
#     4   9  19  35  52  78 106 139 179 213 266 318
#     4   9  19  35  52  78 106 139 179 213 266 318
#
# _framework density 17.618421999999999
#
# number of rings (size 3 to 8) (size 9 to 14) (size 15 to 20)
#    0.000    4.000    0.000    0.000    0.000   12.800 
#   14.400    0.000    0.000    0.000    0.000    0.000 
#    0.000    0.000    0.000    0.000    0.000    0.000 
#
# Total GULP energy -247932.473336 kJ/mol
# GULP energy per Si atom -12396.623667 kJ/mol
# Density = 1.757832 g / cm^3
# Si number density = 17.618422 Si / 1000 Ang^3
#
#
#
# Elastic Constant Matrix: (Units=GPa)
#
#
# Indices 1 2 3 4 5 6 
#
# 1 71.2330 -46.9835 7.0547 0.0000 0.0000 0.0000
# 2 -46.9835 71.2323 7.0546 0.0000 0.0000 0.0000
# 3 7.0547 7.0546 129.3674 0.0000 0.0000 0.0000
# 4 0.0000 0.0000 0.0000 13.5217 0.0000 0.0000
# 5 0.0000 0.0000 0.0000 0.0000 13.5220 0.0000
# 6 0.0000 0.0000 0.0000 0.0000 0.0000 13.4021
#
#
#
# Elastic Compliance Matrix: (Units=1/GPa)
#
#
# Indices 1 2 3 4 5 6 
#
# 1 0.025524 0.017065 -0.002323 0.000000 0.000000 0.000000
# 2 0.017065 0.025525 -0.002323 0.000000 0.000000 0.000000
# 3 -0.002323 -0.002323 0.007983 0.000000 0.000000 0.000000
# 4 0.000000 0.000000 0.000000 0.073955 0.000000 0.000000
# 5 0.000000 0.000000 0.000000 0.000000 0.073953 0.000000
# 6 0.000000 0.000000 0.000000 0.000000 0.000000 0.074615
#
#
# Mechanical properties :
#
#
# Convention : Reuss Voigt Hill
#
# Bulk Modulus (GPa) = 11.92277 22.89826 17.41052
# Shear Modulus (GPa) = 17.56402 28.40295 22.98349
#
# Velocity S-wave (km/s) = 3.16082 4.01947 3.61572
# Velocity P-wave (km/s) = 4.48363 5.87933 5.22826
#
# Compressibility (1/GPa) = 0.08387310
#
# Stress axis : x y z
#
# Youngs Moduli (GPa) = 39.17817 39.17782 125.26260
#
# Poissons Ratio (x) = -0.66859 0.29093
# Poissons Ratio (y) = -0.66859 0.29093
# Poissons Ratio (z) = 0.09099 0.09099
#
# Static dielectric constant tensor:
#      x y z
#    x 2.969320 0.000000 0.000000 
#    y 0.000000 2.969310 0.000000 
#    z 0.000000 0.000000 3.415830 
# 
# 
# High freq. dielectric constant tensor:
#      x y z
#    x 1.660450 0.000000 0.000000 
#    y 0.000000 1.660450 0.000000 
#    z 0.000000 0.000000 1.700740 
# 
# From -- ./inp_files/1393.got.cif
#   From: 2010.03.12/outbox.cif.g09.slc.cpg/sg19_1_cif.got.tgz:1393.got - 2010.04.10 18:59:41.
