data_PCOD8157604
_publ_section_title
;
Structure prediction by ZEFSAII (Michael W. Deem and Ramdas Pophale) SiO2 
 PCOD8157604
Probable space group: P 21 21 21
;
_chemical_formula_sum "Si O2"
_cell_formula_units_Z 28
_cell_length_a 6.789558
_cell_length_b 7.763248
_cell_length_c 23.558318
_cell_angle_alpha 90.000000
_cell_angle_beta 90.000000
_cell_angle_gamma 90.000000
_cell_volume 1241.735915
_symmetry_space_group_name_H-M "P 21 21 21"
_symmetry_group_IT_number 19
_symmetry_cell_setting 'orthorhombic'
loop_
_space_group_symop_operation_xyz
x,y,z
1/2-x,-y,1/2+z
1/2+x,1/2-y,-z
-x,1/2+y,1/2-z
loop_
_atom_site_type_symbol
_atom_site_label
_atom_site_fract_x
_atom_site_fract_y
_atom_site_fract_z
Si Si1 0.101030 0.773088 0.697524
Si Si2 0.458956 0.593490 0.939124
Si Si3 0.030107 0.658659 0.581563
Si Si4 0.081107 0.942811 0.185428
Si Si5 0.743313 0.908252 0.765686
Si Si6 0.364977 0.607156 0.506703
Si Si7 0.247111 0.914338 0.959292
O O1 0.011958 0.789747 0.633810
O O2 0.188093 0.576414 0.698161
O O3 0.928187 0.801179 0.742161
O O4 0.253764 0.926362 0.708430
O O5 0.561050 0.524795 0.881923
O O6 0.290800 0.470038 0.962827
O O7 0.340174 0.763064 0.922624
O O8 0.621221 0.645771 0.986036
O O9 0.261796 0.628933 0.568219
O O10 0.924059 0.713428 0.522153
O O11 0.896944 0.489435 0.590280
O O12 0.126312 0.739567 0.198586
O O13 0.881973 0.005676 0.215476
O O14 0.573146 0.519661 0.514581
#
# Coordination Sequence:
#
# PCOD8157604 Si02
#       7
#     4   4   4   4   4   4   4
#     4  12  27  49  74 107 142 189 243 309 364 434
#     4  11  25  42  70  98 143 187 232 286 359 423
#     4  11  25  40  70  98 141 183 229 284 363 425
#     4  12  27  48  76 106 140 195 242 308 367 431
#     4  12  27  50  76 105 144 184 254 309 364 424
#     4  11  22  43  63 101 141 180 225 283 343 436
#     4  11  23  42  63 101 143 180 229 283 338 443
#
# _framework density 22.549077
#
# number of rings (size 3 to 8) (size 9 to 14) (size 15 to 20)
#    0.000    0.571    5.714    1.714    4.000    3.429 
#    2.571    0.000    0.000    0.000    0.000    0.000 
#    0.000    0.000    0.000    0.000    0.000    0.000 
#
# Total GULP energy -346895.082304 kJ/mol
# GULP energy per Si atom -12389.110082 kJ/mol
# Density = 2.249775 g / cm^3
# Si number density = 22.549077 Si / 1000 Ang^3
#
#
#
# Elastic Constant Matrix: (Units=GPa)
#
#
# Indices 1 2 3 4 5 6 
#
# 1 105.9323 27.6805 16.0620 0.0000 0.0000 0.0000
# 2 27.6805 99.4650 8.1118 0.0000 0.0000 0.0000
# 3 16.0620 8.1118 59.2356 0.0000 0.0000 0.0000
# 4 0.0000 0.0000 0.0000 29.6318 0.0000 0.0000
# 5 0.0000 0.0000 0.0000 0.0000 24.6917 0.0000
# 6 0.0000 0.0000 0.0000 0.0000 0.0000 42.9299
#
#
#
# Elastic Compliance Matrix: (Units=1/GPa)
#
#
# Indices 1 2 3 4 5 6 
#
# 1 0.010529 -0.002728 -0.002481 0.000000 0.000000 0.000000
# 2 -0.002728 0.010874 -0.000749 0.000000 0.000000 0.000000
# 3 -0.002481 -0.000749 0.017657 0.000000 0.000000 0.000000
# 4 0.000000 0.000000 0.000000 0.033748 0.000000 0.000000
# 5 0.000000 0.000000 0.000000 0.000000 0.040499 0.000000
# 6 0.000000 0.000000 0.000000 0.000000 0.000000 0.023294
#
#
# Mechanical properties :
#
#
# Convention : Reuss Voigt Hill
#
# Bulk Modulus (GPa) = 36.84204 40.92684 38.88444
# Shear Modulus (GPa) = 31.73274 33.63593 32.68433
#
# Velocity S-wave (km/s) = 3.75544 3.86641 3.81133
# Velocity P-wave (km/s) = 5.93114 6.17428 6.05393
#
# Compressibility (1/GPa) = 0.02714291
#
# Stress axis : x y z
#
# Youngs Moduli (GPa) = 94.97563 91.96217 56.63408
#
# Poissons Ratio (x) = 0.25085 0.14053
# Poissons Ratio (y) = 0.25907 0.04244
# Poissons Ratio (z) = 0.23568 0.06892
#
# Static dielectric constant tensor:
#      x y z
#    x 4.490790 0.000000 0.000000 
#    y 0.000000 4.484050 0.000000 
#    z 0.000000 0.000000 3.807440 
# 
# 
# High freq. dielectric constant tensor:
#      x y z
#    x 1.913030 0.000000 0.000000 
#    y 0.000000 1.900140 0.000000 
#    z 0.000000 0.000000 1.870150 
# 
# From -- ./inp_files/520.got.cif
#   From: 2010.03.12/outbox.cif.g09.slc.cpg/sg19_1_cif.got.tgz:520.got - 2010.04.10 18:59:41.
