data_PCOD8157861
_publ_section_title
;
Structure prediction by ZEFSAII (Michael W. Deem and Ramdas Pophale) SiO2 
 PCOD8157861
Probable space group: P 21 21 21
;
_chemical_formula_sum "Si O2"
_cell_formula_units_Z 32
_cell_length_a 18.615734
_cell_length_b 6.683687
_cell_length_c 12.257961
_cell_angle_alpha 90.000000
_cell_angle_beta 90.000000
_cell_angle_gamma 90.000000
_cell_volume 1525.156828
_symmetry_space_group_name_H-M "P 21 21 21"
_symmetry_group_IT_number 19
_symmetry_cell_setting 'orthorhombic'
loop_
_space_group_symop_operation_xyz
x,y,z
1/2-x,-y,1/2+z
1/2+x,1/2-y,-z
-x,1/2+y,1/2-z
loop_
_atom_site_type_symbol
_atom_site_label
_atom_site_fract_x
_atom_site_fract_y
_atom_site_fract_z
Si Si1 0.251717 0.076233 0.008551
Si Si2 0.691471 0.011456 0.245441
Si Si3 0.918485 0.515923 0.253013
Si Si4 0.201834 0.241019 0.350046
Si Si5 0.134627 0.388406 0.982601
Si Si6 0.690612 0.766167 0.857028
Si Si7 0.856391 0.063072 0.976253
Si Si8 0.010184 0.753578 0.417592
O O1 0.310393 0.238048 0.039567
O O2 0.244154 0.899379 0.095200
O O3 0.173923 0.178419 0.002464
O O4 0.278754 0.975780 0.897370
O O5 0.640117 0.068696 0.145870
O O6 0.764362 0.144583 0.255943
O O7 0.727108 0.796638 0.218700
O O8 0.643800 0.029846 0.354660
O O9 0.864354 0.701656 0.232279
O O10 0.882842 0.326923 0.313203
O O11 0.948989 0.438874 0.138043
O O12 0.981885 0.600948 0.326682
O O13 0.180483 0.410088 0.438987
O O14 0.171505 0.565961 0.052416
O O15 0.051589 0.354323 0.009865
O O16 0.937122 0.121134 0.007720
#
# Coordination Sequence:
#
# PCOD8157861 Si02
#       8
#     4   4   4   4   4   4   4   4
#     4  12  20  46  68 100 134 172 222 292 334 388
#     4  12  22  43  70 101 138 178 222 282 342 399
#     4  12  24  43  72  97 134 186 224 282 360 391
#     4  12  23  44  72 104 132 175 233 291 337 397
#     4  12  25  45  67 102 144 173 230 283 335 419
#     4  12  23  44  72 104 132 175 233 291 337 397
#     4  12  25  45  67 102 144 173 230 283 335 419
#     4  12  26  44  64 102 140 178 230 278 342 420
#
# _framework density 20.981449000000001
#
# number of rings (size 3 to 8) (size 9 to 14) (size 15 to 20)
#    0.000    0.000    7.500    4.500    0.000    0.000 
#    0.000    5.000    0.000    0.000    0.000    0.000 
#    0.000    0.000    0.000    0.000    0.000    0.000 
#
# Total GULP energy -396813.002802 kJ/mol
# GULP energy per Si atom -12400.406338 kJ/mol
# Density = 2.093369 g / cm^3
# Si number density = 20.981449 Si / 1000 Ang^3
#
#
#
# Elastic Constant Matrix: (Units=GPa)
#
#
# Indices 1 2 3 4 5 6 
#
# 1 93.3984 23.5354 43.6434 0.0000 0.0000 0.0000
# 2 23.5354 82.2113 32.9934 0.0000 0.0000 0.0000
# 3 43.6434 32.9934 116.8524 0.0000 0.0000 0.0000
# 4 0.0000 0.0000 0.0000 27.4377 0.0000 0.0000
# 5 0.0000 0.0000 0.0000 0.0000 45.9496 0.0000
# 6 0.0000 0.0000 0.0000 0.0000 0.0000 36.9958
#
#
#
# Elastic Compliance Matrix: (Units=1/GPa)
#
#
# Indices 1 2 3 4 5 6 
#
# 1 0.013267 -0.002041 -0.004379 0.000000 0.000000 0.000000
# 2 -0.002041 0.014032 -0.003200 0.000000 0.000000 0.000000
# 3 -0.004379 -0.003200 0.011097 0.000000 0.000000 0.000000
# 4 0.000000 0.000000 0.000000 0.036446 0.000000 0.000000
# 5 0.000000 0.000000 0.000000 0.000000 0.021763 0.000000
# 6 0.000000 0.000000 0.000000 0.000000 0.000000 0.027030
#
#
# Mechanical properties :
#
#
# Convention : Reuss Voigt Hill
#
# Bulk Modulus (GPa) = 52.19986 54.75627 53.47807
# Shear Modulus (GPa) = 33.49852 34.89595 34.19724
#
# Velocity S-wave (km/s) = 4.00006 4.08264 4.04156
# Velocity P-wave (km/s) = 6.80198 6.95543 6.87914
#
# Compressibility (1/GPa) = 0.01915714
#
# Stress axis : x y z
#
# Youngs Moduli (GPa) = 75.37329 71.26491 90.11610
#
# Poissons Ratio (x) = 0.14543 0.39462
# Poissons Ratio (y) = 0.15382 0.28835
# Poissons Ratio (z) = 0.33006 0.22803
#
# Static dielectric constant tensor:
#      x y z
#    x 3.795520 0.000000 0.000000 
#    y 0.000000 3.958090 0.000000 
#    z 0.000000 0.000000 4.026500 
# 
# 
# High freq. dielectric constant tensor:
#      x y z
#    x 1.811390 0.000000 0.000000 
#    y 0.000000 1.835870 0.000000 
#    z 0.000000 0.000000 1.828430 
# 
# From -- ./inp_files/5487.got.cif
#   From: 2010.03.12/outbox.cif.g09.slc.cpg/sg19_3_cif.got.tgz:5487.got - 2010.04.10 18:59:41.
