data_PCOD8157189
_publ_section_title
;
Structure prediction by ZEFSAII (Michael W. Deem and Ramdas Pophale) SiO2 
 PCOD8157189
Probable space group: P 21 21 21
;
_chemical_formula_sum "Si O2"
_cell_formula_units_Z 24
_cell_length_a 5.333972
_cell_length_b 16.080936
_cell_length_c 10.157851
_cell_angle_alpha 90.000000
_cell_angle_beta 90.000000
_cell_angle_gamma 90.000000
_cell_volume 871.292335
_symmetry_space_group_name_H-M "P 21 21 21"
_symmetry_group_IT_number 19
_symmetry_cell_setting 'orthorhombic'
loop_
_space_group_symop_operation_xyz
x,y,z
1/2-x,-y,1/2+z
1/2+x,1/2-y,-z
-x,1/2+y,1/2-z
loop_
_atom_site_type_symbol
_atom_site_label
_atom_site_fract_x
_atom_site_fract_y
_atom_site_fract_z
Si Si1 0.051630 0.600259 0.823124
Si Si2 0.800548 0.446620 0.744751
Si Si3 0.239851 0.769008 0.312921
Si Si4 0.063223 0.710692 0.048272
Si Si5 0.298426 0.489174 0.631598
Si Si6 0.474117 0.632778 0.477434
O O1 0.812308 0.538771 0.810099
O O2 0.983220 0.689951 0.757228
O O3 0.285898 0.560135 0.747384
O O4 0.123001 0.619121 0.978826
O O5 0.543517 0.432452 0.665073
O O6 0.039994 0.435421 0.643193
O O7 0.820929 0.379032 0.861492
O O8 0.290098 0.705179 0.431411
O O9 0.095693 0.844689 0.383145
O O10 0.079677 0.717183 0.205761
O O11 0.775134 0.728809 0.011691
O O12 0.329205 0.543334 0.496282
#
# Coordination Sequence:
#
# PCOD8157189 Si02
#       6
#     4   4   4   4   4   4
#     4   9  21  45  71  99 143 186 238 293 350 434
#     4  10  25  42  69  99 138 191 236 283 360 421
#     4  11  24  43  73 112 145 194 235 308 372 430
#     4  10  22  40  69 103 141 187 237 291 357 435
#     4  10  22  45  69 100 142 184 238 301 351 423
#     4  12  24  45  73 109 151 190 244 308 370 439
#
# _framework density 27.545290000000001
#
# number of rings (size 3 to 8) (size 9 to 14) (size 15 to 20)
#    1.000    0.667    1.667    2.000    2.333    6.667 
#    3.000    0.000    0.000    0.000    0.000    0.000 
#    0.000    0.000    0.000    0.000    0.000    0.000 
#
# Total GULP energy -297416.500739 kJ/mol
# GULP energy per Si atom -12392.354197 kJ/mol
# Density = 2.748260 g / cm^3
# Si number density = 27.545290 Si / 1000 Ang^3
#
#
#
# Elastic Constant Matrix: (Units=GPa)
#
#
# Indices 1 2 3 4 5 6 
#
# 1 131.3928 7.4112 39.7010 0.0000 0.0000 0.0000
# 2 7.4112 59.6758 4.0822 0.0000 0.0000 0.0000
# 3 39.7010 4.0822 126.8567 0.0000 0.0000 0.0000
# 4 0.0000 0.0000 0.0000 57.9024 0.0000 0.0000
# 5 0.0000 0.0000 0.0000 0.0000 37.6500 0.0000
# 6 0.0000 0.0000 0.0000 0.0000 0.0000 34.0546
#
#
#
# Elastic Compliance Matrix: (Units=1/GPa)
#
#
# Indices 1 2 3 4 5 6 
#
# 1 0.008451 -0.000870 -0.002617 0.000000 0.000000 0.000000
# 2 -0.000870 0.016884 -0.000271 0.000000 0.000000 0.000000
# 3 -0.002617 -0.000271 0.008711 0.000000 0.000000 0.000000
# 4 0.000000 0.000000 0.000000 0.017270 0.000000 0.000000
# 5 0.000000 0.000000 0.000000 0.000000 0.026560 0.000000
# 6 0.000000 0.000000 0.000000 0.000000 0.000000 0.029365
#
#
# Mechanical properties :
#
#
# Convention : Reuss Voigt Hill
#
# Bulk Modulus (GPa) = 37.69485 46.70159 42.19822
# Shear Modulus (GPa) = 40.45330 43.70348 42.07839
#
# Velocity S-wave (km/s) = 3.83640 3.98754 3.91270
# Velocity P-wave (km/s) = 5.77394 6.17996 5.98040
#
# Compressibility (1/GPa) = 0.02652882
#
# Stress axis : x y z
#
# Youngs Moduli (GPa) = 118.33617 59.22823 114.80355
#
# Poissons Ratio (x) = 0.05156 0.30040
# Poissons Ratio (y) = 0.10301 0.03110
# Poissons Ratio (z) = 0.30964 0.01604
#
# Static dielectric constant tensor:
#      x y z
#    x 4.449820 0.000000 0.000000 
#    y 0.000000 5.093120 0.000000 
#    z 0.000000 0.000000 5.049650 
# 
# 
# High freq. dielectric constant tensor:
#      x y z
#    x 2.079160 0.000000 0.000000 
#    y 0.000000 2.130120 0.000000 
#    z 0.000000 0.000000 2.128500 
# 
# From -- ./inp_files/4453.got.cif
#   From: 2010.03.12/outbox.cif.g09.slc.cpg/sg19_3_cif.got.tgz:4453.got - 2010.04.10 18:59:41.
