data_PCOD8157021
_publ_section_title
;
Structure prediction by ZEFSAII (Michael W. Deem and Ramdas Pophale) SiO2 
 PCOD8157021
Probable space group: P 21 21 21
;
_chemical_formula_sum "Si O2"
_cell_formula_units_Z 32
_cell_length_a 5.017958
_cell_length_b 15.134360
_cell_length_c 16.081994
_cell_angle_alpha 90.000000
_cell_angle_beta 90.000000
_cell_angle_gamma 90.000000
_cell_volume 1221.324244
_symmetry_space_group_name_H-M "P 21 21 21"
_symmetry_group_IT_number 19
_symmetry_cell_setting 'orthorhombic'
loop_
_space_group_symop_operation_xyz
x,y,z
1/2-x,-y,1/2+z
1/2+x,1/2-y,-z
-x,1/2+y,1/2-z
loop_
_atom_site_type_symbol
_atom_site_label
_atom_site_fract_x
_atom_site_fract_y
_atom_site_fract_z
Si Si1 0.719996 0.664406 0.939187
Si Si2 0.044313 0.215029 0.099197
Si Si3 0.280607 0.388723 0.344978
Si Si4 0.178001 0.437312 0.908622
Si Si5 0.781198 0.376777 0.043562
Si Si6 0.140385 0.663664 0.146219
Si Si7 0.528241 0.035743 0.446229
Si Si8 0.360294 0.220033 0.256105
O O1 0.529050 0.620481 0.869527
O O2 0.658229 0.769797 0.933668
O O3 0.029390 0.646933 0.919709
O O4 0.654425 0.621829 0.030082
O O5 0.299970 0.198488 0.159190
O O6 0.805424 0.151306 0.129676
O O7 0.965774 0.319216 0.105277
O O8 0.082893 0.194114 0.000638
O O9 0.363200 0.492522 0.332073
O O10 0.329244 0.326364 0.265307
O O11 0.377873 0.489993 0.969199
O O12 0.916245 0.419943 0.962180
O O13 0.643604 0.456017 0.096494
O O14 0.228767 0.566378 0.113315
O O15 0.341965 0.693200 0.219723
O O16 0.845104 0.664902 0.185152
#
# Coordination Sequence:
#
# PCOD8157021 Si02
#       8
#     4   4   4   4   4   4   4   4
#     4   9  18  34  60  91 129 166 205 259 322 385
#     4  11  24  42  69  92 126 182 229 286 342 396
#     4   9  18  38  60  92 127 168 209 259 327 403
#     4  10  21  39  65  93 131 162 224 282 337 384
#     4  11  22  41  69  98 125 170 238 293 333 387
#     4  10  23  40  64  98 137 175 216 260 339 414
#     4  10  22  37  64 101 132 167 221 284 330 391
#     4  10  24  43  65  93 137 180 216 263 340 426
#
# _framework density 26.201067999999999
#
# number of rings (size 3 to 8) (size 9 to 14) (size 15 to 20)
#    0.000    2.000    2.500    0.000    3.500    5.000 
#    2.250    0.000    2.750    0.000    0.000    0.000 
#    0.000    0.000    0.000    0.000    0.000    0.000 
#
# Total GULP energy -396502.316342 kJ/mol
# GULP energy per Si atom -12390.697386 kJ/mol
# Density = 2.614143 g / cm^3
# Si number density = 26.201068 Si / 1000 Ang^3
#
#
#
# Elastic Constant Matrix: (Units=GPa)
#
#
# Indices 1 2 3 4 5 6 
#
# 1 60.2593 2.6872 -11.8723 0.0000 0.0000 0.0000
# 2 2.6872 105.4313 12.6831 0.0000 0.0000 0.0000
# 3 -11.8723 12.6831 48.0306 0.0000 0.0000 0.0000
# 4 0.0000 0.0000 0.0000 20.1898 0.0000 0.0000
# 5 0.0000 0.0000 0.0000 0.0000 20.3273 0.0000
# 6 0.0000 0.0000 0.0000 0.0000 0.0000 29.7249
#
#
#
# Elastic Compliance Matrix: (Units=1/GPa)
#
#
# Indices 1 2 3 4 5 6 
#
# 1 0.017546 -0.001001 0.004601 0.000000 0.000000 0.000000
# 2 -0.001001 0.009853 -0.002849 0.000000 0.000000 0.000000
# 3 0.004601 -0.002849 0.022710 0.000000 0.000000 0.000000
# 4 0.000000 0.000000 0.000000 0.049530 0.000000 0.000000
# 5 0.000000 0.000000 0.000000 0.000000 0.049195 0.000000
# 6 0.000000 0.000000 0.000000 0.000000 0.000000 0.033642
#
#
# Mechanical properties :
#
#
# Convention : Reuss Voigt Hill
#
# Bulk Modulus (GPa) = 19.37539 24.52413 21.94976
# Shear Modulus (GPa) = 25.22999 28.06328 26.64664
#
# Velocity S-wave (km/s) = 3.10649 3.27628 3.19251
# Velocity P-wave (km/s) = 4.50311 4.86747 4.68883
#
# Compressibility (1/GPa) = 0.05161188
#
# Stress axis : x y z
#
# Youngs Moduli (GPa) = 56.99257 101.49077 44.03383
#
# Poissons Ratio (x) = 0.10157 -0.20262
# Poissons Ratio (y) = 0.05704 0.12546
# Poissons Ratio (z) = -0.26224 0.28917
#
# Static dielectric constant tensor:
#      x y z
#    x 4.722370 0.000000 0.000000 
#    y 0.000000 5.421780 0.000000 
#    z 0.000000 0.000000 4.005670 
# 
# 
# High freq. dielectric constant tensor:
#      x y z
#    x 2.057660 0.000000 0.000000 
#    y 0.000000 2.059880 0.000000 
#    z 0.000000 0.000000 1.992670 
# 
# From -- ./inp_files/6456.got.cif
#   From: 2010.03.12/outbox.cif.g09.slc.cpg/sg19_4_cif.got.tgz:6456.got - 2010.04.10 18:59:41.
