data_PCOD8157429
_publ_section_title
;
Structure prediction by ZEFSAII (Michael W. Deem and Ramdas Pophale) SiO2 
 PCOD8157429
Probable space group: P 21 21 21
;
_chemical_formula_sum "Si O2"
_cell_formula_units_Z 20
_cell_length_a 9.937943
_cell_length_b 7.551680
_cell_length_c 10.744221
_cell_angle_alpha 90.000000
_cell_angle_beta 90.000000
_cell_angle_gamma 90.000000
_cell_volume 806.334075
_symmetry_space_group_name_H-M "P 21 21 21"
_symmetry_group_IT_number 19
_symmetry_cell_setting 'orthorhombic'
loop_
_space_group_symop_operation_xyz
x,y,z
1/2-x,-y,1/2+z
1/2+x,1/2-y,-z
-x,1/2+y,1/2-z
loop_
_atom_site_type_symbol
_atom_site_label
_atom_site_fract_x
_atom_site_fract_y
_atom_site_fract_z
Si Si1 0.373278 0.608224 0.575433
Si Si2 0.952347 0.699978 0.656495
Si Si3 0.373062 0.640001 0.095692
Si Si4 0.276613 0.096791 0.180563
Si Si5 0.343249 0.942127 0.934988
O O1 0.351090 0.712892 0.444382
O O2 0.276635 0.439524 0.586807
O O3 0.332212 0.744031 0.684364
O O4 0.528519 0.563021 0.592224
O O5 0.013640 0.509379 0.617014
O O6 0.072920 0.837173 0.669041
O O7 0.881376 0.706928 0.793954
O O8 0.395196 0.740899 0.963113
O O9 0.257147 0.014368 0.319239
O O10 0.251319 0.981062 0.056757
#
# Coordination Sequence:
#
# PCOD8157429 Si02
#       5
#     4   4   4   4   4
#     4  10  25  45  70 105 146 189 251 309 365 441
#     4  10  23  46  70 103 144 200 242 305 372 453
#     4  11  25  43  76 101 146 195 252 301 375 452
#     4  10  25  46  71 105 146 190 249 296 380 437
#     4  11  26  46  73 110 146 198 242 315 366 447
#
# _framework density 24.803616000000002
#
# number of rings (size 3 to 8) (size 9 to 14) (size 15 to 20)
#    0.000    1.600    0.000    2.400   14.000    3.200 
#    3.600    0.000    0.000    0.000    0.000    0.000 
#    0.000    0.000    0.000    0.000    0.000    0.000 
#
# Total GULP energy -247845.321912 kJ/mol
# GULP energy per Si atom -12392.266096 kJ/mol
# Density = 2.474716 g / cm^3
# Si number density = 24.803616 Si / 1000 Ang^3
#
#
#
# Elastic Constant Matrix: (Units=GPa)
#
#
# Indices 1 2 3 4 5 6 
#
# 1 78.8615 23.9851 49.5239 0.0000 0.0000 0.0000
# 2 23.9851 71.0910 49.0018 0.0000 0.0000 0.0000
# 3 49.5239 49.0018 159.8639 0.0000 0.0000 0.0000
# 4 0.0000 0.0000 0.0000 57.3498 0.0000 0.0000
# 5 0.0000 0.0000 0.0000 0.0000 45.6425 0.0000
# 6 0.0000 0.0000 0.0000 0.0000 0.0000 39.0849
#
#
#
# Elastic Compliance Matrix: (Units=1/GPa)
#
#
# Indices 1 2 3 4 5 6 
#
# 1 0.016093 -0.002527 -0.004211 0.000000 0.000000 0.000000
# 2 -0.002527 0.018231 -0.004805 0.000000 0.000000 0.000000
# 3 -0.004211 -0.004805 0.009033 0.000000 0.000000 0.000000
# 4 0.000000 0.000000 0.000000 0.017437 0.000000 0.000000
# 5 0.000000 0.000000 0.000000 0.000000 0.021909 0.000000
# 6 0.000000 0.000000 0.000000 0.000000 0.000000 0.025585
#
#
# Mechanical properties :
#
#
# Convention : Reuss Voigt Hill
#
# Bulk Modulus (GPa) = 49.33255 61.64864 55.49059
# Shear Modulus (GPa) = 36.19695 40.90251 38.54973
#
# Velocity S-wave (km/s) = 3.82428 4.06526 3.94661
# Velocity P-wave (km/s) = 6.27954 6.85155 6.57177
#
# Compressibility (1/GPa) = 0.02027059
#
# Stress axis : x y z
#
# Youngs Moduli (GPa) = 62.13691 54.85035 110.70790
#
# Poissons Ratio (x) = 0.13862 0.46618
# Poissons Ratio (y) = 0.15703 0.53200
# Poissons Ratio (z) = 0.26165 0.26358
#
# Static dielectric constant tensor:
#      x y z
#    x 4.302100 0.000000 0.000000 
#    y 0.000000 4.732380 0.000000 
#    z 0.000000 0.000000 4.896180 
# 
# 
# High freq. dielectric constant tensor:
#      x y z
#    x 1.988950 0.000000 0.000000 
#    y 0.000000 2.011240 0.000000 
#    z 0.000000 0.000000 1.990150 
# 
# From -- ./inp_files/3279.got.cif
#   From: 2010.03.12/outbox.cif.g09.slc.cpg/sg19_2_cif.got.tgz:3279.got - 2010.04.10 18:59:41.
