data_PCOD8157594
_publ_section_title
;
Structure prediction by ZEFSAII (Michael W. Deem and Ramdas Pophale) SiO2 
 PCOD8157594
Probable space group: P 21 21 21
;
_chemical_formula_sum "Si O2"
_cell_formula_units_Z 32
_cell_length_a 21.688653
_cell_length_b 10.889490
_cell_length_c 5.690713
_cell_angle_alpha 90.000000
_cell_angle_beta 90.000000
_cell_angle_gamma 90.000000
_cell_volume 1344.023320
_symmetry_space_group_name_H-M "P 21 21 21"
_symmetry_group_IT_number 19
_symmetry_cell_setting 'orthorhombic'
loop_
_space_group_symop_operation_xyz
x,y,z
1/2-x,-y,1/2+z
1/2+x,1/2-y,-z
-x,1/2+y,1/2-z
loop_
_atom_site_type_symbol
_atom_site_label
_atom_site_fract_x
_atom_site_fract_y
_atom_site_fract_z
Si Si1 0.743728 0.658479 0.012457
Si Si2 0.070637 0.402881 0.622172
Si Si3 0.588949 0.234548 0.881349
Si Si4 0.659356 0.506654 0.329383
Si Si5 0.335733 0.429346 0.914700
Si Si6 0.373562 0.178119 0.785994
Si Si7 0.554156 0.489618 0.994203
Si Si8 0.783160 0.851888 0.330442
O O1 0.717409 0.576977 0.222279
O O2 0.753034 0.799906 0.089988
O O3 0.812280 0.608814 0.964525
O O4 0.696045 0.652686 0.799961
O O5 0.066304 0.327011 0.867910
O O6 0.130706 0.493332 0.623224
O O7 0.010565 0.489977 0.620397
O O8 0.072694 0.335115 0.365226
O O9 0.554789 0.365832 0.835586
O O10 0.663621 0.243412 0.914433
O O11 0.620083 0.606109 0.472600
O O12 0.609010 0.447066 0.163710
O O13 0.382868 0.324440 0.819209
O O14 0.317247 0.518333 0.701857
O O15 0.272639 0.363014 0.989005
O O16 0.426217 0.120304 0.621049
#
# Coordination Sequence:
#
# PCOD8157594 Si02
#       8
#     4   4   4   4   4   4   4   4
#     4  11  22  39  67 106 148 186 242 304 388 457
#     4  11  29  52  75 109 150 205 260 319 382 459
#     4  11  28  51  77 113 147 201 259 315 389 462
#     4  11  23  40  67 108 142 191 243 311 380 449
#     4  11  24  43  72 108 150 196 253 312 391 460
#     4  11  24  42  68 108 144 193 244 313 381 454
#     4  11  29  46  78 104 148 206 255 327 376 465
#     4  11  23  43  72 110 149 198 244 319 385 472
#
# _framework density 23.80911
#
# number of rings (size 3 to 8) (size 9 to 14) (size 15 to 20)
#    0.000    1.000    2.500    2.250   12.250    1.000 
#    2.250    0.000    0.000    0.000    0.000    0.000 
#    0.000    0.000    0.000    0.000    0.000    0.000 
#
# Total GULP energy -396446.217014 kJ/mol
# GULP energy per Si atom -12388.944282 kJ/mol
# Density = 2.375492 g / cm^3
# Si number density = 23.809110 Si / 1000 Ang^3
#
#
#
# Elastic Constant Matrix: (Units=GPa)
#
#
# Indices 1 2 3 4 5 6 
#
# 1 63.8439 10.3962 3.9335 0.0000 0.0000 0.0000
# 2 10.3962 101.3465 16.5364 0.0000 0.0000 0.0000
# 3 3.9335 16.5364 90.3923 0.0000 0.0000 0.0000
# 4 0.0000 0.0000 0.0000 31.0507 0.0000 0.0000
# 5 0.0000 0.0000 0.0000 0.0000 8.5461 0.0000
# 6 0.0000 0.0000 0.0000 0.0000 0.0000 29.7572
#
#
#
# Elastic Compliance Matrix: (Units=1/GPa)
#
#
# Indices 1 2 3 4 5 6 
#
# 1 0.015944 -0.001569 -0.000407 0.000000 0.000000 0.000000
# 2 -0.001569 0.010325 -0.001821 0.000000 0.000000 0.000000
# 3 -0.000407 -0.001821 0.011414 0.000000 0.000000 0.000000
# 4 0.000000 0.000000 0.000000 0.032205 0.000000 0.000000
# 5 0.000000 0.000000 0.000000 0.000000 0.117012 0.000000
# 6 0.000000 0.000000 0.000000 0.000000 0.000000 0.033605
#
#
# Mechanical properties :
#
#
# Convention : Reuss Voigt Hill
#
# Bulk Modulus (GPa) = 33.23408 35.25719 34.24563
# Shear Modulus (GPa) = 20.99706 28.85191 24.92448
#
# Velocity S-wave (km/s) = 2.97289 3.48487 3.23901
# Velocity P-wave (km/s) = 5.07671 5.57071 5.32944
#
# Compressibility (1/GPa) = 0.03008960
#
# Stress axis : x y z
#
# Youngs Moduli (GPa) = 62.72040 96.85077 87.61434
#
# Poissons Ratio (x) = 0.15197 0.03564
# Poissons Ratio (y) = 0.09842 0.15951
# Poissons Ratio (z) = 0.02551 0.17633
#
# Static dielectric constant tensor:
#      x y z
#    x 4.210840 0.000000 0.000000 
#    y 0.000000 4.407050 0.000000 
#    z 0.000000 0.000000 4.185080 
# 
# 
# High freq. dielectric constant tensor:
#      x y z
#    x 1.939920 0.000000 0.000000 
#    y 0.000000 1.953490 0.000000 
#    z 0.000000 0.000000 1.931450 
# 
# From -- ./inp_files/2018.got.cif
#   From: 2010.03.12/outbox.cif.g09.slc.cpg/sg19_2_cif.got.tgz:2018.got - 2010.04.10 18:59:41.
