data_PCOD8157207
_publ_section_title
;
Structure prediction by ZEFSAII (Michael W. Deem and Ramdas Pophale) SiO2 
 PCOD8157207
Probable space group: P 21 21 21
;
_chemical_formula_sum "Si O2"
_cell_formula_units_Z 20
_cell_length_a 14.464203
_cell_length_b 11.302459
_cell_length_c 4.924753
_cell_angle_alpha 90.000000
_cell_angle_beta 90.000000
_cell_angle_gamma 90.000000
_cell_volume 805.103847
_symmetry_space_group_name_H-M "P 21 21 21"
_symmetry_group_IT_number 19
_symmetry_cell_setting 'orthorhombic'
loop_
_space_group_symop_operation_xyz
x,y,z
1/2-x,-y,1/2+z
1/2+x,1/2-y,-z
-x,1/2+y,1/2-z
loop_
_atom_site_type_symbol
_atom_site_label
_atom_site_fract_x
_atom_site_fract_y
_atom_site_fract_z
Si Si1 0.086901 0.328034 0.912960
Si Si2 0.913096 0.171960 0.912965
Si Si3 0.847811 0.293026 0.398059
Si Si4 0.985489 0.499996 0.250001
Si Si5 0.347813 0.793031 0.898054
O O1 0.166283 0.275036 0.113218
O O2 0.999999 0.249998 0.990614
O O3 0.053644 0.458930 0.003615
O O4 0.117049 0.311036 0.602575
O O5 0.833715 0.224958 0.113225
O O6 0.946354 0.041064 0.003619
O O7 0.882946 0.188957 0.602581
O O8 0.920601 0.400435 0.387472
O O9 0.750000 0.345316 0.500001
O O10 0.920600 0.599557 0.112534
#
# Coordination Sequence:
#
# PCOD8157207 Si02
#       5
#     4   4   4   4   4
#     4  10  22  41  65  95 131 172 216 264 323 394
#     4  10  22  41  65  95 131 172 216 264 323 394
#     4  11  24  42  66 100 133 165 217 280 324 374
#     4  10  24  44  72  94 128 182 222 258 326 400
#     4  11  24  42  66 100 133 165 217 280 324 374
#
# _framework density 24.841515000000001
#
# number of rings (size 3 to 8) (size 9 to 14) (size 15 to 20)
#    0.000    1.600    0.000    4.800    0.000   20.800 
#    0.000    4.000    0.000    0.000    0.000    0.000 
#    0.000    0.000    0.000    0.000    0.000    0.000 
#
# Total GULP energy -247779.857872 kJ/mol
# GULP energy per Si atom -12388.992894 kJ/mol
# Density = 2.478497 g / cm^3
# Si number density = 24.841515 Si / 1000 Ang^3
#
#
#
# Elastic Constant Matrix: (Units=GPa)
#
#
# Indices 1 2 3 4 5 6 
#
# 1 57.8707 23.8042 21.0349 0.0000 0.0000 0.0000
# 2 23.8042 85.3622 19.0803 0.0000 0.0000 0.0000
# 3 21.0349 19.0803 115.1787 0.0000 0.0000 0.0000
# 4 0.0000 0.0000 0.0000 36.8543 0.0000 0.0000
# 5 0.0000 0.0000 0.0000 0.0000 31.8881 0.0000
# 6 0.0000 0.0000 0.0000 0.0000 0.0000 22.8765
#
#
#
# Elastic Compliance Matrix: (Units=1/GPa)
#
#
# Indices 1 2 3 4 5 6 
#
# 1 0.020406 -0.005044 -0.002891 0.000000 0.000000 0.000000
# 2 -0.005044 0.013412 -0.001301 0.000000 0.000000 0.000000
# 3 -0.002891 -0.001301 0.009426 0.000000 0.000000 0.000000
# 4 0.000000 0.000000 0.000000 0.027134 0.000000 0.000000
# 5 0.000000 0.000000 0.000000 0.000000 0.031360 0.000000
# 6 0.000000 0.000000 0.000000 0.000000 0.000000 0.043713
#
#
# Mechanical properties :
#
#
# Convention : Reuss Voigt Hill
#
# Bulk Modulus (GPa) = 40.36858 42.91670 41.64264
# Shear Modulus (GPa) = 29.03962 31.28993 30.16477
#
# Velocity S-wave (km/s) = 3.42277 3.55291 3.48844
# Velocity P-wave (km/s) = 5.64855 5.84334 5.74677
#
# Compressibility (1/GPa) = 0.02477174
#
# Stress axis : x y z
#
# Youngs Moduli (GPa) = 49.00625 74.55950 106.09397
#
# Poissons Ratio (x) = 0.37609 0.30672
# Poissons Ratio (y) = 0.24719 0.13799
# Poissons Ratio (z) = 0.14168 0.09697
#
# Static dielectric constant tensor:
#      x y z
#    x 4.491210 0.000000 0.000000 
#    y 0.000000 4.696570 0.000000 
#    z 0.000000 0.000000 4.473250 
# 
# 
# High freq. dielectric constant tensor:
#      x y z
#    x 1.978050 0.000000 0.000000 
#    y 0.000000 1.975810 0.000000 
#    z 0.000000 0.000000 2.006840 
# 
# From -- ./inp_files/1387.got.cif
#   From: 2010.03.12/outbox.cif.g09.slc.cpg/sg19_1_cif.got.tgz:1387.got - 2010.04.10 18:59:41.
