data_PCOD8157756
_publ_section_title
;
Structure prediction by ZEFSAII (Michael W. Deem and Ramdas Pophale) SiO2 
 PCOD8157756
Probable space group: P 21 21 21
;
_chemical_formula_sum "Si O2"
_cell_formula_units_Z 24
_cell_length_a 9.893987
_cell_length_b 8.636098
_cell_length_c 13.292011
_cell_angle_alpha 90.000000
_cell_angle_beta 90.000000
_cell_angle_gamma 90.000000
_cell_volume 1135.741746
_symmetry_space_group_name_H-M "P 21 21 21"
_symmetry_group_IT_number 19
_symmetry_cell_setting 'orthorhombic'
loop_
_space_group_symop_operation_xyz
x,y,z
1/2-x,-y,1/2+z
1/2+x,1/2-y,-z
-x,1/2+y,1/2-z
loop_
_atom_site_type_symbol
_atom_site_label
_atom_site_fract_x
_atom_site_fract_y
_atom_site_fract_z
Si Si1 0.709047 0.997621 0.508407
Si Si2 0.377840 0.847313 0.810038
Si Si3 0.196878 0.142558 0.525421
Si Si4 0.459559 0.060517 0.636024
Si Si5 0.532792 0.018597 0.142840
Si Si6 0.143886 0.685067 0.686748
O O1 0.834520 0.950725 0.577411
O O2 0.708180 0.884991 0.413558
O O3 0.720158 0.174091 0.471947
O O4 0.573081 0.970538 0.572733
O O5 0.499902 0.737322 0.844901
O O6 0.265837 0.748156 0.753296
O O7 0.439884 0.982730 0.744032
O O8 0.312955 0.919888 0.910921
O O9 0.320558 0.051822 0.575155
O O10 0.061090 0.104609 0.585741
O O11 0.460331 0.181274 0.158622
O O12 0.567509 0.948681 0.251782
#
# Coordination Sequence:
#
# PCOD8157756 Si02
#       6
#     4   4   4   4   4   4
#     4  11  26  44  71 101 142 184 233 288 353 411
#     4  11  26  45  70 104 140 179 236 279 356 408
#     4  11  24  45  74 101 141 183 228 289 353 414
#     4  11  25  45  73 103 140 182 229 290 343 422
#     4  12  26  47  74 104 142 189 230 298 346 424
#     4  12  27  46  70 105 141 183 240 282 357 415
#
# _framework density 21.131563
#
# number of rings (size 3 to 8) (size 9 to 14) (size 15 to 20)
#    0.000    0.667    5.000    3.000    9.333    1.333 
#    0.000    0.000    0.000    0.000    0.000    0.000 
#    0.000    0.000    0.000    0.000    0.000    0.000 
#
# Total GULP energy -297767.499326 kJ/mol
# GULP energy per Si atom -12406.979139 kJ/mol
# Density = 2.108347 g / cm^3
# Si number density = 21.131563 Si / 1000 Ang^3
#
#
#
# Elastic Constant Matrix: (Units=GPa)
#
#
# Indices 1 2 3 4 5 6 
#
# 1 89.6864 22.1937 42.5498 0.0000 0.0000 0.0000
# 2 22.1937 34.4119 40.0618 0.0000 0.0000 0.0000
# 3 42.5498 40.0618 138.3292 0.0000 0.0000 0.0000
# 4 0.0000 0.0000 0.0000 48.0104 0.0000 0.0000
# 5 0.0000 0.0000 0.0000 0.0000 35.8525 0.0000
# 6 0.0000 0.0000 0.0000 0.0000 0.0000 23.9855
#
#
#
# Elastic Compliance Matrix: (Units=1/GPa)
#
#
# Indices 1 2 3 4 5 6 
#
# 1 0.013826 -0.005983 -0.002520 0.000000 0.000000 0.000000
# 2 -0.005983 0.046431 -0.011606 0.000000 0.000000 0.000000
# 3 -0.002520 -0.011606 0.011366 0.000000 0.000000 0.000000
# 4 0.000000 0.000000 0.000000 0.020829 0.000000 0.000000
# 5 0.000000 0.000000 0.000000 0.000000 0.027892 0.000000
# 6 0.000000 0.000000 0.000000 0.000000 0.000000 0.041692
#
#
# Mechanical properties :
#
#
# Convention : Reuss Voigt Hill
#
# Bulk Modulus (GPa) = 31.84413 52.44867 42.14640
# Shear Modulus (GPa) = 23.50481 32.07782 27.79132
#
# Velocity S-wave (km/s) = 3.33875 3.90039 3.63044
# Velocity P-wave (km/s) = 5.47404 6.71997 6.12875
#
# Compressibility (1/GPa) = 0.03140296
#
# Stress axis : x y z
#
# Youngs Moduli (GPa) = 72.32659 21.53750 87.98413
#
# Poissons Ratio (x) = 0.12886 0.22173
# Poissons Ratio (y) = 0.43275 1.02118
# Poissons Ratio (z) = 0.18227 0.24997
#
# Static dielectric constant tensor:
#      x y z
#    x 3.993930 0.000000 0.000000 
#    y 0.000000 3.620520 0.000000 
#    z 0.000000 0.000000 4.179510 
# 
# 
# High freq. dielectric constant tensor:
#      x y z
#    x 1.845140 0.000000 0.000000 
#    y 0.000000 1.818060 0.000000 
#    z 0.000000 0.000000 1.848600 
# 
# From -- ./inp_files/2671.got.cif
#   From: 2010.03.12/outbox.cif.g09.slc.cpg/sg19_2_cif.got.tgz:2671.got - 2010.04.10 18:59:41.
