data_PCOD8157959
_publ_section_title
;
Structure prediction by ZEFSAII (Michael W. Deem and Ramdas Pophale) SiO2 
 PCOD8157959
Probable space group: C 2 2 21
;
_chemical_formula_sum "Si O2"
_cell_formula_units_Z 60
_cell_length_a 18.587080
_cell_length_b 11.746589
_cell_length_c 15.192998
_cell_angle_alpha 90.000000
_cell_angle_beta 90.000000
_cell_angle_gamma 90.000000
_cell_volume 3317.160020
_symmetry_space_group_name_H-M "C 2 2 21"
_symmetry_group_IT_number 20
_symmetry_cell_setting 'orthorhombic'
loop_
_space_group_symop_operation_xyz
x,y,z
-x,-y,1/2+z
x,-y,-z
-x,y,1/2-z
1/2+x,1/2+y,z
1/2-x,1/2-y,1/2+z
1/2+x,1/2-y,-z
1/2-x,1/2+y,1/2-z
loop_
_atom_site_type_symbol
_atom_site_label
_atom_site_fract_x
_atom_site_fract_y
_atom_site_fract_z
Si Si1 0.313061 0.427074 0.916516
Si Si2 0.710505 0.060290 0.800966
Si Si3 0.667984 0.116039 0.330927
Si Si4 0.276451 0.708584 0.555777
Si Si5 0.851695 0.826171 0.271837
Si Si6 0.309165 0.000000 0.000000
Si Si7 0.324765 0.706854 0.365022
Si Si8 0.082413 0.053624 0.251083
O O1 0.240033 0.486885 0.882603
O O2 0.288758 0.300322 0.944928
O O3 0.376334 0.419636 0.843242
O O4 0.342204 0.500000 0.000000
O O5 0.779934 0.106360 0.751614
O O6 0.661595 0.165477 0.830805
O O7 0.659191 0.985951 0.738244
O O8 0.624361 0.227272 0.297491
O O9 0.644199 0.074097 0.429190
O O10 0.750470 0.155347 0.329802
O O11 0.333587 0.729077 0.633802
O O12 0.239748 0.583708 0.559407
O O13 0.325495 0.714615 0.469679
O O14 0.914754 0.919285 0.272704
O O15 0.386297 0.625388 0.329693
O O16 0.000000 0.090810 0.250000
#
# Coordination Sequence:
#
# PCOD8157959 Si02
#       8
#     8   8   8   8   8   4   8   8
#     4  11  20  35  57  87 116 144 190 247 304 355
#     4  10  16  30  51  80 111 138 173 240 309 337
#     4  10  17  29  51  79 111 139 174 242 310 349
#     4  11  18  30  55  87 118 137 178 250 313 342
#     4  10  18  32  51  76 110 147 186 234 288 349
#     4  10  20  26  44  84 114 142 170 224 308 358
#     4  10  19  31  52  80 115 145 184 237 290 350
#     4  11  24  41  54  76 119 169 202 225 276 365
#
# _framework density 18.087761
#
# number of rings (size 3 to 8) (size 9 to 14) (size 15 to 20)
#    0.000    1.600    6.667    1.600    1.867    0.000 
#    2.400    0.000    0.000    0.800    0.000    1.867 
#    0.000    0.000    0.000    0.000    0.000    0.000 
#
# Total GULP energy -371824.131040 kJ/mol
# GULP energy per Si atom -12394.137701 kJ/mol
# Density = 1.804659 g / cm^3
# Si number density = 18.087761 Si / 1000 Ang^3
#
#
#
# Elastic Constant Matrix: (Units=GPa)
#
#
# Indices 1 2 3 4 5 6 
#
# 1 45.5774 24.2084 26.0883 0.0000 0.0000 0.0000
# 2 24.2084 121.2286 47.2269 0.0000 0.0000 0.0000
# 3 26.0883 47.2269 115.4747 0.0000 0.0000 0.0000
# 4 0.0000 0.0000 0.0000 38.6442 0.0000 0.0000
# 5 0.0000 0.0000 0.0000 0.0000 11.1235 0.0000
# 6 0.0000 0.0000 0.0000 0.0000 0.0000 10.5606
#
#
#
# Elastic Compliance Matrix: (Units=1/GPa)
#
#
# Indices 1 2 3 4 5 6 
#
# 1 0.026396 -0.003507 -0.004529 0.000000 0.000000 0.000000
# 2 -0.003507 0.010278 -0.003411 0.000000 0.000000 0.000000
# 3 -0.004529 -0.003411 0.011078 0.000000 0.000000 0.000000
# 4 0.000000 0.000000 0.000000 0.025877 0.000000 0.000000
# 5 0.000000 0.000000 0.000000 0.000000 0.089900 0.000000
# 6 0.000000 0.000000 0.000000 0.000000 0.000000 0.094692
#
#
# Mechanical properties :
#
#
# Convention : Reuss Voigt Hill
#
# Bulk Modulus (GPa) = 40.22877 53.03645 46.63261
# Shear Modulus (GPa) = 17.27707 24.38280 20.82994
#
# Velocity S-wave (km/s) = 3.09395 3.67553 3.39721
# Velocity P-wave (km/s) = 5.92052 6.88463 6.42070
#
# Compressibility (1/GPa) = 0.02485783
#
# Stress axis : x y z
#
# Youngs Moduli (GPa) = 37.88489 97.29477 90.26634
#
# Poissons Ratio (x) = 0.34117 0.40884
# Poissons Ratio (y) = 0.13285 0.30793
# Poissons Ratio (z) = 0.17159 0.33190
#
# Static dielectric constant tensor:
#      x y z
#    x 2.641570 0.000000 0.000000 
#    y 0.000000 3.820520 0.000000 
#    z 0.000000 0.000000 3.548610 
# 
# 
# High freq. dielectric constant tensor:
#      x y z
#    x 1.607860 0.000000 0.000000 
#    y 0.000000 1.727320 0.000000 
#    z 0.000000 0.000000 1.717130 
# 
# From -- ./inp_files/21874.got.cif
#   From: 2010.03.12/outbox.cif.g09.slc.cpg/sg20_11_cif.got.tgz:21874.got - 2010.04.14 01:38:04.
