data_PCOD8157024
_publ_section_title
;
Structure prediction by ZEFSAII (Michael W. Deem and Ramdas Pophale) SiO2 
 PCOD8157024
Probable space group: P 21 21 21
;
_chemical_formula_sum "Si O2"
_cell_formula_units_Z 20
_cell_length_a 8.215027
_cell_length_b 22.168383
_cell_length_c 5.123355
_cell_angle_alpha 90.000000
_cell_angle_beta 90.000000
_cell_angle_gamma 90.000000
_cell_volume 933.033980
_symmetry_space_group_name_H-M "P 21 21 21"
_symmetry_group_IT_number 19
_symmetry_cell_setting 'orthorhombic'
loop_
_space_group_symop_operation_xyz
x,y,z
1/2-x,-y,1/2+z
1/2+x,1/2-y,-z
-x,1/2+y,1/2-z
loop_
_atom_site_type_symbol
_atom_site_label
_atom_site_fract_x
_atom_site_fract_y
_atom_site_fract_z
Si Si1 0.849646 0.714518 0.793093
Si Si2 0.547880 0.879327 0.468439
Si Si3 0.014637 0.742396 0.302992
Si Si4 0.141289 0.006105 0.173544
Si Si5 0.303611 0.534799 0.738510
O O1 0.928768 0.648007 0.757620
O O2 0.655770 0.709760 0.757362
O O3 0.922027 0.759537 0.570216
O O4 0.883037 0.743543 0.072675
O O5 0.589421 0.825706 0.672332
O O6 0.716015 0.902774 0.341214
O O7 0.451092 0.931692 0.615667
O O8 0.999422 0.956703 0.234024
O O9 0.256002 0.015139 0.423626
O O10 0.270832 0.485076 0.515445
#
# Coordination Sequence:
#
# PCOD8157024 Si02
#       5
#     4   4   4   4   4
#     4  10  22  41  65  89 122 159 207 255 304 361
#     4   9  24  41  67  83 130 164 202 239 326 359
#     4  10  22  41  65  87 123 158 204 255 305 361
#     4  11  23  40  61  95 127 156 208 261 291 358
#     4  10  21  39  66  86 124 165 201 240 304 371
#
# _framework density 21.435444
#
# number of rings (size 3 to 8) (size 9 to 14) (size 15 to 20)
#    1.200    0.800    0.000    3.600    8.400    0.000 
#    3.600    0.000    0.000    0.000    0.000    0.000 
#    0.000    0.000    0.000    0.000    0.000    0.000 
#
# Total GULP energy -247849.024735 kJ/mol
# GULP energy per Si atom -12392.451237 kJ/mol
# Density = 2.138666 g / cm^3
# Si number density = 21.435444 Si / 1000 Ang^3
#
#
#
# Elastic Constant Matrix: (Units=GPa)
#
#
# Indices 1 2 3 4 5 6 
#
# 1 102.6138 7.0294 28.6417 0.0000 0.0000 0.0000
# 2 7.0294 29.1831 7.6701 0.0000 0.0000 0.0000
# 3 28.6417 7.6701 95.7005 0.0000 0.0000 0.0000
# 4 0.0000 0.0000 0.0000 12.2240 0.0000 0.0000
# 5 0.0000 0.0000 0.0000 0.0000 47.5420 0.0000
# 6 0.0000 0.0000 0.0000 0.0000 0.0000 30.6294
#
#
#
# Elastic Compliance Matrix: (Units=1/GPa)
#
#
# Indices 1 2 3 4 5 6 
#
# 1 0.010723 -0.001777 -0.003067 0.000000 0.000000 0.000000
# 2 -0.001777 0.035298 -0.002297 0.000000 0.000000 0.000000
# 3 -0.003067 -0.002297 0.011551 0.000000 0.000000 0.000000
# 4 0.000000 0.000000 0.000000 0.081807 0.000000 0.000000
# 5 0.000000 0.000000 0.000000 0.000000 0.021034 0.000000
# 6 0.000000 0.000000 0.000000 0.000000 0.000000 0.032648
#
#
# Mechanical properties :
#
#
# Convention : Reuss Voigt Hill
#
# Bulk Modulus (GPa) = 23.09972 34.90888 29.00430
# Shear Modulus (GPa) = 22.54552 30.35614 26.45083
#
# Velocity S-wave (km/s) = 3.24665 3.76728 3.51661
# Velocity P-wave (km/s) = 4.98539 5.93668 5.48171
#
# Compressibility (1/GPa) = 0.04329057
#
# Stress axis : x y z
#
# Youngs Moduli (GPa) = 93.25730 28.33006 86.57073
#
# Poissons Ratio (x) = 0.05034 0.26550
# Poissons Ratio (y) = 0.16570 0.19888
# Poissons Ratio (z) = 0.28600 0.06508
#
# Static dielectric constant tensor:
#      x y z
#    x 3.914390 0.000000 0.000000 
#    y 0.000000 3.484740 0.000000 
#    z 0.000000 0.000000 3.908810 
# 
# 
# High freq. dielectric constant tensor:
#      x y z
#    x 1.845520 0.000000 0.000000 
#    y 0.000000 1.800540 0.000000 
#    z 0.000000 0.000000 1.854660 
# 
# From -- ./inp_files/567.got.cif
#   From: 2010.03.12/outbox.cif.g09.slc.cpg/sg19_1_cif.got.tgz:567.got - 2010.04.10 18:59:41.
