data_PCOD8157783
_publ_section_title
;
Structure prediction by ZEFSAII (Michael W. Deem and Ramdas Pophale) SiO2 
 PCOD8157783
Probable space group: P 21 21 21
;
_chemical_formula_sum "Si O2"
_cell_formula_units_Z 28
_cell_length_a 5.356991
_cell_length_b 18.265733
_cell_length_c 11.209767
_cell_angle_alpha 90.000000
_cell_angle_beta 90.000000
_cell_angle_gamma 90.000000
_cell_volume 1096.868608
_symmetry_space_group_name_H-M "P 21 21 21"
_symmetry_group_IT_number 19
_symmetry_cell_setting 'orthorhombic'
loop_
_space_group_symop_operation_xyz
x,y,z
1/2-x,-y,1/2+z
1/2+x,1/2-y,-z
-x,1/2+y,1/2-z
loop_
_atom_site_type_symbol
_atom_site_label
_atom_site_fract_x
_atom_site_fract_y
_atom_site_fract_z
Si Si1 0.478513 0.044242 0.419494
Si Si2 0.534205 0.291995 0.536620
Si Si3 0.832793 0.080604 0.607817
Si Si4 0.786708 0.098092 0.869874
Si Si5 0.794735 0.340454 0.759503
Si Si6 0.042655 0.233784 0.931947
Si Si7 0.891286 0.442158 0.961393
O O1 0.566351 0.079120 0.543119
O O2 0.455404 0.110227 0.328872
O O3 0.692953 0.989642 0.373750
O O4 0.245183 0.991175 0.440018
O O5 0.774771 0.249262 0.486318
O O6 0.528084 0.369399 0.466944
O O7 0.567059 0.307396 0.680216
O O8 0.749295 0.117908 0.731633
O O9 0.949742 0.998945 0.621293
O O10 0.027304 0.145828 0.910126
O O11 0.561035 0.115821 0.962711
O O12 0.970782 0.275846 0.809637
O O13 0.716648 0.392981 0.872091
O O14 0.823838 0.249899 0.028962
#
# Coordination Sequence:
#
# PCOD8157783 Si02
#       7
#     4   4   4   4   4   4   4
#     4  11  25  45  75 115 154 207 272 336 410 488
#     4  12  28  52  79 123 163 218 275 333 421 502
#     4  11  25  44  76 115 154 207 268 337 407 494
#     4  11  25  46  74 109 158 205 268 342 401 489
#     4  12  25  50  82 110 165 213 269 343 408 494
#     4  12  28  51  75 112 157 209 269 324 406 485
#     4  11  24  48  73 114 151 209 277 329 413 476
#
# _framework density 25.527214000000001
#
# number of rings (size 3 to 8) (size 9 to 14) (size 15 to 20)
#    0.000    0.571    4.286    2.571    2.000    3.429 
#    5.143    0.000    0.000    0.000    0.000    0.000 
#    0.000    0.000    0.000    0.000    0.000    0.000 
#
# Total GULP energy -346932.789982 kJ/mol
# GULP energy per Si atom -12390.456785 kJ/mol
# Density = 2.546911 g / cm^3
# Si number density = 25.527214 Si / 1000 Ang^3
#
#
#
# Elastic Constant Matrix: (Units=GPa)
#
#
# Indices 1 2 3 4 5 6 
#
# 1 59.9051 7.3627 7.8262 0.0000 0.0000 0.0000
# 2 7.3627 93.1153 19.6583 0.0000 0.0000 0.0000
# 3 7.8262 19.6583 135.9854 0.0000 0.0000 0.0000
# 4 0.0000 0.0000 0.0000 55.2747 0.0000 0.0000
# 5 0.0000 0.0000 0.0000 0.0000 26.9649 0.0000
# 6 0.0000 0.0000 0.0000 0.0000 0.0000 37.0273
#
#
#
# Elastic Compliance Matrix: (Units=1/GPa)
#
#
# Indices 1 2 3 4 5 6 
#
# 1 0.016942 -0.001169 -0.000806 0.000000 0.000000 0.000000
# 2 -0.001169 0.011158 -0.001546 0.000000 0.000000 0.000000
# 3 -0.000806 -0.001546 0.007624 0.000000 0.000000 0.000000
# 4 0.000000 0.000000 0.000000 0.018091 0.000000 0.000000
# 5 0.000000 0.000000 0.000000 0.000000 0.037085 0.000000
# 6 0.000000 0.000000 0.000000 0.000000 0.000000 0.027007
#
#
# Mechanical properties :
#
#
# Convention : Reuss Voigt Hill
#
# Bulk Modulus (GPa) = 34.86572 39.85557 37.36065
# Shear Modulus (GPa) = 37.17180 40.79729 38.98455
#
# Velocity S-wave (km/s) = 3.82011 4.00207 3.91215
# Velocity P-wave (km/s) = 5.75722 6.08295 5.92233
#
# Compressibility (1/GPa) = 0.02868147
#
# Stress axis : x y z
#
# Youngs Moduli (GPa) = 59.02456 89.62042 131.17209
#
# Poissons Ratio (x) = 0.10481 0.10572
# Poissons Ratio (y) = 0.06903 0.20276
# Poissons Ratio (z) = 0.04757 0.13853
#
# Static dielectric constant tensor:
#      x y z
#    x 4.222170 0.000000 0.000000 
#    y 0.000000 5.157500 0.000000 
#    z 0.000000 0.000000 4.735610 
# 
# 
# High freq. dielectric constant tensor:
#      x y z
#    x 1.993110 0.000000 0.000000 
#    y 0.000000 2.049670 0.000000 
#    z 0.000000 0.000000 2.024470 
# 
# From -- ./inp_files/4496.got.cif
#   From: 2010.03.12/outbox.cif.g09.slc.cpg/sg19_3_cif.got.tgz:4496.got - 2010.04.10 18:59:41.
