data_PCOD8157342
_publ_section_title
;
Structure prediction by ZEFSAII (Michael W. Deem and Ramdas Pophale) SiO2 
 PCOD8157342
Probable space group: P 21 21 21
;
_chemical_formula_sum "Si O2"
_cell_formula_units_Z 16
_cell_length_a 7.227683
_cell_length_b 11.145527
_cell_length_c 9.391170
_cell_angle_alpha 90.000000
_cell_angle_beta 90.000000
_cell_angle_gamma 90.000000
_cell_volume 756.518246
_symmetry_space_group_name_H-M "P 21 21 21"
_symmetry_group_IT_number 19
_symmetry_cell_setting 'orthorhombic'
loop_
_space_group_symop_operation_xyz
x,y,z
1/2-x,-y,1/2+z
1/2+x,1/2-y,-z
-x,1/2+y,1/2-z
loop_
_atom_site_type_symbol
_atom_site_label
_atom_site_fract_x
_atom_site_fract_y
_atom_site_fract_z
Si Si1 0.751016 0.094852 0.598662
Si Si2 0.294295 0.675920 0.373255
Si Si3 0.520019 0.789632 0.860994
Si Si4 0.299744 0.227760 0.172203
O O1 0.559512 0.167902 0.563921
O O2 0.827166 0.141680 0.751884
O O3 0.907299 0.118051 0.478723
O O4 0.704849 0.955080 0.605580
O O5 0.281683 0.755153 0.514796
O O6 0.507953 0.657374 0.331495
O O7 0.185822 0.743963 0.247261
O O8 0.349912 0.846805 0.767692
#
# Coordination Sequence:
#
# PCOD8157342 Si02
#       4
#     4   4   4   4
#     4  10  23  43  64  92 130 169 203 270 317 374
#     4  12  21  46  64  93 132 165 217 263 324 370
#     4  10  23  44  60  97 128 163 219 262 312 388
#     4  10  23  41  64  94 126 169 213 269 303 392
#
# _framework density 21.149524
#
# number of rings (size 3 to 8) (size 9 to 14) (size 15 to 20)
#    1.500    0.000    2.500    3.000    0.000    0.000 
#   13.500    0.000    0.000    0.000    0.000    0.000 
#    0.000    0.000    0.000    0.000    0.000    0.000 
#
# Total GULP energy -198259.056000 kJ/mol
# GULP energy per Si atom -12391.191000 kJ/mol
# Density = 2.110139 g / cm^3
# Si number density = 21.149524 Si / 1000 Ang^3
#
#
#
# Elastic Constant Matrix: (Units=GPa)
#
#
# Indices 1 2 3 4 5 6 
#
# 1 133.8806 16.2657 43.9836 0.0000 0.0000 0.0000
# 2 16.2657 58.7933 -1.8573 0.0000 0.0000 0.0000
# 3 43.9836 -1.8573 91.3304 0.0000 0.0000 0.0000
# 4 0.0000 0.0000 0.0000 16.0406 0.0000 0.0000
# 5 0.0000 0.0000 0.0000 0.0000 53.8778 0.0000
# 6 0.0000 0.0000 0.0000 0.0000 0.0000 26.5699
#
#
#
# Elastic Compliance Matrix: (Units=1/GPa)
#
#
# Indices 1 2 3 4 5 6 
#
# 1 0.009286 -0.002712 -0.004527 0.000000 0.000000 0.000000
# 2 -0.002712 0.017812 0.001668 0.000000 0.000000 0.000000
# 3 -0.004527 0.001668 0.013163 0.000000 0.000000 0.000000
# 4 0.000000 0.000000 0.000000 0.062342 0.000000 0.000000
# 5 0.000000 0.000000 0.000000 0.000000 0.018561 0.000000
# 6 0.000000 0.000000 0.000000 0.000000 0.000000 0.037637
#
#
# Mechanical properties :
#
#
# Convention : Reuss Voigt Hill
#
# Bulk Modulus (GPa) = 34.34145 44.53202 39.43673
# Shear Modulus (GPa) = 27.83207 34.33849 31.08528
#
# Velocity S-wave (km/s) = 3.63156 4.03377 3.83794
# Velocity P-wave (km/s) = 5.81868 6.54191 6.19086
#
# Compressibility (1/GPa) = 0.02911933
#
# Stress axis : x y z
#
# Youngs Moduli (GPa) = 107.68687 56.14267 75.96793
#
# Poissons Ratio (x) = 0.15227 0.34393
# Poissons Ratio (y) = 0.29206 -0.12674
# Poissons Ratio (z) = 0.48753 -0.09367
#
# Static dielectric constant tensor:
#      x y z
#    x 3.809830 0.000000 0.000000 
#    y 0.000000 3.154880 0.000000 
#    z 0.000000 0.000000 3.946540 
# 
# 
# High freq. dielectric constant tensor:
#      x y z
#    x 1.833970 0.000000 0.000000 
#    y 0.000000 1.773870 0.000000 
#    z 0.000000 0.000000 1.846800 
# 
# From -- ./inp_files/293.got.cif
#   From: 2010.03.12/outbox.cif.g09.slc.cpg/sg19_1_cif.got.tgz:293.got - 2010.04.10 18:59:41.
