data_PCOD8157225
_publ_section_title
;
Structure prediction by ZEFSAII (Michael W. Deem and Ramdas Pophale) SiO2 
 PCOD8157225
Probable space group: P 21 21 21
;
_chemical_formula_sum "Si O2"
_cell_formula_units_Z 32
_cell_length_a 11.851907
_cell_length_b 5.346875
_cell_length_c 20.272750
_cell_angle_alpha 90.000000
_cell_angle_beta 90.000000
_cell_angle_gamma 90.000000
_cell_volume 1284.697654
_symmetry_space_group_name_H-M "P 21 21 21"
_symmetry_group_IT_number 19
_symmetry_cell_setting 'orthorhombic'
loop_
_space_group_symop_operation_xyz
x,y,z
1/2-x,-y,1/2+z
1/2+x,1/2-y,-z
-x,1/2+y,1/2-z
loop_
_atom_site_type_symbol
_atom_site_label
_atom_site_fract_x
_atom_site_fract_y
_atom_site_fract_z
Si Si1 0.138667 0.763325 0.685029
Si Si2 0.576973 0.942417 0.186613
Si Si3 0.932201 0.298565 0.242858
Si Si4 0.442003 0.302046 0.527328
Si Si5 0.793871 0.371547 0.362849
Si Si6 0.440672 0.621170 0.097120
Si Si7 0.860381 0.472372 0.100898
Si Si8 0.269729 0.496899 0.425044
O O1 0.152370 0.580878 0.747412
O O2 0.087908 0.661364 0.616063
O O3 0.263884 0.858694 0.668305
O O4 0.043372 0.953895 0.710507
O O5 0.546316 0.695882 0.143542
O O6 0.654960 0.098379 0.136448
O O7 0.846205 0.217621 0.301696
O O8 0.868637 0.391785 0.177259
O O9 0.001228 0.539730 0.271338
O O10 0.379693 0.108212 0.576219
O O11 0.524656 0.145836 0.479118
O O12 0.514975 0.492083 0.571081
O O13 0.347595 0.460586 0.489092
O O14 0.673035 0.273473 0.387722
O O15 0.793184 0.735578 0.093080
O O16 0.809248 0.236694 0.060234
#
# Coordination Sequence:
#
# PCOD8157225 Si02
#       8
#     4   4   4   4   4   4   4   4
#     4  11  22  41  76 114 152 201 257 325 403 466
#     4  10  22  41  72 115 153 197 247 337 384 473
#     4  12  27  50  79 114 153 204 256 323 402 457
#     4  11  26  56  70 111 163 203 267 328 393 480
#     4  11  26  48  75 109 153 206 261 330 387 480
#     4  10  24  46  72 110 151 206 260 314 410 462
#     4  12  27  52  79 116 154 209 264 323 393 479
#     4  11  28  48  81 111 153 208 260 318 396 469
#
# _framework density 24.908584999999999
#
# number of rings (size 3 to 8) (size 9 to 14) (size 15 to 20)
#    0.000    1.000    2.500    2.250    7.000    1.000 
#   18.000    0.000    0.000    0.000    0.000    0.000 
#    0.000    0.000    0.000    0.000    0.000    0.000 
#
# Total GULP energy -396476.954832 kJ/mol
# GULP energy per Si atom -12389.904839 kJ/mol
# Density = 2.485189 g / cm^3
# Si number density = 24.908585 Si / 1000 Ang^3
#
#
#
# Elastic Constant Matrix: (Units=GPa)
#
#
# Indices 1 2 3 4 5 6 
#
# 1 92.7977 15.5091 47.7655 0.0000 0.0000 0.0000
# 2 15.5091 70.8523 8.0239 0.0000 0.0000 0.0000
# 3 47.7655 8.0239 161.0232 0.0000 0.0000 0.0000
# 4 0.0000 0.0000 0.0000 23.2131 0.0000 0.0000
# 5 0.0000 0.0000 0.0000 0.0000 50.6488 0.0000
# 6 0.0000 0.0000 0.0000 0.0000 0.0000 23.7338
#
#
#
# Elastic Compliance Matrix: (Units=1/GPa)
#
#
# Indices 1 2 3 4 5 6 
#
# 1 0.013126 -0.002446 -0.003772 0.000000 0.000000 0.000000
# 2 -0.002446 0.014650 -0.000004 0.000000 0.000000 0.000000
# 3 -0.003772 -0.000004 0.007329 0.000000 0.000000 0.000000
# 4 0.000000 0.000000 0.000000 0.043079 0.000000 0.000000
# 5 0.000000 0.000000 0.000000 0.000000 0.019744 0.000000
# 6 0.000000 0.000000 0.000000 0.000000 0.000000 0.042134
#
#
# Mechanical properties :
#
#
# Convention : Reuss Voigt Hill
#
# Bulk Modulus (GPa) = 44.12911 51.91891 48.02401
# Shear Modulus (GPa) = 31.23809 36.41079 33.82444
#
# Velocity S-wave (km/s) = 3.54518 3.82747 3.68903
# Velocity P-wave (km/s) = 5.87475 6.35781 6.12104
#
# Compressibility (1/GPa) = 0.02266078
#
# Stress axis : x y z
#
# Youngs Moduli (GPa) = 76.18209 68.26030 136.43699
#
# Poissons Ratio (x) = 0.16697 0.51463
# Poissons Ratio (y) = 0.18635 0.00060
# Poissons Ratio (z) = 0.28735 0.00030
#
# Static dielectric constant tensor:
#      x y z
#    x 4.777050 0.000000 0.000000 
#    y 0.000000 4.483040 0.000000 
#    z 0.000000 0.000000 4.607430 
# 
# 
# High freq. dielectric constant tensor:
#      x y z
#    x 2.005320 0.000000 0.000000 
#    y 0.000000 1.970340 0.000000 
#    z 0.000000 0.000000 2.005190 
# 
# From -- ./inp_files/7155.got.cif
#   From: 2010.03.12/outbox.cif.g09.slc.cpg/sg19_4_cif.got.tgz:7155.got - 2010.04.10 18:59:41.
