data_PCOD8157157
_publ_section_title
;
Structure prediction by ZEFSAII (Michael W. Deem and Ramdas Pophale) SiO2 
 PCOD8157157
Probable space group: P 21 21 21
;
_chemical_formula_sum "Si O2"
_cell_formula_units_Z 32
_cell_length_a 12.379366
_cell_length_b 7.875908
_cell_length_c 15.731856
_cell_angle_alpha 90.000000
_cell_angle_beta 90.000000
_cell_angle_gamma 90.000000
_cell_volume 1533.836259
_symmetry_space_group_name_H-M "P 21 21 21"
_symmetry_group_IT_number 19
_symmetry_cell_setting 'orthorhombic'
loop_
_space_group_symop_operation_xyz
x,y,z
1/2-x,-y,1/2+z
1/2+x,1/2-y,-z
-x,1/2+y,1/2-z
loop_
_atom_site_type_symbol
_atom_site_label
_atom_site_fract_x
_atom_site_fract_y
_atom_site_fract_z
Si Si1 0.364429 0.656715 0.448419
Si Si2 0.222920 0.650747 0.293007
Si Si3 0.516260 0.419724 0.147707
Si Si4 0.284401 0.290298 0.100728
Si Si5 0.593219 0.487080 0.466765
Si Si6 0.589812 0.519899 0.662238
Si Si7 0.385374 0.675140 0.734918
Si Si8 0.586680 0.239752 0.318894
O O1 0.287791 0.588185 0.374914
O O2 0.399487 0.851493 0.423250
O O3 0.301297 0.626384 0.535707
O O4 0.473524 0.550164 0.446318
O O5 0.179352 0.844803 0.304714
O O6 0.132604 0.503038 0.285232
O O7 0.302062 0.647374 0.210863
O O8 0.394551 0.389972 0.114746
O O9 0.544487 0.352558 0.241300
O O10 0.516584 0.620908 0.159831
O O11 0.224340 0.268227 0.189639
O O12 0.311765 0.110572 0.061034
O O13 0.609740 0.458596 0.566411
O O14 0.614254 0.325066 0.408472
O O15 0.479946 0.628991 0.668678
O O16 0.582704 0.340567 0.710934
#
# Coordination Sequence:
#
# PCOD8157157 Si02
#       8
#     4   4   4   4   4   4   4   4
#     4  10  22  41  67  96 132 171 217 270 340 392
#     4  11  23  46  70  96 135 177 225 277 333 401
#     4  10  22  39  68  94 129 172 217 277 331 393
#     4  11  21  42  66  91 130 175 214 271 337 385
#     4  11  24  43  65  98 136 168 224 284 327 403
#     4  12  25  44  67  99 136 178 224 275 334 407
#     4  12  25  43  70  96 132 184 223 267 336 408
#     4  11  22  44  67  98 130 169 226 281 334 397
#
# _framework density 20.862724
#
# number of rings (size 3 to 8) (size 9 to 14) (size 15 to 20)
#    0.000    1.000    5.000    3.000    0.000    2.000 
#    2.250    1.250    0.000    0.000    0.000    0.000 
#    0.000    0.000    0.000    0.000    0.000    0.000 
#
# Total GULP energy -396443.536658 kJ/mol
# GULP energy per Si atom -12388.860521 kJ/mol
# Density = 2.081524 g / cm^3
# Si number density = 20.862724 Si / 1000 Ang^3
#
#
#
# Elastic Constant Matrix: (Units=GPa)
#
#
# Indices 1 2 3 4 5 6 
#
# 1 74.0410 7.9107 19.6384 0.0000 0.0000 0.0000
# 2 7.9107 74.5304 34.3746 0.0000 0.0000 0.0000
# 3 19.6384 34.3746 95.7883 0.0000 0.0000 0.0000
# 4 0.0000 0.0000 0.0000 25.7653 0.0000 0.0000
# 5 0.0000 0.0000 0.0000 0.0000 27.1820 0.0000
# 6 0.0000 0.0000 0.0000 0.0000 0.0000 30.8483
#
#
#
# Elastic Compliance Matrix: (Units=1/GPa)
#
#
# Indices 1 2 3 4 5 6 
#
# 1 0.014285 -0.000198 -0.002858 0.000000 0.000000 0.000000
# 2 -0.000198 0.016081 -0.005730 0.000000 0.000000 0.000000
# 3 -0.002858 -0.005730 0.013082 0.000000 0.000000 0.000000
# 4 0.000000 0.000000 0.000000 0.038812 0.000000 0.000000
# 5 0.000000 0.000000 0.000000 0.000000 0.036789 0.000000
# 6 0.000000 0.000000 0.000000 0.000000 0.000000 0.032417
#
#
# Mechanical properties :
#
#
# Convention : Reuss Voigt Hill
#
# Bulk Modulus (GPa) = 38.64574 40.91192 39.77883
# Shear Modulus (GPa) = 28.14308 28.92153 28.53230
#
# Velocity S-wave (km/s) = 3.67681 3.72731 3.70215
# Velocity P-wave (km/s) = 6.04891 6.17871 6.11415
#
# Compressibility (1/GPa) = 0.02587608
#
# Stress axis : x y z
#
# Youngs Moduli (GPa) = 70.00277 62.18412 76.44138
#
# Poissons Ratio (x) = 0.01233 0.21844
# Poissons Ratio (y) = 0.01388 0.43803
# Poissons Ratio (z) = 0.20004 0.35633
#
# Static dielectric constant tensor:
#      x y z
#    x 4.132720 0.000000 0.000000 
#    y 0.000000 3.705980 0.000000 
#    z 0.000000 0.000000 3.809220 
# 
# 
# High freq. dielectric constant tensor:
#      x y z
#    x 1.830210 0.000000 0.000000 
#    y 0.000000 1.806310 0.000000 
#    z 0.000000 0.000000 1.817840 
# 
# From -- ./inp_files/5231.got.cif
#   From: 2010.03.12/outbox.cif.g09.slc.cpg/sg19_3_cif.got.tgz:5231.got - 2010.04.10 18:59:41.
