data_PCOD8157204
_publ_section_title
;
Structure prediction by ZEFSAII (Michael W. Deem and Ramdas Pophale) SiO2 
 PCOD8157204
Probable space group: P 21 21 21
;
_chemical_formula_sum "Si O2"
_cell_formula_units_Z 28
_cell_length_a 8.358236
_cell_length_b 7.836813
_cell_length_c 17.284098
_cell_angle_alpha 90.000000
_cell_angle_beta 90.000000
_cell_angle_gamma 90.000000
_cell_volume 1132.141821
_symmetry_space_group_name_H-M "P 21 21 21"
_symmetry_group_IT_number 19
_symmetry_cell_setting 'orthorhombic'
loop_
_space_group_symop_operation_xyz
x,y,z
1/2-x,-y,1/2+z
1/2+x,1/2-y,-z
-x,1/2+y,1/2-z
loop_
_atom_site_type_symbol
_atom_site_label
_atom_site_fract_x
_atom_site_fract_y
_atom_site_fract_z
Si Si1 0.535012 0.336959 0.534993
Si Si2 0.512081 0.728063 0.667643
Si Si3 0.847267 0.852256 0.657303
Si Si4 0.998459 0.016056 0.788494
Si Si5 0.172659 0.459943 0.558256
Si Si6 0.474240 0.196019 0.002412
Si Si7 0.671737 0.369181 0.693538
O O1 0.349030 0.388229 0.543494
O O2 0.549632 0.181107 0.475532
O O3 0.622762 0.513809 0.505353
O O4 0.612898 0.272490 0.615773
O O5 0.656350 0.865183 0.664610
O O6 0.435948 0.719724 0.581127
O O7 0.587737 0.551203 0.693220
O O8 0.375556 0.773801 0.727857
O O9 0.923555 0.013816 0.701655
O O10 0.920161 0.698069 0.706141
O O11 0.891732 0.831012 0.567765
O O12 0.857526 0.981119 0.850360
O O13 0.137349 0.877233 0.803640
O O14 0.140864 0.644360 0.518668
#
# Coordination Sequence:
#
# PCOD8157204 Si02
#       7
#     4   4   4   4   4   4   4
#     4  11  24  43  69 101 135 176 222 276 335 400
#     4  10  22  41  64  94 128 168 218 272 331 394
#     4  10  22  41  64  94 128 168 218 272 331 394
#     4  10  23  41  62  93 129 170 218 269 328 396
#     4  11  24  43  69 101 135 176 222 276 335 400
#     4  10  24  44  68  98 132 176 222 276 332 396
#     4  10  23  41  62  93 129 170 218 269 328 396
#
# _framework density 24.731884000000001
#
# number of rings (size 3 to 8) (size 9 to 14) (size 15 to 20)
#    0.000    1.714    0.000    2.571    4.000   10.286 
#    0.000    0.000    0.000    0.000    0.000    0.000 
#    0.000    0.000    0.000    0.000    0.000    0.000 
#
# Total GULP energy -347067.019376 kJ/mol
# GULP energy per Si atom -12395.250692 kJ/mol
# Density = 2.467559 g / cm^3
# Si number density = 24.731884 Si / 1000 Ang^3
#
#
#
# Elastic Constant Matrix: (Units=GPa)
#
#
# Indices 1 2 3 4 5 6 
#
# 1 29.2548 10.6638 -2.9926 0.0000 0.0000 0.0000
# 2 10.6638 78.3189 41.8203 0.0000 0.0000 0.0000
# 3 -2.9926 41.8203 100.8461 0.0000 0.0000 0.0000
# 4 0.0000 0.0000 0.0000 42.8538 0.0000 0.0000
# 5 0.0000 0.0000 0.0000 0.0000 39.0941 0.0000
# 6 0.0000 0.0000 0.0000 0.0000 0.0000 25.4840
#
#
#
# Elastic Compliance Matrix: (Units=1/GPa)
#
#
# Indices 1 2 3 4 5 6 
#
# 1 0.037255 -0.007274 0.004122 0.000000 0.000000 0.000000
# 2 -0.007274 0.017820 -0.007606 0.000000 0.000000 0.000000
# 3 0.004122 -0.007606 0.013192 0.000000 0.000000 0.000000
# 4 0.000000 0.000000 0.000000 0.023335 0.000000 0.000000
# 5 0.000000 0.000000 0.000000 0.000000 0.025579 0.000000
# 6 0.000000 0.000000 0.000000 0.000000 0.000000 0.039240
#
#
# Mechanical properties :
#
#
# Convention : Reuss Voigt Hill
#
# Bulk Modulus (GPa) = 21.38904 34.15587 27.77245
# Shear Modulus (GPa) = 25.83692 32.08160 28.95926
#
# Velocity S-wave (km/s) = 3.23566 3.60554 3.42560
# Velocity P-wave (km/s) = 4.75673 5.58334 5.18653
#
# Compressibility (1/GPa) = 0.04675291
#
# Stress axis : x y z
#
# Youngs Moduli (GPa) = 26.84179 56.11713 75.80109
#
# Poissons Ratio (x) = 0.40817 -0.31244
# Poissons Ratio (y) = 0.19524 0.57652
# Poissons Ratio (z) = -0.11064 0.42681
#
# Static dielectric constant tensor:
#      x y z
#    x 4.299120 0.000000 0.000000 
#    y 0.000000 4.751520 0.000000 
#    z 0.000000 0.000000 4.619880 
# 
# 
# High freq. dielectric constant tensor:
#      x y z
#    x 1.976870 0.000000 0.000000 
#    y 0.000000 1.986440 0.000000 
#    z 0.000000 0.000000 1.995520 
# 
# From -- ./inp_files/6583.got.cif
#   From: 2010.03.12/outbox.cif.g09.slc.cpg/sg19_4_cif.got.tgz:6583.got - 2010.04.10 18:59:41.
