data_PCOD8157085
_publ_section_title
;
Structure prediction by ZEFSAII (Michael W. Deem and Ramdas Pophale) SiO2 
 PCOD8157085
Probable space group: P 21 21 21
;
_chemical_formula_sum "Si O2"
_cell_formula_units_Z 20
_cell_length_a 5.332023
_cell_length_b 22.136245
_cell_length_c 6.684882
_cell_angle_alpha 90.000000
_cell_angle_beta 90.000000
_cell_angle_gamma 90.000000
_cell_volume 789.023090
_symmetry_space_group_name_H-M "P 21 21 21"
_symmetry_group_IT_number 19
_symmetry_cell_setting 'orthorhombic'
loop_
_space_group_symop_operation_xyz
x,y,z
1/2-x,-y,1/2+z
1/2+x,1/2-y,-z
-x,1/2+y,1/2-z
loop_
_atom_site_type_symbol
_atom_site_label
_atom_site_fract_x
_atom_site_fract_y
_atom_site_fract_z
Si Si1 0.496361 0.627494 0.320003
Si Si2 0.998821 0.930464 0.243144
Si Si3 0.498908 0.885812 0.247881
Si Si4 0.003651 0.070519 0.198218
Si Si5 0.502944 0.752890 0.133247
O O1 0.495068 0.607622 0.550367
O O2 0.744742 0.600812 0.212638
O O3 0.499536 0.699634 0.296447
O O4 0.245335 0.602138 0.212890
O O5 0.745570 0.909462 0.128027
O O6 0.250555 0.908445 0.128071
O O7 0.000791 0.001736 0.269936
O O8 0.495395 0.921167 0.458926
O O9 0.501032 0.813668 0.266054
O O10 0.255904 0.750088 0.996487
#
# Coordination Sequence:
#
# PCOD8157085 Si02
#       5
#     4   4   4   4   4
#     4  10  23  43  68  98 133 184 225 285 347 399
#     4  10  21  42  68 103 134 170 226 286 349 422
#     4  10  23  43  68  98 133 184 225 285 347 399
#     4  10  21  42  68 103 134 170 226 286 349 422
#     4  12  26  48  66  98 142 184 244 284 326 408
#
# _framework density 25.347802000000001
#
# number of rings (size 3 to 8) (size 9 to 14) (size 15 to 20)
#    0.000    1.600    0.000    3.600    0.000    6.400 
#   43.200    0.000    0.000    0.000    0.000    0.000 
#    0.000    0.000    0.000    0.000    0.000    0.000 
#
# Total GULP energy -247820.095568 kJ/mol
# GULP energy per Si atom -12391.004778 kJ/mol
# Density = 2.529011 g / cm^3
# Si number density = 25.347802 Si / 1000 Ang^3
#
#
#
# Elastic Constant Matrix: (Units=GPa)
#
#
# Indices 1 2 3 4 5 6 
#
# 1 298.4059 64.3254 -25.4424 0.0000 0.0000 0.0000
# 2 64.3254 194.1142 3.1427 0.0000 0.0000 0.0000
# 3 -25.4424 3.1427 76.2713 0.0000 0.0000 0.0000
# 4 0.0000 0.0000 0.0000 40.5123 0.0000 0.0000
# 5 0.0000 0.0000 0.0000 0.0000 -79.6063 0.0000
# 6 0.0000 0.0000 0.0000 0.0000 0.0000 48.3248
#
#
#
# Elastic Compliance Matrix: (Units=1/GPa)
#
#
# Indices 1 2 3 4 5 6 
#
# 1 0.003733 -0.001258 0.001297 0.000000 0.000000 0.000000
# 2 -0.001258 0.005579 -0.000650 0.000000 0.000000 0.000000
# 3 0.001297 -0.000650 0.013571 0.000000 0.000000 0.000000
# 4 0.000000 0.000000 0.000000 0.024684 0.000000 0.000000
# 5 0.000000 0.000000 0.000000 0.000000 -0.012562 0.000000
# 6 0.000000 0.000000 0.000000 0.000000 0.000000 0.020693
#
#
# Mechanical properties :
#
#
# Convention : Reuss Voigt Hill
#
# Bulk Modulus (GPa) = 46.16492 72.53808 59.35150
# Shear Modulus (GPa) = 77.95542 36.96387 57.45964
#
# Velocity S-wave (km/s) = 5.55167 3.82287 4.76631
# Velocity P-wave (km/s) = 7.70369 6.94010 7.33185
#
# Compressibility (1/GPa) = 0.02166147
#
# Stress axis : x y z
#
# Youngs Moduli (GPa) = 267.88759 179.24358 73.68915
#
# Poissons Ratio (x) = 0.22549 -0.09558
# Poissons Ratio (y) = 0.33700 0.04786
# Poissons Ratio (z) = -0.34746 0.11642
#
# Static dielectric constant tensor:
#      x y z
#    x -15.661650 0.000000 0.000000 
#    y 0.000000 4.477040 0.000000 
#    z 0.000000 0.000000 3.963480 
# 
# 
# High freq. dielectric constant tensor:
#      x y z
#    x 2.060060 0.000000 0.000000 
#    y 0.000000 2.010700 0.000000 
#    z 0.000000 0.000000 1.999750 
# 
# From -- ./inp_files/2366.got.cif
#   From: 2010.03.12/outbox.cif.g09.slc.cpg/sg19_2_cif.got.tgz:2366.got - 2010.04.10 18:59:41.
