data_PCOD8157112
_publ_section_title
;
Structure prediction by ZEFSAII (Michael W. Deem and Ramdas Pophale) SiO2 
 PCOD8157112
Probable space group: P 21 21 21
;
_chemical_formula_sum "Si O2"
_cell_formula_units_Z 24
_cell_length_a 8.514971
_cell_length_b 14.485618
_cell_length_c 8.867932
_cell_angle_alpha 90.000000
_cell_angle_beta 90.000000
_cell_angle_gamma 90.000000
_cell_volume 1093.811678
_symmetry_space_group_name_H-M "P 21 21 21"
_symmetry_group_IT_number 19
_symmetry_cell_setting 'orthorhombic'
loop_
_space_group_symop_operation_xyz
x,y,z
1/2-x,-y,1/2+z
1/2+x,1/2-y,-z
-x,1/2+y,1/2-z
loop_
_atom_site_type_symbol
_atom_site_label
_atom_site_fract_x
_atom_site_fract_y
_atom_site_fract_z
Si Si1 0.712708 0.206281 0.418185
Si Si2 0.544627 0.073954 0.623823
Si Si3 0.466399 0.212709 0.181447
Si Si4 0.283606 0.116171 0.411444
Si Si5 0.509599 0.884729 0.750793
Si Si6 0.139401 0.287688 0.118781
O O1 0.653103 0.109999 0.488820
O O2 0.584659 0.254938 0.308181
O O3 0.749868 0.275406 0.554116
O O4 0.869251 0.182714 0.329891
O O5 0.365560 0.070147 0.557206
O O6 0.559151 0.141927 0.765004
O O7 0.593595 0.969635 0.665793
O O8 0.391761 0.121041 0.260624
O O9 0.331120 0.286197 0.128866
O O10 0.577534 0.180187 0.044317
O O11 0.115869 0.070042 0.370358
O O12 0.414500 0.818461 0.638166
#
# Coordination Sequence:
#
# PCOD8157112 Si02
#       6
#     4   4   4   4   4   4
#     4  11  20  44  68  93 129 189 225 273 339 412
#     4  11  24  41  67  98 132 178 235 274 334 411
#     4  10  22  37  69  89 131 173 225 275 344 402
#     4  10  21  44  67  92 132 185 223 271 344 417
#     4  11  23  39  69  99 135 172 238 280 336 404
#     4  11  22  41  62  97 135 175 222 289 343 386
#
# _framework density 21.94162
#
# number of rings (size 3 to 8) (size 9 to 14) (size 15 to 20)
#    0.000    1.333    5.000    2.000    0.000    5.333 
#    0.000    1.667    0.000    0.000    0.000    0.000 
#    0.000    0.000    0.000    0.000    0.000    0.000 
#
# Total GULP energy -297428.358500 kJ/mol
# GULP energy per Si atom -12392.848271 kJ/mol
# Density = 2.189168 g / cm^3
# Si number density = 21.941620 Si / 1000 Ang^3
#
#
#
# Elastic Constant Matrix: (Units=GPa)
#
#
# Indices 1 2 3 4 5 6 
#
# 1 90.2549 -6.2231 37.8372 0.0000 0.0000 0.0000
# 2 -6.2231 56.5045 8.9773 0.0000 0.0000 0.0000
# 3 37.8372 8.9773 104.3816 0.0000 0.0000 0.0000
# 4 0.0000 0.0000 0.0000 20.2008 0.0000 0.0000
# 5 0.0000 0.0000 0.0000 0.0000 30.1512 0.0000
# 6 0.0000 0.0000 0.0000 0.0000 0.0000 21.8674
#
#
#
# Elastic Compliance Matrix: (Units=1/GPa)
#
#
# Indices 1 2 3 4 5 6 
#
# 1 0.013346 0.002270 -0.005033 0.000000 0.000000 0.000000
# 2 0.002270 0.018329 -0.002399 0.000000 0.000000 0.000000
# 3 -0.005033 -0.002399 0.011611 0.000000 0.000000 0.000000
# 4 0.000000 0.000000 0.000000 0.049503 0.000000 0.000000
# 5 0.000000 0.000000 0.000000 0.000000 0.033166 0.000000
# 6 0.000000 0.000000 0.000000 0.000000 0.000000 0.045730
#
#
# Mechanical properties :
#
#
# Convention : Reuss Voigt Hill
#
# Bulk Modulus (GPa) = 30.33898 36.92485 33.63192
# Shear Modulus (GPa) = 25.90705 28.48050 27.19378
#
# Velocity S-wave (km/s) = 3.43990 3.60670 3.52429
# Velocity P-wave (km/s) = 5.44374 5.84890 5.64995
#
# Compressibility (1/GPa) = 0.03296089
#
# Stress axis : x y z
#
# Youngs Moduli (GPa) = 74.92772 54.55886 86.12532
#
# Poissons Ratio (x) = -0.12382 0.43347
# Poissons Ratio (y) = -0.17005 0.20662
# Poissons Ratio (z) = 0.37711 0.13089
#
# Static dielectric constant tensor:
#      x y z
#    x 4.281230 0.000000 0.000000 
#    y 0.000000 3.349840 0.000000 
#    z 0.000000 0.000000 4.057700 
# 
# 
# High freq. dielectric constant tensor:
#      x y z
#    x 1.879160 0.000000 0.000000 
#    y 0.000000 1.808970 0.000000 
#    z 0.000000 0.000000 1.873120 
# 
# From -- ./inp_files/2793.got.cif
#   From: 2010.03.12/outbox.cif.g09.slc.cpg/sg19_2_cif.got.tgz:2793.got - 2010.04.10 18:59:41.
