data_PCOD8157579
_publ_section_title
;
Structure prediction by ZEFSAII (Michael W. Deem and Ramdas Pophale) SiO2 
 PCOD8157579
Probable space group: P 21 21 21
;
_chemical_formula_sum "Si O2"
_cell_formula_units_Z 32
_cell_length_a 8.687228
_cell_length_b 11.414286
_cell_length_c 14.565366
_cell_angle_alpha 90.000000
_cell_angle_beta 90.000000
_cell_angle_gamma 90.000000
_cell_volume 1444.279916
_symmetry_space_group_name_H-M "P 21 21 21"
_symmetry_group_IT_number 19
_symmetry_cell_setting 'orthorhombic'
loop_
_space_group_symop_operation_xyz
x,y,z
1/2-x,-y,1/2+z
1/2+x,1/2-y,-z
-x,1/2+y,1/2-z
loop_
_atom_site_type_symbol
_atom_site_label
_atom_site_fract_x
_atom_site_fract_y
_atom_site_fract_z
Si Si1 0.620123 0.452570 0.533381
Si Si2 0.731421 0.361931 0.167597
Si Si3 0.340765 0.826089 0.692013
Si Si4 0.313601 0.506507 0.440269
Si Si5 0.580765 0.797592 0.553525
Si Si6 0.818307 0.429128 0.357165
Si Si7 0.518384 0.695801 0.372016
Si Si8 0.884693 0.794880 0.121391
O O1 0.705933 0.523003 0.614893
O O2 0.436768 0.480925 0.522753
O O3 0.701056 0.474901 0.434940
O O4 0.641255 0.315861 0.556383
O O5 0.833385 0.249918 0.142977
O O6 0.725510 0.361920 0.278042
O O7 0.558644 0.325091 0.137626
O O8 0.403741 0.799432 0.588810
O O9 0.155733 0.818101 0.699696
O O10 0.403066 0.743279 0.772322
O O11 0.390784 0.962105 0.701434
O O12 0.163141 0.579544 0.476354
O O13 0.401829 0.585861 0.363740
O O14 0.255758 0.385480 0.394778
O O15 0.590016 0.699346 0.474732
O O16 0.953415 0.355004 0.404332
#
# Coordination Sequence:
#
# PCOD8157579 Si02
#       8
#     4   4   4   4   4   4   4   4
#     4  12  25  48  71 103 146 188 232 298 366 431
#     4  11  24  42  71 103 134 184 240 288 357 426
#     4  12  23  43  71  98 139 188 235 293 356 420
#     4  11  24  42  70 101 141 179 238 296 354 432
#     4  11  21  43  70 103 133 179 238 295 358 416
#     4  12  24  47  70  97 147 186 229 300 348 432
#     4  11  24  41  73 102 138 181 237 306 353 426
#     4  12  27  44  72 103 142 195 237 284 370 437
#
# _framework density 22.156369999999999
#
# number of rings (size 3 to 8) (size 9 to 14) (size 15 to 20)
#    0.000    0.500    6.250    3.000    1.750    0.000 
#    0.000    0.000    5.500    0.000    0.000    0.000 
#    0.000    0.000    0.000    0.000    0.000    0.000 
#
# Total GULP energy -396495.421423 kJ/mol
# GULP energy per Si atom -12390.481919 kJ/mol
# Density = 2.210594 g / cm^3
# Si number density = 22.156370 Si / 1000 Ang^3
#
#
#
# Elastic Constant Matrix: (Units=GPa)
#
#
# Indices 1 2 3 4 5 6 
#
# 1 102.5297 38.6730 21.8888 0.0000 0.0000 0.0000
# 2 38.6730 121.8633 19.0440 0.0000 0.0000 0.0000
# 3 21.8888 19.0440 76.0337 0.0000 0.0000 0.0000
# 4 0.0000 0.0000 0.0000 30.4834 0.0000 0.0000
# 5 0.0000 0.0000 0.0000 0.0000 27.2219 0.0000
# 6 0.0000 0.0000 0.0000 0.0000 0.0000 41.2995
#
#
#
# Elastic Compliance Matrix: (Units=1/GPa)
#
#
# Indices 1 2 3 4 5 6 
#
# 1 0.011518 -0.003265 -0.002498 0.000000 0.000000 0.000000
# 2 -0.003265 0.009466 -0.001431 0.000000 0.000000 0.000000
# 3 -0.002498 -0.001431 0.014230 0.000000 0.000000 0.000000
# 4 0.000000 0.000000 0.000000 0.032805 0.000000 0.000000
# 5 0.000000 0.000000 0.000000 0.000000 0.036735 0.000000
# 6 0.000000 0.000000 0.000000 0.000000 0.000000 0.024213
#
#
# Mechanical properties :
#
#
# Convention : Reuss Voigt Hill
#
# Bulk Modulus (GPa) = 48.01800 51.07091 49.54446
# Shear Modulus (GPa) = 33.26766 34.52236 33.89501
#
# Velocity S-wave (km/s) = 3.87912 3.95159 3.91552
# Velocity P-wave (km/s) = 6.46396 6.62724 6.54611
#
# Compressibility (1/GPa) = 0.02082552
#
# Stress axis : x y z
#
# Youngs Moduli (GPa) = 86.82029 105.64548 70.27585
#
# Poissons Ratio (x) = 0.34491 0.17556
# Poissons Ratio (y) = 0.28345 0.10056
# Poissons Ratio (z) = 0.21689 0.15117
#
# Static dielectric constant tensor:
#      x y z
#    x 4.114830 0.000000 0.000000 
#    y 0.000000 4.088750 0.000000 
#    z 0.000000 0.000000 3.655240 
# 
# 
# High freq. dielectric constant tensor:
#      x y z
#    x 1.878580 0.000000 0.000000 
#    y 0.000000 1.884300 0.000000 
#    z 0.000000 0.000000 1.845250 
# 
# From -- ./inp_files/5961.got.cif
#   From: 2010.03.12/outbox.cif.g09.slc.cpg/sg19_3_cif.got.tgz:5961.got - 2010.04.10 18:59:41.
