data_PCOD8157718
_publ_section_title
;
Structure prediction by ZEFSAII (Michael W. Deem and Ramdas Pophale) SiO2 
 PCOD8157718
Probable space group: P 21 21 21
;
_chemical_formula_sum "Si O2"
_cell_formula_units_Z 24
_cell_length_a 11.763035
_cell_length_b 6.014917
_cell_length_c 14.644400
_cell_angle_alpha 90.000000
_cell_angle_beta 90.000000
_cell_angle_gamma 90.000000
_cell_volume 1036.145180
_symmetry_space_group_name_H-M "P 21 21 21"
_symmetry_group_IT_number 19
_symmetry_cell_setting 'orthorhombic'
loop_
_space_group_symop_operation_xyz
x,y,z
1/2-x,-y,1/2+z
1/2+x,1/2-y,-z
-x,1/2+y,1/2-z
loop_
_atom_site_type_symbol
_atom_site_label
_atom_site_fract_x
_atom_site_fract_y
_atom_site_fract_z
Si Si1 0.463426 0.991625 0.861774
Si Si2 0.414346 0.692350 0.029405
Si Si3 0.173264 0.323428 0.234746
Si Si4 0.626990 0.546066 0.327248
Si Si5 0.074414 0.137240 0.869099
Si Si6 0.294707 0.373583 0.902589
O O1 0.591357 0.033102 0.829231
O O2 0.405725 0.222768 0.889191
O O3 0.394188 0.881447 0.779170
O O4 0.470942 0.830413 0.947973
O O5 0.348742 0.848578 0.101460
O O6 0.518302 0.564813 0.076847
O O7 0.318974 0.526681 0.990243
O O8 0.228308 0.478865 0.312587
O O9 0.273043 0.228119 0.170507
O O10 0.509800 0.658089 0.356474
O O11 0.619776 0.448246 0.226846
O O12 0.183979 0.225579 0.924638
#
# Coordination Sequence:
#
# PCOD8157718 Si02
#       6
#     4   4   4   4   4   4
#     4  11  23  51  74 110 148 195 251 305 372 441
#     4  11  28  50  72 114 150 197 247 311 373 439
#     4  11  24  46  82 107 147 198 246 306 374 444
#     4  12  25  49  78 110 144 203 248 303 378 444
#     4  12  25  50  77 107 148 195 253 306 372 449
#     4  11  25  50  75 110 149 192 253 313 367 441
#
# _framework density 23.162776000000001
#
# number of rings (size 3 to 8) (size 9 to 14) (size 15 to 20)
#    0.000    0.667    5.000    2.000    0.000    0.000 
#   18.000    0.000    0.000    0.000    0.000    0.000 
#    0.000    0.000    0.000    0.000    0.000    0.000 
#
# Total GULP energy -297821.675180 kJ/mol
# GULP energy per Si atom -12409.236466 kJ/mol
# Density = 2.311006 g / cm^3
# Si number density = 23.162776 Si / 1000 Ang^3
#
#
#
# Elastic Constant Matrix: (Units=GPa)
#
#
# Indices 1 2 3 4 5 6 
#
# 1 82.4402 6.0574 26.5383 0.0000 0.0000 0.0000
# 2 6.0574 75.4093 22.7895 0.0000 0.0000 0.0000
# 3 26.5383 22.7895 91.6742 0.0000 0.0000 0.0000
# 4 0.0000 0.0000 0.0000 31.0959 0.0000 0.0000
# 5 0.0000 0.0000 0.0000 0.0000 13.9134 0.0000
# 6 0.0000 0.0000 0.0000 0.0000 0.0000 40.8312
#
#
#
# Elastic Compliance Matrix: (Units=1/GPa)
#
#
# Indices 1 2 3 4 5 6 
#
# 1 0.013377 0.000104 -0.003898 0.000000 0.000000 0.000000
# 2 0.000104 0.014339 -0.003595 0.000000 0.000000 0.000000
# 3 -0.003898 -0.003595 0.012930 0.000000 0.000000 0.000000
# 4 0.000000 0.000000 0.000000 0.032159 0.000000 0.000000
# 5 0.000000 0.000000 0.000000 0.000000 0.071873 0.000000
# 6 0.000000 0.000000 0.000000 0.000000 0.000000 0.024491
#
#
# Mechanical properties :
#
#
# Convention : Reuss Voigt Hill
#
# Bulk Modulus (GPa) = 38.65782 40.03269 39.34525
# Shear Modulus (GPa) = 25.96456 30.11068 28.03762
#
# Velocity S-wave (km/s) = 3.35171 3.60941 3.48294
# Velocity P-wave (km/s) = 5.63067 5.88992 5.76175
#
# Compressibility (1/GPa) = 0.02586799
#
# Stress axis : x y z
#
# Youngs Moduli (GPa) = 74.75355 69.74013 77.33802
#
# Poissons Ratio (x) = -0.00722 0.30148
# Poissons Ratio (y) = -0.00774 0.27799
# Poissons Ratio (z) = 0.29141 0.25068
#
# Static dielectric constant tensor:
#      x y z
#    x 4.068190 0.000000 0.000000 
#    y 0.000000 4.467900 0.000000 
#    z 0.000000 0.000000 4.242680 
# 
# 
# High freq. dielectric constant tensor:
#      x y z
#    x 1.910970 0.000000 0.000000 
#    y 0.000000 1.935440 0.000000 
#    z 0.000000 0.000000 1.920940 
# 
# From -- ./inp_files/933.got.cif
#   From: 2010.03.12/outbox.cif.g09.slc.cpg/sg19_1_cif.got.tgz:933.got - 2010.04.10 18:59:41.
