data_PCOD8157775
_publ_section_title
;
Structure prediction by ZEFSAII (Michael W. Deem and Ramdas Pophale) SiO2 
 PCOD8157775
Probable space group: P 21 21 21
;
_chemical_formula_sum "Si O2"
_cell_formula_units_Z 28
_cell_length_a 7.738450
_cell_length_b 13.359431
_cell_length_c 12.114972
_cell_angle_alpha 90.000000
_cell_angle_beta 90.000000
_cell_angle_gamma 90.000000
_cell_volume 1252.461419
_symmetry_space_group_name_H-M "P 21 21 21"
_symmetry_group_IT_number 19
_symmetry_cell_setting 'orthorhombic'
loop_
_space_group_symop_operation_xyz
x,y,z
1/2-x,-y,1/2+z
1/2+x,1/2-y,-z
-x,1/2+y,1/2-z
loop_
_atom_site_type_symbol
_atom_site_label
_atom_site_fract_x
_atom_site_fract_y
_atom_site_fract_z
Si Si1 0.458915 0.324597 0.427124
Si Si2 0.041947 0.195770 0.811359
Si Si3 0.930844 0.541911 0.512222
Si Si4 0.208940 0.177586 0.172666
Si Si5 0.428187 0.168598 0.800889
Si Si6 0.431168 0.648250 0.931105
Si Si7 0.119007 0.050964 0.381574
O O1 0.549895 0.352274 0.311268
O O2 0.258814 0.320247 0.394781
O O3 0.514574 0.213528 0.463302
O O4 0.497283 0.405609 0.521775
O O5 0.975174 0.115277 0.901133
O O6 0.244619 0.217944 0.839331
O O7 0.911453 0.290449 0.816626
O O8 0.807071 0.599167 0.426305
O O9 0.811626 0.462285 0.574889
O O10 0.073201 0.471172 0.455236
O O11 0.130073 0.130432 0.283349
O O12 0.084538 0.270642 0.143042
O O13 0.437705 0.171811 0.668261
O O14 0.454187 0.055088 0.841235
#
# Coordination Sequence:
#
# PCOD8157775 Si02
#       7
#     4   4   4   4   4   4   4
#     4  12  24  43  74 103 141 190 243 292 359 425
#     4  11  26  45  70 101 142 191 231 292 361 418
#     4  11  27  45  70 102 145 182 240 302 352 430
#     4  12  25  50  72 102 146 185 239 292 363 426
#     4  11  24  47  69 105 143 182 235 293 359 420
#     4  12  23  44  71 105 143 187 241 298 353 428
#     4  11  25  46  72 102 140 189 231 305 347 429
#
# _framework density 22.355979999999999
#
# number of rings (size 3 to 8) (size 9 to 14) (size 15 to 20)
#    0.000    0.571    4.286    3.429    8.000    0.000 
#    2.571    0.000    0.000    0.000    0.000    0.000 
#    0.000    0.000    0.000    0.000    0.000    0.000 
#
# Total GULP energy -347208.146168 kJ/mol
# GULP energy per Si atom -12400.290935 kJ/mol
# Density = 2.230510 g / cm^3
# Si number density = 22.355980 Si / 1000 Ang^3
#
#
#
# Elastic Constant Matrix: (Units=GPa)
#
#
# Indices 1 2 3 4 5 6 
#
# 1 93.1865 33.2925 9.5966 0.0000 0.0000 0.0000
# 2 33.2925 98.5066 28.5734 0.0000 0.0000 0.0000
# 3 9.5966 28.5734 93.8381 0.0000 0.0000 0.0000
# 4 0.0000 0.0000 0.0000 33.0483 0.0000 0.0000
# 5 0.0000 0.0000 0.0000 0.0000 29.7323 0.0000
# 6 0.0000 0.0000 0.0000 0.0000 0.0000 35.6759
#
#
#
# Elastic Compliance Matrix: (Units=1/GPa)
#
#
# Indices 1 2 3 4 5 6 
#
# 1 0.012205 -0.004127 0.000009 0.000000 0.000000 0.000000
# 2 -0.004127 0.012531 -0.003394 0.000000 0.000000 0.000000
# 3 0.000009 -0.003394 0.011689 0.000000 0.000000 0.000000
# 4 0.000000 0.000000 0.000000 0.030259 0.000000 0.000000
# 5 0.000000 0.000000 0.000000 0.000000 0.033634 0.000000
# 6 0.000000 0.000000 0.000000 0.000000 0.000000 0.028030
#
#
# Mechanical properties :
#
#
# Convention : Reuss Voigt Hill
#
# Bulk Modulus (GPa) = 46.72844 47.60624 47.16734
# Shear Modulus (GPa) = 33.22142 33.96253 33.59197
#
# Velocity S-wave (km/s) = 3.85907 3.90188 3.88054
# Velocity P-wave (km/s) = 6.38780 6.45294 6.42045
#
# Compressibility (1/GPa) = 0.02140024
#
# Stress axis : x y z
#
# Youngs Moduli (GPa) = 81.93450 79.80275 85.54982
#
# Poissons Ratio (x) = 0.32938 -0.00074
# Poissons Ratio (y) = 0.33818 0.29032
# Poissons Ratio (z) = -0.00071 0.27081
#
# Static dielectric constant tensor:
#      x y z
#    x 3.828950 0.000000 0.000000 
#    y 0.000000 4.078280 0.000000 
#    z 0.000000 0.000000 4.158690 
# 
# 
# High freq. dielectric constant tensor:
#      x y z
#    x 1.872390 0.000000 0.000000 
#    y 0.000000 1.879930 0.000000 
#    z 0.000000 0.000000 1.893930 
# 
# From -- ./inp_files/4590.got.cif
#   From: 2010.03.12/outbox.cif.g09.slc.cpg/sg19_3_cif.got.tgz:4590.got - 2010.04.10 18:59:41.
