data_PCOD8157448
_publ_section_title
;
Structure prediction by ZEFSAII (Michael W. Deem and Ramdas Pophale) SiO2 
 PCOD8157448
Probable space group: P 21 21 21
;
_chemical_formula_sum "Si O2"
_cell_formula_units_Z 32
_cell_length_a 20.654243
_cell_length_b 5.073884
_cell_length_c 12.740958
_cell_angle_alpha 90.000000
_cell_angle_beta 90.000000
_cell_angle_gamma 90.000000
_cell_volume 1335.217145
_symmetry_space_group_name_H-M "P 21 21 21"
_symmetry_group_IT_number 19
_symmetry_cell_setting 'orthorhombic'
loop_
_space_group_symop_operation_xyz
x,y,z
1/2-x,-y,1/2+z
1/2+x,1/2-y,-z
-x,1/2+y,1/2-z
loop_
_atom_site_type_symbol
_atom_site_label
_atom_site_fract_x
_atom_site_fract_y
_atom_site_fract_z
Si Si1 0.947281 0.315262 0.522093
Si Si2 0.297598 0.586595 0.652455
Si Si3 0.741241 0.729897 0.661108
Si Si4 0.539037 0.759688 0.780529
Si Si5 0.325949 0.283557 0.052175
Si Si6 0.634596 0.382069 0.687744
Si Si7 0.631622 0.153318 0.055175
Si Si8 0.406196 0.762367 0.030877
O O1 0.943542 0.216888 0.402388
O O2 0.917290 0.607446 0.529268
O O3 0.020463 0.296317 0.565603
O O4 0.909013 0.100595 0.593844
O O5 0.274440 0.344534 0.723858
O O6 0.234354 0.772594 0.630865
O O7 0.361171 0.711449 0.707135
O O8 0.326408 0.522065 0.538890
O O9 0.700773 0.856448 0.564382
O O10 0.711403 0.431921 0.660089
O O11 0.818245 0.739064 0.642571
O O12 0.518014 0.044667 0.737167
O O13 0.600889 0.662648 0.713729
O O14 0.362565 0.546664 0.089170
O O15 0.377891 0.048926 0.059017
O O16 0.595962 0.235596 0.595868
#
# Coordination Sequence:
#
# PCOD8157448 Si02
#       8
#     4   4   4   4   4   4   4   4
#     4  12  24  41  64  90 135 174 209 262 325 386
#     4  11  23  40  66  94 133 167 210 272 322 381
#     4  10  24  40  65  92 132 168 215 269 321 377
#     4  12  25  37  60  96 137 171 205 248 317 402
#     4  10  24  40  63  95 127 166 218 256 320 383
#     4  11  23  37  64  92 132 168 211 254 328 384
#     4  11  26  42  64 100 130 171 217 265 326 388
#     4  11  23  41  62  91 130 171 209 260 315 389
#
# _framework density 23.966138000000001
#
# number of rings (size 3 to 8) (size 9 to 14) (size 15 to 20)
#    0.000    1.000    3.750    2.250    8.750    2.000 
#    0.000    0.000    0.000    3.000    0.000    0.000 
#    0.000    0.000    0.000    0.000    0.000    0.000 
#
# Total GULP energy -396438.075025 kJ/mol
# GULP energy per Si atom -12388.689845 kJ/mol
# Density = 2.391159 g / cm^3
# Si number density = 23.966138 Si / 1000 Ang^3
#
#
#
# Elastic Constant Matrix: (Units=GPa)
#
#
# Indices 1 2 3 4 5 6 
#
# 1 135.4814 21.8044 14.6213 0.0000 0.0000 0.0000
# 2 21.8044 71.8564 -0.3983 0.0000 0.0000 0.0000
# 3 14.6213 -0.3983 23.2692 0.0000 0.0000 0.0000
# 4 0.0000 0.0000 0.0000 17.2246 0.0000 0.0000
# 5 0.0000 0.0000 0.0000 0.0000 31.9636 0.0000
# 6 0.0000 0.0000 0.0000 0.0000 0.0000 51.8238
#
#
#
# Elastic Compliance Matrix: (Units=1/GPa)
#
#
# Indices 1 2 3 4 5 6 
#
# 1 0.008367 -0.002568 -0.005301 0.000000 0.000000 0.000000
# 2 -0.002568 0.014706 0.001865 0.000000 0.000000 0.000000
# 3 -0.005301 0.001865 0.046338 0.000000 0.000000 0.000000
# 4 0.000000 0.000000 0.000000 0.058056 0.000000 0.000000
# 5 0.000000 0.000000 0.000000 0.000000 0.031286 0.000000
# 6 0.000000 0.000000 0.000000 0.000000 0.000000 0.019296
#
#
# Mechanical properties :
#
#
# Convention : Reuss Voigt Hill
#
# Bulk Modulus (GPa) = 17.42060 33.62910 25.52485
# Shear Modulus (GPa) = 23.90159 33.17437 28.53798
#
# Velocity S-wave (km/s) = 3.16144 3.72454 3.45449
# Velocity P-wave (km/s) = 4.53992 5.70602 5.15605
#
# Compressibility (1/GPa) = 0.05740331
#
# Stress axis : x y z
#
# Youngs Moduli (GPa) = 119.52417 67.99820 21.58050
#
# Poissons Ratio (x) = 0.17463 0.11440
# Poissons Ratio (y) = 0.30696 -0.04026
# Poissons Ratio (z) = 0.63361 -0.12685
#
# Static dielectric constant tensor:
#      x y z
#    x 4.767820 0.000000 0.000000 
#    y 0.000000 4.061100 0.000000 
#    z 0.000000 0.000000 4.014790 
# 
# 
# High freq. dielectric constant tensor:
#      x y z
#    x 1.977580 0.000000 0.000000 
#    y 0.000000 1.944160 0.000000 
#    z 0.000000 0.000000 1.908520 
# 
# From -- ./inp_files/1583.got.cif
#   From: 2010.03.12/outbox.cif.g09.slc.cpg/sg19_1_cif.got.tgz:1583.got - 2010.04.10 18:59:41.
