data_PCOD8157366
_publ_section_title
;
Structure prediction by ZEFSAII (Michael W. Deem and Ramdas Pophale) SiO2 
 PCOD8157366
Probable space group: P 21 21 21
;
_chemical_formula_sum "Si O2"
_cell_formula_units_Z 32
_cell_length_a 11.178210
_cell_length_b 8.546215
_cell_length_c 15.920656
_cell_angle_alpha 90.000000
_cell_angle_beta 90.000000
_cell_angle_gamma 90.000000
_cell_volume 1520.922333
_symmetry_space_group_name_H-M "P 21 21 21"
_symmetry_group_IT_number 19
_symmetry_cell_setting 'orthorhombic'
loop_
_space_group_symop_operation_xyz
x,y,z
1/2-x,-y,1/2+z
1/2+x,1/2-y,-z
-x,1/2+y,1/2-z
loop_
_atom_site_type_symbol
_atom_site_label
_atom_site_fract_x
_atom_site_fract_y
_atom_site_fract_z
Si Si1 0.176211 0.062808 0.388290
Si Si2 0.507179 0.094034 0.772437
Si Si3 0.933955 0.094697 0.005791
Si Si4 0.849061 0.416867 0.943213
Si Si5 0.449901 0.568682 0.320227
Si Si6 0.070745 0.066858 0.840082
Si Si7 0.887572 0.597439 0.350715
Si Si8 0.199393 0.422661 0.352574
O O1 0.050552 0.985341 0.355407
O O2 0.183517 0.051054 0.489468
O O3 0.292089 0.977947 0.352142
O O4 0.180064 0.238510 0.357020
O O5 0.552601 0.268588 0.791888
O O6 0.621143 0.009009 0.726107
O O7 0.407088 0.069114 0.697973
O O8 0.866417 0.257968 0.994978
O O9 0.980508 0.027481 0.917137
O O10 0.054810 0.109999 0.058319
O O11 0.840025 0.987927 0.056354
O O12 0.752902 0.386008 0.868970
O O13 0.969328 0.474608 0.899697
O O14 0.422474 0.751017 0.319911
O O15 0.516591 0.531153 0.234973
O O16 0.334198 0.462853 0.331679
#
# Coordination Sequence:
#
# PCOD8157366 Si02
#       8
#     4   4   4   4   4   4   4   4
#     4  12  23  42  70  99 137 180 227 291 346 416
#     4  11  24  41  69  99 133 175 229 283 343 410
#     4  10  23  42  70  95 134 176 224 281 341 412
#     4  11  24  44  69  97 136 184 226 285 348 417
#     4  11  26  44  67 100 135 182 231 282 349 411
#     4  11  24  44  70  96 137 181 228 281 348 409
#     4  11  22  44  68 102 134 176 232 282 343 412
#     4  11  26  43  65 102 138 174 235 289 344 417
#
# _framework density 21.039864000000001
#
# number of rings (size 3 to 8) (size 9 to 14) (size 15 to 20)
#    0.000    1.000    3.750    2.250    7.000    2.000 
#    0.000    1.250    0.000    0.000    0.000    0.000 
#    0.000    0.000    0.000    0.000    0.000    0.000 
#
# Total GULP energy -396538.447632 kJ/mol
# GULP energy per Si atom -12391.826489 kJ/mol
# Density = 2.099198 g / cm^3
# Si number density = 21.039864 Si / 1000 Ang^3
#
#
#
# Elastic Constant Matrix: (Units=GPa)
#
#
# Indices 1 2 3 4 5 6 
#
# 1 96.3395 28.0104 41.2857 0.0000 0.0000 0.0000
# 2 28.0104 44.7238 48.6133 0.0000 0.0000 0.0000
# 3 41.2857 48.6133 121.4956 0.0000 0.0000 0.0000
# 4 0.0000 0.0000 0.0000 39.6936 0.0000 0.0000
# 5 0.0000 0.0000 0.0000 0.0000 33.9969 0.0000
# 6 0.0000 0.0000 0.0000 0.0000 0.0000 42.6674
#
#
#
# Elastic Compliance Matrix: (Units=1/GPa)
#
#
# Indices 1 2 3 4 5 6 
#
# 1 0.012973 -0.005898 -0.002048 0.000000 0.000000 0.000000
# 2 -0.005898 0.042251 -0.014901 0.000000 0.000000 0.000000
# 3 -0.002048 -0.014901 0.014889 0.000000 0.000000 0.000000
# 4 0.000000 0.000000 0.000000 0.025193 0.000000 0.000000
# 5 0.000000 0.000000 0.000000 0.000000 0.029414 0.000000
# 6 0.000000 0.000000 0.000000 0.000000 0.000000 0.023437
#
#
# Mechanical properties :
#
#
# Convention : Reuss Voigt Hill
#
# Bulk Modulus (GPa) = 40.95524 55.37532 48.16528
# Shear Modulus (GPa) = 24.75349 32.91486 28.83417
#
# Velocity S-wave (km/s) = 3.43374 3.95955 3.70598
# Velocity P-wave (km/s) = 5.93537 6.87607 6.42297
#
# Compressibility (1/GPa) = 0.02441690
#
# Stress axis : x y z
#
# Youngs Moduli (GPa) = 77.08526 23.66816 67.16337
#
# Poissons Ratio (x) = 0.13961 0.13756
# Poissons Ratio (y) = 0.45469 1.00082
# Poissons Ratio (z) = 0.15788 0.35268
#
# Static dielectric constant tensor:
#      x y z
#    x 3.708910 0.000000 0.000000 
#    y 0.000000 3.723500 0.000000 
#    z 0.000000 0.000000 1.187440 
# 
# 
# High freq. dielectric constant tensor:
#      x y z
#    x 1.835320 0.000000 0.000000 
#    y 0.000000 1.808740 0.000000 
#    z 0.000000 0.000000 1.842950 
# 
# From -- ./inp_files/6106.got.cif
#   From: 2010.03.12/outbox.cif.g09.slc.cpg/sg19_4_cif.got.tgz:6106.got - 2010.04.10 18:59:41.
