data_PCOD8157734
_publ_section_title
;
Structure prediction by ZEFSAII (Michael W. Deem and Ramdas Pophale) SiO2 
 PCOD8157734
Probable space group: P 21 21 21
;
_chemical_formula_sum "Si O2"
_cell_formula_units_Z 32
_cell_length_a 17.348886
_cell_length_b 9.390555
_cell_length_c 9.390544
_cell_angle_alpha 90.000000
_cell_angle_beta 90.000000
_cell_angle_gamma 90.000000
_cell_volume 1529.866750
_symmetry_space_group_name_H-M "P 21 21 21"
_symmetry_group_IT_number 19
_symmetry_cell_setting 'orthorhombic'
loop_
_space_group_symop_operation_xyz
x,y,z
1/2-x,-y,1/2+z
1/2+x,1/2-y,-z
-x,1/2+y,1/2-z
loop_
_atom_site_type_symbol
_atom_site_label
_atom_site_fract_x
_atom_site_fract_y
_atom_site_fract_z
Si Si1 0.204367 0.880719 0.545343
Si Si2 0.045632 0.795345 0.630718
Si Si3 0.952618 0.769470 0.357548
Si Si4 0.298252 0.097752 0.721100
Si Si5 0.462819 0.052781 0.638568
Si Si6 0.787181 0.888570 0.802779
Si Si7 0.451748 0.528898 0.152249
Si Si8 0.297382 0.607551 0.519473
O O1 0.125000 0.884159 0.634158
O O2 0.196203 0.945843 0.387021
O O3 0.226340 0.715564 0.531659
O O4 0.268770 0.962945 0.633328
O O5 0.053796 0.637024 0.695844
O O6 0.023660 0.781659 0.465562
O O7 0.981229 0.883330 0.712942
O O8 0.948078 0.606885 0.303469
O O9 0.875000 0.813753 0.436243
O O10 0.968448 0.872422 0.224834
O O11 0.382774 0.139023 0.660149
O O12 0.237320 0.224209 0.697533
O O13 0.487320 0.052467 0.474207
O O14 0.867226 0.910153 0.889021
O O15 0.801923 0.946530 0.643111
O O16 0.718448 0.974837 0.877573
#
# Coordination Sequence:
#
# PCOD8157734 Si02
#       8
#     4   4   4   4   4   4   4   4
#     4  11  24  44  66  92 134 174 216 270 331 387
#     4  11  24  44  66  92 134 174 216 270 331 387
#     4  11  24  44  66  92 134 174 216 270 331 387
#     4  11  26  43  67  99 132 174 222 270 326 391
#     4  11  26  43  67  99 132 174 222 270 326 391
#     4  11  26  43  67  99 132 174 222 270 326 391
#     4  11  26  43  67  99 132 174 222 270 326 391
#     4  11  24  44  66  92 134 174 216 270 331 387
#
# _framework density 20.916851999999999
#
# number of rings (size 3 to 8) (size 9 to 14) (size 15 to 20)
#    0.000    1.000    5.000    0.000    7.000    4.000 
#    0.000    0.000    0.000    0.000    0.000    0.000 
#    0.000    0.000    0.000    0.000    0.000    0.000 
#
# Total GULP energy -396991.382350 kJ/mol
# GULP energy per Si atom -12405.980698 kJ/mol
# Density = 2.086924 g / cm^3
# Si number density = 20.916852 Si / 1000 Ang^3
#
#
#
# Elastic Constant Matrix: (Units=GPa)
#
#
# Indices 1 2 3 4 5 6 
#
# 1 97.2149 24.9637 24.9636 0.0000 0.0000 0.0000
# 2 24.9637 79.7638 45.0209 0.0000 0.0000 0.0000
# 3 24.9636 45.0209 79.7609 0.0000 0.0000 0.0000
# 4 0.0000 0.0000 0.0000 31.6236 0.0000 0.0000
# 5 0.0000 0.0000 0.0000 0.0000 36.8518 0.0000
# 6 0.0000 0.0000 0.0000 0.0000 0.0000 36.8518
#
#
#
# Elastic Compliance Matrix: (Units=1/GPa)
#
#
# Indices 1 2 3 4 5 6 
#
# 1 0.011464 -0.002293 -0.002294 0.000000 0.000000 0.000000
# 2 -0.002293 0.018857 -0.009926 0.000000 0.000000 0.000000
# 3 -0.002294 -0.009926 0.018858 0.000000 0.000000 0.000000
# 4 0.000000 0.000000 0.000000 0.031622 0.000000 0.000000
# 5 0.000000 0.000000 0.000000 0.000000 0.027136 0.000000
# 6 0.000000 0.000000 0.000000 0.000000 0.000000 0.027136
#
#
# Mechanical properties :
#
#
# Convention : Reuss Voigt Hill
#
# Bulk Modulus (GPa) = 49.61936 49.62624 49.62280
# Shear Modulus (GPa) = 29.27098 31.85155 30.56127
#
# Velocity S-wave (km/s) = 3.74491 3.90650 3.82656
# Velocity P-wave (km/s) = 6.51712 6.64264 6.58018
#
# Compressibility (1/GPa) = 0.02015342
#
# Stress axis : x y z
#
# Youngs Moduli (GPa) = 87.22666 53.02948 53.02746
#
# Poissons Ratio (x) = 0.12162 0.12162
# Poissons Ratio (y) = 0.20005 0.52636
# Poissons Ratio (z) = 0.20006 0.52638
#
# Static dielectric constant tensor:
#      x y z
#    x 3.736150 0.000000 0.000000 
#    y 0.000000 3.662620 0.000000 
#    z 0.000000 0.000000 3.662610 
# 
# 
# High freq. dielectric constant tensor:
#      x y z
#    x 1.834920 0.000000 0.000000 
#    y 0.000000 1.814770 0.000000 
#    z 0.000000 0.000000 1.814770 
# 
# From -- ./inp_files/4193.got.cif
#   From: 2010.03.12/outbox.cif.g09.slc.cpg/sg19_3_cif.got.tgz:4193.got - 2010.04.10 18:59:41.
