data_PCOD8157951
_publ_section_title
;
Structure prediction by ZEFSAII (Michael W. Deem and Ramdas Pophale) SiO2 
 PCOD8157951
Probable space group: C 2 2 21
;
_chemical_formula_sum "Si O2"
_cell_formula_units_Z 36
_cell_length_a 8.900853
_cell_length_b 16.521014
_cell_length_c 13.020331
_cell_angle_alpha 90.000000
_cell_angle_beta 90.000000
_cell_angle_gamma 90.000000
_cell_volume 1914.654218
_symmetry_space_group_name_H-M "C 2 2 21"
_symmetry_group_IT_number 20
_symmetry_cell_setting 'orthorhombic'
loop_
_space_group_symop_operation_xyz
x,y,z
-x,-y,1/2+z
x,-y,-z
-x,y,1/2-z
1/2+x,1/2+y,z
1/2-x,1/2-y,1/2+z
1/2+x,1/2-y,-z
1/2-x,1/2+y,1/2-z
loop_
_atom_site_type_symbol
_atom_site_label
_atom_site_fract_x
_atom_site_fract_y
_atom_site_fract_z
Si Si1 0.167858 0.887370 0.288877
Si Si2 0.750018 0.161874 0.574426
Si Si3 0.435463 0.549628 0.147637
Si Si4 0.183194 0.000000 0.000000
Si Si5 0.089873 0.812480 0.488387
O O1 0.274204 0.856756 0.196045
O O2 0.192323 0.829639 0.388073
O O3 0.000000 0.877703 0.250000
O O4 0.191205 0.981944 0.323230
O O5 0.629744 0.227636 0.539892
O O6 0.916201 0.191314 0.543483
O O7 0.714261 0.079772 0.510319
O O8 0.500000 0.592996 0.250000
O O9 0.575252 0.499598 0.099528
O O10 0.373500 0.616449 0.070006
#
# Coordination Sequence:
#
# PCOD8157951 Si02
#       5
#     8   8   8   4   8
#     4   9  15  32  52  74 105 138 174 214 260 310
#     4  10  20  33  54  80 107 137 175 219 265 306
#     4  10  15  29  55  79  96 133 188 213 244 303
#     4  10  16  30  52  72 100 138 176 208 244 312
#     4  10  20  32  53  83 104 136 175 224 257 309
#
# _framework density 18.802350000000001
#
# number of rings (size 3 to 8) (size 9 to 14) (size 15 to 20)
#    0.000    2.222    8.889    0.000    0.000    3.556 
#    0.000    0.000    4.889    0.000    0.000    0.000 
#    0.000    0.000    0.000    0.000    0.000    0.000 
#
# Total GULP energy -223043.565585 kJ/mol
# GULP energy per Si atom -12391.309199 kJ/mol
# Density = 1.875955 g / cm^3
# Si number density = 18.802350 Si / 1000 Ang^3
#
#
#
# Elastic Constant Matrix: (Units=GPa)
#
#
# Indices 1 2 3 4 5 6 
#
# 1 16.2928 24.0486 16.0629 0.0000 0.0000 0.0000
# 2 24.0486 136.8612 52.7431 0.0000 0.0000 0.0000
# 3 16.0629 52.7431 132.0232 0.0000 0.0000 0.0000
# 4 0.0000 0.0000 0.0000 35.8913 0.0000 0.0000
# 5 0.0000 0.0000 0.0000 0.0000 15.8383 0.0000
# 6 0.0000 0.0000 0.0000 0.0000 0.0000 27.3359
#
#
#
# Elastic Compliance Matrix: (Units=1/GPa)
#
#
# Indices 1 2 3 4 5 6 
#
# 1 0.085810 -0.013066 -0.005220 0.000000 0.000000 0.000000
# 2 -0.013066 0.010626 -0.002655 0.000000 0.000000 0.000000
# 3 -0.005220 -0.002655 0.009270 0.000000 0.000000 0.000000
# 4 0.000000 0.000000 0.000000 0.027862 0.000000 0.000000
# 5 0.000000 0.000000 0.000000 0.000000 0.063138 0.000000
# 6 0.000000 0.000000 0.000000 0.000000 0.000000 0.036582
#
#
# Mechanical properties :
#
#
# Convention : Reuss Voigt Hill
#
# Bulk Modulus (GPa) = 15.66852 52.32073 33.99462
# Shear Modulus (GPa) = 16.86649 28.63461 22.75055
#
# Velocity S-wave (km/s) = 2.99831 3.90670 3.48226
# Velocity P-wave (km/s) = 4.50976 6.94528 5.85554
#
# Compressibility (1/GPa) = 0.06382223
#
# Stress axis : x y z
#
# Youngs Moduli (GPa) = 11.65369 94.10963 107.87081
#
# Poissons Ratio (x) = 1.22967 0.56312
# Poissons Ratio (y) = 0.15227 0.28643
# Poissons Ratio (z) = 0.06084 0.24989
#
# Static dielectric constant tensor:
#      x y z
#    x 2.689720 0.000000 0.000000 
#    y 0.000000 3.462360 0.000000 
#    z 0.000000 0.000000 4.052410 
# 
# 
# High freq. dielectric constant tensor:
#      x y z
#    x 1.644610 0.000000 0.000000 
#    y 0.000000 1.733110 0.000000 
#    z 0.000000 0.000000 1.761260 
# 
# From -- ./inp_files/13988.got.cif
#   From: 2010.03.12/outbox.cif.g09.slc.cpg/sg20_7_cif.got.tgz:13988.got - 2010.04.14 01:38:04.
