data_PCOD8157043
_publ_section_title
;
Structure prediction by ZEFSAII (Michael W. Deem and Ramdas Pophale) SiO2 
 PCOD8157043
Probable space group: P 21 21 21
;
_chemical_formula_sum "Si O2"
_cell_formula_units_Z 32
_cell_length_a 9.403732
_cell_length_b 7.574233
_cell_length_c 21.310589
_cell_angle_alpha 90.000000
_cell_angle_beta 90.000000
_cell_angle_gamma 90.000000
_cell_volume 1517.869232
_symmetry_space_group_name_H-M "P 21 21 21"
_symmetry_group_IT_number 19
_symmetry_cell_setting 'orthorhombic'
loop_
_space_group_symop_operation_xyz
x,y,z
1/2-x,-y,1/2+z
1/2+x,1/2-y,-z
-x,1/2+y,1/2-z
loop_
_atom_site_type_symbol
_atom_site_label
_atom_site_fract_x
_atom_site_fract_y
_atom_site_fract_z
Si Si1 0.615740 0.299576 0.550516
Si Si2 0.836131 0.384452 0.458273
Si Si3 0.575809 0.441541 0.838408
Si Si4 0.912795 0.759885 0.677974
Si Si5 0.322807 0.102201 0.255898
Si Si6 0.713249 0.091533 0.662290
Si Si7 0.571390 0.680303 0.567734
Si Si8 0.120079 0.219559 0.960987
O O1 0.685675 0.310199 0.481442
O O2 0.450231 0.269831 0.540465
O O3 0.694259 0.143911 0.589015
O O4 0.625174 0.485579 0.588500
O O5 0.821902 0.458629 0.387926
O O6 0.892068 0.529219 0.507122
O O7 0.674304 0.389972 0.781002
O O8 0.448818 0.566960 0.812264
O O9 0.504845 0.273498 0.873634
O O10 0.852215 0.589647 0.714674
O O11 0.956226 0.708599 0.606988
O O12 0.048462 0.841714 0.711577
O O13 0.790924 0.906969 0.673641
O O14 0.304519 0.251946 0.307886
O O15 0.468142 0.652772 0.507510
O O16 0.715523 0.784464 0.546791
#
# Coordination Sequence:
#
# PCOD8157043 Si02
#       8
#     4   4   4   4   4   4   4   4
#     4  10  22  39  64  96 137 172 217 279 336 412
#     4   9  21  40  60 101 127 171 218 263 341 408
#     4  10  24  44  67  98 136 173 234 282 341 413
#     4  12  26  48  67  99 138 184 227 293 338 415
#     4  12  27  47  70 100 134 183 242 280 351 404
#     4  11  25  45  69  95 134 181 225 286 341 402
#     4  10  21  40  66 104 132 176 225 275 350 413
#     4  10  22  39  67  91 138 174 216 276 342 403
#
# _framework density 21.082182
#
# number of rings (size 3 to 8) (size 9 to 14) (size 15 to 20)
#    0.000    1.500    2.500    1.500    8.750    0.000 
#    4.500    0.000    0.000    0.000    0.000    0.000 
#    0.000    0.000    0.000    0.000    0.000    0.000 
#
# Total GULP energy -396620.702014 kJ/mol
# GULP energy per Si atom -12394.396938 kJ/mol
# Density = 2.103420 g / cm^3
# Si number density = 21.082182 Si / 1000 Ang^3
#
#
#
# Elastic Constant Matrix: (Units=GPa)
#
#
# Indices 1 2 3 4 5 6 
#
# 1 61.2710 23.3034 17.5333 0.0000 0.0000 0.0000
# 2 23.3034 92.5749 29.2605 0.0000 0.0000 0.0000
# 3 17.5333 29.2605 56.6957 0.0000 0.0000 0.0000
# 4 0.0000 0.0000 0.0000 26.5738 0.0000 0.0000
# 5 0.0000 0.0000 0.0000 0.0000 46.5401 0.0000
# 6 0.0000 0.0000 0.0000 0.0000 0.0000 35.2725
#
#
#
# Elastic Compliance Matrix: (Units=1/GPa)
#
#
# Indices 1 2 3 4 5 6 
#
# 1 0.018788 -0.003457 -0.004026 0.000000 0.000000 0.000000
# 2 -0.003457 0.013544 -0.005921 0.000000 0.000000 0.000000
# 3 -0.004026 -0.005921 0.021939 0.000000 0.000000 0.000000
# 4 0.000000 0.000000 0.000000 0.037631 0.000000 0.000000
# 5 0.000000 0.000000 0.000000 0.000000 0.021487 0.000000
# 6 0.000000 0.000000 0.000000 0.000000 0.000000 0.028351
#
#
# Mechanical properties :
#
#
# Convention : Reuss Voigt Hill
#
# Bulk Modulus (GPa) = 36.41294 38.97068 37.69181
# Shear Modulus (GPa) = 28.13722 31.04025 29.58873
#
# Velocity S-wave (km/s) = 3.65724 3.84128 3.75039
# Velocity P-wave (km/s) = 5.92818 6.18055 6.05568
#
# Compressibility (1/GPa) = 0.02746277
#
# Stress axis : x y z
#
# Youngs Moduli (GPa) = 53.22610 73.83534 45.58126
#
# Poissons Ratio (x) = 0.25523 0.18352
# Poissons Ratio (y) = 0.18399 0.26988
# Poissons Ratio (z) = 0.21430 0.43717
#
# Static dielectric constant tensor:
#      x y z
#    x 3.930900 0.000000 0.000000 
#    y 0.000000 3.908750 0.000000 
#    z 0.000000 0.000000 3.853510 
# 
# 
# High freq. dielectric constant tensor:
#      x y z
#    x 1.830910 0.000000 0.000000 
#    y 0.000000 1.831930 0.000000 
#    z 0.000000 0.000000 1.817220 
# 
# From -- ./inp_files/7091.got.cif
#   From: 2010.03.12/outbox.cif.g09.slc.cpg/sg19_4_cif.got.tgz:7091.got - 2010.04.10 18:59:41.
