data_PCOD8157699
_publ_section_title
;
Structure prediction by ZEFSAII (Michael W. Deem and Ramdas Pophale) SiO2 
 PCOD8157699
Probable space group: P 21 21 21
;
_chemical_formula_sum "Si O2"
_cell_formula_units_Z 24
_cell_length_a 16.465824
_cell_length_b 5.110708
_cell_length_c 10.701357
_cell_angle_alpha 90.000000
_cell_angle_beta 90.000000
_cell_angle_gamma 90.000000
_cell_volume 900.540792
_symmetry_space_group_name_H-M "P 21 21 21"
_symmetry_group_IT_number 19
_symmetry_cell_setting 'orthorhombic'
loop_
_space_group_symop_operation_xyz
x,y,z
1/2-x,-y,1/2+z
1/2+x,1/2-y,-z
-x,1/2+y,1/2-z
loop_
_atom_site_type_symbol
_atom_site_label
_atom_site_fract_x
_atom_site_fract_y
_atom_site_fract_z
Si Si1 0.352228 0.010713 0.420997
Si Si2 0.967350 0.309119 0.203583
Si Si3 0.717085 0.820349 0.663511
Si Si4 0.079612 0.960663 0.659963
Si Si5 0.930376 0.988836 0.512156
Si Si6 0.178381 0.457460 0.595984
O O1 0.261492 0.956624 0.369388
O O2 0.414826 0.023356 0.307632
O O3 0.374724 0.763614 0.506004
O O4 0.365738 0.273532 0.500829
O O5 0.872364 0.256548 0.205166
O O6 0.988474 0.524718 0.310935
O O7 0.999567 0.495872 0.091732
O O8 0.721344 0.006916 0.540268
O O9 0.761929 0.963751 0.781329
O O10 0.132022 0.183478 0.591000
O O11 0.982345 0.991339 0.640013
O O12 0.112736 0.687896 0.606319
#
# Coordination Sequence:
#
# PCOD8157699 Si02
#       6
#     4   4   4   4   4   4
#     4  11  25  44  78 113 149 202 266 340 402 482
#     4  12  30  52  79 114 167 225 272 338 415 512
#     4  11  28  55  80 120 169 215 280 342 418 494
#     4  11  23  46  75 110 153 202 263 336 413 473
#     4  12  24  48  75 111 153 204 270 332 408 488
#     4  11  26  47  81 114 159 218 265 342 410 485
#
# _framework density 26.650653999999999
#
# number of rings (size 3 to 8) (size 9 to 14) (size 15 to 20)
#    0.000    0.667    1.667    5.000    4.667    8.000 
#    6.000    0.000    0.000    0.000    0.000    0.000 
#    0.000    0.000    0.000    0.000    0.000    0.000 
#
# Total GULP energy -297398.116480 kJ/mol
# GULP energy per Si atom -12391.588187 kJ/mol
# Density = 2.659000 g / cm^3
# Si number density = 26.650654 Si / 1000 Ang^3
#
#
#
# Elastic Constant Matrix: (Units=GPa)
#
#
# Indices 1 2 3 4 5 6 
#
# 1 150.0862 67.6183 17.2833 0.0000 0.0000 0.0000
# 2 67.6183 176.1167 32.0062 0.0000 0.0000 0.0000
# 3 17.2833 32.0062 82.9464 0.0000 0.0000 0.0000
# 4 0.0000 0.0000 0.0000 36.1945 0.0000 0.0000
# 5 0.0000 0.0000 0.0000 0.0000 40.5104 0.0000
# 6 0.0000 0.0000 0.0000 0.0000 0.0000 45.3837
#
#
#
# Elastic Compliance Matrix: (Units=1/GPa)
#
#
# Indices 1 2 3 4 5 6 
#
# 1 0.008077 -0.003006 -0.000523 0.000000 0.000000 0.000000
# 2 -0.003006 0.007225 -0.002162 0.000000 0.000000 0.000000
# 3 -0.000523 -0.002162 0.012999 0.000000 0.000000 0.000000
# 4 0.000000 0.000000 0.000000 0.027629 0.000000 0.000000
# 5 0.000000 0.000000 0.000000 0.000000 0.024685 0.000000
# 6 0.000000 0.000000 0.000000 0.000000 0.000000 0.022034
#
#
# Mechanical properties :
#
#
# Convention : Reuss Voigt Hill
#
# Bulk Modulus (GPa) = 59.10182 71.44053 65.27118
# Shear Modulus (GPa) = 41.78121 43.90049 42.84085
#
# Velocity S-wave (km/s) = 3.96376 4.06304 4.01371
# Velocity P-wave (km/s) = 6.57063 6.99111 6.78413
#
# Compressibility (1/GPa) = 0.01691995
#
# Stress axis : x y z
#
# Youngs Moduli (GPa) = 123.80136 138.40689 76.92885
#
# Poissons Ratio (x) = 0.41608 0.04024
# Poissons Ratio (y) = 0.37217 0.16628
# Poissons Ratio (z) = 0.06476 0.29917
#
# Static dielectric constant tensor:
#      x y z
#    x 4.682480 0.000000 0.000000 
#    y 0.000000 5.288700 0.000000 
#    z 0.000000 0.000000 5.059450 
# 
# 
# High freq. dielectric constant tensor:
#      x y z
#    x 2.074470 0.000000 0.000000 
#    y 0.000000 2.082400 0.000000 
#    z 0.000000 0.000000 2.069310 
# 
# From -- ./inp_files/5157.got.cif
#   From: 2010.03.12/outbox.cif.g09.slc.cpg/sg19_3_cif.got.tgz:5157.got - 2010.04.10 18:59:41.
