data_PCOD8157847
_publ_section_title
;
Structure prediction by ZEFSAII (Michael W. Deem and Ramdas Pophale) SiO2 
 PCOD8157847
Probable space group: P 21 21 21
;
_chemical_formula_sum "Si O2"
_cell_formula_units_Z 20
_cell_length_a 9.244606
_cell_length_b 5.308323
_cell_length_c 13.881743
_cell_angle_alpha 90.000000
_cell_angle_beta 90.000000
_cell_angle_gamma 90.000000
_cell_volume 681.223697
_symmetry_space_group_name_H-M "P 21 21 21"
_symmetry_group_IT_number 19
_symmetry_cell_setting 'orthorhombic'
loop_
_space_group_symop_operation_xyz
x,y,z
1/2-x,-y,1/2+z
1/2+x,1/2-y,-z
-x,1/2+y,1/2-z
loop_
_atom_site_type_symbol
_atom_site_label
_atom_site_fract_x
_atom_site_fract_y
_atom_site_fract_z
Si Si1 0.443633 0.306829 0.988550
Si Si2 0.562926 0.066055 0.703586
Si Si3 0.105566 0.917415 0.851771
Si Si4 0.305082 0.700420 0.216308
Si Si5 0.170336 0.570068 0.022584
O O1 0.476026 0.522714 0.908324
O O2 0.506567 0.032847 0.956317
O O3 0.523789 0.368512 0.087102
O O4 0.271042 0.316915 0.008390
O O5 0.510710 0.819674 0.763261
O O6 0.736908 0.050700 0.730348
O O7 0.979095 0.790946 0.788012
O O8 0.227639 0.054760 0.784769
O O9 0.184313 0.728552 0.924961
O O10 0.234117 0.734739 0.110790
#
# Coordination Sequence:
#
# PCOD8157847 Si02
#       5
#     4   4   4   4   4
#     4  11  26  48  81 116 161 219 277 353 425 510
#     4  12  27  47  80 121 168 222 282 356 429 514
#     4  11  28  50  82 119 162 221 281 359 432 523
#     4  11  27  51  79 119 163 218 284 355 432 514
#     4  11  26  54  82 119 166 216 286 353 430 521
#
# _framework density 29.358931999999999
#
# number of rings (size 3 to 8) (size 9 to 14) (size 15 to 20)
#    0.000    0.800    2.000    2.400    8.400    6.400 
#    3.600    0.000    0.000    0.000    0.000    0.000 
#    0.000    0.000    0.000    0.000    0.000    0.000 
#
# Total GULP energy -247911.605206 kJ/mol
# GULP energy per Si atom -12395.580260 kJ/mol
# Density = 2.929211 g / cm^3
# Si number density = 29.358932 Si / 1000 Ang^3
#
#
#
# Elastic Constant Matrix: (Units=GPa)
#
#
# Indices 1 2 3 4 5 6 
#
# 1 104.2659 20.9893 27.7405 0.0000 0.0000 0.0000
# 2 20.9893 62.2660 22.8421 0.0000 0.0000 0.0000
# 3 27.7405 22.8421 163.1447 0.0000 0.0000 0.0000
# 4 0.0000 0.0000 0.0000 46.4120 0.0000 0.0000
# 5 0.0000 0.0000 0.0000 0.0000 44.2124 0.0000
# 6 0.0000 0.0000 0.0000 0.0000 0.0000 33.1811
#
#
#
# Elastic Compliance Matrix: (Units=1/GPa)
#
#
# Indices 1 2 3 4 5 6 
#
# 1 0.010571 -0.003061 -0.001369 0.000000 0.000000 0.000000
# 2 -0.003061 0.017816 -0.001974 0.000000 0.000000 0.000000
# 3 -0.001369 -0.001974 0.006639 0.000000 0.000000 0.000000
# 4 0.000000 0.000000 0.000000 0.021546 0.000000 0.000000
# 5 0.000000 0.000000 0.000000 0.000000 0.022618 0.000000
# 6 0.000000 0.000000 0.000000 0.000000 0.000000 0.030138
#
#
# Mechanical properties :
#
#
# Convention : Reuss Voigt Hill
#
# Bulk Modulus (GPa) = 45.00876 52.53560 48.77218
# Shear Modulus (GPa) = 38.59742 41.96808 40.28275
#
# Velocity S-wave (km/s) = 3.62978 3.78495 3.70818
# Velocity P-wave (km/s) = 5.73854 6.08558 5.91460
#
# Compressibility (1/GPa) = 0.02221790
#
# Stress axis : x y z
#
# Youngs Moduli (GPa) = 94.59553 56.12870 150.63273
#
# Poissons Ratio (x) = 0.17183 0.20620
# Poissons Ratio (y) = 0.28959 0.29734
# Poissons Ratio (z) = 0.12949 0.11079
#
# Static dielectric constant tensor:
#      x y z
#    x 5.850650 0.000000 0.000000 
#    y 0.000000 4.905620 0.000000 
#    z 0.000000 0.000000 5.676410 
# 
# 
# High freq. dielectric constant tensor:
#      x y z
#    x 2.210690 0.000000 0.000000 
#    y 0.000000 2.174320 0.000000 
#    z 0.000000 0.000000 2.221150 
# 
# From -- ./inp_files/6037.got.cif
#   From: 2010.03.12/outbox.cif.g09.slc.cpg/sg19_4_cif.got.tgz:6037.got - 2010.04.10 18:59:41.
