data_PCOD8157510
_publ_section_title
;
Structure prediction by ZEFSAII (Michael W. Deem and Ramdas Pophale) SiO2 
 PCOD8157510
Probable space group: P 21 21 21
;
_chemical_formula_sum "Si O2"
_cell_formula_units_Z 24
_cell_length_a 9.192700
_cell_length_b 23.421415
_cell_length_c 5.058373
_cell_angle_alpha 90.000000
_cell_angle_beta 90.000000
_cell_angle_gamma 90.000000
_cell_volume 1089.098268
_symmetry_space_group_name_H-M "P 21 21 21"
_symmetry_group_IT_number 19
_symmetry_cell_setting 'orthorhombic'
loop_
_space_group_symop_operation_xyz
x,y,z
1/2-x,-y,1/2+z
1/2+x,1/2-y,-z
-x,1/2+y,1/2-z
loop_
_atom_site_type_symbol
_atom_site_label
_atom_site_fract_x
_atom_site_fract_y
_atom_site_fract_z
Si Si1 0.031846 0.895609 0.417392
Si Si2 0.184493 0.151602 0.065153
Si Si3 0.123921 0.211445 0.563116
Si Si4 0.581385 0.875424 0.869641
Si Si5 0.094842 0.341642 0.603098
Si Si6 0.650912 0.995307 0.044811
O O1 0.975698 0.880924 0.124850
O O2 0.207830 0.897288 0.449398
O O3 0.968071 0.955516 0.509891
O O4 0.993489 0.845254 0.624656
O O5 0.230862 0.181951 0.343685
O O6 0.022741 0.124038 0.107102
O O7 0.188076 0.203370 0.854155
O O8 0.100170 0.277384 0.497178
O O9 0.970205 0.177126 0.555397
O O10 0.749177 0.865825 0.804899
O O11 0.564430 0.936011 0.015911
O O12 0.718362 0.998766 0.335950
#
# Coordination Sequence:
#
# PCOD8157510 Si02
#       6
#     4   4   4   4   4   4
#     4  12  25  45  67 104 134 185 230 297 335 423
#     4  10  25  43  66  99 141 174 233 273 359 403
#     4  10  25  42  67 101 140 181 222 285 345 428
#     4  10  26  44  71  98 138 183 230 283 351 412
#     4  12  25  42  74  98 143 179 234 278 361 405
#     4  12  24  46  69 100 134 180 239 290 343 417
#
# _framework density 22.036577999999999
#
# number of rings (size 3 to 8) (size 9 to 14) (size 15 to 20)
#    1.000    0.000    3.333    2.000    9.333    0.000 
#    3.000    0.000    0.000    0.000    0.000    0.000 
#    0.000    0.000    0.000    0.000    0.000    0.000 
#
# Total GULP energy -297425.898619 kJ/mol
# GULP energy per Si atom -12392.745776 kJ/mol
# Density = 2.198642 g / cm^3
# Si number density = 22.036578 Si / 1000 Ang^3
#
#
#
# Elastic Constant Matrix: (Units=GPa)
#
#
# Indices 1 2 3 4 5 6 
#
# 1 102.5897 20.4054 29.7979 0.0000 0.0000 0.0000
# 2 20.4054 93.3276 -6.3229 0.0000 0.0000 0.0000
# 3 29.7979 -6.3229 99.3278 0.0000 0.0000 0.0000
# 4 0.0000 0.0000 0.0000 27.5768 0.0000 0.0000
# 5 0.0000 0.0000 0.0000 0.0000 27.3341 0.0000
# 6 0.0000 0.0000 0.0000 0.0000 0.0000 31.5961
#
#
#
# Elastic Compliance Matrix: (Units=1/GPa)
#
#
# Indices 1 2 3 4 5 6 
#
# 1 0.011325 -0.002718 -0.003571 0.000000 0.000000 0.000000
# 2 -0.002718 0.011414 0.001542 0.000000 0.000000 0.000000
# 3 -0.003571 0.001542 0.011237 0.000000 0.000000 0.000000
# 4 0.000000 0.000000 0.000000 0.036262 0.000000 0.000000
# 5 0.000000 0.000000 0.000000 0.000000 0.036584 0.000000
# 6 0.000000 0.000000 0.000000 0.000000 0.000000 0.031650
#
#
# Mechanical properties :
#
#
# Convention : Reuss Voigt Hill
#
# Bulk Modulus (GPa) = 40.84532 42.55623 41.70077
# Shear Modulus (GPa) = 32.02532 34.05903 33.04218
#
# Velocity S-wave (km/s) = 3.81633 3.93564 3.87644
# Velocity P-wave (km/s) = 6.16398 6.32502 6.24502
#
# Compressibility (1/GPa) = 0.02448261
#
# Stress axis : x y z
#
# Youngs Moduli (GPa) = 88.29790 87.61400 88.99187
#
# Poissons Ratio (x) = 0.23814 0.31775
# Poissons Ratio (y) = 0.24000 -0.13722
# Poissons Ratio (z) = 0.31527 -0.13510
#
# Static dielectric constant tensor:
#      x y z
#    x 3.930550 0.000000 0.000000 
#    y 0.000000 3.868760 0.000000 
#    z 0.000000 0.000000 3.893890 
# 
# 
# High freq. dielectric constant tensor:
#      x y z
#    x 1.860820 0.000000 0.000000 
#    y 0.000000 1.859870 0.000000 
#    z 0.000000 0.000000 1.871690 
# 
# From -- ./inp_files/509.got.cif
#   From: 2010.03.12/outbox.cif.g09.slc.cpg/sg19_1_cif.got.tgz:509.got - 2010.04.10 18:59:41.
