data_PCOD8157074
_publ_section_title
;
Structure prediction by ZEFSAII (Michael W. Deem and Ramdas Pophale) SiO2 
 PCOD8157074
Probable space group: P 21 21 21
;
_chemical_formula_sum "Si O2"
_cell_formula_units_Z 24
_cell_length_a 10.867340
_cell_length_b 5.387304
_cell_length_c 16.603037
_cell_angle_alpha 90.000000
_cell_angle_beta 90.000000
_cell_angle_gamma 90.000000
_cell_volume 972.035830
_symmetry_space_group_name_H-M "P 21 21 21"
_symmetry_group_IT_number 19
_symmetry_cell_setting 'orthorhombic'
loop_
_space_group_symop_operation_xyz
x,y,z
1/2-x,-y,1/2+z
1/2+x,1/2-y,-z
-x,1/2+y,1/2-z
loop_
_atom_site_type_symbol
_atom_site_label
_atom_site_fract_x
_atom_site_fract_y
_atom_site_fract_z
Si Si1 0.639535 0.383584 0.670670
Si Si2 0.298522 0.741305 0.242777
Si Si3 0.078243 0.224755 0.582256
Si Si4 0.713781 0.765595 0.459715
Si Si5 0.318448 0.459945 0.398905
Si Si6 0.105170 0.397338 0.172466
O O1 0.758071 0.525526 0.704556
O O2 0.693100 0.203160 0.602158
O O3 0.528340 0.544123 0.632194
O O4 0.575691 0.243851 0.745192
O O5 0.403418 0.810288 0.178670
O O6 0.349272 0.541607 0.307317
O O7 0.181385 0.645696 0.191936
O O8 0.123971 0.498114 0.556202
O O9 0.932416 0.197492 0.565513
O O10 0.143796 0.996414 0.535513
O O11 0.785762 0.806931 0.543755
O O12 0.815300 0.734578 0.389486
#
# Coordination Sequence:
#
# PCOD8157074 Si02
#       6
#     4   4   4   4   4   4
#     4  11  21  41  68 106 134 191 243 295 356 436
#     4  10  23  42  69 100 139 186 246 294 358 430
#     4  11  27  50  72 103 151 191 243 303 370 440
#     4  11  27  48  70 107 146 195 235 305 375 431
#     4  11  29  42  74 108 141 197 248 303 374 442
#     4  10  21  41  69 100 141 184 239 296 355 427
#
# _framework density 24.690446000000001
#
# number of rings (size 3 to 8) (size 9 to 14) (size 15 to 20)
#    0.000    1.333    3.333    0.000    9.333    0.000 
#    3.000    0.000    0.000    0.000    0.000    0.000 
#    0.000    0.000    0.000    0.000    0.000    0.000 
#
# Total GULP energy -297570.375571 kJ/mol
# GULP energy per Si atom -12398.765649 kJ/mol
# Density = 2.463425 g / cm^3
# Si number density = 24.690446 Si / 1000 Ang^3
#
#
#
# Elastic Constant Matrix: (Units=GPa)
#
#
# Indices 1 2 3 4 5 6 
#
# 1 104.1943 12.6012 14.0206 0.0000 0.0000 0.0000
# 2 12.6012 82.9546 -3.0746 0.0000 0.0000 0.0000
# 3 14.0206 -3.0746 62.8048 0.0000 0.0000 0.0000
# 4 0.0000 0.0000 0.0000 35.8148 0.0000 0.0000
# 5 0.0000 0.0000 0.0000 0.0000 24.0978 0.0000
# 6 0.0000 0.0000 0.0000 0.0000 0.0000 23.6897
#
#
#
# Elastic Compliance Matrix: (Units=1/GPa)
#
#
# Indices 1 2 3 4 5 6 
#
# 1 0.010108 -0.001622 -0.002336 0.000000 0.000000 0.000000
# 2 -0.001622 0.012337 0.000966 0.000000 0.000000 0.000000
# 3 -0.002336 0.000966 0.016491 0.000000 0.000000 0.000000
# 4 0.000000 0.000000 0.000000 0.027921 0.000000 0.000000
# 5 0.000000 0.000000 0.000000 0.000000 0.041497 0.000000
# 6 0.000000 0.000000 0.000000 0.000000 0.000000 0.042212
#
#
# Mechanical properties :
#
#
# Convention : Reuss Voigt Hill
#
# Bulk Modulus (GPa) = 30.34690 33.00534 31.67612
# Shear Modulus (GPa) = 29.84446 31.81423 30.82934
#
# Velocity S-wave (km/s) = 3.48047 3.59350 3.53744
# Velocity P-wave (km/s) = 5.33566 5.53302 5.43523
#
# Compressibility (1/GPa) = 0.03295230
#
# Stress axis : x y z
#
# Youngs Moduli (GPa) = 98.93206 81.05705 60.63872
#
# Poissons Ratio (x) = 0.13148 0.14165
# Poissons Ratio (y) = 0.16047 -0.05858
# Poissons Ratio (z) = 0.23110 -0.07831
#
# Static dielectric constant tensor:
#      x y z
#    x 4.199810 0.000000 0.000000 
#    y 0.000000 4.300060 0.000000 
#    z 0.000000 0.000000 4.460530 
# 
# 
# High freq. dielectric constant tensor:
#      x y z
#    x 1.975020 0.000000 0.000000 
#    y 0.000000 1.974450 0.000000 
#    z 0.000000 0.000000 1.983980 
# 
# From -- ./inp_files/428.got.cif
#   From: 2010.03.12/outbox.cif.g09.slc.cpg/sg19_1_cif.got.tgz:428.got - 2010.04.10 18:59:41.
