data_PCOD8157714
_publ_section_title
;
Structure prediction by ZEFSAII (Michael W. Deem and Ramdas Pophale) SiO2 
 PCOD8157714
Probable space group: P 21 21 21
;
_chemical_formula_sum "Si O2"
_cell_formula_units_Z 28
_cell_length_a 9.205271
_cell_length_b 14.451913
_cell_length_c 8.794906
_cell_angle_alpha 90.000000
_cell_angle_beta 90.000000
_cell_angle_gamma 90.000000
_cell_volume 1170.019552
_symmetry_space_group_name_H-M "P 21 21 21"
_symmetry_group_IT_number 19
_symmetry_cell_setting 'orthorhombic'
loop_
_space_group_symop_operation_xyz
x,y,z
1/2-x,-y,1/2+z
1/2+x,1/2-y,-z
-x,1/2+y,1/2-z
loop_
_atom_site_type_symbol
_atom_site_label
_atom_site_fract_x
_atom_site_fract_y
_atom_site_fract_z
Si Si1 0.873580 0.966545 0.151320
Si Si2 0.309118 0.095651 0.714423
Si Si3 0.641032 0.872469 0.934823
Si Si4 0.313870 0.713806 0.317015
Si Si5 0.618072 0.745304 0.192646
Si Si6 0.714707 0.895842 0.421504
Si Si7 0.320230 0.914135 0.888334
O O1 0.809002 0.974176 0.326932
O O2 0.021094 0.907198 0.163886
O O3 0.744350 0.916370 0.061853
O O4 0.895212 0.058374 0.046358
O O5 0.261559 0.185394 0.810952
O O6 0.214594 0.093904 0.564147
O O7 0.260578 0.008173 0.814925
O O8 0.717462 0.857875 0.775644
O O9 0.494000 0.923038 0.878885
O O10 0.597635 0.775124 0.016063
O O11 0.470363 0.698412 0.244082
O O12 0.321192 0.675231 0.489161
O O13 0.628776 0.834168 0.302020
O O14 0.752031 0.673009 0.203826
#
# Coordination Sequence:
#
# PCOD8157714 Si02
#       7
#     4   4   4   4   4   4   4
#     4  11  26  49  73 106 146 194 243 306 380 435
#     4  12  28  44  74 108 149 193 243 313 368 454
#     4  11  23  49  75 103 142 195 246 302 371 452
#     4  12  26  46  72 109 143 194 246 305 376 442
#     4  11  25  46  72 104 146 194 246 309 363 447
#     4  11  27  44  77 104 145 191 250 303 367 453
#     4  12  27  46  73 110 149 195 248 308 377 441
#
# _framework density 23.931224
#
# number of rings (size 3 to 8) (size 9 to 14) (size 15 to 20)
#    0.000    0.571    2.857    3.429   10.000    1.143 
#    0.000    0.000    0.000    0.000    0.000    0.000 
#    0.000    0.000    0.000    0.000    0.000    0.000 
#
# Total GULP energy -347015.161379 kJ/mol
# GULP energy per Si atom -12393.398621 kJ/mol
# Density = 2.387676 g / cm^3
# Si number density = 23.931224 Si / 1000 Ang^3
#
#
#
# Elastic Constant Matrix: (Units=GPa)
#
#
# Indices 1 2 3 4 5 6 
#
# 1 97.1354 27.3349 10.0056 0.0000 0.0000 0.0000
# 2 27.3349 118.2459 49.6093 0.0000 0.0000 0.0000
# 3 10.0056 49.6093 104.2377 0.0000 0.0000 0.0000
# 4 0.0000 0.0000 0.0000 58.3727 0.0000 0.0000
# 5 0.0000 0.0000 0.0000 0.0000 23.8200 0.0000
# 6 0.0000 0.0000 0.0000 0.0000 0.0000 39.2564
#
#
#
# Elastic Compliance Matrix: (Units=1/GPa)
#
#
# Indices 1 2 3 4 5 6 
#
# 1 0.011014 -0.002627 0.000193 0.000000 0.000000 0.000000
# 2 -0.002627 0.011194 -0.005075 0.000000 0.000000 0.000000
# 3 0.000193 -0.005075 0.011990 0.000000 0.000000 0.000000
# 4 0.000000 0.000000 0.000000 0.017131 0.000000 0.000000
# 5 0.000000 0.000000 0.000000 0.000000 0.041982 0.000000
# 6 0.000000 0.000000 0.000000 0.000000 0.000000 0.025474
#
#
# Mechanical properties :
#
#
# Convention : Reuss Voigt Hill
#
# Bulk Modulus (GPa) = 52.13830 54.83540 53.48685
# Shear Modulus (GPa) = 35.66432 39.80109 37.73270
#
# Velocity S-wave (km/s) = 3.86461 4.08259 3.97509
# Velocity P-wave (km/s) = 6.46124 6.72212 6.59297
#
# Compressibility (1/GPa) = 0.01917976
#
# Stress axis : x y z
#
# Youngs Moduli (GPa) = 90.79068 89.33754 83.40089
#
# Poissons Ratio (x) = 0.23471 -0.01610
# Poissons Ratio (y) = 0.23853 0.42327
# Poissons Ratio (z) = -0.01753 0.45340
#
# Static dielectric constant tensor:
#      x y z
#    x 4.196210 0.000000 0.000000 
#    y 0.000000 4.630930 0.000000 
#    z 0.000000 0.000000 4.751670 
# 
# 
# High freq. dielectric constant tensor:
#      x y z
#    x 1.941800 0.000000 0.000000 
#    y 0.000000 1.964970 0.000000 
#    z 0.000000 0.000000 1.971610 
# 
# From -- ./inp_files/2851.got.cif
#   From: 2010.03.12/outbox.cif.g09.slc.cpg/sg19_2_cif.got.tgz:2851.got - 2010.04.10 18:59:41.
