data_PCOD8157352
_publ_section_title
;
Structure prediction by ZEFSAII (Michael W. Deem and Ramdas Pophale) SiO2 
 PCOD8157352
Probable space group: P 21 21 21
;
_chemical_formula_sum "Si O2"
_cell_formula_units_Z 20
_cell_length_a 4.934780
_cell_length_b 8.742466
_cell_length_c 19.218086
_cell_angle_alpha 90.000000
_cell_angle_beta 90.000000
_cell_angle_gamma 90.000000
_cell_volume 829.109479
_symmetry_space_group_name_H-M "P 21 21 21"
_symmetry_group_IT_number 19
_symmetry_cell_setting 'orthorhombic'
loop_
_space_group_symop_operation_xyz
x,y,z
1/2-x,-y,1/2+z
1/2+x,1/2-y,-z
-x,1/2+y,1/2-z
loop_
_atom_site_type_symbol
_atom_site_label
_atom_site_fract_x
_atom_site_fract_y
_atom_site_fract_z
Si Si1 0.771885 0.213740 0.308204
Si Si2 0.194546 0.816254 0.036821
Si Si3 0.371767 0.465041 0.278582
Si Si4 0.666576 0.319552 0.965329
Si Si5 0.608407 0.360958 0.816311
O O1 0.861364 0.254381 0.385317
O O2 0.498561 0.297815 0.280651
O O3 0.686416 0.033499 0.299777
O O4 0.016659 0.244631 0.250577
O O5 0.498613 0.771315 0.016152
O O6 0.158819 0.996856 0.030694
O O7 0.090041 0.488116 0.321335
O O8 0.588565 0.577324 0.315160
O O9 0.581171 0.265584 0.887632
O O10 0.965548 0.257135 0.979949
#
# Coordination Sequence:
#
# PCOD8157352 Si02
#       5
#     4   4   4   4   4
#     4  10  26  45  76 101 145 178 250 288 376 415
#     4  12  29  49  73 108 154 198 240 310 369 437
#     4  10  23  41  74 100 136 180 233 296 360 422
#     4  12  26  50  75 106 151 200 245 298 371 449
#     4  10  24  43  74  99 138 184 236 296 356 419
#
# _framework density 24.122266
#
# number of rings (size 3 to 8) (size 9 to 14) (size 15 to 20)
#    1.200    0.000    2.000    2.400    8.400    1.600 
#    7.200    0.000    0.000    0.000    0.000    0.000 
#    0.000    0.000    0.000    0.000    0.000    0.000 
#
# Total GULP energy -247779.546735 kJ/mol
# GULP energy per Si atom -12388.977337 kJ/mol
# Density = 2.406736 g / cm^3
# Si number density = 24.122266 Si / 1000 Ang^3
#
#
#
# Elastic Constant Matrix: (Units=GPa)
#
#
# Indices 1 2 3 4 5 6 
#
# 1 44.4645 7.3442 15.3248 0.0000 0.0000 0.0000
# 2 7.3442 56.9098 55.1995 0.0000 0.0000 0.0000
# 3 15.3248 55.1995 112.4808 0.0000 0.0000 0.0000
# 4 0.0000 0.0000 0.0000 31.6123 0.0000 0.0000
# 5 0.0000 0.0000 0.0000 0.0000 30.7129 0.0000
# 6 0.0000 0.0000 0.0000 0.0000 0.0000 39.0412
#
#
#
# Elastic Compliance Matrix: (Units=1/GPa)
#
#
# Indices 1 2 3 4 5 6 
#
# 1 0.023598 0.000140 -0.003284 0.000000 0.000000 0.000000
# 2 0.000140 0.033534 -0.016476 0.000000 0.000000 0.000000
# 3 -0.003284 -0.016476 0.017423 0.000000 0.000000 0.000000
# 4 0.000000 0.000000 0.000000 0.031633 0.000000 0.000000
# 5 0.000000 0.000000 0.000000 0.000000 0.032560 0.000000
# 6 0.000000 0.000000 0.000000 0.000000 0.000000 0.025614
#
#
# Mechanical properties :
#
#
# Convention : Reuss Voigt Hill
#
# Bulk Modulus (GPa) = 28.31560 41.06580 34.69070
# Shear Modulus (GPa) = 23.21532 29.33904 26.27718
#
# Velocity S-wave (km/s) = 3.10563 3.49128 3.30409
# Velocity P-wave (km/s) = 4.96223 5.77174 5.38223
#
# Compressibility (1/GPa) = 0.03531622
#
# Stress axis : x y z
#
# Youngs Moduli (GPa) = 42.37558 29.82013 57.39456
#
# Poissons Ratio (x) = -0.00416 0.18846
# Poissons Ratio (y) = -0.00591 0.94563
# Poissons Ratio (z) = 0.13915 0.49131
#
# Static dielectric constant tensor:
#      x y z
#    x 4.523580 0.000000 0.000000 
#    y 0.000000 4.307050 0.000000 
#    z 0.000000 0.000000 4.257700 
# 
# 
# High freq. dielectric constant tensor:
#      x y z
#    x 1.982120 0.000000 0.000000 
#    y 0.000000 1.958780 0.000000 
#    z 0.000000 0.000000 1.945620 
# 
# From -- ./inp_files/6385.got.cif
#   From: 2010.03.12/outbox.cif.g09.slc.cpg/sg19_4_cif.got.tgz:6385.got - 2010.04.10 18:59:41.
