data_PCOD8157688
_publ_section_title
;
Structure prediction by ZEFSAII (Michael W. Deem and Ramdas Pophale) SiO2 
 PCOD8157688
Probable space group: P 21 21 21
;
_chemical_formula_sum "Si O2"
_cell_formula_units_Z 32
_cell_length_a 13.239082
_cell_length_b 11.894797
_cell_length_c 9.249909
_cell_angle_alpha 90.000000
_cell_angle_beta 90.000000
_cell_angle_gamma 90.000000
_cell_volume 1456.640454
_symmetry_space_group_name_H-M "P 21 21 21"
_symmetry_group_IT_number 19
_symmetry_cell_setting 'orthorhombic'
loop_
_space_group_symop_operation_xyz
x,y,z
1/2-x,-y,1/2+z
1/2+x,1/2-y,-z
-x,1/2+y,1/2-z
loop_
_atom_site_type_symbol
_atom_site_label
_atom_site_fract_x
_atom_site_fract_y
_atom_site_fract_z
Si Si1 0.932982 0.121258 0.032436
Si Si2 0.377453 0.377506 0.639844
Si Si3 0.158420 0.819395 0.631689
Si Si4 0.344857 0.907296 0.463066
Si Si5 0.984217 0.997789 0.596077
Si Si6 0.860425 0.676242 0.839721
Si Si7 0.354040 0.570666 0.151623
Si Si8 0.676691 0.664195 0.037528
O O1 0.918628 0.138424 0.201185
O O2 0.855515 0.202125 0.949020
O O3 0.049386 0.153022 0.000451
O O4 0.903621 0.995557 0.982307
O O5 0.448069 0.470751 0.564456
O O6 0.265798 0.427830 0.639831
O O7 0.381629 0.255357 0.561611
O O8 0.259493 0.882849 0.580967
O O9 0.175172 0.791018 0.799372
O O10 0.060220 0.893528 0.595574
O O11 0.303557 0.857176 0.310386
O O12 0.371878 0.040101 0.460327
O O13 0.038302 0.105203 0.663863
O O14 0.885720 0.980496 0.694380
O O15 0.897634 0.803657 0.849551
O O16 0.790341 0.649157 0.977244
#
# Coordination Sequence:
#
# PCOD8157688 Si02
#       8
#     4   4   4   4   4   4   4   4
#     4  12  27  45  70 107 143 200 242 307 374 449
#     4  11  28  44  71 106 150 192 253 302 367 456
#     4  12  26  45  73 108 147 193 244 306 382 442
#     4  12  24  45  72 105 148 187 245 312 370 444
#     4  12  24  44  74 103 145 191 245 300 375 438
#     4  11  24  44  72 107 138 192 240 303 371 446
#     4  11  24  48  70 100 145 193 247 303 372 440
#     4  11  23  45  72 104 142 192 240 307 367 445
#
# _framework density 21.968357999999998
#
# number of rings (size 3 to 8) (size 9 to 14) (size 15 to 20)
#    0.000    0.500    3.750    3.750    5.250    4.000 
#    0.000    0.000    0.000    0.000    0.000    0.000 
#    0.000    0.000    0.000    0.000    0.000    0.000 
#
# Total GULP energy -396905.579546 kJ/mol
# GULP energy per Si atom -12403.299361 kJ/mol
# Density = 2.191836 g / cm^3
# Si number density = 21.968358 Si / 1000 Ang^3
#
#
#
# Elastic Constant Matrix: (Units=GPa)
#
#
# Indices 1 2 3 4 5 6 
#
# 1 77.6154 27.0981 35.6871 0.0000 0.0000 0.0000
# 2 27.0981 125.1038 63.7319 0.0000 0.0000 0.0000
# 3 35.6871 63.7319 173.7851 0.0000 0.0000 0.0000
# 4 0.0000 0.0000 0.0000 38.5672 0.0000 0.0000
# 5 0.0000 0.0000 0.0000 0.0000 36.7707 0.0000
# 6 0.0000 0.0000 0.0000 0.0000 0.0000 38.3613
#
#
#
# Elastic Compliance Matrix: (Units=1/GPa)
#
#
# Indices 1 2 3 4 5 6 
#
# 1 0.014629 -0.002015 -0.002265 0.000000 0.000000 0.000000
# 2 -0.002015 0.010107 -0.003293 0.000000 0.000000 0.000000
# 3 -0.002265 -0.003293 0.007427 0.000000 0.000000 0.000000
# 4 0.000000 0.000000 0.000000 0.025929 0.000000 0.000000
# 5 0.000000 0.000000 0.000000 0.000000 0.027196 0.000000
# 6 0.000000 0.000000 0.000000 0.000000 0.000000 0.026068
#
#
# Mechanical properties :
#
#
# Convention : Reuss Voigt Hill
#
# Bulk Modulus (GPa) = 58.76289 69.94872 64.35580
# Shear Modulus (GPa) = 37.82903 39.40568 38.61735
#
# Velocity S-wave (km/s) = 4.15417 4.23986 4.19724
# Velocity P-wave (km/s) = 7.05808 7.47518 7.26962
#
# Compressibility (1/GPa) = 0.01701754
#
# Stress axis : x y z
#
# Youngs Moduli (GPa) = 68.35745 98.93873 134.64390
#
# Poissons Ratio (x) = 0.19934 0.30500
# Poissons Ratio (y) = 0.13772 0.44337
# Poissons Ratio (z) = 0.15485 0.32579
#
# Static dielectric constant tensor:
#      x y z
#    x 3.915150 0.000000 0.000000 
#    y 0.000000 4.221180 0.000000 
#    z 0.000000 0.000000 4.056280 
# 
# 
# High freq. dielectric constant tensor:
#      x y z
#    x 1.865500 0.000000 0.000000 
#    y 0.000000 1.875310 0.000000 
#    z 0.000000 0.000000 1.869340 
# 
# From -- ./inp_files/3968.got.cif
#   From: 2010.03.12/outbox.cif.g09.slc.cpg/sg19_2_cif.got.tgz:3968.got - 2010.04.10 18:59:41.
