data_PCOD8157853
_publ_section_title
;
Structure prediction by ZEFSAII (Michael W. Deem and Ramdas Pophale) SiO2 
 PCOD8157853
Probable space group: P 21 21 21
;
_chemical_formula_sum "Si O2"
_cell_formula_units_Z 24
_cell_length_a 9.928042
_cell_length_b 11.826731
_cell_length_c 8.322576
_cell_angle_alpha 90.000000
_cell_angle_beta 90.000000
_cell_angle_gamma 90.000000
_cell_volume 977.205931
_symmetry_space_group_name_H-M "P 21 21 21"
_symmetry_group_IT_number 19
_symmetry_cell_setting 'orthorhombic'
loop_
_space_group_symop_operation_xyz
x,y,z
1/2-x,-y,1/2+z
1/2+x,1/2-y,-z
-x,1/2+y,1/2-z
loop_
_atom_site_type_symbol
_atom_site_label
_atom_site_fract_x
_atom_site_fract_y
_atom_site_fract_z
Si Si1 0.386114 0.310252 0.813651
Si Si2 0.637814 0.597927 0.488349
Si Si3 0.179836 0.492769 0.544218
Si Si4 0.666679 0.385980 0.702315
Si Si5 0.930164 0.066196 0.631663
Si Si6 0.853193 0.753775 0.917275
O O1 0.514483 0.336823 0.704185
O O2 0.254031 0.263552 0.725868
O O3 0.422140 0.214697 0.945183
O O4 0.351755 0.428986 0.895215
O O5 0.674001 0.514231 0.636151
O O6 0.768541 0.622433 0.377769
O O7 0.526852 0.543000 0.371985
O O8 0.332823 0.442344 0.525443
O O9 0.161181 0.562113 0.708593
O O10 0.088533 0.378963 0.540719
O O11 0.729278 0.302199 0.567515
O O12 0.020025 0.178496 0.636748
#
# Coordination Sequence:
#
# PCOD8157853 Si02
#       6
#     4   4   4   4   4   4
#     4  12  29  48  82 116 163 212 271 344 411 497
#     4  11  27  50  78 116 159 213 277 334 420 486
#     4  12  28  48  78 114 166 207 274 334 417 476
#     4  11  28  50  82 115 161 209 276 344 409 494
#     4  11  28  50  79 117 160 221 268 342 408 489
#     4  11  26  52  77 116 159 214 274 330 415 490
#
# _framework density 24.559819000000001
#
# number of rings (size 3 to 8) (size 9 to 14) (size 15 to 20)
#    0.000    0.667    1.667    4.000   14.000    1.333 
#    3.000    0.000    0.000    0.000    0.000    0.000 
#    0.000    0.000    0.000    0.000    0.000    0.000 
#
# Total GULP energy -297587.520658 kJ/mol
# GULP energy per Si atom -12399.480027 kJ/mol
# Density = 2.450392 g / cm^3
# Si number density = 24.559819 Si / 1000 Ang^3
#
#
#
# Elastic Constant Matrix: (Units=GPa)
#
#
# Indices 1 2 3 4 5 6 
#
# 1 107.6045 53.3853 61.6184 0.0000 0.0000 0.0000
# 2 53.3853 172.8211 59.2875 0.0000 0.0000 0.0000
# 3 61.6184 59.2875 113.5195 0.0000 0.0000 0.0000
# 4 0.0000 0.0000 0.0000 43.3075 0.0000 0.0000
# 5 0.0000 0.0000 0.0000 0.0000 47.5968 0.0000
# 6 0.0000 0.0000 0.0000 0.0000 0.0000 36.6965
#
#
#
# Elastic Compliance Matrix: (Units=1/GPa)
#
#
# Indices 1 2 3 4 5 6 
#
# 1 0.014087 -0.002106 -0.006547 0.000000 0.000000 0.000000
# 2 -0.002106 0.007364 -0.002703 0.000000 0.000000 0.000000
# 3 -0.006547 -0.002703 0.013774 0.000000 0.000000 0.000000
# 4 0.000000 0.000000 0.000000 0.023091 0.000000 0.000000
# 5 0.000000 0.000000 0.000000 0.000000 0.021010 0.000000
# 6 0.000000 0.000000 0.000000 0.000000 0.000000 0.027251
#
#
# Mechanical properties :
#
#
# Convention : Reuss Voigt Hill
#
# Bulk Modulus (GPa) = 79.90717 82.50306 81.20511
# Shear Modulus (GPa) = 37.46487 40.16375 38.81431
#
# Velocity S-wave (km/s) = 3.90994 4.04833 3.97974
# Velocity P-wave (km/s) = 7.27942 7.45101 7.36571
#
# Compressibility (1/GPa) = 0.01251452
#
# Stress axis : x y z
#
# Youngs Moduli (GPa) = 70.98848 135.79434 72.59900
#
# Poissons Ratio (x) = 0.28593 0.47528
# Poissons Ratio (y) = 0.14947 0.19624
# Poissons Ratio (z) = 0.46473 0.36706
#
# Static dielectric constant tensor:
#      x y z
#    x 4.346770 0.000000 0.000000 
#    y 0.000000 4.719210 0.000000 
#    z 0.000000 0.000000 4.301160 
# 
# 
# High freq. dielectric constant tensor:
#      x y z
#    x 1.963660 0.000000 0.000000 
#    y 0.000000 1.997180 0.000000 
#    z 0.000000 0.000000 1.989430 
# 
# From -- ./inp_files/2675.got.cif
#   From: 2010.03.12/outbox.cif.g09.slc.cpg/sg19_2_cif.got.tgz:2675.got - 2010.04.10 18:59:41.
