data_PCOD8157544
_publ_section_title
;
Structure prediction by ZEFSAII (Michael W. Deem and Ramdas Pophale) SiO2 
 PCOD8157544
Probable space group: P 21 21 21
;
_chemical_formula_sum "Si O2"
_cell_formula_units_Z 16
_cell_length_a 5.255990
_cell_length_b 14.904268
_cell_length_c 7.649665
_cell_angle_alpha 90.000000
_cell_angle_beta 90.000000
_cell_angle_gamma 90.000000
_cell_volume 599.249386
_symmetry_space_group_name_H-M "P 21 21 21"
_symmetry_group_IT_number 19
_symmetry_cell_setting 'orthorhombic'
loop_
_space_group_symop_operation_xyz
x,y,z
1/2-x,-y,1/2+z
1/2+x,1/2-y,-z
-x,1/2+y,1/2-z
loop_
_atom_site_type_symbol
_atom_site_label
_atom_site_fract_x
_atom_site_fract_y
_atom_site_fract_z
Si Si1 0.293848 0.900498 0.039149
Si Si2 0.408464 0.840503 0.673338
Si Si3 0.444699 0.143883 0.875766
Si Si4 0.694267 0.011478 0.632366
O O1 0.264881 0.844960 0.219304
O O2 0.533394 0.966959 0.052040
O O3 0.035560 0.957465 0.002827
O O4 0.325775 0.833922 0.875738
O O5 0.188453 0.886557 0.555753
O O6 0.434276 0.741306 0.597398
O O7 0.661920 0.903600 0.660637
O O8 0.650883 0.067329 0.816805
#
# Coordination Sequence:
#
# PCOD8157544 Si02
#       4
#     4   4   4   4
#     4  10  27  49  73 109 154 199 254 315 377 459
#     4  12  26  48  81 108 162 197 253 327 371 454
#     4  10  29  44  75 118 147 196 269 293 399 442
#     4  10  26  51  75 111 153 200 256 305 391 443
#
# _framework density 26.700068000000002
#
# number of rings (size 3 to 8) (size 9 to 14) (size 15 to 20)
#    1.500    0.000    0.000    1.500   10.500    4.000 
#    0.000    0.000    0.000    0.000    0.000    0.000 
#    0.000    0.000    0.000    0.000    0.000    0.000 
#
# Total GULP energy -198288.645734 kJ/mol
# GULP energy per Si atom -12393.040358 kJ/mol
# Density = 2.663930 g / cm^3
# Si number density = 26.700068 Si / 1000 Ang^3
#
#
#
# Elastic Constant Matrix: (Units=GPa)
#
#
# Indices 1 2 3 4 5 6 
#
# 1 129.8426 10.5968 12.5519 0.0000 0.0000 0.0000
# 2 10.5968 126.6199 -12.1025 0.0000 0.0000 0.0000
# 3 12.5519 -12.1025 114.8025 0.0000 0.0000 0.0000
# 4 0.0000 0.0000 0.0000 31.0790 0.0000 0.0000
# 5 0.0000 0.0000 0.0000 0.0000 4.4669 0.0000
# 6 0.0000 0.0000 0.0000 0.0000 0.0000 37.1599
#
#
#
# Elastic Compliance Matrix: (Units=1/GPa)
#
#
# Indices 1 2 3 4 5 6 
#
# 1 0.007853 -0.000747 -0.000937 0.000000 0.000000 0.000000
# 2 -0.000747 0.008049 0.000930 0.000000 0.000000 0.000000
# 3 -0.000937 0.000930 0.008911 0.000000 0.000000 0.000000
# 4 0.000000 0.000000 0.000000 0.032176 0.000000 0.000000
# 5 0.000000 0.000000 0.000000 0.000000 0.223867 0.000000
# 6 0.000000 0.000000 0.000000 0.000000 0.000000 0.026911
#
#
# Mechanical properties :
#
#
# Convention : Reuss Voigt Hill
#
# Bulk Modulus (GPa) = 42.90847 43.70638 43.30742
# Shear Modulus (GPa) = 15.77069 38.55575 27.16322
#
# Velocity S-wave (km/s) = 2.43299 3.80416 3.19305
# Velocity P-wave (km/s) = 4.89878 5.97499 5.46345
#
# Compressibility (1/GPa) = 0.02330542
#
# Stress axis : x y z
#
# Youngs Moduli (GPa) = 127.33671 124.23806 112.21884
#
# Poissons Ratio (x) = 0.09278 0.10519
# Poissons Ratio (y) = 0.09510 -0.10438
# Poissons Ratio (z) = 0.11936 -0.11556
#
# Static dielectric constant tensor:
#      x y z
#    x 4.554900 0.000000 0.000000 
#    y 0.000000 4.335980 0.000000 
#    z 0.000000 0.000000 4.973910 
# 
# 
# High freq. dielectric constant tensor:
#      x y z
#    x 2.063440 0.000000 0.000000 
#    y 0.000000 2.065780 0.000000 
#    z 0.000000 0.000000 2.085280 
# 
# From -- ./inp_files/1666.got.cif
#   From: 2010.03.12/outbox.cif.g09.slc.cpg/sg19_1_cif.got.tgz:1666.got - 2010.04.10 18:59:41.
