data_PCOD8157690
_publ_section_title
;
Structure prediction by ZEFSAII (Michael W. Deem and Ramdas Pophale) SiO2 
 PCOD8157690
Probable space group: P 21 21 21
;
_chemical_formula_sum "Si O2"
_cell_formula_units_Z 32
_cell_length_a 8.612606
_cell_length_b 15.023577
_cell_length_c 11.166124
_cell_angle_alpha 90.000000
_cell_angle_beta 90.000000
_cell_angle_gamma 90.000000
_cell_volume 1444.808785
_symmetry_space_group_name_H-M "P 21 21 21"
_symmetry_group_IT_number 19
_symmetry_cell_setting 'orthorhombic'
loop_
_space_group_symop_operation_xyz
x,y,z
1/2-x,-y,1/2+z
1/2+x,1/2-y,-z
-x,1/2+y,1/2-z
loop_
_atom_site_type_symbol
_atom_site_label
_atom_site_fract_x
_atom_site_fract_y
_atom_site_fract_z
Si Si1 0.637569 0.521218 0.062856
Si Si2 0.802824 0.475277 0.822539
Si Si3 0.634986 0.842141 0.918674
Si Si4 0.421435 0.819026 0.709352
Si Si5 0.614318 0.881867 0.512738
Si Si6 0.695947 0.824081 0.264900
Si Si7 0.646266 0.989295 0.112297
Si Si8 0.509032 0.211184 0.399119
O O1 0.724913 0.484850 0.185743
O O2 0.583915 0.619405 0.099590
O O3 0.735774 0.529421 0.938402
O O4 0.490987 0.459543 0.041476
O O5 0.727407 0.378536 0.822884
O O6 0.985752 0.468807 0.843777
O O7 0.540354 0.865876 0.799891
O O8 0.807161 0.805487 0.891972
O O9 0.637099 0.934659 0.989304
O O10 0.535561 0.766022 0.983272
O O11 0.517418 0.808725 0.586738
O O12 0.357290 0.726845 0.763701
O O13 0.690352 0.826086 0.407381
O O14 0.741679 0.926926 0.598099
O O15 0.713169 0.922846 0.212792
O O16 0.545907 0.772490 0.212459
#
# Coordination Sequence:
#
# PCOD8157690 Si02
#       8
#     4   4   4   4   4   4   4   4
#     4  11  23  46  69 105 140 187 232 302 357 431
#     4  11  24  44  74 103 145 183 242 299 358 432
#     4  11  24  43  70 106 130 187 237 300 354 431
#     4  11  26  43  67 101 142 180 238 294 363 431
#     4  11  26  44  68 101 142 186 240 291 372 430
#     4  11  25  46  67 100 141 188 237 298 364 432
#     4  11  24  42  73 100 137 189 236 299 359 426
#     4  11  24  42  72  96 141 178 244 295 361 423
#
# _framework density 22.148258999999999
#
# number of rings (size 3 to 8) (size 9 to 14) (size 15 to 20)
#    0.000    1.000    3.750    2.250    7.000    2.000 
#    0.000    2.500    0.000    0.000    0.000    0.000 
#    0.000    0.000    0.000    0.000    0.000    0.000 
#
# Total GULP energy -396599.107032 kJ/mol
# GULP energy per Si atom -12393.722095 kJ/mol
# Density = 2.209785 g / cm^3
# Si number density = 22.148259 Si / 1000 Ang^3
#
#
#
# Elastic Constant Matrix: (Units=GPa)
#
#
# Indices 1 2 3 4 5 6 
#
# 1 117.8138 45.1817 66.0573 0.0000 0.0000 0.0000
# 2 45.1817 49.8199 22.9253 0.0000 0.0000 0.0000
# 3 66.0573 22.9253 138.7875 0.0000 0.0000 0.0000
# 4 0.0000 0.0000 0.0000 22.1661 0.0000 0.0000
# 5 0.0000 0.0000 0.0000 0.0000 36.8358 0.0000
# 6 0.0000 0.0000 0.0000 0.0000 0.0000 27.0556
#
#
#
# Elastic Compliance Matrix: (Units=1/GPa)
#
#
# Indices 1 2 3 4 5 6 
#
# 1 0.016431 -0.012232 -0.005800 0.000000 0.000000 0.000000
# 2 -0.012232 0.030830 0.000730 0.000000 0.000000 0.000000
# 3 -0.005800 0.000730 0.009845 0.000000 0.000000 0.000000
# 4 0.000000 0.000000 0.000000 0.045114 0.000000 0.000000
# 5 0.000000 0.000000 0.000000 0.000000 0.027148 0.000000
# 6 0.000000 0.000000 0.000000 0.000000 0.000000 0.036961
#
#
# Mechanical properties :
#
#
# Convention : Reuss Voigt Hill
#
# Bulk Modulus (GPa) = 44.44274 63.86109 54.15191
# Shear Modulus (GPa) = 23.98830 28.69530 26.34180
#
# Velocity S-wave (km/s) = 3.29459 3.60335 3.45242
# Velocity P-wave (km/s) = 5.88064 6.79766 6.35571
#
# Compressibility (1/GPa) = 0.02250086
#
# Stress axis : x y z
#
# Youngs Moduli (GPa) = 60.86015 32.43578 101.57129
#
# Poissons Ratio (x) = 0.39677 0.58911
# Poissons Ratio (y) = 0.74447 -0.07410
# Poissons Ratio (z) = 0.35299 -0.02366
#
# Static dielectric constant tensor:
#      x y z
#    x 4.043310 0.000000 0.000000 
#    y 0.000000 3.789000 0.000000 
#    z 0.000000 0.000000 4.423750 
# 
# 
# High freq. dielectric constant tensor:
#      x y z
#    x 1.873300 0.000000 0.000000 
#    y 0.000000 1.853940 0.000000 
#    z 0.000000 0.000000 1.892300 
# 
# From -- ./inp_files/4687.got.cif
#   From: 2010.03.12/outbox.cif.g09.slc.cpg/sg19_3_cif.got.tgz:4687.got - 2010.04.10 18:59:41.
