data_PCOD8157363
_publ_section_title
;
Structure prediction by ZEFSAII (Michael W. Deem and Ramdas Pophale) SiO2 
 PCOD8157363
Probable space group: P 21 21 21
;
_chemical_formula_sum "Si O2"
_cell_formula_units_Z 24
_cell_length_a 17.492668
_cell_length_b 8.451569
_cell_length_c 7.126012
_cell_angle_alpha 90.000000
_cell_angle_beta 90.000000
_cell_angle_gamma 90.000000
_cell_volume 1053.513110
_symmetry_space_group_name_H-M "P 21 21 21"
_symmetry_group_IT_number 19
_symmetry_cell_setting 'orthorhombic'
loop_
_space_group_symop_operation_xyz
x,y,z
1/2-x,-y,1/2+z
1/2+x,1/2-y,-z
-x,1/2+y,1/2-z
loop_
_atom_site_type_symbol
_atom_site_label
_atom_site_fract_x
_atom_site_fract_y
_atom_site_fract_z
Si Si1 0.182363 0.917262 0.336725
Si Si2 0.769369 0.297945 0.536766
Si Si3 0.531757 0.380704 0.653309
Si Si4 0.630613 0.800097 0.361038
Si Si5 0.389637 0.659819 0.113314
Si Si6 0.023751 0.322125 0.978397
O O1 0.188316 0.778065 0.489458
O O2 0.253601 0.036930 0.354743
O O3 0.106366 0.014829 0.357697
O O4 0.177384 0.833556 0.138037
O O5 0.821187 0.187781 0.668485
O O6 0.692441 0.218298 0.458802
O O7 0.542163 0.234720 0.510460
O O8 0.466941 0.503143 0.575712
O O9 0.518745 0.313877 0.862281
O O10 0.553673 0.692932 0.352981
O O11 0.605985 0.974054 0.421818
O O12 0.405018 0.701023 0.334363
#
# Coordination Sequence:
#
# PCOD8157363 Si02
#       6
#     4   4   4   4   4   4
#     4  10  23  42  68  94 134 180 230 280 337 411
#     4  11  24  42  68  97 136 185 226 276 343 404
#     4  10  24  42  68 102 134 181 226 285 353 413
#     4  11  25  43  67 103 134 180 232 279 346 405
#     4  11  26  42  68 101 139 180 228 286 344 409
#     4  11  24  45  71 101 141 178 228 292 349 418
#
# _framework density 22.780923000000001
#
# number of rings (size 3 to 8) (size 9 to 14) (size 15 to 20)
#    0.000    1.333    1.667    2.000    4.667    8.000 
#    0.000    0.000    0.000    0.000    0.000    0.000 
#    0.000    0.000    0.000    0.000    0.000    0.000 
#
# Total GULP energy -297492.689444 kJ/mol
# GULP energy per Si atom -12395.528727 kJ/mol
# Density = 2.272907 g / cm^3
# Si number density = 22.780923 Si / 1000 Ang^3
#
#
#
# Elastic Constant Matrix: (Units=GPa)
#
#
# Indices 1 2 3 4 5 6 
#
# 1 49.9279 28.7887 50.7177 0.0000 0.0000 0.0000
# 2 28.7887 118.9210 55.3144 0.0000 0.0000 0.0000
# 3 50.7177 55.3144 154.2409 0.0000 0.0000 0.0000
# 4 0.0000 0.0000 0.0000 39.9036 0.0000 0.0000
# 5 0.0000 0.0000 0.0000 0.0000 42.0761 0.0000
# 6 0.0000 0.0000 0.0000 0.0000 0.0000 18.6289
#
#
#
# Elastic Compliance Matrix: (Units=1/GPa)
#
#
# Indices 1 2 3 4 5 6 
#
# 1 0.031136 -0.003331 -0.009044 0.000000 0.000000 0.000000
# 2 -0.003331 0.010449 -0.002652 0.000000 0.000000 0.000000
# 3 -0.009044 -0.002652 0.010408 0.000000 0.000000 0.000000
# 4 0.000000 0.000000 0.000000 0.025060 0.000000 0.000000
# 5 0.000000 0.000000 0.000000 0.000000 0.023766 0.000000
# 6 0.000000 0.000000 0.000000 0.000000 0.000000 0.053680
#
#
# Mechanical properties :
#
#
# Convention : Reuss Voigt Hill
#
# Bulk Modulus (GPa) = 45.57870 65.85905 55.71887
# Shear Modulus (GPa) = 26.05977 32.67299 29.36638
#
# Velocity S-wave (km/s) = 3.38587 3.79123 3.59427
# Velocity P-wave (km/s) = 5.94444 6.93809 6.46039
#
# Compressibility (1/GPa) = 0.02194007
#
# Stress axis : x y z
#
# Youngs Moduli (GPa) = 32.11688 95.70465 96.07862
#
# Poissons Ratio (x) = 0.31879 0.86890
# Poissons Ratio (y) = 0.10698 0.25479
# Poissons Ratio (z) = 0.29045 0.25380
#
# Static dielectric constant tensor:
#      x y z
#    x 3.899640 0.000000 0.000000 
#    y 0.000000 4.723390 0.000000 
#    z 0.000000 0.000000 4.195560 
# 
# 
# High freq. dielectric constant tensor:
#      x y z
#    x 1.881790 0.000000 0.000000 
#    y 0.000000 1.905680 0.000000 
#    z 0.000000 0.000000 1.908630 
# 
# From -- ./inp_files/1701.got.cif
#   From: 2010.03.12/outbox.cif.g09.slc.cpg/sg19_1_cif.got.tgz:1701.got - 2010.04.10 18:59:41.
