data_PCOD8157707
_publ_section_title
;
Structure prediction by ZEFSAII (Michael W. Deem and Ramdas Pophale) SiO2 
 PCOD8157707
Probable space group: P 21 21 21
;
_chemical_formula_sum "Si O2"
_cell_formula_units_Z 24
_cell_length_a 17.519160
_cell_length_b 9.946535
_cell_length_c 5.665490
_cell_angle_alpha 90.000000
_cell_angle_beta 90.000000
_cell_angle_gamma 90.000000
_cell_volume 987.239609
_symmetry_space_group_name_H-M "P 21 21 21"
_symmetry_group_IT_number 19
_symmetry_cell_setting 'orthorhombic'
loop_
_space_group_symop_operation_xyz
x,y,z
1/2-x,-y,1/2+z
1/2+x,1/2-y,-z
-x,1/2+y,1/2-z
loop_
_atom_site_type_symbol
_atom_site_label
_atom_site_fract_x
_atom_site_fract_y
_atom_site_fract_z
Si Si1 0.896396 0.221511 0.367124
Si Si2 0.480770 0.834167 0.521259
Si Si3 0.961404 0.395698 0.730396
Si Si4 0.740971 0.924381 0.051173
Si Si5 0.688039 0.602557 0.518461
Si Si6 0.321519 0.822722 0.777157
O O1 0.962720 0.308143 0.492619
O O2 0.846450 0.128959 0.541525
O O3 0.837489 0.326665 0.256884
O O4 0.942494 0.135533 0.171836
O O5 0.482679 0.682317 0.413026
O O6 0.407664 0.843282 0.689214
O O7 0.482966 0.948635 0.315997
O O8 0.874629 0.385019 0.815538
O O9 0.807610 0.812356 0.073520
O O10 0.743354 0.007908 0.295919
O O11 0.765205 0.679135 0.446800
O O12 0.703526 0.445778 0.557853
#
# Coordination Sequence:
#
# PCOD8157707 Si02
#       6
#     4   4   4   4   4   4
#     4  11  25  53  73 106 161 205 254 343 403 473
#     4  11  28  47  80 117 157 209 271 325 416 479
#     4  11  25  50  75 113 156 207 256 342 405 480
#     4  12  29  52  79 117 163 213 267 331 412 481
#     4  11  23  47  79 105 152 193 275 337 392 458
#     4  12  24  49  78 116 141 209 273 326 390 497
#
# _framework density 24.310210000000001
#
# number of rings (size 3 to 8) (size 9 to 14) (size 15 to 20)
#    0.000    0.667    3.333    3.000    4.667    4.000 
#    3.000    0.000    0.000    0.000    0.000    0.000 
#    0.000    0.000    0.000    0.000    0.000    0.000 
#
# Total GULP energy -297536.082507 kJ/mol
# GULP energy per Si atom -12397.336771 kJ/mol
# Density = 2.425488 g / cm^3
# Si number density = 24.310210 Si / 1000 Ang^3
#
#
#
# Elastic Constant Matrix: (Units=GPa)
#
#
# Indices 1 2 3 4 5 6 
#
# 1 84.9426 45.7478 25.4906 0.0000 0.0000 0.0000
# 2 45.7478 120.1141 48.5566 0.0000 0.0000 0.0000
# 3 25.4906 48.5566 111.3845 0.0000 0.0000 0.0000
# 4 0.0000 0.0000 0.0000 54.6639 0.0000 0.0000
# 5 0.0000 0.0000 0.0000 0.0000 29.4056 0.0000
# 6 0.0000 0.0000 0.0000 0.0000 0.0000 40.5196
#
#
#
# Elastic Compliance Matrix: (Units=1/GPa)
#
#
# Indices 1 2 3 4 5 6 
#
# 1 0.014929 -0.005226 -0.001138 0.000000 0.000000 0.000000
# 2 -0.005226 0.011936 -0.004007 0.000000 0.000000 0.000000
# 3 -0.001138 -0.004007 0.010985 0.000000 0.000000 0.000000
# 4 0.000000 0.000000 0.000000 0.018294 0.000000 0.000000
# 5 0.000000 0.000000 0.000000 0.000000 0.034007 0.000000
# 6 0.000000 0.000000 0.000000 0.000000 0.000000 0.024679
#
#
# Mechanical properties :
#
#
# Convention : Reuss Voigt Hill
#
# Bulk Modulus (GPa) = 58.45564 61.78124 60.11844
# Shear Modulus (GPa) = 35.39196 38.02756 36.70976
#
# Velocity S-wave (km/s) = 3.81970 3.95937 3.89016
# Velocity P-wave (km/s) = 6.59935 6.80962 6.70531
#
# Compressibility (1/GPa) = 0.01710699
#
# Stress axis : x y z
#
# Youngs Moduli (GPa) = 66.98512 83.78229 91.03019
#
# Poissons Ratio (x) = 0.43782 0.10363
# Poissons Ratio (y) = 0.35004 0.36479
# Poissons Ratio (z) = 0.07626 0.33574
#
# Static dielectric constant tensor:
#      x y z
#    x 4.297180 0.000000 0.000000 
#    y 0.000000 4.529830 0.000000 
#    z 0.000000 0.000000 4.410060 
# 
# 
# High freq. dielectric constant tensor:
#      x y z
#    x 1.962630 0.000000 0.000000 
#    y 0.000000 1.968710 0.000000 
#    z 0.000000 0.000000 1.976430 
# 
# From -- ./inp_files/1694.got.cif
#   From: 2010.03.12/outbox.cif.g09.slc.cpg/sg19_1_cif.got.tgz:1694.got - 2010.04.10 18:59:41.
