data_PCOD8157245
_publ_section_title
;
Structure prediction by ZEFSAII (Michael W. Deem and Ramdas Pophale) SiO2 
 PCOD8157245
Probable space group: P 21 21 21
;
_chemical_formula_sum "Si O2"
_cell_formula_units_Z 32
_cell_length_a 12.523921
_cell_length_b 12.314280
_cell_length_c 9.808047
_cell_angle_alpha 90.000000
_cell_angle_beta 90.000000
_cell_angle_gamma 90.000000
_cell_volume 1512.627118
_symmetry_space_group_name_H-M "P 21 21 21"
_symmetry_group_IT_number 19
_symmetry_cell_setting 'orthorhombic'
loop_
_space_group_symop_operation_xyz
x,y,z
1/2-x,-y,1/2+z
1/2+x,1/2-y,-z
-x,1/2+y,1/2-z
loop_
_atom_site_type_symbol
_atom_site_label
_atom_site_fract_x
_atom_site_fract_y
_atom_site_fract_z
Si Si1 0.241268 0.937598 0.629808
Si Si2 0.630051 0.998037 0.540558
Si Si3 0.267859 0.117244 0.421148
Si Si4 0.993653 0.347110 0.883972
Si Si5 0.166218 0.510403 0.779036
Si Si6 0.061444 0.723406 0.861543
Si Si7 0.543271 0.315678 0.895655
Si Si8 0.074829 0.260186 0.398977
O O1 0.252748 0.961146 0.791293
O O2 0.338382 0.862476 0.579220
O O3 0.130083 0.878934 0.596428
O O4 0.246856 0.054136 0.559682
O O5 0.725416 0.971479 0.647004
O O6 0.544263 0.902036 0.554190
O O7 0.674434 0.003646 0.384939
O O8 0.571246 0.110133 0.580683
O O9 0.386893 0.163463 0.414275
O O10 0.196811 0.224677 0.409016
O O11 0.063861 0.448971 0.839129
O O12 0.007359 0.252243 0.771782
O O13 0.036494 0.297181 0.023477
O O14 0.149185 0.635044 0.820679
O O15 0.984985 0.689565 0.984764
O O16 0.521725 0.279591 0.740990
#
# Coordination Sequence:
#
# PCOD8157245 Si02
#       8
#     4   4   4   4   4   4   4   4
#     4  10  24  42  67  98 135 182 237 284 343 412
#     4  12  27  47  73 106 144 189 236 302 364 433
#     4  10  22  42  65  96 131 179 219 293 332 407
#     4  11  25  44  71 100 137 193 233 287 359 425
#     4  12  27  45  73 104 143 189 241 296 367 434
#     4  11  22  43  69  95 139 180 233 286 349 417
#     4  11  27  44  72 102 144 187 234 298 354 424
#     4  11  24  43  68 103 139 179 235 286 354 416
#
# _framework density 21.155248
#
# number of rings (size 3 to 8) (size 9 to 14) (size 15 to 20)
#    0.000    1.000    3.750    1.500    7.000    4.000 
#    0.000    0.000    0.000    0.000    0.000    0.000 
#    0.000    0.000    0.000    0.000    0.000    0.000 
#
# Total GULP energy -396799.810867 kJ/mol
# GULP energy per Si atom -12399.994090 kJ/mol
# Density = 2.110710 g / cm^3
# Si number density = 21.155248 Si / 1000 Ang^3
#
#
#
# Elastic Constant Matrix: (Units=GPa)
#
#
# Indices 1 2 3 4 5 6 
#
# 1 103.3045 20.2974 41.2249 0.0000 0.0000 0.0000
# 2 20.2974 84.2999 40.8260 0.0000 0.0000 0.0000
# 3 41.2249 40.8260 113.0542 0.0000 0.0000 0.0000
# 4 0.0000 0.0000 0.0000 37.8304 0.0000 0.0000
# 5 0.0000 0.0000 0.0000 0.0000 33.6610 0.0000
# 6 0.0000 0.0000 0.0000 0.0000 0.0000 27.2156
#
#
#
# Elastic Compliance Matrix: (Units=1/GPa)
#
#
# Indices 1 2 3 4 5 6 
#
# 1 0.011383 -0.000885 -0.003831 0.000000 0.000000 0.000000
# 2 -0.000885 0.014446 -0.004894 0.000000 0.000000 0.000000
# 3 -0.003831 -0.004894 0.012009 0.000000 0.000000 0.000000
# 4 0.000000 0.000000 0.000000 0.026434 0.000000 0.000000
# 5 0.000000 0.000000 0.000000 0.000000 0.029708 0.000000
# 6 0.000000 0.000000 0.000000 0.000000 0.000000 0.036744
#
#
# Mechanical properties :
#
#
# Convention : Reuss Voigt Hill
#
# Bulk Modulus (GPa) = 53.71218 56.15055 54.93136
# Shear Modulus (GPa) = 32.02059 32.96208 32.49134
#
# Velocity S-wave (km/s) = 3.89472 3.95157 3.92325
# Velocity P-wave (km/s) = 6.75794 6.88619 6.82237
#
# Compressibility (1/GPa) = 0.01861775
#
# Stress axis : x y z
#
# Youngs Moduli (GPa) = 87.85117 69.22531 83.26748
#
# Poissons Ratio (x) = 0.06129 0.31900
# Poissons Ratio (y) = 0.07778 0.40749
# Poissons Ratio (z) = 0.33656 0.33877
#
# Static dielectric constant tensor:
#      x y z
#    x 3.820020 0.000000 0.000000 
#    y 0.000000 3.620760 0.000000 
#    z 0.000000 0.000000 4.015650 
# 
# 
# High freq. dielectric constant tensor:
#      x y z
#    x 1.835350 0.000000 0.000000 
#    y 0.000000 1.825780 0.000000 
#    z 0.000000 0.000000 1.841010 
# 
# From -- ./inp_files/3952.got.cif
#   From: 2010.03.12/outbox.cif.g09.slc.cpg/sg19_2_cif.got.tgz:3952.got - 2010.04.10 18:59:41.
