data_PCOD8157924
_publ_section_title
;
Structure prediction by ZEFSAII (Michael W. Deem and Ramdas Pophale) SiO2 
 PCOD8157924
Probable space group: P 21 21 21
;
_chemical_formula_sum "Si O2"
_cell_formula_units_Z 16
_cell_length_a 17.286667
_cell_length_b 5.700656
_cell_length_c 6.966165
_cell_angle_alpha 90.000000
_cell_angle_beta 90.000000
_cell_angle_gamma 90.000000
_cell_volume 686.483112
_symmetry_space_group_name_H-M "P 21 21 21"
_symmetry_group_IT_number 19
_symmetry_cell_setting 'orthorhombic'
loop_
_space_group_symop_operation_xyz
x,y,z
1/2-x,-y,1/2+z
1/2+x,1/2-y,-z
-x,1/2+y,1/2-z
loop_
_atom_site_type_symbol
_atom_site_label
_atom_site_fract_x
_atom_site_fract_y
_atom_site_fract_z
Si Si1 0.847382 0.611546 0.957753
Si Si2 0.758272 0.747437 0.309299
Si Si3 0.637485 0.049459 0.128678
Si Si4 0.494818 0.039663 0.861215
O O1 0.764831 0.509737 0.885329
O O2 0.885378 0.754908 0.784322
O O3 0.822759 0.762367 0.143951
O O4 0.912861 0.430091 0.030749
O O5 0.792531 0.883924 0.488640
O O6 0.673182 0.836247 0.248340
O O7 0.561237 0.981328 0.014098
O O8 0.490030 0.795179 0.736351
#
# Coordination Sequence:
#
# PCOD8157924 Si02
#       4
#     4   4   4   4
#     4  12  28  48  77 109 153 202 255 317 384 450
#     4  12  26  48  76 110 148 198 262 314 378 454
#     4  12  28  48  77 109 153 202 255 317 384 450
#     4  12  32  52  78 112 160 204 258 314 380 460
#
# _framework density 23.307198
#
# number of rings (size 3 to 8) (size 9 to 14) (size 15 to 20)
#    0.000    0.000    7.500    0.000   17.500    0.000 
#    0.000    0.000    0.000    0.000    0.000    0.000 
#    0.000    0.000    0.000    0.000    0.000    0.000 
#
# Total GULP energy -198236.238501 kJ/mol
# GULP energy per Si atom -12389.764906 kJ/mol
# Density = 2.325415 g / cm^3
# Si number density = 23.307198 Si / 1000 Ang^3
#
#
#
# Elastic Constant Matrix: (Units=GPa)
#
#
# Indices 1 2 3 4 5 6 
#
# 1 109.7720 12.9993 36.5095 0.0000 0.0000 0.0000
# 2 12.9993 78.2144 29.3180 0.0000 0.0000 0.0000
# 3 36.5095 29.3180 113.3969 0.0000 0.0000 0.0000
# 4 0.0000 0.0000 0.0000 32.5103 0.0000 0.0000
# 5 0.0000 0.0000 0.0000 0.0000 52.5262 0.0000
# 6 0.0000 0.0000 0.0000 0.0000 0.0000 35.7043
#
#
#
# Elastic Compliance Matrix: (Units=1/GPa)
#
#
# Indices 1 2 3 4 5 6 
#
# 1 0.010221 -0.000515 -0.003158 0.000000 0.000000 0.000000
# 2 -0.000515 0.014183 -0.003501 0.000000 0.000000 0.000000
# 3 -0.003158 -0.003501 0.010740 0.000000 0.000000 0.000000
# 4 0.000000 0.000000 0.000000 0.030759 0.000000 0.000000
# 5 0.000000 0.000000 0.000000 0.000000 0.019038 0.000000
# 6 0.000000 0.000000 0.000000 0.000000 0.000000 0.028008
#
#
# Mechanical properties :
#
#
# Convention : Reuss Voigt Hill
#
# Bulk Modulus (GPa) = 48.08386 51.00408 49.54397
# Shear Modulus (GPa) = 37.24943 38.98526 38.11735
#
# Velocity S-wave (km/s) = 4.00208 4.09427 4.04844
# Velocity P-wave (km/s) = 6.48312 6.65444 6.56934
#
# Compressibility (1/GPa) = 0.02079700
#
# Stress axis : x y z
#
# Youngs Moduli (GPa) = 97.83796 70.50513 93.10638
#
# Poissons Ratio (x) = 0.03632 0.29399
# Poissons Ratio (y) = 0.05040 0.32598
# Poissons Ratio (z) = 0.30893 0.24685
#
# Static dielectric constant tensor:
#      x y z
#    x 4.126960 0.000000 0.000000 
#    y 0.000000 4.012380 0.000000 
#    z 0.000000 0.000000 4.391390 
# 
# 
# High freq. dielectric constant tensor:
#      x y z
#    x 1.932110 0.000000 0.000000 
#    y 0.000000 1.907290 0.000000 
#    z 0.000000 0.000000 1.944970 
# 
# From -- ./inp_files/95.got.cif
#   From: 2010.03.12/outbox.cif.g09.slc.cpg/sg19_1_cif.got.tgz:95.got - 2010.04.10 18:59:41.
