data_PCOD8157633
_publ_section_title
;
Structure prediction by ZEFSAII (Michael W. Deem and Ramdas Pophale) SiO2 
 PCOD8157633
Probable space group: P 21 21 21
;
_chemical_formula_sum "Si O2"
_cell_formula_units_Z 24
_cell_length_a 8.251818
_cell_length_b 9.149506
_cell_length_c 13.817966
_cell_angle_alpha 90.000000
_cell_angle_beta 90.000000
_cell_angle_gamma 90.000000
_cell_volume 1043.257239
_symmetry_space_group_name_H-M "P 21 21 21"
_symmetry_group_IT_number 19
_symmetry_cell_setting 'orthorhombic'
loop_
_space_group_symop_operation_xyz
x,y,z
1/2-x,-y,1/2+z
1/2+x,1/2-y,-z
-x,1/2+y,1/2-z
loop_
_atom_site_type_symbol
_atom_site_label
_atom_site_fract_x
_atom_site_fract_y
_atom_site_fract_z
Si Si1 0.677071 0.001487 0.629897
Si Si2 0.732840 0.535645 0.488441
Si Si3 0.675012 0.521810 0.787321
Si Si4 0.681666 0.693090 0.148234
Si Si5 0.974547 0.213849 0.987140
Si Si6 0.395064 0.733995 0.284542
O O1 0.515459 0.030607 0.692514
O O2 0.647113 0.908524 0.531925
O O3 0.814194 0.922209 0.693572
O O4 0.746970 0.159663 0.602277
O O5 0.716661 0.460114 0.384472
O O6 0.814426 0.425419 0.562789
O O7 0.568047 0.618600 0.521116
O O8 0.850204 0.675918 0.469725
O O9 0.707799 0.366916 0.735566
O O10 0.744174 0.653130 0.721505
O O11 0.498568 0.716866 0.186204
O O12 0.984052 0.210326 0.869787
#
# Coordination Sequence:
#
# PCOD8157633 Si02
#       6
#     4   4   4   4   4   4
#     4  11  26  44  72 110 144 197 245 309 374 433
#     4  11  25  44  72 106 147 190 251 305 361 446
#     4  11  24  46  70 104 149 189 244 308 371 444
#     4  12  25  45  71 109 146 191 256 307 364 443
#     4  11  22  46  70 102 145 197 240 294 379 442
#     4  12  24  47  77 103 151 200 244 303 385 454
#
# _framework density 23.004871999999999
#
# number of rings (size 3 to 8) (size 9 to 14) (size 15 to 20)
#    0.000    0.667    5.000    2.000    0.000    4.000 
#    0.000    1.667    0.000    0.000    0.000    0.000 
#    0.000    0.000    0.000    0.000    0.000    0.000 
#
# Total GULP energy -297451.297830 kJ/mol
# GULP energy per Si atom -12393.804076 kJ/mol
# Density = 2.295251 g / cm^3
# Si number density = 23.004872 Si / 1000 Ang^3
#
#
#
# Elastic Constant Matrix: (Units=GPa)
#
#
# Indices 1 2 3 4 5 6 
#
# 1 91.3296 55.0819 23.7274 0.0000 0.0000 0.0000
# 2 55.0819 134.6800 43.5949 0.0000 0.0000 0.0000
# 3 23.7274 43.5949 99.0072 0.0000 0.0000 0.0000
# 4 0.0000 0.0000 0.0000 41.4894 0.0000 0.0000
# 5 0.0000 0.0000 0.0000 0.0000 38.5963 0.0000
# 6 0.0000 0.0000 0.0000 0.0000 0.0000 44.6105
#
#
#
# Elastic Compliance Matrix: (Units=1/GPa)
#
#
# Indices 1 2 3 4 5 6 
#
# 1 0.014622 -0.005651 -0.001016 0.000000 0.000000 0.000000
# 2 -0.005651 0.010843 -0.003420 0.000000 0.000000 0.000000
# 3 -0.001016 -0.003420 0.011850 0.000000 0.000000 0.000000
# 4 0.000000 0.000000 0.000000 0.024103 0.000000 0.000000
# 5 0.000000 0.000000 0.000000 0.000000 0.025909 0.000000
# 6 0.000000 0.000000 0.000000 0.000000 0.000000 0.022416
#
#
# Mechanical properties :
#
#
# Convention : Reuss Voigt Hill
#
# Bulk Modulus (GPa) = 58.34221 63.31392 60.82807
# Shear Modulus (GPa) = 36.86492 38.44676 37.65584
#
# Velocity S-wave (km/s) = 4.00745 4.09252 4.05021
# Velocity P-wave (km/s) = 6.84315 7.06494 6.95493
#
# Compressibility (1/GPa) = 0.01714025
#
# Stress axis : x y z
#
# Youngs Moduli (GPa) = 68.39222 92.22244 84.39032
#
# Poissons Ratio (x) = 0.52117 0.08572
# Poissons Ratio (y) = 0.38650 0.28863
# Poissons Ratio (z) = 0.06947 0.31542
#
# Static dielectric constant tensor:
#      x y z
#    x 4.168150 0.000000 0.000000 
#    y 0.000000 4.181740 0.000000 
#    z 0.000000 0.000000 4.131010 
# 
# 
# High freq. dielectric constant tensor:
#      x y z
#    x 1.907740 0.000000 0.000000 
#    y 0.000000 1.913230 0.000000 
#    z 0.000000 0.000000 1.901810 
# 
# From -- ./inp_files/5833.got.cif
#   From: 2010.03.12/outbox.cif.g09.slc.cpg/sg19_3_cif.got.tgz:5833.got - 2010.04.10 18:59:41.
