data_PCOD8157167
_publ_section_title
;
Structure prediction by ZEFSAII (Michael W. Deem and Ramdas Pophale) SiO2 
 PCOD8157167
Probable space group: P 21 21 21
;
_chemical_formula_sum "Si O2"
_cell_formula_units_Z 24
_cell_length_a 24.015908
_cell_length_b 8.024268
_cell_length_c 5.527787
_cell_angle_alpha 90.000000
_cell_angle_beta 90.000000
_cell_angle_gamma 90.000000
_cell_volume 1065.260286
_symmetry_space_group_name_H-M "P 21 21 21"
_symmetry_group_IT_number 19
_symmetry_cell_setting 'orthorhombic'
loop_
_space_group_symop_operation_xyz
x,y,z
1/2-x,-y,1/2+z
1/2+x,1/2-y,-z
-x,1/2+y,1/2-z
loop_
_atom_site_type_symbol
_atom_site_label
_atom_site_fract_x
_atom_site_fract_y
_atom_site_fract_z
Si Si1 0.605922 0.316862 0.143946
Si Si2 0.894079 0.316860 0.856055
Si Si3 0.725381 0.192596 0.246798
Si Si4 0.274620 0.307405 0.246796
Si Si5 0.500000 0.750000 0.092330
Si Si6 0.053785 0.000000 0.249999
O O1 0.612831 0.500001 0.250000
O O2 0.659470 0.211062 0.216963
O O3 0.553921 0.212482 0.245341
O O4 0.593299 0.352530 0.859598
O O5 0.840531 0.211059 0.783039
O O6 0.946080 0.212482 0.754661
O O7 0.906701 0.352530 0.140403
O O8 0.750001 0.271992 0.500001
O O9 0.742431 0.000000 0.250001
O O10 0.750000 0.276555 0.000001
O O11 0.487503 0.917559 0.943243
O O12 0.512497 0.582441 0.943245
#
# Coordination Sequence:
#
# PCOD8157167 Si02
#       6
#     4   4   4   4   4   4
#     4  10  23  40  63  94 128 168 217 266 325 390
#     4  10  23  40  63  94 128 168 217 266 325 390
#     4  10  24  44  66  95 129 172 221 270 327 390
#     4  10  24  44  66  95 129 172 221 270 327 390
#     4  10  22  40  62  96 130 162 220 264 328 394
#     4  10  22  40  64  96 128 172 212 270 330 398
#
# _framework density 22.529705
#
# number of rings (size 3 to 8) (size 9 to 14) (size 15 to 20)
#    0.000    2.000    0.000    1.000    9.333    8.000 
#    3.000    0.000    0.000    0.000    0.000    0.000 
#    0.000    0.000    0.000    0.000    0.000    0.000 
#
# Total GULP energy -297321.026279 kJ/mol
# GULP energy per Si atom -12388.376095 kJ/mol
# Density = 2.247843 g / cm^3
# Si number density = 22.529705 Si / 1000 Ang^3
#
#
#
# Elastic Constant Matrix: (Units=GPa)
#
#
# Indices 1 2 3 4 5 6 
#
# 1 172.2487 4.2814 82.5383 0.0000 0.0000 0.0000
# 2 4.2814 24.3397 16.4373 0.0000 0.0000 0.0000
# 3 82.5383 16.4373 181.2895 0.0000 0.0000 0.0000
# 4 0.0000 0.0000 0.0000 17.1464 0.0000 0.0000
# 5 0.0000 0.0000 0.0000 0.0000 26.0699 0.0000
# 6 0.0000 0.0000 0.0000 0.0000 0.0000 33.8185
#
#
#
# Elastic Compliance Matrix: (Units=1/GPa)
#
#
# Indices 1 2 3 4 5 6 
#
# 1 0.007450 0.001044 -0.003487 0.000000 0.000000 0.000000
# 2 0.001044 0.043911 -0.004457 0.000000 0.000000 0.000000
# 3 -0.003487 -0.004457 0.007508 0.000000 0.000000 0.000000
# 4 0.000000 0.000000 0.000000 0.058321 0.000000 0.000000
# 5 0.000000 0.000000 0.000000 0.000000 0.038358 0.000000
# 6 0.000000 0.000000 0.000000 0.000000 0.000000 0.029570
#
#
# Mechanical properties :
#
#
# Convention : Reuss Voigt Hill
#
# Bulk Modulus (GPa) = 22.18744 64.93242 43.55993
# Shear Modulus (GPa) = 23.37094 33.71500 28.54297
#
# Velocity S-wave (km/s) = 3.22427 3.87262 3.56322
# Velocity P-wave (km/s) = 4.87141 6.99139 6.02537
#
# Compressibility (1/GPa) = 0.04507054
#
# Stress axis : x y z
#
# Youngs Moduli (GPa) = 134.22145 22.77321 133.19876
#
# Poissons Ratio (x) = -0.02378 0.46443
# Poissons Ratio (y) = -0.14015 0.59364
# Poissons Ratio (z) = 0.46799 0.10149
#
# Static dielectric constant tensor:
#      x y z
#    x 4.071680 0.000000 0.000000 
#    y 0.000000 3.647340 0.000000 
#    z 0.000000 0.000000 5.007410 
# 
# 
# High freq. dielectric constant tensor:
#      x y z
#    x 1.885280 0.000000 0.000000 
#    y 0.000000 1.858650 0.000000 
#    z 0.000000 0.000000 1.908070 
# 
# From -- ./inp_files/2111.got.cif
#   From: 2010.03.12/outbox.cif.g09.slc.cpg/sg19_2_cif.got.tgz:2111.got - 2010.04.10 18:59:41.
