data_PCOD8157576
_publ_section_title
;
Structure prediction by ZEFSAII (Michael W. Deem and Ramdas Pophale) SiO2 
 PCOD8157576
Probable space group: P 21 21 21
;
_chemical_formula_sum "Si O2"
_cell_formula_units_Z 24
_cell_length_a 4.923056
_cell_length_b 15.329489
_cell_length_c 15.291214
_cell_angle_alpha 90.000000
_cell_angle_beta 90.000000
_cell_angle_gamma 90.000000
_cell_volume 1153.996311
_symmetry_space_group_name_H-M "P 21 21 21"
_symmetry_group_IT_number 19
_symmetry_cell_setting 'orthorhombic'
loop_
_space_group_symop_operation_xyz
x,y,z
1/2-x,-y,1/2+z
1/2+x,1/2-y,-z
-x,1/2+y,1/2-z
loop_
_atom_site_type_symbol
_atom_site_label
_atom_site_fract_x
_atom_site_fract_y
_atom_site_fract_z
Si Si1 0.580237 0.446629 0.853867
Si Si2 0.372015 0.306979 0.512147
Si Si3 0.416592 0.280976 0.238282
Si Si4 0.912889 0.063610 0.638863
Si Si5 0.209483 0.227947 0.053926
Si Si6 0.929011 0.175419 0.294043
O O1 0.378761 0.522567 0.884516
O O2 0.596246 0.367741 0.922768
O O3 0.470394 0.412985 0.760461
O O4 0.879884 0.485183 0.845558
O O5 0.576553 0.225310 0.517650
O O6 0.492507 0.376558 0.443705
O O7 0.341771 0.350063 0.608050
O O8 0.415531 0.379995 0.272288
O O9 0.316479 0.279932 0.138484
O O10 0.713276 0.238196 0.245844
O O11 0.214432 0.225944 0.299262
O O12 0.459174 0.218152 0.986704
#
# Coordination Sequence:
#
# PCOD8157576 Si02
#       6
#     4   4   4   4   4   4
#     4  11  25  42  65  92 135 167 209 279 329 361
#     4  12  22  40  69  98 127 170 219 261 323 403
#     4  11  22  40  72  89 125 174 217 260 323 402
#     4  12  23  42  64 100 132 161 214 279 330 373
#     4  11  23  45  69  91 125 178 231 259 311 398
#     4  11  21  43  65  92 126 176 212 252 328 403
#
# _framework density 20.797294999999998
#
# number of rings (size 3 to 8) (size 9 to 14) (size 15 to 20)
#    0.000    0.667    3.333    7.000    0.000    0.000 
#    9.000    0.000    0.000    0.000    0.000    0.000 
#    0.000    0.000    0.000    0.000    0.000    0.000 
#
# Total GULP energy -297728.939039 kJ/mol
# GULP energy per Si atom -12405.372460 kJ/mol
# Density = 2.074996 g / cm^3
# Si number density = 20.797295 Si / 1000 Ang^3
#
#
#
# Elastic Constant Matrix: (Units=GPa)
#
#
# Indices 1 2 3 4 5 6 
#
# 1 91.8584 24.9871 15.7944 0.0000 0.0000 0.0000
# 2 24.9871 92.4416 44.4565 0.0000 0.0000 0.0000
# 3 15.7944 44.4565 130.1357 0.0000 0.0000 0.0000
# 4 0.0000 0.0000 0.0000 30.0950 0.0000 0.0000
# 5 0.0000 0.0000 0.0000 0.0000 30.6803 0.0000
# 6 0.0000 0.0000 0.0000 0.0000 0.0000 48.5661
#
#
#
# Elastic Compliance Matrix: (Units=1/GPa)
#
#
# Indices 1 2 3 4 5 6 
#
# 1 0.011768 -0.002984 -0.000409 0.000000 0.000000 0.000000
# 2 -0.002984 0.013701 -0.004318 0.000000 0.000000 0.000000
# 3 -0.000409 -0.004318 0.009209 0.000000 0.000000 0.000000
# 4 0.000000 0.000000 0.000000 0.033228 0.000000 0.000000
# 5 0.000000 0.000000 0.000000 0.000000 0.032594 0.000000
# 6 0.000000 0.000000 0.000000 0.000000 0.000000 0.020590
#
#
# Mechanical properties :
#
#
# Convention : Reuss Voigt Hill
#
# Bulk Modulus (GPa) = 51.93303 53.87908 52.90606
# Shear Modulus (GPa) = 34.98143 37.14813 36.06478
#
# Velocity S-wave (km/s) = 4.10569 4.23093 4.16878
# Velocity P-wave (km/s) = 6.89209 7.05909 6.97609
#
# Compressibility (1/GPa) = 0.01925557
#
# Stress axis : x y z
#
# Youngs Moduli (GPa) = 84.97318 72.98705 108.58822
#
# Poissons Ratio (x) = 0.21782 0.04439
# Poissons Ratio (y) = 0.25360 0.46892
# Poissons Ratio (z) = 0.03474 0.31518
#
# Static dielectric constant tensor:
#      x y z
#    x 3.883290 0.000000 0.000000 
#    y 0.000000 3.602940 0.000000 
#    z 0.000000 0.000000 3.804070 
# 
# 
# High freq. dielectric constant tensor:
#      x y z
#    x 1.836490 0.000000 0.000000 
#    y 0.000000 1.796480 0.000000 
#    z 0.000000 0.000000 1.817710 
# 
# From -- ./inp_files/1450.got.cif
#   From: 2010.03.12/outbox.cif.g09.slc.cpg/sg19_1_cif.got.tgz:1450.got - 2010.04.10 18:59:41.
