data_PCOD8157701
_publ_section_title
;
Structure prediction by ZEFSAII (Michael W. Deem and Ramdas Pophale) SiO2 
 PCOD8157701
Probable space group: P 21 21 21
;
_chemical_formula_sum "Si O2"
_cell_formula_units_Z 20
_cell_length_a 22.499095
_cell_length_b 6.714172
_cell_length_c 5.707202
_cell_angle_alpha 90.000000
_cell_angle_beta 90.000000
_cell_angle_gamma 90.000000
_cell_volume 862.145878
_symmetry_space_group_name_H-M "P 21 21 21"
_symmetry_group_IT_number 19
_symmetry_cell_setting 'orthorhombic'
loop_
_space_group_symop_operation_xyz
x,y,z
1/2-x,-y,1/2+z
1/2+x,1/2-y,-z
-x,1/2+y,1/2-z
loop_
_atom_site_type_symbol
_atom_site_label
_atom_site_fract_x
_atom_site_fract_y
_atom_site_fract_z
Si Si1 0.750762 0.115955 0.296682
Si Si2 0.365763 0.850012 0.237923
Si Si3 0.950467 0.369766 0.024574
Si Si4 0.634369 0.676747 0.909971
Si Si5 0.437253 0.466750 0.319301
O O1 0.695659 0.259538 0.353824
O O2 0.809389 0.251285 0.259046
O O3 0.757861 0.991214 0.542373
O O4 0.416361 0.683775 0.244168
O O5 0.391061 0.020038 0.069594
O O6 0.353086 0.957532 0.486686
O O7 0.963258 0.159053 0.897694
O O8 0.009349 0.505090 0.007598
O O9 0.930629 0.328699 0.288059
O O10 0.621627 0.851814 0.096006
#
# Coordination Sequence:
#
# PCOD8157701 Si02
#       5
#     4   4   4   4   4
#     4  12  28  51  78 107 150 194 246 310 371 442
#     4  11  26  46  72 103 141 189 245 300 368 440
#     4  11  25  43  73 100 146 189 241 307 367 447
#     4  11  28  43  73 105 140 191 248 303 372 437
#     4  11  23  47  66 107 141 187 242 300 374 436
#
# _framework density 23.197931000000001
#
# number of rings (size 3 to 8) (size 9 to 14) (size 15 to 20)
#    0.000    0.800    4.000    1.200   11.200    1.600 
#    0.000    0.000    0.000    0.000    0.000    0.000 
#    0.000    0.000    0.000    0.000    0.000    0.000 
#
# Total GULP energy -247790.126522 kJ/mol
# GULP energy per Si atom -12389.506326 kJ/mol
# Density = 2.314513 g / cm^3
# Si number density = 23.197931 Si / 1000 Ang^3
#
#
#
# Elastic Constant Matrix: (Units=GPa)
#
#
# Indices 1 2 3 4 5 6 
#
# 1 109.9242 34.5774 3.3802 0.0000 0.0000 0.0000
# 2 34.5774 119.5797 23.6966 0.0000 0.0000 0.0000
# 3 3.3802 23.6966 60.0749 0.0000 0.0000 0.0000
# 4 0.0000 0.0000 0.0000 27.3720 0.0000 0.0000
# 5 0.0000 0.0000 0.0000 0.0000 35.2146 0.0000
# 6 0.0000 0.0000 0.0000 0.0000 0.0000 46.5788
#
#
#
# Elastic Compliance Matrix: (Units=1/GPa)
#
#
# Indices 1 2 3 4 5 6 
#
# 1 0.010029 -0.003025 0.000629 0.000000 0.000000 0.000000
# 2 -0.003025 0.009984 -0.003768 0.000000 0.000000 0.000000
# 3 0.000629 -0.003768 0.018097 0.000000 0.000000 0.000000
# 4 0.000000 0.000000 0.000000 0.036534 0.000000 0.000000
# 5 0.000000 0.000000 0.000000 0.000000 0.028397 0.000000
# 6 0.000000 0.000000 0.000000 0.000000 0.000000 0.021469
#
#
# Mechanical properties :
#
#
# Convention : Reuss Voigt Hill
#
# Bulk Modulus (GPa) = 38.78638 45.87635 42.33137
# Shear Modulus (GPa) = 34.38038 37.02803 35.70421
#
# Velocity S-wave (km/s) = 3.85391 3.99955 3.92741
# Velocity P-wave (km/s) = 6.04645 6.41464 6.23326
#
# Compressibility (1/GPa) = 0.02578225
#
# Stress axis : x y z
#
# Youngs Moduli (GPa) = 99.70822 100.16120 55.25843
#
# Poissons Ratio (x) = 0.30295 -0.03474
# Poissons Ratio (y) = 0.30158 0.20821
# Poissons Ratio (z) = -0.06269 0.37740
#
# Static dielectric constant tensor:
#      x y z
#    x 4.107220 0.000000 0.000000 
#    y 0.000000 4.213680 0.000000 
#    z 0.000000 0.000000 3.987350 
# 
# 
# High freq. dielectric constant tensor:
#      x y z
#    x 1.933830 0.000000 0.000000 
#    y 0.000000 1.929790 0.000000 
#    z 0.000000 0.000000 1.896310 
# 
# From -- ./inp_files/126.got.cif
#   From: 2010.03.12/outbox.cif.g09.slc.cpg/sg19_1_cif.got.tgz:126.got - 2010.04.10 18:59:41.
