data_PCOD8157267
_publ_section_title
;
Structure prediction by ZEFSAII (Michael W. Deem and Ramdas Pophale) SiO2 
 PCOD8157267
Probable space group: P 21 21 21
;
_chemical_formula_sum "Si O2"
_cell_formula_units_Z 32
_cell_length_a 15.407851
_cell_length_b 6.859632
_cell_length_c 14.167045
_cell_angle_alpha 90.000000
_cell_angle_beta 90.000000
_cell_angle_gamma 90.000000
_cell_volume 1497.345980
_symmetry_space_group_name_H-M "P 21 21 21"
_symmetry_group_IT_number 19
_symmetry_cell_setting 'orthorhombic'
loop_
_space_group_symop_operation_xyz
x,y,z
1/2-x,-y,1/2+z
1/2+x,1/2-y,-z
-x,1/2+y,1/2-z
loop_
_atom_site_type_symbol
_atom_site_label
_atom_site_fract_x
_atom_site_fract_y
_atom_site_fract_z
Si Si1 0.925103 0.666060 0.352698
Si Si2 0.583710 0.036392 0.017337
Si Si3 0.905430 0.014000 0.222034
Si Si4 0.253395 0.455734 0.394284
Si Si5 0.370497 0.278487 0.238767
Si Si6 0.176652 0.394351 0.598319
Si Si7 0.955831 0.586070 0.834061
Si Si8 0.144981 0.769652 0.119929
O O1 0.937817 0.814503 0.436496
O O2 0.899540 0.791215 0.260525
O O3 0.852910 0.504694 0.377975
O O4 0.012140 0.538486 0.345047
O O5 0.669955 0.106039 0.074868
O O6 0.497808 0.031292 0.079090
O O7 0.612221 0.819761 0.980020
O O8 0.817692 0.066331 0.167169
O O9 0.918965 0.177185 0.302059
O O10 0.303525 0.295266 0.327537
O O11 0.199012 0.382623 0.486295
O O12 0.334448 0.391149 0.145310
O O13 0.466881 0.358164 0.263053
O O14 0.383253 0.050493 0.214714
O O15 0.259251 0.299075 0.648958
O O16 0.090119 0.275987 0.623081
#
# Coordination Sequence:
#
# PCOD8157267 Si02
#       8
#     4   4   4   4   4   4   4   4
#     4  11  23  40  65  94 128 174 217 271 334 397
#     4   9  24  44  61  95 133 166 220 279 329 394
#     4  11  22  40  65  93 128 172 216 269 332 398
#     4  10  24  44  67  94 139 174 218 288 331 394
#     4  11  23  46  68  99 139 174 225 285 337 403
#     4  11  24  43  67 100 135 177 224 278 343 401
#     4  11  24  42  70  99 129 180 225 274 340 404
#     4  10  22  43  63  92 133 167 217 276 328 399
#
# _framework density 21.371148000000002
#
# number of rings (size 3 to 8) (size 9 to 14) (size 15 to 20)
#    0.000    1.500    3.750    0.000    5.250    0.000 
#    2.250    2.500    0.000    0.000    0.000    0.000 
#    0.000    0.000    0.000    0.000    0.000    0.000 
#
# Total GULP energy -396515.274666 kJ/mol
# GULP energy per Si atom -12391.102333 kJ/mol
# Density = 2.132251 g / cm^3
# Si number density = 21.371148 Si / 1000 Ang^3
#
#
#
# Elastic Constant Matrix: (Units=GPa)
#
#
# Indices 1 2 3 4 5 6 
#
# 1 65.1204 3.5961 34.1233 0.0000 0.0000 0.0000
# 2 3.5961 83.7969 28.7416 0.0000 0.0000 0.0000
# 3 34.1233 28.7416 96.7287 0.0000 0.0000 0.0000
# 4 0.0000 0.0000 0.0000 16.5156 0.0000 0.0000
# 5 0.0000 0.0000 0.0000 0.0000 38.0939 0.0000
# 6 0.0000 0.0000 0.0000 0.0000 0.0000 29.4364
#
#
#
# Elastic Compliance Matrix: (Units=1/GPa)
#
#
# Indices 1 2 3 4 5 6 
#
# 1 0.019043 0.001656 -0.007210 0.000000 0.000000 0.000000
# 2 0.001656 0.013432 -0.004575 0.000000 0.000000 0.000000
# 3 -0.007210 -0.004575 0.014241 0.000000 0.000000 0.000000
# 4 0.000000 0.000000 0.000000 0.060549 0.000000 0.000000
# 5 0.000000 0.000000 0.000000 0.000000 0.026251 0.000000
# 6 0.000000 0.000000 0.000000 0.000000 0.000000 0.033972
#
#
# Mechanical properties :
#
#
# Convention : Reuss Voigt Hill
#
# Bulk Modulus (GPa) = 37.79701 42.06310 39.93006
# Shear Modulus (GPa) = 25.43701 28.75486 27.09594
#
# Velocity S-wave (km/s) = 3.45374 3.67208 3.56459
# Velocity P-wave (km/s) = 5.79904 6.14035 5.97213
#
# Compressibility (1/GPa) = 0.02645712
#
# Stress axis : x y z
#
# Youngs Moduli (GPa) = 52.51368 74.45018 70.21971
#
# Poissons Ratio (x) = -0.12326 0.50626
# Poissons Ratio (y) = -0.08695 0.32127
# Poissons Ratio (z) = 0.37861 0.34062
#
# Static dielectric constant tensor:
#      x y z
#    x 3.987060 0.000000 0.000000 
#    y 0.000000 3.602250 0.000000 
#    z 0.000000 0.000000 4.040450 
# 
# 
# High freq. dielectric constant tensor:
#      x y z
#    x 1.852110 0.000000 0.000000 
#    y 0.000000 1.809160 0.000000 
#    z 0.000000 0.000000 1.843880 
# 
# From -- ./inp_files/6293.got.cif
#   From: 2010.03.12/outbox.cif.g09.slc.cpg/sg19_4_cif.got.tgz:6293.got - 2010.04.10 18:59:41.
