data_PCOD8157073
_publ_section_title
;
Structure prediction by ZEFSAII (Michael W. Deem and Ramdas Pophale) SiO2 
 PCOD8157073
Probable space group: P 21 21 21
;
_chemical_formula_sum "Si O2"
_cell_formula_units_Z 32
_cell_length_a 10.842414
_cell_length_b 9.371526
_cell_length_c 15.343627
_cell_angle_alpha 90.000000
_cell_angle_beta 90.000000
_cell_angle_gamma 90.000000
_cell_volume 1559.065398
_symmetry_space_group_name_H-M "P 21 21 21"
_symmetry_group_IT_number 19
_symmetry_cell_setting 'orthorhombic'
loop_
_space_group_symop_operation_xyz
x,y,z
1/2-x,-y,1/2+z
1/2+x,1/2-y,-z
-x,1/2+y,1/2-z
loop_
_atom_site_type_symbol
_atom_site_label
_atom_site_fract_x
_atom_site_fract_y
_atom_site_fract_z
Si Si1 0.129668 0.949348 0.002383
Si Si2 0.869916 0.336961 0.685634
Si Si3 0.591841 0.417871 0.697841
Si Si4 0.396539 0.169081 0.685709
Si Si5 0.521791 0.830969 0.420951
Si Si6 0.210773 0.279234 0.818351
Si Si7 0.644042 0.624272 0.544906
Si Si8 0.916222 0.039580 0.757863
O O1 0.124429 0.843741 0.083192
O O2 0.128239 0.852003 0.917574
O O3 0.249551 0.047461 0.008886
O O4 0.013812 0.057325 0.996454
O O5 0.729086 0.357760 0.716493
O O6 0.926331 0.180556 0.699652
O O7 0.956142 0.450561 0.736198
O O8 0.496511 0.290414 0.700599
O O9 0.551928 0.520165 0.777167
O O10 0.579873 0.507616 0.607586
O O11 0.266805 0.200535 0.733714
O O12 0.411198 0.802054 0.351683
O O13 0.557283 0.684249 0.468232
O O14 0.623104 0.905536 0.356309
O O15 0.308102 0.259912 0.897869
O O16 0.187241 0.441800 0.789034
#
# Coordination Sequence:
#
# PCOD8157073 Si02
#       8
#     4   4   4   4   4   4   4   4
#     4   9  22  41  64  97 131 168 228 276 333 396
#     4  10  23  44  66 101 133 177 223 283 337 401
#     4  10  25  42  67  92 139 179 228 266 349 397
#     4  11  24  44  65  94 137 179 221 283 330 406
#     4  10  21  41  68  97 129 181 221 277 338 407
#     4  10  23  42  64  97 136 168 224 277 333 405
#     4   9  21  44  64  95 135 175 219 283 336 398
#     4  11  21  40  70  97 134 171 222 275 342 394
#
# _framework density 20.525116000000001
#
# number of rings (size 3 to 8) (size 9 to 14) (size 15 to 20)
#    0.000    2.000    1.250    2.250    7.000    2.000 
#   15.750    0.000    0.000    0.000    0.000    0.000 
#    0.000    0.000    0.000    0.000    0.000    0.000 
#
# Total GULP energy -396527.525868 kJ/mol
# GULP energy per Si atom -12391.485183 kJ/mol
# Density = 2.047840 g / cm^3
# Si number density = 20.525116 Si / 1000 Ang^3
#
#
#
# Elastic Constant Matrix: (Units=GPa)
#
#
# Indices 1 2 3 4 5 6 
#
# 1 81.3133 60.3672 59.8198 0.0000 0.0000 0.0000
# 2 60.3672 142.4604 67.8800 0.0000 0.0000 0.0000
# 3 59.8198 67.8800 98.9760 0.0000 0.0000 0.0000
# 4 0.0000 0.0000 0.0000 45.3868 0.0000 0.0000
# 5 0.0000 0.0000 0.0000 0.0000 24.1246 0.0000
# 6 0.0000 0.0000 0.0000 0.0000 0.0000 34.8911
#
#
#
# Elastic Compliance Matrix: (Units=1/GPa)
#
#
# Indices 1 2 3 4 5 6 
#
# 1 0.024237 -0.004888 -0.011297 0.000000 0.000000 0.000000
# 2 -0.004888 0.011413 -0.004873 0.000000 0.000000 0.000000
# 3 -0.011297 -0.004873 0.020273 0.000000 0.000000 0.000000
# 4 0.000000 0.000000 0.000000 0.022033 0.000000 0.000000
# 5 0.000000 0.000000 0.000000 0.000000 0.041451 0.000000
# 6 0.000000 0.000000 0.000000 0.000000 0.000000 0.028661
#
#
# Mechanical properties :
#
#
# Convention : Reuss Voigt Hill
#
# Bulk Modulus (GPa) = 72.42029 77.65377 75.03703
# Shear Modulus (GPa) = 25.66932 29.85935 27.76433
#
# Velocity S-wave (km/s) = 3.54026 3.81828 3.68190
# Velocity P-wave (km/s) = 7.21607 7.57329 7.39683
#
# Compressibility (1/GPa) = 0.01380829
#
# Stress axis : x y z
#
# Youngs Moduli (GPa) = 41.25840 87.62285 49.32713
#
# Poissons Ratio (x) = 0.42830 0.55723
# Poissons Ratio (y) = 0.20167 0.24036
# Poissons Ratio (z) = 0.46608 0.42697
#
# Static dielectric constant tensor:
#      x y z
#    x 3.653630 0.000000 0.000000 
#    y 0.000000 3.824050 0.000000 
#    z 0.000000 0.000000 3.736550 
# 
# 
# High freq. dielectric constant tensor:
#      x y z
#    x 1.781900 0.000000 0.000000 
#    y 0.000000 1.810140 0.000000 
#    z 0.000000 0.000000 1.804860 
# 
# From -- ./inp_files/6137.got.cif
#   From: 2010.03.12/outbox.cif.g09.slc.cpg/sg19_4_cif.got.tgz:6137.got - 2010.04.10 18:59:41.
