data_PCOD8157639
_publ_section_title
;
Structure prediction by ZEFSAII (Michael W. Deem and Ramdas Pophale) SiO2 
 PCOD8157639
Probable space group: P 21 21 21
;
_chemical_formula_sum "Si O2"
_cell_formula_units_Z 28
_cell_length_a 8.999065
_cell_length_b 6.233423
_cell_length_c 21.820691
_cell_angle_alpha 90.000000
_cell_angle_beta 90.000000
_cell_angle_gamma 90.000000
_cell_volume 1224.031198
_symmetry_space_group_name_H-M "P 21 21 21"
_symmetry_group_IT_number 19
_symmetry_cell_setting 'orthorhombic'
loop_
_space_group_symop_operation_xyz
x,y,z
1/2-x,-y,1/2+z
1/2+x,1/2-y,-z
-x,1/2+y,1/2-z
loop_
_atom_site_type_symbol
_atom_site_label
_atom_site_fract_x
_atom_site_fract_y
_atom_site_fract_z
Si Si1 0.659675 0.180131 0.616856
Si Si2 0.665589 0.244819 0.391592
Si Si3 0.566827 0.021047 0.925517
Si Si4 0.994864 0.146055 0.830169
Si Si5 0.787900 0.369627 0.732123
Si Si6 0.117649 0.082241 0.158878
Si Si7 0.073729 0.462458 0.939356
O O1 0.588561 0.403197 0.592221
O O2 0.768294 0.213631 0.674424
O O3 0.531202 0.027564 0.639291
O O4 0.758154 0.052721 0.567342
O O5 0.733442 0.447357 0.355498
O O6 0.536634 0.334272 0.435402
O O7 0.799840 0.149633 0.431729
O O8 0.593385 0.072016 0.345876
O O9 0.619839 0.187847 0.874140
O O10 0.552881 0.133585 0.992079
O O11 0.034544 0.276178 0.891552
O O12 0.899561 0.277918 0.782345
O O13 0.148652 0.091356 0.795373
O O14 0.628435 0.395422 0.766837
#
# Coordination Sequence:
#
# PCOD8157639 Si02
#       7
#     4   4   4   4   4   4   4
#     4  11  28  43  70 111 140 188 238 300 363 426
#     4  11  22  48  69 105 135 190 247 290 359 422
#     4  11  26  48  73 103 150 191 241 297 365 436
#     4  12  25  45  76 106 142 193 242 307 363 428
#     4  12  24  46  71 103 146 181 241 296 357 441
#     4  11  26  45  69 104 142 193 229 298 368 417
#     4  12  25  47  74 108 143 192 246 298 361 436
#
# _framework density 22.875235
#
# number of rings (size 3 to 8) (size 9 to 14) (size 15 to 20)
#    0.000    0.571    4.286    2.571    4.000    4.571 
#    0.000    0.000    0.000    0.000    0.000    0.000 
#    0.000    0.000    0.000    0.000    0.000    0.000 
#
# Total GULP energy -347144.398644 kJ/mol
# GULP energy per Si atom -12398.014237 kJ/mol
# Density = 2.282317 g / cm^3
# Si number density = 22.875235 Si / 1000 Ang^3
#
#
#
# Elastic Constant Matrix: (Units=GPa)
#
#
# Indices 1 2 3 4 5 6 
#
# 1 96.3454 27.5840 17.9986 0.0000 0.0000 0.0000
# 2 27.5840 90.3319 23.7646 0.0000 0.0000 0.0000
# 3 17.9986 23.7646 114.1023 0.0000 0.0000 0.0000
# 4 0.0000 0.0000 0.0000 29.3899 0.0000 0.0000
# 5 0.0000 0.0000 0.0000 0.0000 29.4488 0.0000
# 6 0.0000 0.0000 0.0000 0.0000 0.0000 44.6013
#
#
#
# Elastic Compliance Matrix: (Units=1/GPa)
#
#
# Indices 1 2 3 4 5 6 
#
# 1 0.011514 -0.003214 -0.001147 0.000000 0.000000 0.000000
# 2 -0.003214 0.012609 -0.002119 0.000000 0.000000 0.000000
# 3 -0.001147 -0.002119 0.009386 0.000000 0.000000 0.000000
# 4 0.000000 0.000000 0.000000 0.034025 0.000000 0.000000
# 5 0.000000 0.000000 0.000000 0.000000 0.033957 0.000000
# 6 0.000000 0.000000 0.000000 0.000000 0.000000 0.022421
#
#
# Mechanical properties :
#
#
# Convention : Reuss Voigt Hill
#
# Bulk Modulus (GPa) = 48.66388 48.83048 48.74718
# Shear Modulus (GPa) = 34.78918 36.11682 35.45300
#
# Velocity S-wave (km/s) = 3.90400 3.97780 3.94107
# Velocity P-wave (km/s) = 6.45302 6.51843 6.48581
#
# Compressibility (1/GPa) = 0.02054912
#
# Stress axis : x y z
#
# Youngs Moduli (GPa) = 86.85243 79.30653 106.53794
#
# Poissons Ratio (x) = 0.25491 0.12217
# Poissons Ratio (y) = 0.27916 0.22577
# Poissons Ratio (z) = 0.09960 0.16807
#
# Static dielectric constant tensor:
#      x y z
#    x 4.477180 0.000000 0.000000 
#    y 0.000000 4.158050 0.000000 
#    z 0.000000 0.000000 4.223690 
# 
# 
# High freq. dielectric constant tensor:
#      x y z
#    x 1.916510 0.000000 0.000000 
#    y 0.000000 1.900470 0.000000 
#    z 0.000000 0.000000 1.905770 
# 
# From -- ./inp_files/7331.got.cif
#   From: 2010.03.12/outbox.cif.g09.slc.cpg/sg19_4_cif.got.tgz:7331.got - 2010.04.10 18:59:41.
