data_PCOD8157456
_publ_section_title
;
Structure prediction by ZEFSAII (Michael W. Deem and Ramdas Pophale) SiO2 
 PCOD8157456
Probable space group: P 21 21 21
;
_chemical_formula_sum "Si O2"
_cell_formula_units_Z 32
_cell_length_a 9.671390
_cell_length_b 13.533616
_cell_length_c 11.930579
_cell_angle_alpha 90.000000
_cell_angle_beta 90.000000
_cell_angle_gamma 90.000000
_cell_volume 1561.580105
_symmetry_space_group_name_H-M "P 21 21 21"
_symmetry_group_IT_number 19
_symmetry_cell_setting 'orthorhombic'
loop_
_space_group_symop_operation_xyz
x,y,z
1/2-x,-y,1/2+z
1/2+x,1/2-y,-z
-x,1/2+y,1/2-z
loop_
_atom_site_type_symbol
_atom_site_label
_atom_site_fract_x
_atom_site_fract_y
_atom_site_fract_z
Si Si1 0.401799 0.531637 0.164595
Si Si2 0.351845 0.942546 0.467106
Si Si3 0.662677 0.650677 0.938562
Si Si4 0.514053 0.206082 0.186543
Si Si5 0.255723 0.343652 0.238384
Si Si6 0.857481 0.817428 0.014263
Si Si7 0.453869 0.748325 0.567684
Si Si8 0.704385 0.686881 0.693875
O O1 0.509951 0.461138 0.102595
O O2 0.483832 0.598542 0.255578
O O3 0.297635 0.457979 0.226275
O O4 0.315199 0.596026 0.073251
O O5 0.384950 0.855746 0.555611
O O6 0.230157 0.908330 0.384195
O O7 0.299588 0.038848 0.530413
O O8 0.523996 0.690329 0.998349
O O9 0.633120 0.651198 0.806988
O O10 0.792882 0.714814 0.975528
O O11 0.382855 0.267275 0.230811
O O12 0.653538 0.259863 0.225446
O O13 0.516838 0.196688 0.052054
O O14 0.186631 0.339569 0.359851
O O15 0.146471 0.320123 0.140837
O O16 0.600523 0.761327 0.630264
#
# Coordination Sequence:
#
# PCOD8157456 Si02
#       8
#     4   4   4   4   4   4   4   4
#     4  11  24  43  67 100 130 184 226 279 339 412
#     4  10  24  41  71  93 137 175 226 277 337 410
#     4  11  24  47  67 100 138 179 227 280 343 404
#     4  11  23  43  72  90 139 179 225 280 343 404
#     4  12  24  44  67 100 135 180 229 282 345 406
#     4  11  25  45  68  98 140 177 228 288 337 406
#     4  11  24  44  67 101 136 176 226 286 339 400
#     4  11  22  45  63 102 133 176 223 282 339 398
#
# _framework density 20.492063000000002
#
# number of rings (size 3 to 8) (size 9 to 14) (size 15 to 20)
#    0.000    1.000    5.000    3.000    1.750    4.000 
#    2.250    0.000    0.000    0.000    0.000    0.000 
#    0.000    0.000    0.000    0.000    0.000    0.000 
#
# Total GULP energy -396838.872645 kJ/mol
# GULP energy per Si atom -12401.214770 kJ/mol
# Density = 2.044542 g / cm^3
# Si number density = 20.492063 Si / 1000 Ang^3
#
#
#
# Elastic Constant Matrix: (Units=GPa)
#
#
# Indices 1 2 3 4 5 6 
#
# 1 62.2870 18.9648 12.5490 0.0000 0.0000 0.0000
# 2 18.9648 101.0940 42.0401 0.0000 0.0000 0.0000
# 3 12.5490 42.0401 109.6742 0.0000 0.0000 0.0000
# 4 0.0000 0.0000 0.0000 32.7605 0.0000 0.0000
# 5 0.0000 0.0000 0.0000 0.0000 29.8542 0.0000
# 6 0.0000 0.0000 0.0000 0.0000 0.0000 30.6003
#
#
#
# Elastic Compliance Matrix: (Units=1/GPa)
#
#
# Indices 1 2 3 4 5 6 
#
# 1 0.017096 -0.002848 -0.000865 0.000000 0.000000 0.000000
# 2 -0.002848 0.012242 -0.004367 0.000000 0.000000 0.000000
# 3 -0.000865 -0.004367 0.010891 0.000000 0.000000 0.000000
# 4 0.000000 0.000000 0.000000 0.030525 0.000000 0.000000
# 5 0.000000 0.000000 0.000000 0.000000 0.033496 0.000000
# 6 0.000000 0.000000 0.000000 0.000000 0.000000 0.032679
#
#
# Mechanical properties :
#
#
# Convention : Reuss Voigt Hill
#
# Bulk Modulus (GPa) = 41.54426 46.68478 44.11452
# Shear Modulus (GPa) = 31.03473 31.94311 31.48892
#
# Velocity S-wave (km/s) = 3.89585 3.95245 3.92425
# Velocity P-wave (km/s) = 6.36822 6.60761 6.48902
#
# Compressibility (1/GPa) = 0.02407071
#
# Stress axis : x y z
#
# Youngs Moduli (GPa) = 58.49345 81.68679 91.82163
#
# Poissons Ratio (x) = 0.23261 0.07939
# Poissons Ratio (y) = 0.16657 0.40096
# Poissons Ratio (z) = 0.05057 0.35670
#
# Static dielectric constant tensor:
#      x y z
#    x 3.734100 0.000000 0.000000 
#    y 0.000000 3.684630 0.000000 
#    z 0.000000 0.000000 3.959810 
# 
# 
# High freq. dielectric constant tensor:
#      x y z
#    x 1.801710 0.000000 0.000000 
#    y 0.000000 1.794150 0.000000 
#    z 0.000000 0.000000 1.820190 
# 
# From -- ./inp_files/4700.got.cif
#   From: 2010.03.12/outbox.cif.g09.slc.cpg/sg19_3_cif.got.tgz:4700.got - 2010.04.10 18:59:41.
