data_PCOD8157573
_publ_section_title
;
Structure prediction by ZEFSAII (Michael W. Deem and Ramdas Pophale) SiO2 
 PCOD8157573
Probable space group: P 21 21 21
;
_chemical_formula_sum "Si O2"
_cell_formula_units_Z 32
_cell_length_a 14.429389
_cell_length_b 8.307710
_cell_length_c 12.283045
_cell_angle_alpha 90.000000
_cell_angle_beta 90.000000
_cell_angle_gamma 90.000000
_cell_volume 1472.432222
_symmetry_space_group_name_H-M "P 21 21 21"
_symmetry_group_IT_number 19
_symmetry_cell_setting 'orthorhombic'
loop_
_space_group_symop_operation_xyz
x,y,z
1/2-x,-y,1/2+z
1/2+x,1/2-y,-z
-x,1/2+y,1/2-z
loop_
_atom_site_type_symbol
_atom_site_label
_atom_site_fract_x
_atom_site_fract_y
_atom_site_fract_z
Si Si1 0.949479 0.845467 0.800846
Si Si2 0.103211 0.385412 0.364474
Si Si3 0.733505 0.652046 0.132292
Si Si4 0.155073 0.552941 0.155369
Si Si5 0.436589 0.217172 0.508784
Si Si6 0.786568 0.135316 0.000947
Si Si7 0.270084 0.795514 0.292443
Si Si8 0.111092 0.713078 0.688102
O O1 0.865226 0.730287 0.770332
O O2 0.994841 0.765261 0.907262
O O3 0.026365 0.835200 0.705889
O O4 0.922853 0.028820 0.818534
O O5 0.166188 0.228544 0.396513
O O6 0.107653 0.422742 0.235224
O O7 0.141445 0.534204 0.430651
O O8 0.994922 0.374227 0.397097
O O9 0.662391 0.635215 0.028252
O O10 0.749881 0.484316 0.194366
O O11 0.685750 0.778739 0.214547
O O12 0.238798 0.473609 0.090437
O O13 0.189051 0.709151 0.223981
O O14 0.083746 0.609199 0.062148
O O15 0.844511 0.263456 0.928127
O O16 0.718663 0.223604 0.085135
#
# Coordination Sequence:
#
# PCOD8157573 Si02
#       8
#     4   4   4   4   4   4   4   4
#     4  11  22  41  69 102 132 179 231 288 331 418
#     4  11  22  44  69  90 141 180 231 279 356 411
#     4  11  24  43  67 101 133 184 231 290 335 416
#     4  11  23  44  70  96 135 188 224 283 346 422
#     4  11  24  41  71 100 134 177 232 277 350 410
#     4  11  21  45  68  97 130 190 224 282 348 411
#     4  11  25  42  68 100 140 177 232 283 344 408
#     4  11  21  42  70 100 135 175 235 282 342 398
#
# _framework density 21.732748000000001
#
# number of rings (size 3 to 8) (size 9 to 14) (size 15 to 20)
#    0.000    1.000    5.000    2.250    1.750    2.000 
#    6.750    0.000    0.000    0.000    0.000    0.000 
#    0.000    0.000    0.000    0.000    0.000    0.000 
#
# Total GULP energy -396590.633117 kJ/mol
# GULP energy per Si atom -12393.457285 kJ/mol
# Density = 2.168328 g / cm^3
# Si number density = 21.732748 Si / 1000 Ang^3
#
#
#
# Elastic Constant Matrix: (Units=GPa)
#
#
# Indices 1 2 3 4 5 6 
#
# 1 69.7068 36.7168 39.6266 0.0000 0.0000 0.0000
# 2 36.7168 66.5131 41.0906 0.0000 0.0000 0.0000
# 3 39.6266 41.0906 108.9271 0.0000 0.0000 0.0000
# 4 0.0000 0.0000 0.0000 27.8050 0.0000 0.0000
# 5 0.0000 0.0000 0.0000 0.0000 44.4678 0.0000
# 6 0.0000 0.0000 0.0000 0.0000 0.0000 25.1508
#
#
#
# Elastic Compliance Matrix: (Units=1/GPa)
#
#
# Indices 1 2 3 4 5 6 
#
# 1 0.021738 -0.009276 -0.004409 0.000000 0.000000 0.000000
# 2 -0.009276 0.023561 -0.005513 0.000000 0.000000 0.000000
# 3 -0.004409 -0.005513 0.012864 0.000000 0.000000 0.000000
# 4 0.000000 0.000000 0.000000 0.035965 0.000000 0.000000
# 5 0.000000 0.000000 0.000000 0.000000 0.022488 0.000000
# 6 0.000000 0.000000 0.000000 0.000000 0.000000 0.039760
#
#
# Mechanical properties :
#
#
# Convention : Reuss Voigt Hill
#
# Bulk Modulus (GPa) = 50.59025 53.33500 51.96262
# Shear Modulus (GPa) = 24.83074 27.99891 26.41482
#
# Velocity S-wave (km/s) = 3.38383 3.59322 3.49010
# Velocity P-wave (km/s) = 6.21256 6.46603 6.34056
#
# Compressibility (1/GPa) = 0.01976666
#
# Stress axis : x y z
#
# Youngs Moduli (GPa) = 46.00180 42.44214 77.73506
#
# Poissons Ratio (x) = 0.39371 0.34272
# Poissons Ratio (y) = 0.42673 0.42859
# Poissons Ratio (z) = 0.20282 0.23400
#
# Static dielectric constant tensor:
#      x y z
#    x 4.190090 0.000000 0.000000 
#    y 0.000000 3.758690 0.000000 
#    z 0.000000 0.000000 4.366940 
# 
# 
# High freq. dielectric constant tensor:
#      x y z
#    x 1.852090 0.000000 0.000000 
#    y 0.000000 1.829890 0.000000 
#    z 0.000000 0.000000 1.868980 
# 
# From -- ./inp_files/5246.got.cif
#   From: 2010.03.12/outbox.cif.g09.slc.cpg/sg19_3_cif.got.tgz:5246.got - 2010.04.10 18:59:41.
