data_PCOD8157258
_publ_section_title
;
Structure prediction by ZEFSAII (Michael W. Deem and Ramdas Pophale) SiO2 
 PCOD8157258
Probable space group: P 21 21 21
;
_chemical_formula_sum "Si O2"
_cell_formula_units_Z 28
_cell_length_a 7.712489
_cell_length_b 13.299753
_cell_length_c 11.067913
_cell_angle_alpha 90.000000
_cell_angle_beta 90.000000
_cell_angle_gamma 90.000000
_cell_volume 1135.282307
_symmetry_space_group_name_H-M "P 21 21 21"
_symmetry_group_IT_number 19
_symmetry_cell_setting 'orthorhombic'
loop_
_space_group_symop_operation_xyz
x,y,z
1/2-x,-y,1/2+z
1/2+x,1/2-y,-z
-x,1/2+y,1/2-z
loop_
_atom_site_type_symbol
_atom_site_label
_atom_site_fract_x
_atom_site_fract_y
_atom_site_fract_z
Si Si1 0.684732 0.725376 0.809325
Si Si2 0.627385 0.939094 0.416560
Si Si3 0.069173 0.592103 0.054208
Si Si4 0.058077 0.749705 0.443842
Si Si5 0.579989 0.801150 0.185594
Si Si6 0.312318 0.041606 0.532427
Si Si7 0.225830 0.843673 0.647586
O O1 0.658451 0.699549 0.668553
O O2 0.886428 0.736761 0.835908
O O3 0.579411 0.828394 0.835508
O O4 0.614006 0.638052 0.897049
O O5 0.637201 0.859828 0.525525
O O6 0.596021 0.884476 0.289291
O O7 0.808333 0.998561 0.413060
O O8 0.458986 0.010308 0.436600
O O9 0.149406 0.648753 0.936912
O O10 0.870916 0.557913 0.035515
O O11 0.061137 0.826088 0.558083
O O12 0.858581 0.736096 0.410760
O O13 0.685006 0.697805 0.217502
O O14 0.284677 0.958747 0.640121
#
# Coordination Sequence:
#
# PCOD8157258 Si02
#       7
#     4   4   4   4   4   4   4
#     4  11  25  45  65 104 145 178 238 292 363 430
#     4  10  24  47  72 101 141 184 245 295 354 444
#     4  11  27  45  71 105 141 190 230 303 365 426
#     4  10  22  42  69 103 134 185 233 294 357 422
#     4  10  25  46  72 105 139 194 232 298 369 422
#     4  10  25  45  68 105 139 186 241 290 359 429
#     4  10  22  44  73  99 139 187 237 294 349 435
#
# _framework density 24.663471000000001
#
# number of rings (size 3 to 8) (size 9 to 14) (size 15 to 20)
#    0.000    1.714    0.000    2.571   14.000    1.143 
#   18.000    0.000    0.000    0.000    0.000    0.000 
#    0.000    0.000    0.000    0.000    0.000    0.000 
#
# Total GULP energy -347169.413446 kJ/mol
# GULP energy per Si atom -12398.907623 kJ/mol
# Density = 2.460734 g / cm^3
# Si number density = 24.663471 Si / 1000 Ang^3
#
#
#
# Elastic Constant Matrix: (Units=GPa)
#
#
# Indices 1 2 3 4 5 6 
#
# 1 73.6696 17.3368 -3.4829 0.0000 0.0000 0.0000
# 2 17.3368 65.6645 -5.3070 0.0000 0.0000 0.0000
# 3 -3.4829 -5.3070 56.8789 0.0000 0.0000 0.0000
# 4 0.0000 0.0000 0.0000 39.5522 0.0000 0.0000
# 5 0.0000 0.0000 0.0000 0.0000 33.0625 0.0000
# 6 0.0000 0.0000 0.0000 0.0000 0.0000 41.6310
#
#
#
# Elastic Compliance Matrix: (Units=1/GPa)
#
#
# Indices 1 2 3 4 5 6 
#
# 1 0.014489 -0.003782 0.000534 0.000000 0.000000 0.000000
# 2 -0.003782 0.016332 0.001292 0.000000 0.000000 0.000000
# 3 0.000534 0.001292 0.017735 0.000000 0.000000 0.000000
# 4 0.000000 0.000000 0.000000 0.025283 0.000000 0.000000
# 5 0.000000 0.000000 0.000000 0.000000 0.030246 0.000000
# 6 0.000000 0.000000 0.000000 0.000000 0.000000 0.024021
#
#
# Mechanical properties :
#
#
# Convention : Reuss Voigt Hill
#
# Bulk Modulus (GPa) = 22.39922 23.70076 23.04999
# Shear Modulus (GPa) = 34.03714 35.36022 34.69868
#
# Velocity S-wave (km/s) = 3.71895 3.79054 3.75492
# Velocity P-wave (km/s) = 5.24809 5.36546 5.30710
#
# Compressibility (1/GPa) = 0.04464441
#
# Stress axis : x y z
#
# Youngs Moduli (GPa) = 69.01555 61.22959 56.38727
#
# Poissons Ratio (x) = 0.23159 -0.03013
# Poissons Ratio (y) = 0.26104 -0.07286
# Poissons Ratio (z) = -0.03688 -0.07912
#
# Static dielectric constant tensor:
#      x y z
#    x 4.381780 0.000000 0.000000 
#    y 0.000000 4.516240 0.000000 
#    z 0.000000 0.000000 4.411300 
# 
# 
# High freq. dielectric constant tensor:
#      x y z
#    x 1.984840 0.000000 0.000000 
#    y 0.000000 1.983800 0.000000 
#    z 0.000000 0.000000 1.975690 
# 
# From -- ./inp_files/3460.got.cif
#   From: 2010.03.12/outbox.cif.g09.slc.cpg/sg19_2_cif.got.tgz:3460.got - 2010.04.10 18:59:41.
