data_PCOD8157406
_publ_section_title
;
Structure prediction by ZEFSAII (Michael W. Deem and Ramdas Pophale) SiO2 
 PCOD8157406
Probable space group: P 21 21 21
;
_chemical_formula_sum "Si O2"
_cell_formula_units_Z 24
_cell_length_a 5.604629
_cell_length_b 9.505731
_cell_length_c 17.379638
_cell_angle_alpha 90.000000
_cell_angle_beta 90.000000
_cell_angle_gamma 90.000000
_cell_volume 925.919256
_symmetry_space_group_name_H-M "P 21 21 21"
_symmetry_group_IT_number 19
_symmetry_cell_setting 'orthorhombic'
loop_
_space_group_symop_operation_xyz
x,y,z
1/2-x,-y,1/2+z
1/2+x,1/2-y,-z
-x,1/2+y,1/2-z
loop_
_atom_site_type_symbol
_atom_site_label
_atom_site_fract_x
_atom_site_fract_y
_atom_site_fract_z
Si Si1 0.752243 0.784040 0.237487
Si Si2 0.975310 0.535830 0.294860
Si Si3 0.199401 0.913952 0.056978
Si Si4 0.130575 0.825329 0.476900
Si Si5 0.494886 0.168951 0.400464
Si Si6 0.636516 0.401693 0.174953
O O1 0.980146 0.702807 0.276033
O O2 0.726874 0.725482 0.150728
O O3 0.520374 0.769803 0.293039
O O4 0.796520 0.951870 0.235725
O O5 0.959094 0.509123 0.386072
O O6 0.742947 0.480395 0.249052
O O7 0.302982 0.787575 0.109756
O O8 0.047442 0.837123 0.991516
O O9 0.389140 0.020400 0.017075
O O10 0.377717 0.750918 0.507412
O O11 0.165102 0.845038 0.385080
O O12 0.543846 0.010737 0.370021
#
# Coordination Sequence:
#
# PCOD8157406 Si02
#       6
#     4   4   4   4   4   4
#     4  11  24  44  69 104 143 192 244 317 375 449
#     4  11  25  40  69 103 139 192 244 304 380 444
#     4  11  23  45  69 107 144 195 250 308 379 452
#     4  11  27  48  75 109 149 194 249 306 375 447
#     4  10  23  44  69 102 140 191 245 307 374 452
#     4  10  24  45  69 101 147 186 244 312 365 446
#
# _framework density 25.920188
#
# number of rings (size 3 to 8) (size 9 to 14) (size 15 to 20)
#    0.000    1.333    1.667    2.000    7.000    4.000 
#    0.000    0.000    0.000    0.000    0.000    0.000 
#    0.000    0.000    0.000    0.000    0.000    0.000 
#
# Total GULP energy -297327.001207 kJ/mol
# GULP energy per Si atom -12388.625050 kJ/mol
# Density = 2.586119 g / cm^3
# Si number density = 25.920188 Si / 1000 Ang^3
#
#
#
# Elastic Constant Matrix: (Units=GPa)
#
#
# Indices 1 2 3 4 5 6 
#
# 1 47.6722 3.8009 18.8056 0.0000 0.0000 0.0000
# 2 3.8009 56.6554 21.7614 0.0000 0.0000 0.0000
# 3 18.8056 21.7614 136.4876 0.0000 0.0000 0.0000
# 4 0.0000 0.0000 0.0000 42.6433 0.0000 0.0000
# 5 0.0000 0.0000 0.0000 0.0000 29.7938 0.0000
# 6 0.0000 0.0000 0.0000 0.0000 0.0000 38.9182
#
#
#
# Elastic Compliance Matrix: (Units=1/GPa)
#
#
# Indices 1 2 3 4 5 6 
#
# 1 0.022188 -0.000335 -0.003004 0.000000 0.000000 0.000000
# 2 -0.000335 0.018807 -0.002952 0.000000 0.000000 0.000000
# 3 -0.003004 -0.002952 0.008211 0.000000 0.000000 0.000000
# 4 0.000000 0.000000 0.000000 0.023450 0.000000 0.000000
# 5 0.000000 0.000000 0.000000 0.000000 0.033564 0.000000
# 6 0.000000 0.000000 0.000000 0.000000 0.000000 0.025695
#
#
# Mechanical properties :
#
#
# Convention : Reuss Voigt Hill
#
# Bulk Modulus (GPa) = 27.30413 36.61679 31.96046
# Shear Modulus (GPa) = 31.90688 35.36756 33.63722
#
# Velocity S-wave (km/s) = 3.51232 3.69789 3.60630
# Velocity P-wave (km/s) = 5.19666 5.69122 5.44955
#
# Compressibility (1/GPa) = 0.03662449
#
# Stress axis : x y z
#
# Youngs Moduli (GPa) = 45.06897 53.17151 121.78380
#
# Poissons Ratio (x) = 0.01780 0.36581
# Poissons Ratio (y) = 0.01509 0.35956
# Poissons Ratio (z) = 0.13538 0.15699
#
# Static dielectric constant tensor:
#      x y z
#    x 3.965210 0.000000 0.000000 
#    y 0.000000 5.066510 0.000000 
#    z 0.000000 0.000000 4.867790 
# 
# 
# High freq. dielectric constant tensor:
#      x y z
#    x 1.991630 0.000000 0.000000 
#    y 0.000000 2.053930 0.000000 
#    z 0.000000 0.000000 2.061370 
# 
# From -- ./inp_files/411.got.cif
#   From: 2010.03.12/outbox.cif.g09.slc.cpg/sg19_1_cif.got.tgz:411.got - 2010.04.10 18:59:41.
