data_PCOD8157846
_publ_section_title
;
Structure prediction by ZEFSAII (Michael W. Deem and Ramdas Pophale) SiO2 
 PCOD8157846
Probable space group: P 21 21 21
;
_chemical_formula_sum "Si O2"
_cell_formula_units_Z 20
_cell_length_a 5.221772
_cell_length_b 14.319279
_cell_length_c 10.392757
_cell_angle_alpha 90.000000
_cell_angle_beta 90.000000
_cell_angle_gamma 90.000000
_cell_volume 777.087332
_symmetry_space_group_name_H-M "P 21 21 21"
_symmetry_group_IT_number 19
_symmetry_cell_setting 'orthorhombic'
loop_
_space_group_symop_operation_xyz
x,y,z
1/2-x,-y,1/2+z
1/2+x,1/2-y,-z
-x,1/2+y,1/2-z
loop_
_atom_site_type_symbol
_atom_site_label
_atom_site_fract_x
_atom_site_fract_y
_atom_site_fract_z
Si Si1 0.758259 0.103972 0.781536
Si Si2 0.757336 0.193781 0.526474
Si Si3 0.435633 0.980151 0.935738
Si Si4 0.012781 0.251595 0.918376
Si Si5 0.424256 0.057615 0.199454
O O1 0.649811 0.170488 0.669278
O O2 0.012450 0.154549 0.838360
O O3 0.550870 0.080964 0.892085
O O4 0.825152 0.003164 0.725096
O O5 0.510046 0.240205 0.459169
O O6 0.844413 0.098714 0.455055
O O7 0.251717 0.940263 0.825521
O O8 0.295024 0.007984 0.071472
O O9 0.036198 0.339760 0.824658
O O10 0.727660 0.255165 0.975960
#
# Coordination Sequence:
#
# PCOD8157846 Si02
#       5
#     4   4   4   4   4
#     4  11  27  45  77 109 156 200 261 308 387 453
#     4  11  28  49  76 114 153 202 255 319 383 457
#     4  11  26  48  78 110 157 201 259 317 383 453
#     4  12  27  48  76 111 153 202 256 314 380 455
#     4  11  26  48  79 110 155 205 253 322 377 460
#
# _framework density 25.737134000000001
#
# number of rings (size 3 to 8) (size 9 to 14) (size 15 to 20)
#    0.000    0.800    2.000    2.400   14.000    1.600 
#    0.000    0.000    0.000    0.000    0.000    0.000 
#    0.000    0.000    0.000    0.000    0.000    0.000 
#
# Total GULP energy -247876.668776 kJ/mol
# GULP energy per Si atom -12393.833439 kJ/mol
# Density = 2.567856 g / cm^3
# Si number density = 25.737134 Si / 1000 Ang^3
#
#
#
# Elastic Constant Matrix: (Units=GPa)
#
#
# Indices 1 2 3 4 5 6 
#
# 1 60.2473 6.6534 0.8422 0.0000 0.0000 0.0000
# 2 6.6534 75.9386 -15.7936 0.0000 0.0000 0.0000
# 3 0.8422 -15.7936 96.2814 0.0000 0.0000 0.0000
# 4 0.0000 0.0000 0.0000 36.2031 0.0000 0.0000
# 5 0.0000 0.0000 0.0000 0.0000 32.7293 0.0000
# 6 0.0000 0.0000 0.0000 0.0000 0.0000 39.4838
#
#
#
# Elastic Compliance Matrix: (Units=1/GPa)
#
#
# Indices 1 2 3 4 5 6 
#
# 1 0.016775 -0.001553 -0.000402 0.000000 0.000000 0.000000
# 2 -0.001553 0.013777 0.002274 0.000000 0.000000 0.000000
# 3 -0.000402 0.002274 0.010763 0.000000 0.000000 0.000000
# 4 0.000000 0.000000 0.000000 0.027622 0.000000 0.000000
# 5 0.000000 0.000000 0.000000 0.000000 0.030554 0.000000
# 6 0.000000 0.000000 0.000000 0.000000 0.000000 0.025327
#
#
# Mechanical properties :
#
#
# Convention : Reuss Voigt Hill
#
# Bulk Modulus (GPa) = 23.83615 23.98570 23.91093
# Shear Modulus (GPa) = 36.18863 37.73424 36.96143
#
# Velocity S-wave (km/s) = 3.75385 3.83317 3.79372
# Velocity P-wave (km/s) = 5.29811 5.37873 5.33857
#
# Compressibility (1/GPa) = 0.04195308
#
# Stress axis : x y z
#
# Youngs Moduli (GPa) = 59.61107 72.58220 92.91359
#
# Poissons Ratio (x) = 0.11274 0.03731
# Poissons Ratio (y) = 0.09259 -0.21125
# Poissons Ratio (z) = 0.02394 -0.16502
#
# Static dielectric constant tensor:
#      x y z
#    x 4.044900 0.000000 0.000000 
#    y 0.000000 5.087340 0.000000 
#    z 0.000000 0.000000 5.007400 
# 
# 
# High freq. dielectric constant tensor:
#      x y z
#    x 1.991870 0.000000 0.000000 
#    y 0.000000 2.056570 0.000000 
#    z 0.000000 0.000000 2.049950 
# 
# From -- ./inp_files/840.got.cif
#   From: 2010.03.12/outbox.cif.g09.slc.cpg/sg19_1_cif.got.tgz:840.got - 2010.04.10 18:59:41.
