data_PCOD8157101
_publ_section_title
;
Structure prediction by ZEFSAII (Michael W. Deem and Ramdas Pophale) SiO2 
 PCOD8157101
Probable space group: P 21 21 21
;
_chemical_formula_sum "Si O2"
_cell_formula_units_Z 24
_cell_length_a 29.272935
_cell_length_b 7.250566
_cell_length_c 5.121298
_cell_angle_alpha 90.000000
_cell_angle_beta 90.000000
_cell_angle_gamma 90.000000
_cell_volume 1086.971672
_symmetry_space_group_name_H-M "P 21 21 21"
_symmetry_group_IT_number 19
_symmetry_cell_setting 'orthorhombic'
loop_
_space_group_symop_operation_xyz
x,y,z
1/2-x,-y,1/2+z
1/2+x,1/2-y,-z
-x,1/2+y,1/2-z
loop_
_atom_site_type_symbol
_atom_site_label
_atom_site_fract_x
_atom_site_fract_y
_atom_site_fract_z
Si Si1 0.609541 0.411060 0.577576
Si Si2 0.278760 0.521627 0.577031
Si Si3 0.353806 0.220430 0.611771
Si Si4 0.952078 0.183591 0.548891
Si Si5 0.343493 0.838217 0.429398
Si Si6 0.478967 0.103988 0.953145
O O1 0.634887 0.296199 0.351857
O O2 0.556194 0.431264 0.510474
O O3 0.629544 0.621637 0.617979
O O4 0.618490 0.297630 0.845440
O O5 0.249044 0.563058 0.833987
O O6 0.317519 0.378901 0.666653
O O7 0.298974 0.715370 0.476645
O O8 0.397200 0.311071 0.464814
O O9 0.330958 0.057064 0.436327
O O10 0.974239 0.322264 0.339535
O O11 0.968322 0.238042 0.837976
O O12 0.970239 0.977101 0.493947
#
# Coordination Sequence:
#
# PCOD8157101 Si02
#       6
#     4   4   4   4   4   4
#     4   9  19  40  66  86 127 172 208 243 318 378
#     4  12  28  42  66 102 127 158 222 276 329 389
#     4   9  24  43  68  87 130 173 211 254 332 383
#     4  11  23  39  63  94 130 170 213 260 314 375
#     4  10  21  43  68  90 126 169 208 263 315 391
#     4  11  21  39  61  97 130 166 214 260 300 378
#
# _framework density 22.079694
#
# number of rings (size 3 to 8) (size 9 to 14) (size 15 to 20)
#    1.000    0.667    1.667    2.000    2.333    4.000 
#    0.000    0.000    0.000    0.000    0.000    0.000 
#    0.000    0.000    0.000    0.000    0.000    0.000 
#
# Total GULP energy -297461.268154 kJ/mol
# GULP energy per Si atom -12394.219506 kJ/mol
# Density = 2.202944 g / cm^3
# Si number density = 22.079694 Si / 1000 Ang^3
#
#
#
# Elastic Constant Matrix: (Units=GPa)
#
#
# Indices 1 2 3 4 5 6 
#
# 1 83.3852 39.8973 16.5949 0.0000 0.0000 0.0000
# 2 39.8973 44.2526 3.6535 0.0000 0.0000 0.0000
# 3 16.5949 3.6535 110.2743 0.0000 0.0000 0.0000
# 4 0.0000 0.0000 0.0000 25.7080 0.0000 0.0000
# 5 0.0000 0.0000 0.0000 0.0000 30.1399 0.0000
# 6 0.0000 0.0000 0.0000 0.0000 0.0000 35.5155
#
#
#
# Elastic Compliance Matrix: (Units=1/GPa)
#
#
# Indices 1 2 3 4 5 6 
#
# 1 0.021831 -0.019465 -0.002640 0.000000 0.000000 0.000000
# 2 -0.019465 0.040014 0.001603 0.000000 0.000000 0.000000
# 3 -0.002640 0.001603 0.009413 0.000000 0.000000 0.000000
# 4 0.000000 0.000000 0.000000 0.038898 0.000000 0.000000
# 5 0.000000 0.000000 0.000000 0.000000 0.033179 0.000000
# 6 0.000000 0.000000 0.000000 0.000000 0.000000 0.028157
#
#
# Mechanical properties :
#
#
# Convention : Reuss Voigt Hill
#
# Bulk Modulus (GPa) = 33.05276 39.80040 36.42658
# Shear Modulus (GPa) = 22.46384 30.12377 26.29381
#
# Velocity S-wave (km/s) = 3.19313 3.69768 3.45463
# Velocity P-wave (km/s) = 5.34762 6.02456 5.69615
#
# Compressibility (1/GPa) = 0.03025466
#
# Stress axis : x y z
#
# Youngs Moduli (GPa) = 45.80581 24.99116 106.24142
#
# Poissons Ratio (x) = 0.48645 0.28053
# Poissons Ratio (y) = 0.89160 -0.17036
# Poissons Ratio (z) = 0.12095 -0.04007
#
# Static dielectric constant tensor:
#      x y z
#    x 3.860050 0.000000 0.000000 
#    y 0.000000 3.614400 0.000000 
#    z 0.000000 0.000000 3.877840 
# 
# 
# High freq. dielectric constant tensor:
#      x y z
#    x 1.856800 0.000000 0.000000 
#    y 0.000000 1.845660 0.000000 
#    z 0.000000 0.000000 1.875360 
# 
# From -- ./inp_files/2234.got.cif
#   From: 2010.03.12/outbox.cif.g09.slc.cpg/sg19_2_cif.got.tgz:2234.got - 2010.04.10 18:59:41.
