data_PCOD8157813
_publ_section_title
;
Structure prediction by ZEFSAII (Michael W. Deem and Ramdas Pophale) SiO2 
 PCOD8157813
Probable space group: P 21 21 21
;
_chemical_formula_sum "Si O2"
_cell_formula_units_Z 32
_cell_length_a 13.815254
_cell_length_b 4.962491
_cell_length_c 16.702565
_cell_angle_alpha 90.000000
_cell_angle_beta 90.000000
_cell_angle_gamma 90.000000
_cell_volume 1145.095681
_symmetry_space_group_name_H-M "P 21 21 21"
_symmetry_group_IT_number 19
_symmetry_cell_setting 'orthorhombic'
loop_
_space_group_symop_operation_xyz
x,y,z
1/2-x,-y,1/2+z
1/2+x,1/2-y,-z
-x,1/2+y,1/2-z
loop_
_atom_site_type_symbol
_atom_site_label
_atom_site_fract_x
_atom_site_fract_y
_atom_site_fract_z
Si Si1 0.167878 0.875742 0.959705
Si Si2 0.556369 0.781645 0.230110
Si Si3 0.813439 0.749303 0.924563
Si Si4 0.998271 0.054671 0.567550
Si Si5 0.756072 0.880468 0.285066
Si Si6 0.253855 0.349769 0.880557
Si Si7 0.459157 0.899056 0.706021
Si Si8 0.054761 0.591376 0.457722
O O1 0.053954 0.810076 0.981541
O O2 0.222061 0.603132 0.933382
O O3 0.176235 0.107902 0.893009
O O4 0.229213 0.944150 0.040200
O O5 0.503729 0.007118 0.285342
O O6 0.660593 0.705874 0.266059
O O7 0.575210 0.935277 0.144593
O O8 0.762717 0.964689 0.868213
O O9 0.897202 0.563175 0.884643
O O10 0.893395 0.852064 0.991780
O O11 0.990567 0.791157 0.513635
O O12 0.772009 0.092131 0.213077
O O13 0.845425 0.677876 0.293070
O O14 0.355275 0.243884 0.918230
O O15 0.523491 0.644068 0.733026
O O16 0.488038 0.999240 0.617208
#
# Coordination Sequence:
#
# PCOD8157813 Si02
#       8
#     4   4   4   4   4   4   4   4
#     4  11  26  46  72 111 147 207 250 322 403 469
#     4  12  28  47  74 114 158 203 266 335 406 483
#     4  11  26  50  74 115 156 206 267 332 400 496
#     4  12  25  43  78 104 155 202 260 321 409 468
#     4  12  26  51  82 119 163 212 279 335 418 490
#     4  11  25  46  75 104 154 200 257 324 395 472
#     4  12  30  52  84 118 158 216 270 335 408 497
#     4  11  26  51  75 109 159 202 267 330 401 477
#
# _framework density 27.945260999999999
#
# number of rings (size 3 to 8) (size 9 to 14) (size 15 to 20)
#    0.000    0.500    5.000    1.500    7.000    1.000 
#    4.500    0.000    0.000    0.000    0.000    0.000 
#    0.000    0.000    0.000    0.000    0.000    0.000 
#
# Total GULP energy -396524.204051 kJ/mol
# GULP energy per Si atom -12391.381377 kJ/mol
# Density = 2.788166 g / cm^3
# Si number density = 27.945261 Si / 1000 Ang^3
#
#
#
# Elastic Constant Matrix: (Units=GPa)
#
#
# Indices 1 2 3 4 5 6 
#
# 1 130.7389 -0.3466 38.3898 0.0000 0.0000 0.0000
# 2 -0.3466 82.0068 -6.9583 0.0000 0.0000 0.0000
# 3 38.3898 -6.9583 85.4836 0.0000 0.0000 0.0000
# 4 0.0000 0.0000 0.0000 39.9403 0.0000 0.0000
# 5 0.0000 0.0000 0.0000 0.0000 51.2125 0.0000
# 6 0.0000 0.0000 0.0000 0.0000 0.0000 24.4889
#
#
#
# Elastic Compliance Matrix: (Units=1/GPa)
#
#
# Indices 1 2 3 4 5 6 
#
# 1 0.008818 -0.000301 -0.003985 0.000000 0.000000 0.000000
# 2 -0.000301 0.012289 0.001135 0.000000 0.000000 0.000000
# 3 -0.003985 0.001135 0.013580 0.000000 0.000000 0.000000
# 4 0.000000 0.000000 0.000000 0.025037 0.000000 0.000000
# 5 0.000000 0.000000 0.000000 0.000000 0.019526 0.000000
# 6 0.000000 0.000000 0.000000 0.000000 0.000000 0.040835
#
#
# Mechanical properties :
#
#
# Convention : Reuss Voigt Hill
#
# Bulk Modulus (GPa) = 35.22704 40.04433 37.63569
# Shear Modulus (GPa) = 36.80575 40.93796 38.87185
#
# Velocity S-wave (km/s) = 3.63308 3.83160 3.73366
# Velocity P-wave (km/s) = 5.49837 5.82542 5.66426
#
# Compressibility (1/GPa) = 0.02838729
#
# Stress axis : x y z
#
# Youngs Moduli (GPa) = 113.40362 81.37241 73.63765
#
# Poissons Ratio (x) = 0.02448 0.29342
# Poissons Ratio (y) = 0.03411 -0.08361
# Poissons Ratio (z) = 0.45187 -0.09239
#
# Static dielectric constant tensor:
#      x y z
#    x 6.658660 0.000000 0.000000 
#    y 0.000000 4.643710 0.000000 
#    z 0.000000 0.000000 5.534640 
# 
# 
# High freq. dielectric constant tensor:
#      x y z
#    x 2.176380 0.000000 0.000000 
#    y 0.000000 2.111580 0.000000 
#    z 0.000000 0.000000 2.139680 
# 
# From -- ./inp_files/6820.got.cif
#   From: 2010.03.12/outbox.cif.g09.slc.cpg/sg19_4_cif.got.tgz:6820.got - 2010.04.10 18:59:41.
