data_PCOD8157315
_publ_section_title
;
Structure prediction by ZEFSAII (Michael W. Deem and Ramdas Pophale) SiO2 
 PCOD8157315
Probable space group: P 21 21 21
;
_chemical_formula_sum "Si O2"
_cell_formula_units_Z 32
_cell_length_a 12.198488
_cell_length_b 13.377428
_cell_length_c 8.818621
_cell_angle_alpha 90.000000
_cell_angle_beta 90.000000
_cell_angle_gamma 90.000000
_cell_volume 1439.061332
_symmetry_space_group_name_H-M "P 21 21 21"
_symmetry_group_IT_number 19
_symmetry_cell_setting 'orthorhombic'
loop_
_space_group_symop_operation_xyz
x,y,z
1/2-x,-y,1/2+z
1/2+x,1/2-y,-z
-x,1/2+y,1/2-z
loop_
_atom_site_type_symbol
_atom_site_label
_atom_site_fract_x
_atom_site_fract_y
_atom_site_fract_z
Si Si1 0.030724 0.001087 0.292050
Si Si2 0.231498 0.215625 0.776966
Si Si3 0.394472 0.144495 0.549978
Si Si4 0.637547 0.960482 0.292214
Si Si5 0.826603 0.077162 0.139967
Si Si6 0.546688 0.566311 0.374493
Si Si7 0.021550 0.740235 0.777388
Si Si8 0.769507 0.495561 0.674500
O O1 0.030312 0.905341 0.179737
O O2 0.002101 0.963490 0.461243
O O3 0.150434 0.054512 0.295104
O O4 0.940176 0.080841 0.235894
O O5 0.299704 0.214213 0.620832
O O6 0.268285 0.314418 0.867832
O O7 0.256962 0.112132 0.868155
O O8 0.103169 0.211130 0.746577
O O9 0.469358 0.211889 0.443651
O O10 0.335813 0.055646 0.458634
O O11 0.647688 0.958509 0.471930
O O12 0.601003 0.854337 0.226297
O O13 0.751791 0.993317 0.218547
O O14 0.545258 0.041324 0.251426
O O15 0.562926 0.685597 0.356199
O O16 0.660301 0.509939 0.331533
#
# Coordination Sequence:
#
# PCOD8157315 Si02
#       8
#     4   4   4   4   4   4   4   4
#     4  11  24  42  71 100 144 185 239 296 360 421
#     4  11  24  43  74 103 142 178 247 294 357 434
#     4  10  25  44  71 106 140 188 242 295 351 447
#     4  12  27  48  73 100 148 193 239 304 368 427
#     4  12  28  46  70 108 145 194 235 304 365 443
#     4  11  23  46  71 102 141 189 243 297 354 438
#     4  11  25  44  74 101 140 192 240 294 365 424
#     4  10  22  45  70 100 142 189 235 296 356 420
#
# _framework density 22.236716999999999
#
# number of rings (size 3 to 8) (size 9 to 14) (size 15 to 20)
#    0.000    1.000    2.500    3.750    7.000    0.000 
#    0.000    3.750    0.000    0.000    0.000    0.000 
#    0.000    0.000    0.000    0.000    0.000    0.000 
#
# Total GULP energy -396816.714715 kJ/mol
# GULP energy per Si atom -12400.522335 kJ/mol
# Density = 2.218610 g / cm^3
# Si number density = 22.236717 Si / 1000 Ang^3
#
#
#
# Elastic Constant Matrix: (Units=GPa)
#
#
# Indices 1 2 3 4 5 6 
#
# 1 126.1693 37.3285 31.1347 0.0000 0.0000 0.0000
# 2 37.3285 98.1532 26.4041 0.0000 0.0000 0.0000
# 3 31.1347 26.4041 112.6951 0.0000 0.0000 0.0000
# 4 0.0000 0.0000 0.0000 28.1463 0.0000 0.0000
# 5 0.0000 0.0000 0.0000 0.0000 32.9418 0.0000
# 6 0.0000 0.0000 0.0000 0.0000 0.0000 30.3899
#
#
#
# Elastic Compliance Matrix: (Units=1/GPa)
#
#
# Indices 1 2 3 4 5 6 
#
# 1 0.009280 -0.003031 -0.001854 0.000000 0.000000 0.000000
# 2 -0.003031 0.011863 -0.001942 0.000000 0.000000 0.000000
# 3 -0.001854 -0.001942 0.009841 0.000000 0.000000 0.000000
# 4 0.000000 0.000000 0.000000 0.035529 0.000000 0.000000
# 5 0.000000 0.000000 0.000000 0.000000 0.030357 0.000000
# 6 0.000000 0.000000 0.000000 0.000000 0.000000 0.032906
#
#
# Mechanical properties :
#
#
# Convention : Reuss Voigt Hill
#
# Bulk Modulus (GPa) = 57.70101 58.52800 58.11451
# Shear Modulus (GPa) = 33.51102 34.43897 33.97499
#
# Velocity S-wave (km/s) = 3.88624 3.93968 3.91305
# Velocity P-wave (km/s) = 6.79279 6.86093 6.82694
#
# Compressibility (1/GPa) = 0.01733072
#
# Stress axis : x y z
#
# Youngs Moduli (GPa) = 107.75941 84.29438 101.61873
#
# Poissons Ratio (x) = 0.25546 0.18838
# Poissons Ratio (y) = 0.32657 0.19737
# Poissons Ratio (z) = 0.19976 0.16372
#
# Static dielectric constant tensor:
#      x y z
#    x 4.171800 0.000000 0.000000 
#    y 0.000000 4.074800 0.000000 
#    z 0.000000 0.000000 4.007950 
# 
# 
# High freq. dielectric constant tensor:
#      x y z
#    x 1.888350 0.000000 0.000000 
#    y 0.000000 1.868830 0.000000 
#    z 0.000000 0.000000 1.878180 
# 
# From -- ./inp_files/3586.got.cif
#   From: 2010.03.12/outbox.cif.g09.slc.cpg/sg19_2_cif.got.tgz:3586.got - 2010.04.10 18:59:41.
