data_PCOD8157602
_publ_section_title
;
Structure prediction by ZEFSAII (Michael W. Deem and Ramdas Pophale) SiO2 
 PCOD8157602
Probable space group: P 21 21 21
;
_chemical_formula_sum "Si O2"
_cell_formula_units_Z 32
_cell_length_a 11.172267
_cell_length_b 9.019722
_cell_length_c 14.882563
_cell_angle_alpha 90.000000
_cell_angle_beta 90.000000
_cell_angle_gamma 90.000000
_cell_volume 1499.726923
_symmetry_space_group_name_H-M "P 21 21 21"
_symmetry_group_IT_number 19
_symmetry_cell_setting 'orthorhombic'
loop_
_space_group_symop_operation_xyz
x,y,z
1/2-x,-y,1/2+z
1/2+x,1/2-y,-z
-x,1/2+y,1/2-z
loop_
_atom_site_type_symbol
_atom_site_label
_atom_site_fract_x
_atom_site_fract_y
_atom_site_fract_z
Si Si1 0.002040 0.243452 0.618491
Si Si2 0.105648 0.514985 0.012745
Si Si3 0.599577 0.136327 0.688363
Si Si4 0.173086 0.151649 0.756175
Si Si5 0.182920 0.827866 0.744523
Si Si6 0.502348 0.756897 0.410837
Si Si7 0.889612 0.148489 0.292735
Si Si8 0.877034 0.970464 0.995675
O O1 0.927774 0.161646 0.541910
O O2 0.911378 0.342129 0.675298
O O3 0.064396 0.127156 0.685619
O O4 0.104964 0.353715 0.584265
O O5 0.087548 0.555480 0.116548
O O6 0.025452 0.378795 0.978242
O O7 0.242704 0.469920 0.997902
O O8 0.718350 0.205492 0.732759
O O9 0.485747 0.224251 0.723354
O O10 0.592004 0.965214 0.712860
O O11 0.594517 0.131675 0.581289
O O12 0.115254 0.199800 0.851993
O O13 0.259221 0.279899 0.719363
O O14 0.241011 0.992971 0.750059
O O15 0.117199 0.783978 0.651247
O O16 0.535181 0.890946 0.478184
#
# Coordination Sequence:
#
# PCOD8157602 Si02
#       8
#     4   4   4   4   4   4   4   4
#     4  11  22  42  71 106 136 184 241 296 366 443
#     4  12  24  46  71 106 144 187 238 303 371 439
#     4  12  27  45  69  99 146 190 236 298 371 440
#     4  11  23  44  73 103 142 186 243 297 365 434
#     4  11  23  44  73 103 142 186 243 297 365 434
#     4  11  26  44  73 110 140 182 245 306 352 447
#     4  12  27  45  69  99 146 190 236 298 371 440
#     4  12  24  46  71 106 144 187 238 303 371 439
#
# _framework density 21.337216999999999
#
# number of rings (size 3 to 8) (size 9 to 14) (size 15 to 20)
#    0.000    0.500    6.250    2.250    1.750    0.000 
#    4.500    1.250    0.000    0.000    0.000    0.000 
#    0.000    0.000    0.000    0.000    0.000    0.000 
#
# Total GULP energy -396727.691340 kJ/mol
# GULP energy per Si atom -12397.740354 kJ/mol
# Density = 2.128865 g / cm^3
# Si number density = 21.337217 Si / 1000 Ang^3
#
#
#
# Elastic Constant Matrix: (Units=GPa)
#
#
# Indices 1 2 3 4 5 6 
#
# 1 103.2366 37.2070 40.2554 0.0000 0.0000 0.0000
# 2 37.2070 111.9011 26.7410 0.0000 0.0000 0.0000
# 3 40.2554 26.7410 56.3166 0.0000 0.0000 0.0000
# 4 0.0000 0.0000 0.0000 41.5348 0.0000 0.0000
# 5 0.0000 0.0000 0.0000 0.0000 33.4563 0.0000
# 6 0.0000 0.0000 0.0000 0.0000 0.0000 37.5494
#
#
#
# Elastic Compliance Matrix: (Units=1/GPa)
#
#
# Indices 1 2 3 4 5 6 
#
# 1 0.014052 -0.002563 -0.008828 0.000000 0.000000 0.000000
# 2 -0.002563 0.010548 -0.003176 0.000000 0.000000 0.000000
# 3 -0.008828 -0.003176 0.025575 0.000000 0.000000 0.000000
# 4 0.000000 0.000000 0.000000 0.024076 0.000000 0.000000
# 5 0.000000 0.000000 0.000000 0.000000 0.029890 0.000000
# 6 0.000000 0.000000 0.000000 0.000000 0.000000 0.026632
#
#
# Mechanical properties :
#
#
# Convention : Reuss Voigt Hill
#
# Bulk Modulus (GPa) = 47.52611 53.31790 50.42201
# Shear Modulus (GPa) = 29.95435 33.65817 31.80626
#
# Velocity S-wave (km/s) = 3.75087 3.97601 3.86508
# Velocity P-wave (km/s) = 6.40944 6.79122 6.60309
#
# Compressibility (1/GPa) = 0.02104107
#
# Stress axis : x y z
#
# Youngs Moduli (GPa) = 71.16222 94.80753 39.10040
#
# Poissons Ratio (x) = 0.24298 0.34517
# Poissons Ratio (y) = 0.18238 0.12420
# Poissons Ratio (z) = 0.62821 0.30115
#
# Static dielectric constant tensor:
#      x y z
#    x 3.772920 0.000000 0.000000 
#    y 0.000000 3.781110 0.000000 
#    z 0.000000 0.000000 3.893870 
# 
# 
# High freq. dielectric constant tensor:
#      x y z
#    x 1.833510 0.000000 0.000000 
#    y 0.000000 1.848500 0.000000 
#    z 0.000000 0.000000 1.842630 
# 
# From -- ./inp_files/6111.got.cif
#   From: 2010.03.12/outbox.cif.g09.slc.cpg/sg19_4_cif.got.tgz:6111.got - 2010.04.10 18:59:41.
