data_PCOD8157195
_publ_section_title
;
Structure prediction by ZEFSAII (Michael W. Deem and Ramdas Pophale) SiO2 
 PCOD8157195
Probable space group: P 21 21 21
;
_chemical_formula_sum "Si O2"
_cell_formula_units_Z 20
_cell_length_a 4.935635
_cell_length_b 18.497378
_cell_length_c 8.915104
_cell_angle_alpha 90.000000
_cell_angle_beta 90.000000
_cell_angle_gamma 90.000000
_cell_volume 813.916065
_symmetry_space_group_name_H-M "P 21 21 21"
_symmetry_group_IT_number 19
_symmetry_cell_setting 'orthorhombic'
loop_
_space_group_symop_operation_xyz
x,y,z
1/2-x,-y,1/2+z
1/2+x,1/2-y,-z
-x,1/2+y,1/2-z
loop_
_atom_site_type_symbol
_atom_site_label
_atom_site_fract_x
_atom_site_fract_y
_atom_site_fract_z
Si Si1 0.307014 0.298033 0.026742
Si Si2 0.121215 0.308738 0.349389
Si Si3 0.564099 0.495233 0.653346
Si Si4 0.379695 0.844282 0.971102
Si Si5 0.046381 0.547309 0.480727
O O1 0.194048 0.331303 0.181488
O O2 0.378816 0.370167 0.931247
O O3 0.573973 0.248976 0.053950
O O4 0.155860 0.222131 0.356465
O O5 0.316257 0.347863 0.467166
O O6 0.818459 0.333901 0.386686
O O7 0.686684 0.416342 0.618742
O O8 0.286696 0.507479 0.566435
O O9 0.788908 0.551534 0.593167
O O10 0.522170 0.500280 0.832635
#
# Coordination Sequence:
#
# PCOD8157195 Si02
#       5
#     4   4   4   4   4
#     4  12  26  46  73 102 148 187 249 305 365 434
#     4  10  22  40  71 105 131 187 240 289 363 424
#     4  12  27  48  72 106 151 191 247 300 367 449
#     4  10  22  41  69 100 141 178 235 301 353 429
#     4  12  29  47  77 109 147 201 245 301 380 434
#
# _framework density 24.572555999999999
#
# number of rings (size 3 to 8) (size 9 to 14) (size 15 to 20)
#    0.000    0.800    0.000    6.000    8.400    4.800 
#    0.000    0.000    0.000    0.000    0.000    0.000 
#    0.000    0.000    0.000    0.000    0.000    0.000 
#
# Total GULP energy -248131.262660 kJ/mol
# GULP energy per Si atom -12406.563133 kJ/mol
# Density = 2.451663 g / cm^3
# Si number density = 24.572556 Si / 1000 Ang^3
#
#
#
# Elastic Constant Matrix: (Units=GPa)
#
#
# Indices 1 2 3 4 5 6 
#
# 1 138.0917 25.2197 46.2185 0.0000 0.0000 0.0000
# 2 25.2197 74.4526 22.7290 0.0000 0.0000 0.0000
# 3 46.2185 22.7290 96.3598 0.0000 0.0000 0.0000
# 4 0.0000 0.0000 0.0000 31.5005 0.0000 0.0000
# 5 0.0000 0.0000 0.0000 0.0000 36.5209 0.0000
# 6 0.0000 0.0000 0.0000 0.0000 0.0000 36.3454
#
#
#
# Elastic Compliance Matrix: (Units=1/GPa)
#
#
# Indices 1 2 3 4 5 6 
#
# 1 0.008853 -0.001835 -0.003814 0.000000 0.000000 0.000000
# 2 -0.001835 0.014854 -0.002624 0.000000 0.000000 0.000000
# 3 -0.003814 -0.002624 0.012826 0.000000 0.000000 0.000000
# 4 0.000000 0.000000 0.000000 0.031746 0.000000 0.000000
# 5 0.000000 0.000000 0.000000 0.000000 0.027382 0.000000
# 6 0.000000 0.000000 0.000000 0.000000 0.000000 0.027514
#
#
# Mechanical properties :
#
#
# Convention : Reuss Voigt Hill
#
# Bulk Modulus (GPa) = 50.02789 55.24871 52.63830
# Shear Modulus (GPa) = 34.15767 35.18918 34.67342
#
# Velocity S-wave (km/s) = 3.73241 3.78835 3.76049
# Velocity P-wave (km/s) = 6.24324 6.45509 6.35005
#
# Compressibility (1/GPa) = 0.01998885
#
# Stress axis : x y z
#
# Youngs Moduli (GPa) = 112.95621 67.32301 77.96799
#
# Poissons Ratio (x) = 0.12351 0.29733
# Poissons Ratio (y) = 0.20723 0.20456
# Poissons Ratio (z) = 0.43076 0.17663
#
# Static dielectric constant tensor:
#      x y z
#    x 4.516380 0.000000 0.000000 
#    y 0.000000 4.471300 0.000000 
#    z 0.000000 0.000000 4.081650 
# 
# 
# High freq. dielectric constant tensor:
#      x y z
#    x 1.989830 0.000000 0.000000 
#    y 0.000000 1.990310 0.000000 
#    z 0.000000 0.000000 1.962850 
# 
# From -- ./inp_files/1677.got.cif
#   From: 2010.03.12/outbox.cif.g09.slc.cpg/sg19_1_cif.got.tgz:1677.got - 2010.04.10 18:59:41.
