data_PCOD8157970
_publ_section_title
;
Structure prediction by ZEFSAII (Michael W. Deem and Ramdas Pophale) SiO2 
 PCOD8157970
Probable space group: C 2 2 21
;
_chemical_formula_sum "Si O2"
_cell_formula_units_Z 48
_cell_length_a 15.803846
_cell_length_b 8.496680
_cell_length_c 18.617904
_cell_angle_alpha 90.000000
_cell_angle_beta 90.000000
_cell_angle_gamma 90.000000
_cell_volume 2500.016287
_symmetry_space_group_name_H-M "C 2 2 21"
_symmetry_group_IT_number 20
_symmetry_cell_setting 'orthorhombic'
loop_
_space_group_symop_operation_xyz
x,y,z
-x,-y,1/2+z
x,-y,-z
-x,y,1/2-z
1/2+x,1/2+y,z
1/2-x,1/2-y,1/2+z
1/2+x,1/2-y,-z
1/2-x,1/2+y,1/2-z
loop_
_atom_site_type_symbol
_atom_site_label
_atom_site_fract_x
_atom_site_fract_y
_atom_site_fract_z
Si Si1 0.755362 0.154484 0.795282
Si Si2 0.995917 0.857845 0.674288
Si Si3 0.077558 0.800082 0.210628
Si Si4 0.823805 0.191192 0.576492
Si Si5 0.842643 0.818651 0.584024
Si Si6 0.314033 0.321429 0.832994
O O1 0.847534 0.205591 0.768224
O O2 0.732150 0.240512 0.869746
O O3 0.686456 0.198839 0.733962
O O4 0.756883 0.968452 0.807784
O O5 0.934689 0.774021 0.616863
O O6 0.000000 0.762409 0.750000
O O7 0.091250 0.870951 0.643475
O O8 0.953562 0.024146 0.693550
O O9 0.109555 0.731339 0.133796
O O10 0.000000 0.707234 0.250000
O O11 0.843068 0.251557 0.496496
O O12 0.729078 0.244047 0.597285
O O13 0.827223 0.003835 0.582010
#
# Coordination Sequence:
#
# PCOD8157970 Si02
#       6
#     8   8   8   8   8   8
#     4  11  19  32  59  84 111 144 180 235 276 339
#     4  10  16  34  59  83 106 143 192 236 263 339
#     4   9  16  32  55  82 105 133 193 237 261 318
#     4   9  21  37  56  81 113 152 185 235 286 344
#     4  10  20  38  58  78 115 152 188 230 294 326
#     4  11  20  34  60  86 111 142 191 226 284 330
#
# _framework density 19.199874000000001
#
# number of rings (size 3 to 8) (size 9 to 14) (size 15 to 20)
#    0.000    2.000    5.000    2.000    0.000    0.667 
#    3.000    1.667   22.000    0.000    0.000    0.000 
#    0.000    0.000    0.000    0.000    0.000    0.000 
#
# Total GULP energy -297340.153094 kJ/mol
# GULP energy per Si atom -12389.173046 kJ/mol
# Density = 1.915617 g / cm^3
# Si number density = 19.199874 Si / 1000 Ang^3
#
#
#
# Elastic Constant Matrix: (Units=GPa)
#
#
# Indices 1 2 3 4 5 6 
#
# 1 139.2628 23.5136 86.9615 0.0000 0.0000 0.0000
# 2 23.5136 32.4334 25.4624 0.0000 0.0000 0.0000
# 3 86.9615 25.4624 180.7153 0.0000 0.0000 0.0000
# 4 0.0000 0.0000 0.0000 23.0259 0.0000 0.0000
# 5 0.0000 0.0000 0.0000 0.0000 32.5734 0.0000
# 6 0.0000 0.0000 0.0000 0.0000 0.0000 23.8491
#
#
#
# Elastic Compliance Matrix: (Units=1/GPa)
#
#
# Indices 1 2 3 4 5 6 
#
# 1 0.010750 -0.004197 -0.004582 0.000000 0.000000 0.000000
# 2 -0.004197 0.036305 -0.003096 0.000000 0.000000 0.000000
# 3 -0.004582 -0.003096 0.008175 0.000000 0.000000 0.000000
# 4 0.000000 0.000000 0.000000 0.043429 0.000000 0.000000
# 5 0.000000 0.000000 0.000000 0.000000 0.030700 0.000000
# 6 0.000000 0.000000 0.000000 0.000000 0.000000 0.041930
#
#
# Mechanical properties :
#
#
# Convention : Reuss Voigt Hill
#
# Bulk Modulus (GPa) = 31.76473 69.36517 50.56495
# Shear Modulus (GPa) = 24.32707 30.32130 27.32418
#
# Velocity S-wave (km/s) = 3.56342 3.97828 3.77655
# Velocity P-wave (km/s) = 5.78885 7.57025 6.73867
#
# Compressibility (1/GPa) = 0.03148146
#
# Stress axis : x y z
#
# Youngs Moduli (GPa) = 93.02028 27.54413 122.33057
#
# Poissons Ratio (x) = 0.11560 0.56050
# Poissons Ratio (y) = 0.39038 0.37872
# Poissons Ratio (z) = 0.42620 0.08527
#
# Static dielectric constant tensor:
#      x y z
#    x 3.841810 0.000000 0.000000 
#    y 0.000000 3.192900 0.000000 
#    z 0.000000 0.000000 4.024860 
# 
# 
# High freq. dielectric constant tensor:
#      x y z
#    x 1.751340 0.000000 0.000000 
#    y 0.000000 1.706420 0.000000 
#    z 0.000000 0.000000 1.747010 
# 
# From -- ./inp_files/27447.got.cif
#   From: 2010.03.12/outbox.cif.g09.slc.cpg/sg20_14_cif.got.tgz:27447.got - 2010.04.14 01:38:04.
