data_PCOD8157023
_publ_section_title
;
Structure prediction by ZEFSAII (Michael W. Deem and Ramdas Pophale) SiO2 
 PCOD8157023
Probable space group: P 21 21 21
;
_chemical_formula_sum "Si O2"
_cell_formula_units_Z 20
_cell_length_a 5.175401
_cell_length_b 18.115100
_cell_length_c 9.011490
_cell_angle_alpha 90.000000
_cell_angle_beta 90.000000
_cell_angle_gamma 90.000000
_cell_volume 844.853381
_symmetry_space_group_name_H-M "P 21 21 21"
_symmetry_group_IT_number 19
_symmetry_cell_setting 'orthorhombic'
loop_
_space_group_symop_operation_xyz
x,y,z
1/2-x,-y,1/2+z
1/2+x,1/2-y,-z
-x,1/2+y,1/2-z
loop_
_atom_site_type_symbol
_atom_site_label
_atom_site_fract_x
_atom_site_fract_y
_atom_site_fract_z
Si Si1 0.460125 0.284120 0.942109
Si Si2 0.087347 0.292717 0.347868
Si Si3 0.513370 0.482765 0.623931
Si Si4 0.412614 0.839932 0.052921
Si Si5 0.007957 0.543763 0.467877
O O1 0.581634 0.265042 0.784161
O O2 0.423820 0.370509 0.961887
O O3 0.174959 0.247698 0.945003
O O4 0.098025 0.244867 0.497781
O O5 0.340412 0.345204 0.337352
O O6 0.848798 0.350745 0.351754
O O7 0.571706 0.398238 0.579749
O O8 0.736856 0.533664 0.553373
O O9 0.513315 0.489089 0.801782
O O10 0.235032 0.504149 0.558728
#
# Coordination Sequence:
#
# PCOD8157023 Si02
#       5
#     4   4   4   4   4
#     4  12  26  44  68  98 139 175 223 286 346 409
#     4  10  21  39  65  97 126 165 223 266 333 396
#     4  12  26  47  72 102 147 182 237 288 347 426
#     4  10  21  39  68  94 124 171 218 277 323 394
#     4  12  28  47  71 105 140 191 231 287 353 417
#
# _framework density 23.672747000000001
#
# number of rings (size 3 to 8) (size 9 to 14) (size 15 to 20)
#    0.000    0.800    2.000    4.800    0.000    9.600 
#    0.000    0.000    0.000    0.000    0.000    0.000 
#    0.000    0.000    0.000    0.000    0.000    0.000 
#
# Total GULP energy -247981.243871 kJ/mol
# GULP energy per Si atom -12399.062194 kJ/mol
# Density = 2.361887 g / cm^3
# Si number density = 23.672747 Si / 1000 Ang^3
#
#
#
# Elastic Constant Matrix: (Units=GPa)
#
#
# Indices 1 2 3 4 5 6 
#
# 1 156.1367 10.5029 25.9955 0.0000 0.0000 0.0000
# 2 10.5029 67.8132 13.8935 0.0000 0.0000 0.0000
# 3 25.9955 13.8935 101.2759 0.0000 0.0000 0.0000
# 4 0.0000 0.0000 0.0000 33.7347 0.0000 0.0000
# 5 0.0000 0.0000 0.0000 0.0000 28.8356 0.0000
# 6 0.0000 0.0000 0.0000 0.0000 0.0000 32.3198
#
#
#
# Elastic Compliance Matrix: (Units=1/GPa)
#
#
# Indices 1 2 3 4 5 6 
#
# 1 0.006723 -0.000708 -0.001629 0.000000 0.000000 0.000000
# 2 -0.000708 0.015247 -0.001910 0.000000 0.000000 0.000000
# 3 -0.001629 -0.001910 0.010554 0.000000 0.000000 0.000000
# 4 0.000000 0.000000 0.000000 0.029643 0.000000 0.000000
# 5 0.000000 0.000000 0.000000 0.000000 0.034679 0.000000
# 6 0.000000 0.000000 0.000000 0.000000 0.000000 0.030941
#
#
# Mechanical properties :
#
#
# Convention : Reuss Voigt Hill
#
# Bulk Modulus (GPa) = 41.61109 47.33440 44.47274
# Shear Modulus (GPa) = 34.65209 37.30029 35.97619
#
# Velocity S-wave (km/s) = 3.83011 3.97377 3.90260
# Velocity P-wave (km/s) = 6.09717 6.41040 6.25574
#
# Compressibility (1/GPa) = 0.02403205
#
# Stress axis : x y z
#
# Youngs Moduli (GPa) = 148.73413 65.58528 94.74996
#
# Poissons Ratio (x) = 0.04641 0.15432
# Poissons Ratio (y) = 0.10525 0.18098
# Poissons Ratio (z) = 0.24224 0.12527
#
# Static dielectric constant tensor:
#      x y z
#    x 4.880050 0.000000 0.000000 
#    y 0.000000 4.054330 0.000000 
#    z 0.000000 0.000000 4.127600 
# 
# 
# High freq. dielectric constant tensor:
#      x y z
#    x 1.964120 0.000000 0.000000 
#    y 0.000000 1.936210 0.000000 
#    z 0.000000 0.000000 1.931030 
# 
# From -- ./inp_files/345.got.cif
#   From: 2010.03.12/outbox.cif.g09.slc.cpg/sg19_1_cif.got.tgz:345.got - 2010.04.10 18:59:41.
