data_PCOD8157577
_publ_section_title
;
Structure prediction by ZEFSAII (Michael W. Deem and Ramdas Pophale) SiO2 
 PCOD8157577
Probable space group: P 21 21 21
;
_chemical_formula_sum "Si O2"
_cell_formula_units_Z 32
_cell_length_a 8.214106
_cell_length_b 12.609891
_cell_length_c 15.315928
_cell_angle_alpha 90.000000
_cell_angle_beta 90.000000
_cell_angle_gamma 90.000000
_cell_volume 1586.408220
_symmetry_space_group_name_H-M "P 21 21 21"
_symmetry_group_IT_number 19
_symmetry_cell_setting 'orthorhombic'
loop_
_space_group_symop_operation_xyz
x,y,z
1/2-x,-y,1/2+z
1/2+x,1/2-y,-z
-x,1/2+y,1/2-z
loop_
_atom_site_type_symbol
_atom_site_label
_atom_site_fract_x
_atom_site_fract_y
_atom_site_fract_z
Si Si1 0.281405 0.219969 0.111204
Si Si2 0.966244 0.347980 0.055619
Si Si3 0.885094 0.083938 0.789226
Si Si4 0.317542 0.456159 0.566983
Si Si5 0.168180 0.429708 0.378255
Si Si6 0.756725 0.390638 0.212224
Si Si7 0.573123 0.423186 0.793229
Si Si8 0.930443 0.243326 0.333267
O O1 0.368477 0.294526 0.181561
O O2 0.235843 0.107014 0.153646
O O3 0.115326 0.274268 0.081227
O O4 0.408205 0.196319 0.036063
O O5 0.813557 0.336793 0.121785
O O6 0.025971 0.469686 0.050670
O O7 0.815191 0.072209 0.691642
O O8 0.077121 0.060391 0.789838
O O9 0.796349 0.004268 0.856494
O O10 0.224751 0.444605 0.476561
O O11 0.371009 0.337908 0.593255
O O12 0.062910 0.534209 0.359189
O O13 0.062451 0.322734 0.374042
O O14 0.886052 0.486121 0.223507
O O15 0.777749 0.309044 0.293306
O O16 0.512549 0.317577 0.746556
#
# Coordination Sequence:
#
# PCOD8157577 Si02
#       8
#     4   4   4   4   4   4   4   4
#     4  11  23  39  66  95 130 164 216 268 323 381
#     4  11  23  39  64  98 129 169 217 270 325 382
#     4  11  24  43  64 101 130 166 223 269 322 389
#     4  11  25  45  67  95 137 171 215 271 327 393
#     4  11  25  43  68  94 129 176 216 265 332 388
#     4  11  24  40  67  95 131 171 218 268 323 388
#     4  11  21  43  67  88 126 177 209 266 321 384
#     4  11  21  48  67  88 132 178 212 263 329 389
#
# _framework density 20.171351999999999
#
# number of rings (size 3 to 8) (size 9 to 14) (size 15 to 20)
#    0.000    1.000    5.000    2.250    7.000    3.000 
#    4.500    0.000    0.000    0.000    0.000    0.000 
#    0.000    0.000    0.000    0.000    0.000    0.000 
#
# Total GULP energy -396821.747963 kJ/mol
# GULP energy per Si atom -12400.679624 kJ/mol
# Density = 2.012544 g / cm^3
# Si number density = 20.171352 Si / 1000 Ang^3
#
#
#
# Elastic Constant Matrix: (Units=GPa)
#
#
# Indices 1 2 3 4 5 6 
#
# 1 78.9627 12.7465 23.7148 0.0000 0.0000 0.0000
# 2 12.7465 75.7007 22.7666 0.0000 0.0000 0.0000
# 3 23.7148 22.7666 92.8928 0.0000 0.0000 0.0000
# 4 0.0000 0.0000 0.0000 31.0207 0.0000 0.0000
# 5 0.0000 0.0000 0.0000 0.0000 37.5048 0.0000
# 6 0.0000 0.0000 0.0000 0.0000 0.0000 22.1824
#
#
#
# Elastic Compliance Matrix: (Units=1/GPa)
#
#
# Indices 1 2 3 4 5 6 
#
# 1 0.013846 -0.001369 -0.003199 0.000000 0.000000 0.000000
# 2 -0.001369 0.014396 -0.003179 0.000000 0.000000 0.000000
# 3 -0.003199 -0.003179 0.012361 0.000000 0.000000 0.000000
# 4 0.000000 0.000000 0.000000 0.032236 0.000000 0.000000
# 5 0.000000 0.000000 0.000000 0.000000 0.026663 0.000000
# 6 0.000000 0.000000 0.000000 0.000000 0.000000 0.045081
#
#
# Mechanical properties :
#
#
# Convention : Reuss Voigt Hill
#
# Bulk Modulus (GPa) = 39.82648 40.66799 40.24724
# Shear Modulus (GPa) = 29.68271 30.69679 30.18975
#
# Velocity S-wave (km/s) = 3.84021 3.90526 3.87287
# Velocity P-wave (km/s) = 6.28092 6.36708 6.32415
#
# Compressibility (1/GPa) = 0.02510892
#
# Stress axis : x y z
#
# Youngs Moduli (GPa) = 72.22275 69.46142 80.90023
#
# Poissons Ratio (x) = 0.09511 0.25882
# Poissons Ratio (y) = 0.09889 0.25716
# Poissons Ratio (z) = 0.23106 0.22080
#
# Static dielectric constant tensor:
#      x y z
#    x 3.633600 0.000000 0.000000 
#    y 0.000000 3.884080 0.000000 
#    z 0.000000 0.000000 3.672790 
# 
# 
# High freq. dielectric constant tensor:
#      x y z
#    x 1.784560 0.000000 0.000000 
#    y 0.000000 1.798100 0.000000 
#    z 0.000000 0.000000 1.790620 
# 
# From -- ./inp_files/3999.got.cif
#   From: 2010.03.12/outbox.cif.g09.slc.cpg/sg19_2_cif.got.tgz:3999.got - 2010.04.10 18:59:41.
