data_PCOD8157810
_publ_section_title
;
Structure prediction by ZEFSAII (Michael W. Deem and Ramdas Pophale) SiO2 
 PCOD8157810
Probable space group: P 21 21 21
;
_chemical_formula_sum "Si O2"
_cell_formula_units_Z 24
_cell_length_a 11.497416
_cell_length_b 9.979094
_cell_length_c 9.856858
_cell_angle_alpha 90.000000
_cell_angle_beta 90.000000
_cell_angle_gamma 90.000000
_cell_volume 1130.914725
_symmetry_space_group_name_H-M "P 21 21 21"
_symmetry_group_IT_number 19
_symmetry_cell_setting 'orthorhombic'
loop_
_space_group_symop_operation_xyz
x,y,z
1/2-x,-y,1/2+z
1/2+x,1/2-y,-z
-x,1/2+y,1/2-z
loop_
_atom_site_type_symbol
_atom_site_label
_atom_site_fract_x
_atom_site_fract_y
_atom_site_fract_z
Si Si1 0.202269 0.219595 0.898439
Si Si2 0.577704 0.542795 0.026739
Si Si3 0.288005 0.798918 0.869792
Si Si4 0.416511 0.058985 0.787119
Si Si5 0.345415 0.644444 0.130606
Si Si6 0.677278 0.092369 0.858898
O O1 0.123389 0.108329 0.970313
O O2 0.132719 0.277258 0.770192
O O3 0.326670 0.161725 0.854212
O O4 0.224160 0.336538 0.006134
O O5 0.660601 0.638455 0.114476
O O6 0.452526 0.546990 0.097435
O O7 0.570614 0.592262 0.871736
O O8 0.376343 0.906131 0.805811
O O9 0.277930 0.670749 0.773288
O O10 0.335115 0.757422 0.016245
O O11 0.538353 0.080720 0.861979
O O12 0.228839 0.556828 0.144135
#
# Coordination Sequence:
#
# PCOD8157810 Si02
#       6
#     4   4   4   4   4   4
#     4  11  27  46  70 107 141 177 239 288 347 413
#     4  11  25  47  72  99 142 190 225 290 349 407
#     4  11  25  46  71 101 137 184 233 278 351 414
#     4  11  25  47  76  96 139 193 226 284 356 408
#     4  12  27  43  71 106 139 177 237 288 337 413
#     4  12  27  43  76 105 138 183 232 290 344 415
#
# _framework density 21.221757
#
# number of rings (size 3 to 8) (size 9 to 14) (size 15 to 20)
#    0.000    0.667    5.000    1.000    9.333    1.333 
#    0.000    0.000    0.000    0.000    0.000    0.000 
#    0.000    0.000    0.000    0.000    0.000    0.000 
#
# Total GULP energy -297823.689368 kJ/mol
# GULP energy per Si atom -12409.320390 kJ/mol
# Density = 2.117346 g / cm^3
# Si number density = 21.221757 Si / 1000 Ang^3
#
#
#
# Elastic Constant Matrix: (Units=GPa)
#
#
# Indices 1 2 3 4 5 6 
#
# 1 119.7389 31.6883 27.3431 0.0000 0.0000 0.0000
# 2 31.6883 67.1215 18.4829 0.0000 0.0000 0.0000
# 3 27.3431 18.4829 111.5992 0.0000 0.0000 0.0000
# 4 0.0000 0.0000 0.0000 43.6659 0.0000 0.0000
# 5 0.0000 0.0000 0.0000 0.0000 32.1323 0.0000
# 6 0.0000 0.0000 0.0000 0.0000 0.0000 18.5595
#
#
#
# Elastic Compliance Matrix: (Units=1/GPa)
#
#
# Indices 1 2 3 4 5 6 
#
# 1 0.009850 -0.004176 -0.001722 0.000000 0.000000 0.000000
# 2 -0.004176 0.017381 -0.001855 0.000000 0.000000 0.000000
# 3 -0.001722 -0.001855 0.009690 0.000000 0.000000 0.000000
# 4 0.000000 0.000000 0.000000 0.022901 0.000000 0.000000
# 5 0.000000 0.000000 0.000000 0.000000 0.031121 0.000000
# 6 0.000000 0.000000 0.000000 0.000000 0.000000 0.053881
#
#
# Mechanical properties :
#
#
# Convention : Reuss Voigt Hill
#
# Bulk Modulus (GPa) = 46.69818 50.38757 48.54288
# Shear Modulus (GPa) = 29.85643 33.60122 31.72883
#
# Velocity S-wave (km/s) = 3.75491 3.98344 3.87086
# Velocity P-wave (km/s) = 6.39154 6.70462 6.54995
#
# Compressibility (1/GPa) = 0.02141411
#
# Stress axis : x y z
#
# Youngs Moduli (GPa) = 101.52457 57.53474 103.20173
#
# Poissons Ratio (x) = 0.24027 0.17768
# Poissons Ratio (y) = 0.42397 0.19148
# Poissons Ratio (z) = 0.17479 0.10675
#
# Static dielectric constant tensor:
#      x y z
#    x 3.775390 0.000000 0.000000 
#    y 0.000000 3.845080 0.000000 
#    z 0.000000 0.000000 3.927640 
# 
# 
# High freq. dielectric constant tensor:
#      x y z
#    x 1.832630 0.000000 0.000000 
#    y 0.000000 1.840940 0.000000 
#    z 0.000000 0.000000 1.844740 
# 
# From -- ./inp_files/2674.got.cif
#   From: 2010.03.12/outbox.cif.g09.slc.cpg/sg19_2_cif.got.tgz:2674.got - 2010.04.10 18:59:41.
