data_PCOD8157732
_publ_section_title
;
Structure prediction by ZEFSAII (Michael W. Deem and Ramdas Pophale) SiO2 
 PCOD8157732
Probable space group: P 21 21 21
;
_chemical_formula_sum "Si O2"
_cell_formula_units_Z 20
_cell_length_a 6.518336
_cell_length_b 17.772681
_cell_length_c 7.663493
_cell_angle_alpha 90.000000
_cell_angle_beta 90.000000
_cell_angle_gamma 90.000000
_cell_volume 887.802685
_symmetry_space_group_name_H-M "P 21 21 21"
_symmetry_group_IT_number 19
_symmetry_cell_setting 'orthorhombic'
loop_
_space_group_symop_operation_xyz
x,y,z
1/2-x,-y,1/2+z
1/2+x,1/2-y,-z
-x,1/2+y,1/2-z
loop_
_atom_site_type_symbol
_atom_site_label
_atom_site_fract_x
_atom_site_fract_y
_atom_site_fract_z
Si Si1 0.225623 0.866996 0.949208
Si Si2 0.664596 0.082343 0.284962
Si Si3 0.010752 0.186498 0.139464
Si Si4 0.008229 0.988219 0.456506
Si Si5 0.306227 0.159555 0.833999
O O1 0.334489 0.816550 0.802531
O O2 0.981261 0.870095 0.914333
O O3 0.311694 0.951377 0.946733
O O4 0.269252 0.827554 0.135455
O O5 0.808104 0.138342 0.176227
O O6 0.793487 0.022412 0.394141
O O7 0.513521 0.038444 0.155061
O O8 0.952222 0.272717 0.104566
O O9 0.113706 0.153504 0.964696
O O10 0.066119 0.917751 0.335314
#
# Coordination Sequence:
#
# PCOD8157732 Si02
#       5
#     4   4   4   4   4
#     4  11  26  47  72 104 147 188 245 302 364 439
#     4  11  24  46  70 109 144 190 246 299 366 438
#     4  11  28  47  68 107 147 189 246 298 365 449
#     4  11  24  43  74 105 144 187 247 299 366 432
#     4  12  26  47  76 101 150 194 236 308 369 428
#
# _framework density 22.527529000000001
#
# number of rings (size 3 to 8) (size 9 to 14) (size 15 to 20)
#    0.000    0.800    2.000    3.600   11.200    0.000 
#    3.600    0.000    0.000    0.000    0.000    0.000 
#    0.000    0.000    0.000    0.000    0.000    0.000 
#
# Total GULP energy -248174.869754 kJ/mol
# GULP energy per Si atom -12408.743488 kJ/mol
# Density = 2.247626 g / cm^3
# Si number density = 22.527529 Si / 1000 Ang^3
#
#
#
# Elastic Constant Matrix: (Units=GPa)
#
#
# Indices 1 2 3 4 5 6 
#
# 1 119.9526 27.9516 49.8270 0.0000 0.0000 0.0000
# 2 27.9516 80.8500 8.5757 0.0000 0.0000 0.0000
# 3 49.8270 8.5757 149.2201 0.0000 0.0000 0.0000
# 4 0.0000 0.0000 0.0000 29.0616 0.0000 0.0000
# 5 0.0000 0.0000 0.0000 0.0000 38.2863 0.0000
# 6 0.0000 0.0000 0.0000 0.0000 0.0000 36.3921
#
#
#
# Elastic Compliance Matrix: (Units=1/GPa)
#
#
# Indices 1 2 3 4 5 6 
#
# 1 0.010473 -0.003270 -0.003309 0.000000 0.000000 0.000000
# 2 -0.003270 0.013465 0.000318 0.000000 0.000000 0.000000
# 3 -0.003309 0.000318 0.007788 0.000000 0.000000 0.000000
# 4 0.000000 0.000000 0.000000 0.034410 0.000000 0.000000
# 5 0.000000 0.000000 0.000000 0.000000 0.026119 0.000000
# 6 0.000000 0.000000 0.000000 0.000000 0.000000 0.027479
#
#
# Mechanical properties :
#
#
# Convention : Reuss Voigt Hill
#
# Bulk Modulus (GPa) = 52.07084 58.08125 55.07605
# Shear Modulus (GPa) = 36.06006 38.32590 37.19298
#
# Velocity S-wave (km/s) = 4.00523 4.12915 4.06766
# Velocity P-wave (km/s) = 6.67485 6.96932 6.82368
#
# Compressibility (1/GPa) = 0.01920461
#
# Stress axis : x y z
#
# Youngs Moduli (GPa) = 95.48198 74.26502 128.39864
#
# Poissons Ratio (x) = 0.24283 0.42490
# Poissons Ratio (y) = 0.31221 -0.04083
# Poissons Ratio (z) = 0.31597 -0.02362
#
# Static dielectric constant tensor:
#      x y z
#    x 4.123900 0.000000 0.000000 
#    y 0.000000 3.996860 0.000000 
#    z 0.000000 0.000000 4.142830 
# 
# 
# High freq. dielectric constant tensor:
#      x y z
#    x 1.892340 0.000000 0.000000 
#    y 0.000000 1.888630 0.000000 
#    z 0.000000 0.000000 1.898550 
# 
# From -- ./inp_files/315.got.cif
#   From: 2010.03.12/outbox.cif.g09.slc.cpg/sg19_1_cif.got.tgz:315.got - 2010.04.10 18:59:41.
