data_PCOD8157570
_publ_section_title
;
Structure prediction by ZEFSAII (Michael W. Deem and Ramdas Pophale) SiO2 
 PCOD8157570
Probable space group: P 21 21 21
;
_chemical_formula_sum "Si O2"
_cell_formula_units_Z 24
_cell_length_a 14.511798
_cell_length_b 4.933150
_cell_length_c 15.879192
_cell_angle_alpha 90.000000
_cell_angle_beta 90.000000
_cell_angle_gamma 90.000000
_cell_volume 1136.773512
_symmetry_space_group_name_H-M "P 21 21 21"
_symmetry_group_IT_number 19
_symmetry_cell_setting 'orthorhombic'
loop_
_space_group_symop_operation_xyz
x,y,z
1/2-x,-y,1/2+z
1/2+x,1/2-y,-z
-x,1/2+y,1/2-z
loop_
_atom_site_type_symbol
_atom_site_label
_atom_site_fract_x
_atom_site_fract_y
_atom_site_fract_z
Si Si1 0.999603 0.498824 0.806720
Si Si2 0.680346 0.492336 0.412235
Si Si3 0.194329 0.378431 0.848629
Si Si4 0.938864 0.797782 0.244295
Si Si5 0.765238 0.000431 0.333049
Si Si6 0.301290 0.859406 0.899809
O O1 0.915282 0.574456 0.866821
O O2 0.031130 0.773304 0.760483
O O3 0.084446 0.384627 0.862821
O O4 0.713259 0.795036 0.394701
O O5 0.661989 0.462263 0.511182
O O6 0.760597 0.291749 0.378553
O O7 0.212379 0.486658 0.754996
O O8 0.232303 0.076423 0.858307
O O9 0.245017 0.580461 0.913400
O O10 0.870071 0.907565 0.316643
O O11 0.887599 0.689026 0.161317
O O12 0.996503 0.548754 0.282958
#
# Coordination Sequence:
#
# PCOD8157570 Si02
#       6
#     4   4   4   4   4   4
#     4  12  22  39  69 100 127 166 220 263 316 397
#     4  12  23  43  63 100 135 164 214 274 332 372
#     4  11  21  42  66  94 125 175 215 249 328 396
#     4  11  23  44  69  94 123 173 233 263 308 390
#     4  11  22  40  71  89 126 174 214 260 322 398
#     4  11  25  42  66  93 136 172 208 279 326 367
#
# _framework density 21.112386999999998
#
# number of rings (size 3 to 8) (size 9 to 14) (size 15 to 20)
#    0.000    0.667    3.333    7.000    0.000    0.000 
#    9.000    0.000    0.000    0.000    0.000    0.000 
#    0.000    0.000    0.000    0.000    0.000    0.000 
#
# Total GULP energy -297711.847803 kJ/mol
# GULP energy per Si atom -12404.660325 kJ/mol
# Density = 2.106433 g / cm^3
# Si number density = 21.112387 Si / 1000 Ang^3
#
#
#
# Elastic Constant Matrix: (Units=GPa)
#
#
# Indices 1 2 3 4 5 6 
#
# 1 111.9648 29.4390 43.3615 0.0000 0.0000 0.0000
# 2 29.4390 105.7476 22.5310 0.0000 0.0000 0.0000
# 3 43.3615 22.5310 82.0812 0.0000 0.0000 0.0000
# 4 0.0000 0.0000 0.0000 31.8396 0.0000 0.0000
# 5 0.0000 0.0000 0.0000 0.0000 17.5943 0.0000
# 6 0.0000 0.0000 0.0000 0.0000 0.0000 45.3134
#
#
#
# Elastic Compliance Matrix: (Units=1/GPa)
#
#
# Indices 1 2 3 4 5 6 
#
# 1 0.011632 -0.002049 -0.005583 0.000000 0.000000 0.000000
# 2 -0.002049 0.010405 -0.001774 0.000000 0.000000 0.000000
# 3 -0.005583 -0.001774 0.015619 0.000000 0.000000 0.000000
# 4 0.000000 0.000000 0.000000 0.031407 0.000000 0.000000
# 5 0.000000 0.000000 0.000000 0.000000 0.056837 0.000000
# 6 0.000000 0.000000 0.000000 0.000000 0.000000 0.022069
#
#
# Mechanical properties :
#
#
# Convention : Reuss Voigt Hill
#
# Bulk Modulus (GPa) = 53.06244 54.49518 53.77881
# Shear Modulus (GPa) = 28.89162 32.58025 30.73594
#
# Velocity S-wave (km/s) = 3.70329 3.93260 3.81967
# Velocity P-wave (km/s) = 6.59346 6.81824 6.70679
#
# Compressibility (1/GPa) = 0.01884572
#
# Stress axis : x y z
#
# Youngs Moduli (GPa) = 85.96928 96.10979 64.02430
#
# Poissons Ratio (x) = 0.19691 0.35742
# Poissons Ratio (y) = 0.17613 0.11356
# Poissons Ratio (z) = 0.47993 0.17047
#
# Static dielectric constant tensor:
#      x y z
#    x 3.970860 0.000000 0.000000 
#    y 0.000000 4.059300 0.000000 
#    z 0.000000 0.000000 3.571820 
# 
# 
# High freq. dielectric constant tensor:
#      x y z
#    x 1.829710 0.000000 0.000000 
#    y 0.000000 1.852630 0.000000 
#    z 0.000000 0.000000 1.801580 
# 
# From -- ./inp_files/6207.got.cif
#   From: 2010.03.12/outbox.cif.g09.slc.cpg/sg19_4_cif.got.tgz:6207.got - 2010.04.10 18:59:41.
