data_PCOD8157870
_publ_section_title
;
Structure prediction by ZEFSAII (Michael W. Deem and Ramdas Pophale) SiO2 
 PCOD8157870
Probable space group: P 21 21 21
;
_chemical_formula_sum "Si O2"
_cell_formula_units_Z 32
_cell_length_a 18.675071
_cell_length_b 6.638832
_cell_length_c 11.495339
_cell_angle_alpha 90.000000
_cell_angle_beta 90.000000
_cell_angle_gamma 90.000000
_cell_volume 1425.199704
_symmetry_space_group_name_H-M "P 21 21 21"
_symmetry_group_IT_number 19
_symmetry_cell_setting 'orthorhombic'
loop_
_space_group_symop_operation_xyz
x,y,z
1/2-x,-y,1/2+z
1/2+x,1/2-y,-z
-x,1/2+y,1/2-z
loop_
_atom_site_type_symbol
_atom_site_label
_atom_site_fract_x
_atom_site_fract_y
_atom_site_fract_z
Si Si1 0.421160 0.713868 0.075034
Si Si2 0.649990 0.928112 0.892948
Si Si3 0.195440 0.806344 0.316809
Si Si4 0.453938 0.781006 0.612558
Si Si5 0.829629 0.477775 0.783791
Si Si6 0.066069 0.047863 0.356949
Si Si7 0.201048 0.601997 0.559173
Si Si8 0.574742 0.628483 0.068390
O O1 0.373207 0.514111 0.081798
O O2 0.499460 0.681073 0.132113
O O3 0.384998 0.905748 0.134381
O O4 0.440199 0.758876 0.940107
O O5 0.643316 0.810654 0.771732
O O6 0.617354 0.148195 0.875762
O O7 0.733981 0.948659 0.920108
O O8 0.605698 0.809658 0.990732
O O9 0.212000 0.668894 0.426952
O O10 0.267561 0.869525 0.252576
O O11 0.150735 0.001686 0.355245
O O12 0.466690 0.903393 0.731380
O O13 0.523099 0.641817 0.588322
O O14 0.439712 0.928399 0.505712
O O15 0.796277 0.290254 0.853235
O O16 0.866981 0.405821 0.666840
#
# Coordination Sequence:
#
# PCOD8157870 Si02
#       8
#     4   4   4   4   4   4   4   4
#     4  12  27  51  72 109 147 194 250 299 368 440
#     4  12  26  47  73 111 147 192 246 302 377 435
#     4  12  25  48  74 107 143 194 239 307 368 437
#     4  12  24  46  72 115 146 191 239 306 370 432
#     4  12  30  49  74 107 149 197 248 304 364 446
#     4  12  23  44  78 104 150 184 243 301 365 433
#     4  12  28  48  77 107 147 194 246 303 371 436
#     4  12  29  47  76 106 149 198 245 306 367 443
#
# _framework density 22.452991999999998
#
# number of rings (size 3 to 8) (size 9 to 14) (size 15 to 20)
#    0.000    0.000    5.000    4.500    7.000    1.000 
#    0.000    0.000    0.000    0.000    0.000    0.000 
#    0.000    0.000    0.000    0.000    0.000    0.000 
#
# Total GULP energy -396989.909262 kJ/mol
# GULP energy per Si atom -12405.934664 kJ/mol
# Density = 2.240189 g / cm^3
# Si number density = 22.452992 Si / 1000 Ang^3
#
#
#
# Elastic Constant Matrix: (Units=GPa)
#
#
# Indices 1 2 3 4 5 6 
#
# 1 119.1786 35.7969 20.2880 0.0000 0.0000 0.0000
# 2 35.7969 92.1046 25.7145 0.0000 0.0000 0.0000
# 3 20.2880 25.7145 89.2133 0.0000 0.0000 0.0000
# 4 0.0000 0.0000 0.0000 25.5402 0.0000 0.0000
# 5 0.0000 0.0000 0.0000 0.0000 31.0257 0.0000
# 6 0.0000 0.0000 0.0000 0.0000 0.0000 49.1955
#
#
#
# Elastic Compliance Matrix: (Units=1/GPa)
#
#
# Indices 1 2 3 4 5 6 
#
# 1 0.009618 -0.003401 -0.001207 0.000000 0.000000 0.000000
# 2 -0.003401 0.013010 -0.002977 0.000000 0.000000 0.000000
# 3 -0.001207 -0.002977 0.012341 0.000000 0.000000 0.000000
# 4 0.000000 0.000000 0.000000 0.039154 0.000000 0.000000
# 5 0.000000 0.000000 0.000000 0.000000 0.032231 0.000000
# 6 0.000000 0.000000 0.000000 0.000000 0.000000 0.020327
#
#
# Mechanical properties :
#
#
# Convention : Reuss Voigt Hill
#
# Bulk Modulus (GPa) = 50.50401 51.56615 51.03508
# Shear Modulus (GPa) = 33.68122 35.73210 34.70666
#
# Velocity S-wave (km/s) = 3.87728 3.99359 3.93586
# Velocity P-wave (km/s) = 6.52583 6.65440 6.59043
#
# Compressibility (1/GPa) = 0.01980041
#
# Stress axis : x y z
#
# Youngs Moduli (GPa) = 103.97426 76.86355 81.02746
#
# Poissons Ratio (x) = 0.26142 0.09779
# Poissons Ratio (y) = 0.35362 0.24118
# Poissons Ratio (z) = 0.12548 0.22879
#
# Static dielectric constant tensor:
#      x y z
#    x 4.172500 0.000000 0.000000 
#    y 0.000000 4.021180 0.000000 
#    z 0.000000 0.000000 4.038890 
# 
# 
# High freq. dielectric constant tensor:
#      x y z
#    x 1.904600 0.000000 0.000000 
#    y 0.000000 1.892800 0.000000 
#    z 0.000000 0.000000 1.885220 
# 
# From -- ./inp_files/5483.got.cif
#   From: 2010.03.12/outbox.cif.g09.slc.cpg/sg19_3_cif.got.tgz:5483.got - 2010.04.10 18:59:41.
