data_PCOD8157093
_publ_section_title
;
Structure prediction by ZEFSAII (Michael W. Deem and Ramdas Pophale) SiO2 
 PCOD8157093
Probable space group: P 21 21 21
;
_chemical_formula_sum "Si O2"
_cell_formula_units_Z 32
_cell_length_a 11.184163
_cell_length_b 11.920326
_cell_length_c 11.673175
_cell_angle_alpha 90.000000
_cell_angle_beta 90.000000
_cell_angle_gamma 90.000000
_cell_volume 1556.254489
_symmetry_space_group_name_H-M "P 21 21 21"
_symmetry_group_IT_number 19
_symmetry_cell_setting 'orthorhombic'
loop_
_space_group_symop_operation_xyz
x,y,z
1/2-x,-y,1/2+z
1/2+x,1/2-y,-z
-x,1/2+y,1/2-z
loop_
_atom_site_type_symbol
_atom_site_label
_atom_site_fract_x
_atom_site_fract_y
_atom_site_fract_z
Si Si1 0.703214 0.299723 0.268575
Si Si2 0.503955 0.720572 0.072840
Si Si3 0.963490 0.365750 0.329144
Si Si4 0.254063 0.379018 0.912787
Si Si5 0.657532 0.900371 0.179628
Si Si6 0.948302 0.515292 0.670555
Si Si7 0.839940 0.812223 0.348143
Si Si8 0.974512 0.604941 0.424697
O O1 0.622365 0.253804 0.372137
O O2 0.838720 0.303053 0.309858
O O3 0.684972 0.210930 0.165420
O O4 0.665594 0.426538 0.232110
O O5 0.594866 0.824889 0.082628
O O6 0.567029 0.615148 0.137703
O O7 0.476425 0.693912 0.939954
O O8 0.043810 0.360914 0.215613
O O9 0.943929 0.495254 0.353301
O O10 0.247505 0.508731 0.873475
O O11 0.393222 0.345567 0.904202
O O12 0.194789 0.381242 0.038393
O O13 0.561806 0.973582 0.248027
O O14 0.727643 0.815698 0.263019
O O15 0.969278 0.588528 0.559007
O O16 0.869052 0.686305 0.384424
#
# Coordination Sequence:
#
# PCOD8157093 Si02
#       8
#     4   4   4   4   4   4   4   4
#     4  11  23  43  67  96 136 180 218 283 338 400
#     4  10  25  43  68  94 136 178 226 272 345 397
#     4  11  26  43  67 101 138 174 224 290 334 398
#     4  12  23  42  70  96 137 177 221 274 331 410
#     4  11  24  41  67  99 129 180 224 276 331 407
#     4  10  21  43  64  93 130 175 224 272 332 400
#     4  12  25  41  70 101 132 175 227 275 336 402
#     4  11  23  42  63 100 134 175 218 274 337 398
#
# _framework density 20.562190000000001
#
# number of rings (size 3 to 8) (size 9 to 14) (size 15 to 20)
#    0.000    1.000    6.250    0.000    3.500    2.000 
#    0.000    5.000    0.000    0.000    0.000    0.000 
#    0.000    0.000    0.000    0.000    0.000    0.000 
#
# Total GULP energy -396769.058444 kJ/mol
# GULP energy per Si atom -12399.033076 kJ/mol
# Density = 2.051539 g / cm^3
# Si number density = 20.562190 Si / 1000 Ang^3
#
#
#
# Elastic Constant Matrix: (Units=GPa)
#
#
# Indices 1 2 3 4 5 6 
#
# 1 79.6441 17.6314 25.9437 0.0000 0.0000 0.0000
# 2 17.6314 86.2993 28.4789 0.0000 0.0000 0.0000
# 3 25.9437 28.4789 86.0671 0.0000 0.0000 0.0000
# 4 0.0000 0.0000 0.0000 24.7944 0.0000 0.0000
# 5 0.0000 0.0000 0.0000 0.0000 25.6203 0.0000
# 6 0.0000 0.0000 0.0000 0.0000 0.0000 -21.3693
#
#
#
# Elastic Compliance Matrix: (Units=1/GPa)
#
#
# Indices 1 2 3 4 5 6 
#
# 1 0.014132 -0.001663 -0.003710 0.000000 0.000000 0.000000
# 2 -0.001663 0.013204 -0.003868 0.000000 0.000000 0.000000
# 3 -0.003710 -0.003868 0.014017 0.000000 0.000000 0.000000
# 4 0.000000 0.000000 0.000000 0.040332 0.000000 0.000000
# 5 0.000000 0.000000 0.000000 0.000000 0.039032 0.000000
# 6 0.000000 0.000000 0.000000 0.000000 0.000000 -0.046796
#
#
# Mechanical properties :
#
#
# Convention : Reuss Voigt Hill
#
# Bulk Modulus (GPa) = 43.72157 44.01317 43.86737
# Shear Modulus (GPa) = 49.98742 17.80618 33.89680
#
# Velocity S-wave (km/s) = 4.93590 2.94592 4.06458
# Velocity P-wave (km/s) = 7.33440 5.74654 6.58848
#
# Compressibility (1/GPa) = 0.02287200
#
# Stress axis : x y z
#
# Youngs Moduli (GPa) = 70.75906 75.73634 71.34260
#
# Poissons Ratio (x) = 0.12596 0.26466
# Poissons Ratio (y) = 0.11768 0.27593
# Poissons Ratio (z) = 0.26250 0.29292
#
# Static dielectric constant tensor:
#      x y z
#    x 3.641880 0.000000 0.000000 
#    y 0.000000 3.671920 0.000000 
#    z 0.000000 0.000000 3.865440 
# 
# 
# High freq. dielectric constant tensor:
#      x y z
#    x 1.802830 0.000000 0.000000 
#    y 0.000000 1.805550 0.000000 
#    z 0.000000 0.000000 1.809930 
# 
# From -- ./inp_files/5020.got.cif
#   From: 2010.03.12/outbox.cif.g09.slc.cpg/sg19_3_cif.got.tgz:5020.got - 2010.04.10 18:59:41.
