data_PCOD8157306
_publ_section_title
;
Structure prediction by ZEFSAII (Michael W. Deem and Ramdas Pophale) SiO2 
 PCOD8157306
Probable space group: P 21 21 21
;
_chemical_formula_sum "Si O2"
_cell_formula_units_Z 32
_cell_length_a 25.781689
_cell_length_b 8.790849
_cell_length_c 5.064591
_cell_angle_alpha 90.000000
_cell_angle_beta 90.000000
_cell_angle_gamma 90.000000
_cell_volume 1147.853769
_symmetry_space_group_name_H-M "P 21 21 21"
_symmetry_group_IT_number 19
_symmetry_cell_setting 'orthorhombic'
loop_
_space_group_symop_operation_xyz
x,y,z
1/2-x,-y,1/2+z
1/2+x,1/2-y,-z
-x,1/2+y,1/2-z
loop_
_atom_site_type_symbol
_atom_site_label
_atom_site_fract_x
_atom_site_fract_y
_atom_site_fract_z
Si Si1 0.345271 0.434445 0.995719
Si Si2 0.017279 0.246426 0.554298
Si Si3 0.025933 0.026139 0.144365
Si Si4 0.563162 0.730077 0.466416
Si Si5 0.126815 0.993162 0.902856
Si Si6 0.270500 0.922665 0.753027
Si Si7 0.137199 0.211153 0.475788
Si Si8 0.194835 0.719065 0.007209
O O1 0.400886 0.363650 0.913775
O O2 0.347262 0.615166 0.985459
O O3 0.333177 0.387087 0.294056
O O4 0.302992 0.372868 0.782861
O O5 0.075692 0.189282 0.511980
O O6 0.011651 0.429059 0.552021
O O7 0.990071 0.191893 0.830601
O O8 0.991371 0.150933 0.306352
O O9 0.046789 0.888663 0.320230
O O10 0.080877 0.093636 0.039699
O O11 0.594796 0.642473 0.240849
O O12 0.169303 0.888852 0.064473
O O13 0.159537 0.107282 0.715162
O O14 0.333624 0.876483 0.725805
O O15 0.250898 0.763833 0.889442
O O16 0.257364 0.056229 0.968292
#
# Coordination Sequence:
#
# PCOD8157306 Si02
#       8
#     4   4   4   4   4   4   4   4
#     4  11  27  46  78 112 157 197 251 315 400 461
#     4  11  28  40  69 102 151 186 260 306 381 456
#     4  11  24  42  69  98 141 203 241 312 374 463
#     4  10  23  44  64  99 145 201 238 300 380 464
#     4  10  22  44  70 102 138 197 257 300 377 457
#     4  12  28  49  83 114 149 196 266 325 388 465
#     4  12  28  47  73 117 147 196 261 337 374 466
#     4  11  24  50  76 106 154 202 242 317 392 476
#
# _framework density 27.878115999999999
#
# number of rings (size 3 to 8) (size 9 to 14) (size 15 to 20)
#    0.000    1.000    3.750    0.750    8.750    3.000 
#    0.000    0.000    0.000    0.000    0.000    0.000 
#    0.000    0.000    0.000    0.000    0.000    0.000 
#
# Total GULP energy -396491.021513 kJ/mol
# GULP energy per Si atom -12390.344422 kJ/mol
# Density = 2.781466 g / cm^3
# Si number density = 27.878116 Si / 1000 Ang^3
#
#
#
# Elastic Constant Matrix: (Units=GPa)
#
#
# Indices 1 2 3 4 5 6 
#
# 1 103.3929 7.4846 -20.4246 0.0000 0.0000 0.0000
# 2 7.4846 132.8629 5.6411 0.0000 0.0000 0.0000
# 3 -20.4246 5.6411 73.1453 0.0000 0.0000 0.0000
# 4 0.0000 0.0000 0.0000 30.8689 0.0000 0.0000
# 5 0.0000 0.0000 0.0000 0.0000 33.4597 0.0000
# 6 0.0000 0.0000 0.0000 0.0000 0.0000 33.0157
#
#
#
# Elastic Compliance Matrix: (Units=1/GPa)
#
#
# Indices 1 2 3 4 5 6 
#
# 1 0.010302 -0.000705 0.002931 0.000000 0.000000 0.000000
# 2 -0.000705 0.007599 -0.000783 0.000000 0.000000 0.000000
# 3 0.002931 -0.000783 0.014550 0.000000 0.000000 0.000000
# 4 0.000000 0.000000 0.000000 0.032395 0.000000 0.000000
# 5 0.000000 0.000000 0.000000 0.000000 0.029887 0.000000
# 6 0.000000 0.000000 0.000000 0.000000 0.000000 0.030289
#
#
# Mechanical properties :
#
#
# Convention : Reuss Voigt Hill
#
# Bulk Modulus (GPa) = 28.29798 32.75591 30.52694
# Shear Modulus (GPa) = 37.33720 40.58221 38.95970
#
# Velocity S-wave (km/s) = 3.66362 3.81950 3.74237
# Velocity P-wave (km/s) = 5.29800 5.58808 5.44497
#
# Compressibility (1/GPa) = 0.03533822
#
# Stress axis : x y z
#
# Youngs Moduli (GPa) = 97.06991 131.58769 68.72745
#
# Poissons Ratio (x) = 0.09274 -0.20144
# Poissons Ratio (y) = 0.06841 0.05381
# Poissons Ratio (z) = -0.28451 0.10302
#
# Static dielectric constant tensor:
#      x y z
#    x 6.173720 0.000000 0.000000 
#    y 0.000000 5.565660 0.000000 
#    z 0.000000 0.000000 5.461100 
# 
# 
# High freq. dielectric constant tensor:
#      x y z
#    x 2.141280 0.000000 0.000000 
#    y 0.000000 2.142040 0.000000 
#    z 0.000000 0.000000 2.142660 
# 
# From -- ./inp_files/2327.got.cif
#   From: 2010.03.12/outbox.cif.g09.slc.cpg/sg19_2_cif.got.tgz:2327.got - 2010.04.10 18:59:41.
