data_PCOD8157209
_publ_section_title
;
Structure prediction by ZEFSAII (Michael W. Deem and Ramdas Pophale) SiO2 
 PCOD8157209
Probable space group: P 21 21 21
;
_chemical_formula_sum "Si O2"
_cell_formula_units_Z 32
_cell_length_a 10.606261
_cell_length_b 5.216965
_cell_length_c 23.816505
_cell_angle_alpha 90.000000
_cell_angle_beta 90.000000
_cell_angle_gamma 90.000000
_cell_volume 1317.826582
_symmetry_space_group_name_H-M "P 21 21 21"
_symmetry_group_IT_number 19
_symmetry_cell_setting 'orthorhombic'
loop_
_space_group_symop_operation_xyz
x,y,z
1/2-x,-y,1/2+z
1/2+x,1/2-y,-z
-x,1/2+y,1/2-z
loop_
_atom_site_type_symbol
_atom_site_label
_atom_site_fract_x
_atom_site_fract_y
_atom_site_fract_z
Si Si1 0.740401 0.488758 0.596899
Si Si2 0.317488 0.312632 0.129070
Si Si3 0.152693 0.513608 0.345251
Si Si4 0.788381 0.912720 0.762843
Si Si5 0.002139 0.030346 0.475367
Si Si6 0.588602 0.469952 0.917286
Si Si7 0.494696 0.670844 0.082526
Si Si8 0.472137 0.948640 0.194057
O O1 0.734029 0.769121 0.623888
O O2 0.643093 0.453316 0.546665
O O3 0.875856 0.472527 0.567430
O O4 0.712352 0.263258 0.641742
O O5 0.242905 0.473166 0.177095
O O6 0.228706 0.085609 0.105708
O O7 0.370924 0.485903 0.077254
O O8 0.443018 0.206660 0.160030
O O9 0.168091 0.570987 0.278613
O O10 0.007421 0.536096 0.364296
O O11 0.841915 0.625342 0.772923
O O12 0.910009 0.057027 0.735940
O O13 0.916387 0.251955 0.446259
O O14 0.015279 0.081979 0.541892
O O15 0.944872 0.751579 0.462493
O O16 0.503001 0.734233 0.148073
#
# Coordination Sequence:
#
# PCOD8157209 Si02
#       8
#     4   4   4   4   4   4   4   4
#     4  10  22  41  66  97 129 166 229 269 330 399
#     4  11  26  42  65 101 141 178 220 292 347 406
#     4  10  22  43  68  92 129 177 222 274 322 408
#     4  11  22  39  65  96 131 179 219 281 341 403
#     4  10  25  45  70  97 132 184 218 283 340 403
#     4  10  25  49  65  97 140 174 232 280 334 412
#     4  11  25  40  69 102 129 179 223 282 347 410
#     4  11  23  39  64  98 135 165 229 277 345 401
#
# _framework density 24.282402999999999
#
# number of rings (size 3 to 8) (size 9 to 14) (size 15 to 20)
#    0.000    1.500    2.500    0.750   10.500    0.000 
#    4.500    0.000    0.000    0.000    0.000    0.000 
#    0.000    0.000    0.000    0.000    0.000    0.000 
#
# Total GULP energy -396636.770955 kJ/mol
# GULP energy per Si atom -12394.899092 kJ/mol
# Density = 2.422714 g / cm^3
# Si number density = 24.282403 Si / 1000 Ang^3
#
#
#
# Elastic Constant Matrix: (Units=GPa)
#
#
# Indices 1 2 3 4 5 6 
#
# 1 68.5271 -5.6156 14.5720 0.0000 0.0000 0.0000
# 2 -5.6156 61.2222 -5.5773 0.0000 0.0000 0.0000
# 3 14.5720 -5.5773 65.4270 0.0000 0.0000 0.0000
# 4 0.0000 0.0000 0.0000 22.1506 0.0000 0.0000
# 5 0.0000 0.0000 0.0000 0.0000 22.4086 0.0000
# 6 0.0000 0.0000 0.0000 0.0000 0.0000 22.2133
#
#
#
# Elastic Compliance Matrix: (Units=1/GPa)
#
#
# Indices 1 2 3 4 5 6 
#
# 1 0.015392 0.001108 -0.003334 0.000000 0.000000 0.000000
# 2 0.001108 0.016542 0.001163 0.000000 0.000000 0.000000
# 3 -0.003334 0.001163 0.016126 0.000000 0.000000 0.000000
# 4 0.000000 0.000000 0.000000 0.045146 0.000000 0.000000
# 5 0.000000 0.000000 0.000000 0.000000 0.044626 0.000000
# 6 0.000000 0.000000 0.000000 0.000000 0.000000 0.045018
#
#
# Mechanical properties :
#
#
# Convention : Reuss Voigt Hill
#
# Bulk Modulus (GPa) = 21.76979 22.43718 22.10348
# Shear Modulus (GPa) = 24.96434 26.14098 25.55266
#
# Velocity S-wave (km/s) = 3.20985 3.28463 3.24746
# Velocity P-wave (km/s) = 4.76679 4.86263 4.81495
#
# Compressibility (1/GPa) = 0.04593523
#
# Stress axis : x y z
#
# Youngs Moduli (GPa) = 64.96679 60.45382 62.01218
#
# Poissons Ratio (x) = -0.06699 0.20673
# Poissons Ratio (y) = -0.07199 -0.07214
# Poissons Ratio (z) = 0.21658 -0.07032
#
# Static dielectric constant tensor:
#      x y z
#    x 4.148880 0.000000 0.000000 
#    y 0.000000 4.499030 0.000000 
#    z 0.000000 0.000000 4.359900 
# 
# 
# High freq. dielectric constant tensor:
#      x y z
#    x 1.946490 0.000000 0.000000 
#    y 0.000000 1.971730 0.000000 
#    z 0.000000 0.000000 1.962200 
# 
# From -- ./inp_files/1297.got.cif
#   From: 2010.03.12/outbox.cif.g09.slc.cpg/sg19_1_cif.got.tgz:1297.got - 2010.04.10 18:59:41.
