data_PCOD8157738
_publ_section_title
;
Structure prediction by ZEFSAII (Michael W. Deem and Ramdas Pophale) SiO2 
 PCOD8157738
Probable space group: P 21 21 21
;
_chemical_formula_sum "Si O2"
_cell_formula_units_Z 32
_cell_length_a 20.776924
_cell_length_b 12.740146
_cell_length_c 5.013157
_cell_angle_alpha 90.000000
_cell_angle_beta 90.000000
_cell_angle_gamma 90.000000
_cell_volume 1326.987898
_symmetry_space_group_name_H-M "P 21 21 21"
_symmetry_group_IT_number 19
_symmetry_cell_setting 'orthorhombic'
loop_
_space_group_symop_operation_xyz
x,y,z
1/2-x,-y,1/2+z
1/2+x,1/2-y,-z
-x,1/2+y,1/2-z
loop_
_atom_site_type_symbol
_atom_site_label
_atom_site_fract_x
_atom_site_fract_y
_atom_site_fract_z
Si Si1 0.440024 0.777331 0.573945
Si Si2 0.365043 0.077877 0.813224
Si Si3 0.188838 0.137491 0.332082
Si Si4 0.254406 0.221688 0.840633
Si Si5 0.518510 0.832612 0.073983
Si Si6 0.721785 0.049320 0.263549
Si Si7 0.557645 0.614498 0.173879
Si Si8 0.926109 0.943681 0.663948
O O1 0.376913 0.825660 0.700509
O O2 0.459352 0.832479 0.290189
O O3 0.427859 0.651734 0.549668
O O4 0.497091 0.800363 0.778339
O O5 0.326802 0.186693 0.768501
O O6 0.401287 0.051220 0.540143
O O7 0.312645 0.987736 0.869830
O O8 0.420133 0.078517 0.035076
O O9 0.201467 0.187430 0.621456
O O10 0.244903 0.169401 0.130039
O O11 0.249646 0.345625 0.868723
O O12 0.567672 0.740337 0.160439
O O13 0.556128 0.942362 0.044824
O O14 0.644435 0.050324 0.297175
O O15 0.753971 0.038593 0.554727
O O16 0.482350 0.585530 0.124754
#
# Coordination Sequence:
#
# PCOD8157738 Si02
#       8
#     4   4   4   4   4   4   4   4
#     4  11  24  44  70 107 142 186 242 303 358 443
#     4  12  25  44  72 105 151 178 243 296 369 429
#     4  12  23  44  72 104 136 193 234 293 368 426
#     4  12  26  46  72 105 144 190 241 301 346 440
#     4  11  25  42  70 102 141 186 237 296 369 417
#     4  12  30  49  75 107 144 199 245 296 365 427
#     4  11  25  44  69 107 140 189 227 305 357 428
#     4  11  26  49  76 103 148 189 247 298 360 440
#
# _framework density 24.114761999999999
#
# number of rings (size 3 to 8) (size 9 to 14) (size 15 to 20)
#    0.000    0.500    1.250    6.750    5.250    4.000 
#    0.000    0.000    0.000    0.000    0.000    0.000 
#    0.000    0.000    0.000    0.000    0.000    0.000 
#
# Total GULP energy -396798.465114 kJ/mol
# GULP energy per Si atom -12399.952035 kJ/mol
# Density = 2.405988 g / cm^3
# Si number density = 24.114762 Si / 1000 Ang^3
#
#
#
# Elastic Constant Matrix: (Units=GPa)
#
#
# Indices 1 2 3 4 5 6 
#
# 1 89.4089 23.0168 3.0618 0.0000 0.0000 0.0000
# 2 23.0168 108.6704 10.2747 0.0000 0.0000 0.0000
# 3 3.0618 10.2747 67.3867 0.0000 0.0000 0.0000
# 4 0.0000 0.0000 0.0000 29.3347 0.0000 0.0000
# 5 0.0000 0.0000 0.0000 0.0000 32.0481 0.0000
# 6 0.0000 0.0000 0.0000 0.0000 0.0000 41.8760
#
#
#
# Elastic Compliance Matrix: (Units=1/GPa)
#
#
# Indices 1 2 3 4 5 6 
#
# 1 0.011831 -0.002491 -0.000158 0.000000 0.000000 0.000000
# 2 -0.002491 0.009861 -0.001390 0.000000 0.000000 0.000000
# 3 -0.000158 -0.001390 0.015059 0.000000 0.000000 0.000000
# 4 0.000000 0.000000 0.000000 0.034089 0.000000 0.000000
# 5 0.000000 0.000000 0.000000 0.000000 0.031203 0.000000
# 6 0.000000 0.000000 0.000000 0.000000 0.000000 0.023880
#
#
# Mechanical properties :
#
#
# Convention : Reuss Voigt Hill
#
# Bulk Modulus (GPa) = 34.87597 37.57474 36.22535
# Shear Modulus (GPa) = 34.82872 35.92595 35.37733
#
# Velocity S-wave (km/s) = 3.80451 3.86397 3.83435
# Velocity P-wave (km/s) = 5.81317 5.96007 5.88708
#
# Compressibility (1/GPa) = 0.02867304
#
# Stress axis : x y z
#
# Youngs Moduli (GPa) = 84.52208 101.40757 66.40599
#
# Poissons Ratio (x) = 0.25260 0.01048
# Poissons Ratio (y) = 0.21054 0.09233
# Poissons Ratio (z) = 0.01333 0.14100
#
# Static dielectric constant tensor:
#      x y z
#    x 4.283780 0.000000 0.000000 
#    y 0.000000 4.631760 0.000000 
#    z 0.000000 0.000000 4.448850 
# 
# 
# High freq. dielectric constant tensor:
#      x y z
#    x 1.955250 0.000000 0.000000 
#    y 0.000000 1.971370 0.000000 
#    z 0.000000 0.000000 1.956160 
# 
# From -- ./inp_files/1965.got.cif
#   From: 2010.03.12/outbox.cif.g09.slc.cpg/sg19_1_cif.got.tgz:1965.got - 2010.04.10 18:59:41.
