data_PCOD8157158
_publ_section_title
;
Structure prediction by ZEFSAII (Michael W. Deem and Ramdas Pophale) SiO2 
 PCOD8157158
Probable space group: P 21 21 21
;
_chemical_formula_sum "Si O2"
_cell_formula_units_Z 20
_cell_length_a 17.080654
_cell_length_b 7.496384
_cell_length_c 7.129607
_cell_angle_alpha 90.000000
_cell_angle_beta 90.000000
_cell_angle_gamma 90.000000
_cell_volume 912.897277
_symmetry_space_group_name_H-M "P 21 21 21"
_symmetry_group_IT_number 19
_symmetry_cell_setting 'orthorhombic'
loop_
_space_group_symop_operation_xyz
x,y,z
1/2-x,-y,1/2+z
1/2+x,1/2-y,-z
-x,1/2+y,1/2-z
loop_
_atom_site_type_symbol
_atom_site_label
_atom_site_fract_x
_atom_site_fract_y
_atom_site_fract_z
Si Si1 0.432014 0.129218 0.933013
Si Si2 0.837701 0.461115 0.701425
Si Si3 0.223799 0.734880 0.302880
Si Si4 0.422188 0.850917 0.639113
Si Si5 0.769792 0.831828 0.283888
O O1 0.368361 0.223860 0.795690
O O2 0.507705 0.250766 0.965758
O O3 0.458521 0.957143 0.814471
O O4 0.401367 0.079408 0.138747
O O5 0.778136 0.610645 0.787427
O O6 0.881480 0.523020 0.514625
O O7 0.786593 0.282820 0.642620
O O8 0.242714 0.743166 0.520076
O O9 0.246522 0.542279 0.221469
O O10 0.361419 0.712513 0.736699
#
# Coordination Sequence:
#
# PCOD8157158 Si02
#       5
#     4   4   4   4   4
#     4  11  24  43  67 100 138 177 223 286 346 393
#     4  10  24  46  66  96 140 182 224 276 340 412
#     4  10  22  39  68  98 126 179 228 270 336 406
#     4  11  24  43  67 100 138 177 223 286 346 393
#     4  10  22  39  68  98 126 179 228 270 336 406
#
# _framework density 21.908269000000001
#
# number of rings (size 3 to 8) (size 9 to 14) (size 15 to 20)
#    0.000    1.600    2.000    1.200    5.600    1.600 
#   14.400    0.000    0.000    0.000    0.000    0.000 
#    0.000    0.000    0.000    0.000    0.000    0.000 
#
# Total GULP energy -247925.002749 kJ/mol
# GULP energy per Si atom -12396.250137 kJ/mol
# Density = 2.185841 g / cm^3
# Si number density = 21.908269 Si / 1000 Ang^3
#
#
#
# Elastic Constant Matrix: (Units=GPa)
#
#
# Indices 1 2 3 4 5 6 
#
# 1 107.9976 31.7738 10.5856 0.0000 0.0000 0.0000
# 2 31.7738 127.6636 3.7142 0.0000 0.0000 0.0000
# 3 10.5856 3.7142 24.5030 0.0000 0.0000 0.0000
# 4 0.0000 0.0000 0.0000 35.6413 0.0000 0.0000
# 5 0.0000 0.0000 0.0000 0.0000 31.4744 0.0000
# 6 0.0000 0.0000 0.0000 0.0000 0.0000 43.2624
#
#
#
# Elastic Compliance Matrix: (Units=1/GPa)
#
#
# Indices 1 2 3 4 5 6 
#
# 1 0.010388 -0.002466 -0.004114 0.000000 0.000000 0.000000
# 2 -0.002466 0.008453 -0.000216 0.000000 0.000000 0.000000
# 3 -0.004114 -0.000216 0.042621 0.000000 0.000000 0.000000
# 4 0.000000 0.000000 0.000000 0.028057 0.000000 0.000000
# 5 0.000000 0.000000 0.000000 0.000000 0.031772 0.000000
# 6 0.000000 0.000000 0.000000 0.000000 0.000000 0.023115
#
#
# Mechanical properties :
#
#
# Convention : Reuss Voigt Hill
#
# Bulk Modulus (GPa) = 20.88953 39.14571 30.01762
# Shear Modulus (GPa) = 28.74298 36.34831 32.54564
#
# Velocity S-wave (km/s) = 3.62604 4.07764 3.85845
# Velocity P-wave (km/s) = 5.20448 6.33059 5.79495
#
# Compressibility (1/GPa) = 0.04787087
#
# Stress axis : x y z
#
# Youngs Moduli (GPa) = 96.26333 118.30009 23.46235
#
# Poissons Ratio (x) = 0.29170 0.09653
# Poissons Ratio (y) = 0.23737 0.00507
# Poissons Ratio (z) = 0.39603 0.02556
#
# Static dielectric constant tensor:
#      x y z
#    x 4.048480 0.000000 0.000000 
#    y 0.000000 4.160340 0.000000 
#    z 0.000000 0.000000 3.769680 
# 
# 
# High freq. dielectric constant tensor:
#      x y z
#    x 1.860140 0.000000 0.000000 
#    y 0.000000 1.866350 0.000000 
#    z 0.000000 0.000000 1.859330 
# 
# From -- ./inp_files/328.got.cif
#   From: 2010.03.12/outbox.cif.g09.slc.cpg/sg19_1_cif.got.tgz:328.got - 2010.04.10 18:59:41.
