data_PCOD8157010
_publ_section_title
;
Structure prediction by ZEFSAII (Michael W. Deem and Ramdas Pophale) SiO2 
 PCOD8157010
Probable space group: P 21 21 21
;
_chemical_formula_sum "Si O2"
_cell_formula_units_Z 32
_cell_length_a 8.858787
_cell_length_b 14.302237
_cell_length_c 12.242870
_cell_angle_alpha 90.000000
_cell_angle_beta 90.000000
_cell_angle_gamma 90.000000
_cell_volume 1551.177398
_symmetry_space_group_name_H-M "P 21 21 21"
_symmetry_group_IT_number 19
_symmetry_cell_setting 'orthorhombic'
loop_
_space_group_symop_operation_xyz
x,y,z
1/2-x,-y,1/2+z
1/2+x,1/2-y,-z
-x,1/2+y,1/2-z
loop_
_atom_site_type_symbol
_atom_site_label
_atom_site_fract_x
_atom_site_fract_y
_atom_site_fract_z
Si Si1 0.573422 0.971568 0.029125
Si Si2 0.922487 0.154922 0.737675
Si Si3 0.924503 0.683294 0.086650
Si Si4 0.573420 0.028427 0.529126
Si Si5 0.922487 0.845082 0.237675
Si Si6 0.427414 0.845979 0.462558
Si Si7 0.572586 0.654017 0.537440
Si Si8 0.924505 0.316713 0.586652
O O1 0.535139 0.913965 0.138394
O O2 0.750000 0.985442 0.012025
O O3 0.508627 0.916568 0.922055
O O4 0.493240 0.071597 0.038064
O O5 0.750001 0.137361 0.774480
O O6 0.942273 0.264397 0.703169
O O7 0.033416 0.132899 0.836724
O O8 0.942274 0.735607 0.203168
O O9 0.749999 0.668914 0.057006
O O10 0.999987 0.750010 0.000001
O O11 0.535138 0.086026 0.638398
O O12 0.508617 0.083421 0.422055
O O13 0.493249 0.928394 0.538065
O O14 0.033414 0.867102 0.336727
O O15 0.499998 0.749996 0.499993
O O16 0.250000 0.840409 0.478935
#
# Coordination Sequence:
#
# PCOD8157010 Si02
#       8
#     4   4   4   4   4   4   4   4
#     4  10  21  39  63  89 119 155 197 245 293 349
#     4   9  20  39  62  88 119 155 195 240 292 348
#     4   9  17  32  57  88 119 151 191 239 287 340
#     4  10  21  39  63  89 119 155 197 245 293 349
#     4   9  20  39  62  88 119 155 195 240 292 348
#     4  12  26  42  61  85 118 157 197 244 294 349
#     4  12  26  42  61  85 118 157 197 244 294 349
#     4   9  17  32  57  88 119 151 191 239 287 340
#
# _framework density 20.629491999999999
#
# number of rings (size 3 to 8) (size 9 to 14) (size 15 to 20)
#    0.000    2.000    0.000    5.250    0.000    8.000 
#    0.000    0.000    0.000    0.000    0.000    0.000 
#    0.000    0.000    0.000    0.000    0.000    0.000 
#
# Total GULP energy -396747.705113 kJ/mol
# GULP energy per Si atom -12398.365785 kJ/mol
# Density = 2.058254 g / cm^3
# Si number density = 20.629492 Si / 1000 Ang^3
#
#
#
# Elastic Constant Matrix: (Units=GPa)
#
#
# Indices 1 2 3 4 5 6 
#
# 1 159.7056 69.7059 44.0584 0.0000 0.0000 0.0000
# 2 69.7059 155.4409 38.6988 0.0000 0.0000 0.0000
# 3 44.0584 38.6988 69.9595 0.0000 0.0000 0.0000
# 4 0.0000 0.0000 0.0000 25.2096 0.0000 0.0000
# 5 0.0000 0.0000 0.0000 0.0000 34.9261 0.0000
# 6 0.0000 0.0000 0.0000 0.0000 0.0000 42.6958
#
#
#
# Elastic Compliance Matrix: (Units=1/GPa)
#
#
# Indices 1 2 3 4 5 6 
#
# 1 0.008574 -0.002900 -0.003796 0.000000 0.000000 0.000000
# 2 -0.002900 0.008442 -0.002843 0.000000 0.000000 0.000000
# 3 -0.003796 -0.002843 0.018257 0.000000 0.000000 0.000000
# 4 0.000000 0.000000 0.000000 0.039667 0.000000 0.000000
# 5 0.000000 0.000000 0.000000 0.000000 0.028632 0.000000
# 6 0.000000 0.000000 0.000000 0.000000 0.000000 0.023422
#
#
# Mechanical properties :
#
#
# Convention : Reuss Voigt Hill
#
# Bulk Modulus (GPa) = 61.74656 76.67026 69.20841
# Shear Modulus (GPa) = 33.00971 36.07582 34.54276
#
# Velocity S-wave (km/s) = 4.00449 4.18634 4.09643
# Velocity P-wave (km/s) = 7.16781 7.78546 7.48301
#
# Compressibility (1/GPa) = 0.01619524
#
# Stress axis : x y z
#
# Youngs Moduli (GPa) = 116.62535 118.45957 54.77313
#
# Poissons Ratio (x) = 0.34355 0.20790
# Poissons Ratio (y) = 0.33823 0.15573
# Poissons Ratio (z) = 0.44267 0.33680
#
# Static dielectric constant tensor:
#      x y z
#    x -0.646790 0.000000 0.000000 
#    y 0.000000 4.133930 0.000000 
#    z 0.000000 0.000000 3.651580 
# 
# 
# High freq. dielectric constant tensor:
#      x y z
#    x 1.815150 0.000000 0.000000 
#    y 0.000000 1.817000 0.000000 
#    z 0.000000 0.000000 1.785970 
# 
# From -- ./inp_files/4746.got.cif
#   From: 2010.03.12/outbox.cif.g09.slc.cpg/sg19_3_cif.got.tgz:4746.got - 2010.04.10 18:59:41.
