data_PCOD8157152
_publ_section_title
;
Structure prediction by ZEFSAII (Michael W. Deem and Ramdas Pophale) SiO2 
 PCOD8157152
Probable space group: P 21 21 21
;
_chemical_formula_sum "Si O2"
_cell_formula_units_Z 28
_cell_length_a 5.219311
_cell_length_b 10.144988
_cell_length_c 25.326898
_cell_angle_alpha 90.000000
_cell_angle_beta 90.000000
_cell_angle_gamma 90.000000
_cell_volume 1341.055386
_symmetry_space_group_name_H-M "P 21 21 21"
_symmetry_group_IT_number 19
_symmetry_cell_setting 'orthorhombic'
loop_
_space_group_symop_operation_xyz
x,y,z
1/2-x,-y,1/2+z
1/2+x,1/2-y,-z
-x,1/2+y,1/2-z
loop_
_atom_site_type_symbol
_atom_site_label
_atom_site_fract_x
_atom_site_fract_y
_atom_site_fract_z
Si Si1 0.973675 0.153114 0.822285
Si Si2 0.284435 0.337326 0.496261
Si Si3 0.822871 0.966693 0.110409
Si Si4 0.088003 0.655948 0.794797
Si Si5 0.517654 0.751203 0.633735
Si Si6 0.923410 0.243959 0.336597
Si Si7 0.306482 0.498700 0.598227
O O1 0.947391 0.093129 0.763221
O O2 0.742651 0.259519 0.831466
O O3 0.942917 0.037461 0.866206
O O4 0.245355 0.223720 0.827473
O O5 0.552666 0.265882 0.507646
O O6 0.317843 0.420507 0.442763
O O7 0.219552 0.442301 0.542136
O O8 0.624647 0.957975 0.160396
O O9 0.058046 0.866805 0.122194
O O10 0.932710 0.113424 0.102587
O O11 0.341777 0.748646 0.795000
O O12 0.847329 0.749157 0.807423
O O13 0.485456 0.629569 0.591903
O O14 0.961592 0.110210 0.368958
#
# Coordination Sequence:
#
# PCOD8157152 Si02
#       7
#     4   4   4   4   4   4   4
#     4  10  24  41  63  93 139 174 214 265 324 399
#     4  12  25  44  75 100 128 170 225 279 327 389
#     4  10  25  44  68 100 132 173 219 278 328 392
#     4  10  22  39  65  97 129 175 220 265 323 385
#     4  10  25  43  62  97 136 171 213 267 334 391
#     4  10  22  40  66  96 127 166 223 266 321 383
#     4  10  25  45  67  99 131 173 218 274 329 389
#
# _framework density 20.879076999999999
#
# number of rings (size 3 to 8) (size 9 to 14) (size 15 to 20)
#    1.714    0.000    1.429    1.714    6.000    2.286 
#    2.571    0.000    0.000    0.000    0.000    0.000 
#    0.000    0.000    0.000    0.000    0.000    0.000 
#
# Total GULP energy -346883.774624 kJ/mol
# GULP energy per Si atom -12388.706237 kJ/mol
# Density = 2.083156 g / cm^3
# Si number density = 20.879077 Si / 1000 Ang^3
#
#
#
# Elastic Constant Matrix: (Units=GPa)
#
#
# Indices 1 2 3 4 5 6 
#
# 1 109.0248 13.7503 8.4272 0.0000 0.0000 0.0000
# 2 13.7503 115.3979 27.8266 0.0000 0.0000 0.0000
# 3 8.4272 27.8266 120.2224 0.0000 0.0000 0.0000
# 4 0.0000 0.0000 0.0000 25.9568 0.0000 0.0000
# 5 0.0000 0.0000 0.0000 0.0000 18.7570 0.0000
# 6 0.0000 0.0000 0.0000 0.0000 0.0000 18.7526
#
#
#
# Elastic Compliance Matrix: (Units=1/GPa)
#
#
# Indices 1 2 3 4 5 6 
#
# 1 0.009332 -0.001011 -0.000420 0.000000 0.000000 0.000000
# 2 -0.001011 0.009287 -0.002079 0.000000 0.000000 0.000000
# 3 -0.000420 -0.002079 0.008829 0.000000 0.000000 0.000000
# 4 0.000000 0.000000 0.000000 0.038526 0.000000 0.000000
# 5 0.000000 0.000000 0.000000 0.000000 0.053314 0.000000
# 6 0.000000 0.000000 0.000000 0.000000 0.000000 0.053326
#
#
# Mechanical properties :
#
#
# Convention : Reuss Voigt Hill
#
# Bulk Modulus (GPa) = 48.95073 49.40592 49.17832
# Shear Modulus (GPa) = 26.81799 32.33601 29.57700
#
# Velocity S-wave (km/s) = 3.58780 3.93966 3.76784
# Velocity P-wave (km/s) = 6.37643 6.66399 6.52180
#
# Compressibility (1/GPa) = 0.02042871
#
# Stress axis : x y z
#
# Youngs Moduli (GPa) = 107.15622 107.67315 113.26907
#
# Poissons Ratio (x) = 0.10882 0.04760
# Poissons Ratio (y) = 0.10830 0.23546
# Poissons Ratio (z) = 0.04503 0.22383
#
# Static dielectric constant tensor:
#      x y z
#    x 3.630040 0.000000 0.000000 
#    y 0.000000 3.546970 0.000000 
#    z 0.000000 0.000000 3.609610 
# 
# 
# High freq. dielectric constant tensor:
#      x y z
#    x 1.816980 0.000000 0.000000 
#    y 0.000000 1.800930 0.000000 
#    z 0.000000 0.000000 1.803630 
# 
# From -- ./inp_files/7448.got.cif
#   From: 2010.03.12/outbox.cif.g09.slc.cpg/sg19_4_cif.got.tgz:7448.got - 2010.04.10 18:59:41.
