data_PCOD8157585
_publ_section_title
;
Structure prediction by ZEFSAII (Michael W. Deem and Ramdas Pophale) SiO2 
 PCOD8157585
Probable space group: P 21 21 21
;
_chemical_formula_sum "Si O2"
_cell_formula_units_Z 32
_cell_length_a 14.074811
_cell_length_b 9.221073
_cell_length_c 12.322138
_cell_angle_alpha 90.000000
_cell_angle_beta 90.000000
_cell_angle_gamma 90.000000
_cell_volume 1599.226951
_symmetry_space_group_name_H-M "P 21 21 21"
_symmetry_group_IT_number 19
_symmetry_cell_setting 'orthorhombic'
loop_
_space_group_symop_operation_xyz
x,y,z
1/2-x,-y,1/2+z
1/2+x,1/2-y,-z
-x,1/2+y,1/2-z
loop_
_atom_site_type_symbol
_atom_site_label
_atom_site_fract_x
_atom_site_fract_y
_atom_site_fract_z
Si Si1 0.750003 0.839046 0.920055
Si Si2 0.250002 0.094680 0.411955
Si Si3 0.897817 0.199082 0.237144
Si Si4 0.097512 0.042785 0.244648
Si Si5 0.749998 0.372544 0.923113
Si Si6 0.902489 0.457217 0.755353
Si Si7 0.897817 0.800918 0.737141
Si Si8 0.249997 0.614938 0.440622
O O1 0.657298 0.851851 0.844900
O O2 0.842712 0.851846 0.844904
O O3 0.749999 0.684175 0.977484
O O4 0.750003 0.949353 0.020584
O O5 0.155809 0.120699 0.341060
O O6 0.344198 0.120700 0.341064
O O7 0.250002 0.929084 0.452612
O O8 0.912521 0.371540 0.235972
O O9 0.843556 0.148209 0.129343
O O10 0.996844 0.117581 0.237419
O O11 0.154760 0.072715 0.134768
O O12 0.845230 0.427297 0.865227
O O13 0.750002 0.200150 0.943762
O O14 0.912524 0.628460 0.735967
O O15 0.003155 0.382421 0.762598
O O16 0.843548 0.851791 0.629346
#
# Coordination Sequence:
#
# PCOD8157585 Si02
#       8
#     4   4   4   4   4   4   4   4
#     4  11  25  43  67  90 130 166 210 259 308 373
#     4  11  21  45  65  87 124 174 203 249 321 368
#     4  11  25  44  61  97 129 160 210 264 310 368
#     4  11  25  40  67  93 129 162 212 260 308 376
#     4  11  21  45  65  87 124 174 203 249 321 368
#     4  11  25  40  67  93 129 162 212 260 308 376
#     4  11  25  44  61  97 129 160 210 264 310 368
#     4  11  25  43  67  90 130 166 210 259 308 373
#
# _framework density 20.009667
#
# number of rings (size 3 to 8) (size 9 to 14) (size 15 to 20)
#    0.000    1.000    5.000    1.500    7.000    6.000 
#    0.000    0.000    0.000    0.000    0.000    0.000 
#    0.000    0.000    0.000    0.000    0.000    0.000 
#
# Total GULP energy -396829.940987 kJ/mol
# GULP energy per Si atom -12400.935656 kJ/mol
# Density = 1.996412 g / cm^3
# Si number density = 20.009667 Si / 1000 Ang^3
#
#
#
# Elastic Constant Matrix: (Units=GPa)
#
#
# Indices 1 2 3 4 5 6 
#
# 1 195.3424 64.4014 62.8014 0.0000 0.0000 0.0000
# 2 64.4014 90.2161 44.7864 0.0000 0.0000 0.0000
# 3 62.8014 44.7864 105.0077 0.0000 0.0000 0.0000
# 4 0.0000 0.0000 0.0000 40.9816 0.0000 0.0000
# 5 0.0000 0.0000 0.0000 0.0000 -3.8610 0.0000
# 6 0.0000 0.0000 0.0000 0.0000 0.0000 35.8049
#
#
#
# Elastic Compliance Matrix: (Units=1/GPa)
#
#
# Indices 1 2 3 4 5 6 
#
# 1 0.007252 -0.003836 -0.002701 0.000000 0.000000 0.000000
# 2 -0.003836 0.016091 -0.004569 0.000000 0.000000 0.000000
# 3 -0.002701 -0.004569 0.013087 0.000000 0.000000 0.000000
# 4 0.000000 0.000000 0.000000 0.024401 0.000000 0.000000
# 5 0.000000 0.000000 0.000000 0.000000 -0.259000 0.000000
# 6 0.000000 0.000000 0.000000 0.000000 0.000000 0.027929
#
#
# Mechanical properties :
#
#
# Convention : Reuss Voigt Hill
#
# Bulk Modulus (GPa) = 70.33107 81.61608 75.97357
# Shear Modulus (GPa) = -34.89486 29.15690 -2.86898
#
# Velocity S-wave (km/s) = -4.18053 3.82139 -1.19871
# Velocity P-wave (km/s) = 3.45288 7.76837 6.01124
#
# Compressibility (1/GPa) = 0.01421847
#
# Stress axis : x y z
#
# Youngs Moduli (GPa) = 137.88590 62.14649 76.41070
#
# Poissons Ratio (x) = 0.23840 0.20640
# Poissons Ratio (y) = 0.52895 0.34909
# Poissons Ratio (z) = 0.37246 0.28392
#
# Static dielectric constant tensor:
#      x y z
#    x 3.568150 0.000000 0.000000 
#    y 0.000000 3.619030 0.000000 
#    z 0.000000 0.000000 3.644080 
# 
# 
# High freq. dielectric constant tensor:
#      x y z
#    x 1.780700 0.000000 0.000000 
#    y 0.000000 1.792000 0.000000 
#    z 0.000000 0.000000 1.793460 
# 
# From -- ./inp_files/5230.got.cif
#   From: 2010.03.12/outbox.cif.g09.slc.cpg/sg19_3_cif.got.tgz:5230.got - 2010.04.10 18:59:41.
