data_PCOD8157013
_publ_section_title
;
Structure prediction by ZEFSAII (Michael W. Deem and Ramdas Pophale) SiO2 
 PCOD8157013
Probable space group: P 21 21 21
;
_chemical_formula_sum "Si O2"
_cell_formula_units_Z 28
_cell_length_a 7.347084
_cell_length_b 7.064493
_cell_length_c 16.453207
_cell_angle_alpha 90.000000
_cell_angle_beta 90.000000
_cell_angle_gamma 90.000000
_cell_volume 853.977771
_symmetry_space_group_name_H-M "P 21 21 21"
_symmetry_group_IT_number 19
_symmetry_cell_setting 'orthorhombic'
loop_
_space_group_symop_operation_xyz
x,y,z
1/2-x,-y,1/2+z
1/2+x,1/2-y,-z
-x,1/2+y,1/2-z
loop_
_atom_site_type_symbol
_atom_site_label
_atom_site_fract_x
_atom_site_fract_y
_atom_site_fract_z
Si Si1 0.157516 0.469728 0.508990
Si Si2 0.188499 0.791070 0.134926
Si Si3 0.318543 0.166721 0.088057
Si Si4 0.464706 0.124657 0.861688
Si Si5 0.354543 0.495567 0.794095
Si Si6 0.020502 0.740794 0.756736
Si Si7 0.693786 0.654385 0.085770
O O1 0.127600 0.699308 0.509833
O O2 0.248229 0.380102 0.427133
O O3 0.958730 0.379418 0.517651
O O4 0.291354 0.408419 0.584882
O O5 0.294378 0.941351 0.074087
O O6 0.308991 0.790515 0.218036
O O7 0.980138 0.853949 0.153965
O O8 0.455938 0.196699 0.163453
O O9 0.119859 0.238525 0.107545
O O10 0.328600 0.287854 0.830460
O O11 0.537683 0.976105 0.792340
O O12 0.358384 0.994282 0.927516
O O13 0.145688 0.554220 0.772365
O O14 0.112917 0.885164 0.823668
#
# Coordination Sequence:
#
# PCOD8157013 Si02
#       7
#     4   4   4   4   4   4   4
#     4  11  26  43  70  92 136 187 216 286 344 400
#     4  10  24  41  63  98 134 170 229 273 332 411
#     4  10  23  43  65 102 134 176 221 287 337 405
#     4  10  21  39  63  98 133 168 229 266 347 392
#     4  10  22  37  67  99 132 177 211 296 328 396
#     4  10  24  40  68 101 133 176 226 282 346 396
#     4  11  24  45  64 100 134 180 230 276 340 422
#
# _framework density 32.787737
#
# number of rings (size 3 to 8) (size 9 to 14) (size 15 to 20)
#    0.000    1.714    0.000    3.429   16.000    0.000 
#    2.571    0.000    0.000    0.000    0.000    0.000 
#    0.000    0.000    0.000    0.000    0.000    0.000 
#
# Total GULP energy -346924.940891 kJ/mol
# GULP energy per Si atom -12390.176460 kJ/mol
# Density = 3.271311 g / cm^3
# Si number density = 32.787737 Si / 1000 Ang^3
#
#
#
# Elastic Constant Matrix: (Units=GPa)
#
#
# Indices 1 2 3 4 5 6 
#
# 1 117.7592 -32.8433 17.1354 0.0000 0.0000 0.0000
# 2 -32.8433 92.8770 -28.7725 0.0000 0.0000 0.0000
# 3 17.1354 -28.7725 57.3225 0.0000 0.0000 0.0000
# 4 0.0000 0.0000 0.0000 32.0069 0.0000 0.0000
# 5 0.0000 0.0000 0.0000 0.0000 69.9811 0.0000
# 6 0.0000 0.0000 0.0000 0.0000 0.0000 38.1367
#
#
#
# Elastic Compliance Matrix: (Units=1/GPa)
#
#
# Indices 1 2 3 4 5 6 
#
# 1 0.009511 0.002940 -0.001368 0.000000 0.000000 0.000000
# 2 0.002940 0.013658 0.005977 0.000000 0.000000 0.000000
# 3 -0.001368 0.005977 0.020854 0.000000 0.000000 0.000000
# 4 0.000000 0.000000 0.000000 0.031243 0.000000 0.000000
# 5 0.000000 0.000000 0.000000 0.000000 0.014290 0.000000
# 6 0.000000 0.000000 0.000000 0.000000 0.000000 0.026221
#
#
# Mechanical properties :
#
#
# Convention : Reuss Voigt Hill
#
# Bulk Modulus (GPa) = 16.91469 19.88864 18.40166
# Shear Modulus (GPa) = 41.53298 48.85419 45.19359
#
# Velocity S-wave (km/s) = 3.56297 3.86426 3.71667
# Velocity P-wave (km/s) = 4.70068 5.09794 4.90333
#
# Compressibility (1/GPa) = 0.05912021
#
# Stress axis : x y z
#
# Youngs Moduli (GPa) = 105.14417 73.21730 47.95254
#
# Poissons Ratio (x) = -0.21523 0.06558
# Poissons Ratio (y) = -0.30908 -0.28660
# Poissons Ratio (z) = 0.14379 -0.43760
#
# Static dielectric constant tensor:
#      x y z
#    x 6.357900 0.000000 0.000000 
#    y 0.000000 7.140890 0.000000 
#    z 0.000000 0.000000 7.218740 
# 
# 
# High freq. dielectric constant tensor:
#      x y z
#    x 2.384820 0.000000 0.000000 
#    y 0.000000 2.378810 0.000000 
#    z 0.000000 0.000000 2.376620 
# 
# From -- ./inp_files/6589.got.cif
#   From: 2010.03.12/outbox.cif.g09.slc.cpg/sg19_4_cif.got.tgz:6589.got - 2010.04.10 18:59:41.
