data_PCOD8157679
_publ_section_title
;
Structure prediction by ZEFSAII (Michael W. Deem and Ramdas Pophale) SiO2 
 PCOD8157679
Probable space group: P 21 21 21
;
_chemical_formula_sum "Si O2"
_cell_formula_units_Z 32
_cell_length_a 8.172109
_cell_length_b 14.540715
_cell_length_c 11.709356
_cell_angle_alpha 90.000000
_cell_angle_beta 90.000000
_cell_angle_gamma 90.000000
_cell_volume 1391.402960
_symmetry_space_group_name_H-M "P 21 21 21"
_symmetry_group_IT_number 19
_symmetry_cell_setting 'orthorhombic'
loop_
_space_group_symop_operation_xyz
x,y,z
1/2-x,-y,1/2+z
1/2+x,1/2-y,-z
-x,1/2+y,1/2-z
loop_
_atom_site_type_symbol
_atom_site_label
_atom_site_fract_x
_atom_site_fract_y
_atom_site_fract_z
Si Si1 0.751403 0.707991 0.198179
Si Si2 0.602113 0.163859 0.354371
Si Si3 0.022013 0.200114 0.101668
Si Si4 0.419149 0.620503 0.898456
Si Si5 0.393617 0.956731 0.929956
Si Si6 0.237395 0.148411 0.898999
Si Si7 0.151679 0.546595 0.259977
Si Si8 0.712534 0.356465 0.354288
O O1 0.556337 0.717191 0.194595
O O2 0.818487 0.728549 0.324592
O O3 0.843611 0.778535 0.115051
O O4 0.782354 0.605136 0.152662
O O5 0.575128 0.101433 0.466228
O O6 0.675574 0.097649 0.257399
O O7 0.725417 0.247724 0.382672
O O8 0.882702 0.277096 0.108654
O O9 0.958510 0.105145 0.153932
O O10 0.086467 0.185333 0.973959
O O11 0.311869 0.549182 0.824126
O O12 0.603116 0.606464 0.855980
O O13 0.569194 0.965995 0.866122
O O14 0.312474 0.055517 0.950547
O O15 0.405887 0.909348 0.055701
O O16 0.155148 0.128265 0.775985
#
# Coordination Sequence:
#
# PCOD8157679 Si02
#       8
#     4   4   4   4   4   4   4   4
#     4  11  24  44  72 107 142 184 245 307 367 437
#     4  12  25  44  74 112 144 198 249 304 374 443
#     4  11  26  48  70 101 152 195 240 307 377 444
#     4  12  22  49  74 106 152 191 241 313 369 445
#     4  11  23  44  76 105 138 192 243 311 372 433
#     4  12  26  48  73 103 150 200 242 309 383 448
#     4  11  25  49  70 108 155 188 245 316 370 441
#     4  12  23  46  75 106 143 192 257 305 370 441
#
# _framework density 22.998369
#
# number of rings (size 3 to 8) (size 9 to 14) (size 15 to 20)
#    0.000    0.500    6.250    1.500    5.250    0.000 
#    9.000    0.000    0.000    0.000    0.000    0.000 
#    0.000    0.000    0.000    0.000    0.000    0.000 
#
# Total GULP energy -396811.771809 kJ/mol
# GULP energy per Si atom -12400.367869 kJ/mol
# Density = 2.294602 g / cm^3
# Si number density = 22.998369 Si / 1000 Ang^3
#
#
#
# Elastic Constant Matrix: (Units=GPa)
#
#
# Indices 1 2 3 4 5 6 
#
# 1 71.8492 11.8732 42.1158 0.0000 0.0000 0.0000
# 2 11.8732 90.3203 21.9709 0.0000 0.0000 0.0000
# 3 42.1158 21.9709 159.9964 0.0000 0.0000 0.0000
# 4 0.0000 0.0000 0.0000 41.1333 0.0000 0.0000
# 5 0.0000 0.0000 0.0000 0.0000 30.4103 0.0000
# 6 0.0000 0.0000 0.0000 0.0000 0.0000 20.3846
#
#
#
# Elastic Compliance Matrix: (Units=1/GPa)
#
#
# Indices 1 2 3 4 5 6 
#
# 1 0.016573 -0.001156 -0.004204 0.000000 0.000000 0.000000
# 2 -0.001156 0.011535 -0.001280 0.000000 0.000000 0.000000
# 3 -0.004204 -0.001280 0.007532 0.000000 0.000000 0.000000
# 4 0.000000 0.000000 0.000000 0.024311 0.000000 0.000000
# 5 0.000000 0.000000 0.000000 0.000000 0.032884 0.000000
# 6 0.000000 0.000000 0.000000 0.000000 0.000000 0.049057
#
#
# Mechanical properties :
#
#
# Convention : Reuss Voigt Hill
#
# Bulk Modulus (GPa) = 44.71968 52.67617 48.69793
# Shear Modulus (GPa) = 30.74557 34.79936 32.77247
#
# Velocity S-wave (km/s) = 3.66027 3.89411 3.77900
# Velocity P-wave (km/s) = 6.11150 6.57060 6.34520
#
# Compressibility (1/GPa) = 0.02236152
#
# Stress axis : x y z
#
# Youngs Moduli (GPa) = 60.33834 86.69287 132.75923
#
# Poissons Ratio (x) = 0.10022 0.55809
# Poissons Ratio (y) = 0.06975 0.16989
# Poissons Ratio (z) = 0.25365 0.11094
#
# Static dielectric constant tensor:
#      x y z
#    x 3.919720 0.000000 0.000000 
#    y 0.000000 4.063240 0.000000 
#    z 0.000000 0.000000 4.213350 
# 
# 
# High freq. dielectric constant tensor:
#      x y z
#    x 1.892000 0.000000 0.000000 
#    y 0.000000 1.909820 0.000000 
#    z 0.000000 0.000000 1.915180 
# 
# From -- ./inp_files/4716.got.cif
#   From: 2010.03.12/outbox.cif.g09.slc.cpg/sg19_3_cif.got.tgz:4716.got - 2010.04.10 18:59:41.
