data_PCOD8157075
_publ_section_title
;
Structure prediction by ZEFSAII (Michael W. Deem and Ramdas Pophale) SiO2 
 PCOD8157075
Probable space group: P 21 21 21
;
_chemical_formula_sum "Si O2"
_cell_formula_units_Z 28
_cell_length_a 9.960969
_cell_length_b 11.857692
_cell_length_c 9.510887
_cell_angle_alpha 90.000000
_cell_angle_beta 90.000000
_cell_angle_gamma 90.000000
_cell_volume 1123.369881
_symmetry_space_group_name_H-M "P 21 21 21"
_symmetry_group_IT_number 19
_symmetry_cell_setting 'orthorhombic'
loop_
_space_group_symop_operation_xyz
x,y,z
1/2-x,-y,1/2+z
1/2+x,1/2-y,-z
-x,1/2+y,1/2-z
loop_
_atom_site_type_symbol
_atom_site_label
_atom_site_fract_x
_atom_site_fract_y
_atom_site_fract_z
Si Si1 0.123125 0.442915 0.031129
Si Si2 0.828622 0.578739 0.561913
Si Si3 0.147774 0.667916 0.160168
Si Si4 0.080431 0.302070 0.776456
Si Si5 0.605366 0.962552 0.562703
Si Si6 0.210842 0.875349 0.735696
Si Si7 0.079280 0.314099 0.293606
O O1 0.089635 0.574040 0.054959
O O2 0.047316 0.358237 0.135769
O O3 0.088134 0.415094 0.871033
O O4 0.285047 0.428462 0.055039
O O5 0.876523 0.694498 0.632704
O O6 0.723470 0.601017 0.433419
O O7 0.771199 0.493055 0.679348
O O8 0.959534 0.520358 0.499395
O O9 0.310247 0.686809 0.149247
O O10 0.108331 0.633266 0.318928
O O11 0.064059 0.782585 0.134324
O O12 0.926260 0.306322 0.725881
O O13 0.650516 0.083682 0.625592
O O14 0.328487 0.795948 0.791514
#
# Coordination Sequence:
#
# PCOD8157075 Si02
#       7
#     4   4   4   4   4   4   4
#     4  10  21  41  69  97 140 188 246 280 366 436
#     4  12  27  47  75 108 152 183 252 294 370 425
#     4  10  22  39  67 102 132 190 241 291 342 444
#     4  11  25  43  75  96 148 195 233 293 376 427
#     4  10  22  42  67  99 138 189 237 297 346 446
#     4  12  28  47  75 112 146 191 240 310 355 441
#     4  11  23  41  72  98 142 190 243 291 375 421
#
# _framework density 24.925003
#
# number of rings (size 3 to 8) (size 9 to 14) (size 15 to 20)
#    0.000    1.143    2.857    1.714    8.000    3.429 
#    2.571    0.000    0.000    0.000    0.000    0.000 
#    0.000    0.000    0.000    0.000    0.000    0.000 
#
# Total GULP energy -347085.114567 kJ/mol
# GULP energy per Si atom -12395.896949 kJ/mol
# Density = 2.486827 g / cm^3
# Si number density = 24.925003 Si / 1000 Ang^3
#
#
#
# Elastic Constant Matrix: (Units=GPa)
#
#
# Indices 1 2 3 4 5 6 
#
# 1 88.0841 7.8887 -11.9814 0.0000 0.0000 0.0000
# 2 7.8887 88.3215 12.0576 0.0000 0.0000 0.0000
# 3 -11.9814 12.0576 29.2210 0.0000 0.0000 0.0000
# 4 0.0000 0.0000 0.0000 24.6727 0.0000 0.0000
# 5 0.0000 0.0000 0.0000 0.0000 19.3358 0.0000
# 6 0.0000 0.0000 0.0000 0.0000 0.0000 38.2888
#
#
#
# Elastic Compliance Matrix: (Units=1/GPa)
#
#
# Indices 1 2 3 4 5 6 
#
# 1 0.012316 -0.001896 0.005832 0.000000 0.000000 0.000000
# 2 -0.001896 0.012290 -0.005849 0.000000 0.000000 0.000000
# 3 0.005832 -0.005849 0.039027 0.000000 0.000000 0.000000
# 4 0.000000 0.000000 0.000000 0.040531 0.000000 0.000000
# 5 0.000000 0.000000 0.000000 0.000000 0.051718 0.000000
# 6 0.000000 0.000000 0.000000 0.000000 0.000000 0.026117
#
#
# Mechanical properties :
#
#
# Convention : Reuss Voigt Hill
#
# Bulk Modulus (GPa) = 16.72035 24.61738 20.66887
# Shear Modulus (GPa) = 24.30019 29.63691 26.96855
#
# Velocity S-wave (km/s) = 3.12578 3.45199 3.29293
# Velocity P-wave (km/s) = 4.44411 5.07803 4.77161
#
# Compressibility (1/GPa) = 0.05980735
#
# Stress axis : x y z
#
# Youngs Moduli (GPa) = 81.19561 81.36619 25.62338
#
# Poissons Ratio (x) = 0.15429 -0.14944
# Poissons Ratio (y) = 0.15397 0.14987
# Poissons Ratio (z) = -0.47356 0.47590
#
# Static dielectric constant tensor:
#      x y z
#    x 4.671810 0.000000 0.000000 
#    y 0.000000 4.410160 0.000000 
#    z 0.000000 0.000000 4.399520 
# 
# 
# High freq. dielectric constant tensor:
#      x y z
#    x 1.995490 0.000000 0.000000 
#    y 0.000000 2.000680 0.000000 
#    z 0.000000 0.000000 1.973280 
# 
# From -- ./inp_files/4594.got.cif
#   From: 2010.03.12/outbox.cif.g09.slc.cpg/sg19_3_cif.got.tgz:4594.got - 2010.04.10 18:59:41.
