data_PCOD8157210
_publ_section_title
;
Structure prediction by ZEFSAII (Michael W. Deem and Ramdas Pophale) SiO2 
 PCOD8157210
Probable space group: P 21 21 21
;
_chemical_formula_sum "Si O2"
_cell_formula_units_Z 32
_cell_length_a 20.502724
_cell_length_b 5.567771
_cell_length_c 12.167699
_cell_angle_alpha 90.000000
_cell_angle_beta 90.000000
_cell_angle_gamma 90.000000
_cell_volume 1388.997256
_symmetry_space_group_name_H-M "P 21 21 21"
_symmetry_group_IT_number 19
_symmetry_cell_setting 'orthorhombic'
loop_
_space_group_symop_operation_xyz
x,y,z
1/2-x,-y,1/2+z
1/2+x,1/2-y,-z
-x,1/2+y,1/2-z
loop_
_atom_site_type_symbol
_atom_site_label
_atom_site_fract_x
_atom_site_fract_y
_atom_site_fract_z
Si Si1 0.505204 0.042841 0.412025
Si Si2 0.386485 0.898818 0.532913
Si Si3 0.849437 0.093166 0.354584
Si Si4 0.793824 0.415996 0.643785
Si Si5 0.669764 0.707373 0.630886
Si Si6 0.727052 0.087080 0.482656
Si Si7 0.899631 0.616965 0.980297
Si Si8 0.586189 0.695375 0.278216
O O1 0.458605 0.865657 0.480614
O O2 0.542296 0.197226 0.506059
O O3 0.457634 0.185360 0.330277
O O4 0.565269 0.936043 0.341336
O O5 0.379487 0.158023 0.595304
O O6 0.333346 0.896777 0.434507
O O7 0.381350 0.658652 0.606759
O O8 0.856956 0.109148 0.222497
O O9 0.772056 0.061501 0.375641
O O10 0.727196 0.544289 0.684800
O O11 0.775129 0.177089 0.578443
O O12 0.837475 0.317436 0.744771
O O13 0.607852 0.556907 0.585394
O O14 0.695904 0.837345 0.521171
O O15 0.671454 0.277112 0.455949
O O16 0.926548 0.512231 0.865745
#
# Coordination Sequence:
#
# PCOD8157210 Si02
#       8
#     4   4   4   4   4   4   4   4
#     4  11  24  42  70 101 141 191 235 307 368 438
#     4  10  24  44  71  99 144 190 244 300 357 438
#     4  11  24  44  73 101 139 195 245 297 369 436
#     4   9  21  39  65 107 141 183 232 294 369 439
#     4  11  23  41  70  98 145 190 239 305 367 445
#     4  10  22  41  66  99 144 183 230 304 360 433
#     4  11  24  41  63 102 143 180 236 297 361 437
#     4  11  22  40  68 101 139 182 239 292 371 434
#
# _framework density 23.038201999999998
#
# number of rings (size 3 to 8) (size 9 to 14) (size 15 to 20)
#    0.000    1.500    2.500    1.500    5.250    4.000 
#    0.000    0.000    5.500    0.000    0.000    0.000 
#    0.000    0.000    0.000    0.000    0.000    0.000 
#
# Total GULP energy -396520.094852 kJ/mol
# GULP energy per Si atom -12391.252964 kJ/mol
# Density = 2.298577 g / cm^3
# Si number density = 23.038202 Si / 1000 Ang^3
#
#
#
# Elastic Constant Matrix: (Units=GPa)
#
#
# Indices 1 2 3 4 5 6 
#
# 1 83.9559 41.9680 55.9314 0.0000 0.0000 0.0000
# 2 41.9680 116.9478 41.2926 0.0000 0.0000 0.0000
# 3 55.9314 41.2926 92.2845 0.0000 0.0000 0.0000
# 4 0.0000 0.0000 0.0000 32.5975 0.0000 0.0000
# 5 0.0000 0.0000 0.0000 0.0000 37.4845 0.0000
# 6 0.0000 0.0000 0.0000 0.0000 0.0000 27.1348
#
#
#
# Elastic Compliance Matrix: (Units=1/GPa)
#
#
# Indices 1 2 3 4 5 6 
#
# 1 0.021212 -0.003649 -0.011223 0.000000 0.000000 0.000000
# 2 -0.003649 0.010783 -0.002613 0.000000 0.000000 0.000000
# 3 -0.011223 -0.002613 0.018807 0.000000 0.000000 0.000000
# 4 0.000000 0.000000 0.000000 0.030677 0.000000 0.000000
# 5 0.000000 0.000000 0.000000 0.000000 0.026678 0.000000
# 6 0.000000 0.000000 0.000000 0.000000 0.000000 0.036853
#
#
# Mechanical properties :
#
#
# Convention : Reuss Voigt Hill
#
# Bulk Modulus (GPa) = 63.16641 63.50803 63.33722
# Shear Modulus (GPa) = 26.98919 29.70978 28.34948
#
# Velocity S-wave (km/s) = 3.42643 3.59498 3.51171
# Velocity P-wave (km/s) = 6.56746 6.69762 6.63286
#
# Compressibility (1/GPa) = 0.01583120
#
# Stress axis : x y z
#
# Youngs Moduli (GPa) = 47.14254 92.73764 53.17045
#
# Poissons Ratio (x) = 0.33844 0.59675
# Poissons Ratio (y) = 0.17205 0.13894
# Poissons Ratio (z) = 0.52909 0.24233
#
# Static dielectric constant tensor:
#      x y z
#    x 4.332050 0.000000 0.000000 
#    y 0.000000 4.062720 0.000000 
#    z 0.000000 0.000000 4.019450 
# 
# 
# High freq. dielectric constant tensor:
#      x y z
#    x 1.910330 0.000000 0.000000 
#    y 0.000000 1.907220 0.000000 
#    z 0.000000 0.000000 1.893030 
# 
# From -- ./inp_files/5504.got.cif
#   From: 2010.03.12/outbox.cif.g09.slc.cpg/sg19_3_cif.got.tgz:5504.got - 2010.04.10 18:59:41.
