data_PCOD8157490
_publ_section_title
;
Structure prediction by ZEFSAII (Michael W. Deem and Ramdas Pophale) SiO2 
 PCOD8157490
Probable space group: P 21 21 21
;
_chemical_formula_sum "Si O2"
_cell_formula_units_Z 32
_cell_length_a 15.318595
_cell_length_b 10.622007
_cell_length_c 8.783884
_cell_angle_alpha 90.000000
_cell_angle_beta 90.000000
_cell_angle_gamma 90.000000
_cell_volume 1429.262863
_symmetry_space_group_name_H-M "P 21 21 21"
_symmetry_group_IT_number 19
_symmetry_cell_setting 'orthorhombic'
loop_
_space_group_symop_operation_xyz
x,y,z
1/2-x,-y,1/2+z
1/2+x,1/2-y,-z
-x,1/2+y,1/2-z
loop_
_atom_site_type_symbol
_atom_site_label
_atom_site_fract_x
_atom_site_fract_y
_atom_site_fract_z
Si Si1 0.247815 0.877761 0.333288
Si Si2 0.381925 0.708600 0.188248
Si Si3 0.447116 0.487638 0.686720
Si Si4 0.061657 0.772417 0.330383
Si Si5 0.683406 0.137664 0.631192
Si Si6 0.135984 0.528484 0.868718
Si Si7 0.434415 0.253982 0.179333
Si Si8 0.750738 0.363270 0.815709
O O1 0.330873 0.835884 0.232365
O O2 0.165576 0.785505 0.306503
O O3 0.274839 0.881548 0.509206
O O4 0.221797 0.016947 0.281407
O O5 0.337550 0.603290 0.294170
O O6 0.484829 0.710167 0.218902
O O7 0.373555 0.684420 0.009579
O O8 0.475878 0.345812 0.733267
O O9 0.518135 0.596067 0.722992
O O10 0.361058 0.520543 0.783536
O O11 0.431273 0.488218 0.506246
O O12 0.037819 0.741493 0.504136
O O13 0.777116 0.094414 0.567067
O O14 0.693788 0.247353 0.755134
O O15 0.092583 0.607163 0.732334
O O16 0.354469 0.157859 0.204806
#
# Coordination Sequence:
#
# PCOD8157490 Si02
#       8
#     4   4   4   4   4   4   4   4
#     4  11  24  42  72  97 148 180 245 285 365 414
#     4  12  24  42  70 100 134 190 225 290 346 425
#     4  12  26  44  74 103 145 182 239 295 353 421
#     4  11  26  47  67 107 141 185 234 297 355 422
#     4  11  24  43  69 100 138 181 241 279 358 412
#     4  11  23  44  71  97 138 180 235 284 353 417
#     4  10  25  45  68  99 139 181 234 286 354 420
#     4  10  24  45  69 103 139 189 231 300 346 433
#
# _framework density 22.389163
#
# number of rings (size 3 to 8) (size 9 to 14) (size 15 to 20)
#    0.000    1.000    1.250    4.500    5.250    3.000 
#    0.000    0.000    0.000    0.000    0.000    0.000 
#    0.000    0.000    0.000    0.000    0.000    0.000 
#
# Total GULP energy -397003.844269 kJ/mol
# GULP energy per Si atom -12406.370133 kJ/mol
# Density = 2.233820 g / cm^3
# Si number density = 22.389163 Si / 1000 Ang^3
#
#
#
# Elastic Constant Matrix: (Units=GPa)
#
#
# Indices 1 2 3 4 5 6 
#
# 1 67.7745 15.6361 18.6971 0.0000 0.0000 0.0000
# 2 15.6361 105.8516 23.4470 0.0000 0.0000 0.0000
# 3 18.6971 23.4470 84.0702 0.0000 0.0000 0.0000
# 4 0.0000 0.0000 0.0000 40.5996 0.0000 0.0000
# 5 0.0000 0.0000 0.0000 0.0000 30.6861 0.0000
# 6 0.0000 0.0000 0.0000 0.0000 0.0000 35.1391
#
#
#
# Elastic Compliance Matrix: (Units=1/GPa)
#
#
# Indices 1 2 3 4 5 6 
#
# 1 0.015994 -0.001678 -0.003089 0.000000 0.000000 0.000000
# 2 -0.001678 0.010245 -0.002484 0.000000 0.000000 0.000000
# 3 -0.003089 -0.002484 0.013275 0.000000 0.000000 0.000000
# 4 0.000000 0.000000 0.000000 0.024631 0.000000 0.000000
# 5 0.000000 0.000000 0.000000 0.000000 0.032588 0.000000
# 6 0.000000 0.000000 0.000000 0.000000 0.000000 0.028458
#
#
# Mechanical properties :
#
#
# Convention : Reuss Voigt Hill
#
# Bulk Modulus (GPa) = 39.98212 41.47295 40.72754
# Shear Modulus (GPa) = 33.77660 34.61269 34.19465
#
# Velocity S-wave (km/s) = 3.88830 3.93613 3.91229
# Velocity P-wave (km/s) = 6.16888 6.26270 6.21597
#
# Compressibility (1/GPa) = 0.02501118
#
# Stress axis : x y z
#
# Youngs Moduli (GPa) = 62.52268 97.60505 75.33165
#
# Poissons Ratio (x) = 0.16382 0.23270
# Poissons Ratio (y) = 0.10494 0.18713
# Poissons Ratio (z) = 0.19313 0.24246
#
# Static dielectric constant tensor:
#      x y z
#    x 3.902190 0.000000 0.000000 
#    y 0.000000 4.052320 0.000000 
#    z 0.000000 0.000000 3.938170 
# 
# 
# High freq. dielectric constant tensor:
#      x y z
#    x 1.880280 0.000000 0.000000 
#    y 0.000000 1.889790 0.000000 
#    z 0.000000 0.000000 1.886680 
# 
# From -- ./inp_files/4004.got.cif
#   From: 2010.03.12/outbox.cif.g09.slc.cpg/sg19_3_cif.got.tgz:4004.got - 2010.04.10 18:59:41.
