data_PCOD8157233
_publ_section_title
;
Structure prediction by ZEFSAII (Michael W. Deem and Ramdas Pophale) SiO2 
 PCOD8157233
Probable space group: P 21 21 21
;
_chemical_formula_sum "Si O2"
_cell_formula_units_Z 32
_cell_length_a 7.593589
_cell_length_b 22.108913
_cell_length_c 8.620716
_cell_angle_alpha 90.000000
_cell_angle_beta 90.000000
_cell_angle_gamma 90.000000
_cell_volume 1447.297514
_symmetry_space_group_name_H-M "P 21 21 21"
_symmetry_group_IT_number 19
_symmetry_cell_setting 'orthorhombic'
loop_
_space_group_symop_operation_xyz
x,y,z
1/2-x,-y,1/2+z
1/2+x,1/2-y,-z
-x,1/2+y,1/2-z
loop_
_atom_site_type_symbol
_atom_site_label
_atom_site_fract_x
_atom_site_fract_y
_atom_site_fract_z
Si Si1 0.908036 0.265626 0.353775
Si Si2 0.972635 0.834412 0.597754
Si Si3 0.113050 0.158978 0.818339
Si Si4 0.589417 0.857387 0.014001
Si Si5 0.452533 0.630132 0.069684
Si Si6 0.798824 0.563997 0.146957
Si Si7 0.301037 0.061903 0.003836
Si Si8 0.839438 0.734929 0.410825
O O1 0.753693 0.292068 0.246691
O O2 0.850486 0.209928 0.462137
O O3 0.966645 0.320453 0.458891
O O4 0.069140 0.239741 0.254329
O O5 0.019543 0.900376 0.529604
O O6 0.150121 0.794648 0.609947
O O7 0.892683 0.839940 0.767969
O O8 0.831575 0.802204 0.486256
O O9 0.191602 0.094028 0.866433
O O10 0.961974 0.146058 0.694334
O O11 0.043595 0.191817 0.974336
O O12 0.769801 0.896983 0.001075
O O13 0.431812 0.883703 0.909118
O O14 0.598367 0.578459 0.096121
O O15 0.856125 0.503345 0.059234
O O16 0.808000 0.558182 0.333798
#
# Coordination Sequence:
#
# PCOD8157233 Si02
#       8
#     4   4   4   4   4   4   4   4
#     4  12  22  38  62  96 141 177 223 281 347 409
#     4  10  22  42  61  98 136 178 228 274 354 396
#     4  11  23  41  65 100 138 189 228 274 363 404
#     4  12  24  41  67  98 138 179 224 286 341 419
#     4  11  26  40  64  99 136 178 226 287 339 419
#     4  11  24  47  73  97 136 181 243 279 354 405
#     4  10  22  45  74  94 137 189 224 294 339 422
#     4  11  21  36  62  94 136 177 224 279 333 416
#
# _framework density 22.110173
#
# number of rings (size 3 to 8) (size 9 to 14) (size 15 to 20)
#    0.000    1.000    3.750    5.250    3.500    0.000 
#    0.000    3.750    0.000    0.000    0.000    0.000 
#    0.000    0.000    0.000    0.000    0.000    0.000 
#
# Total GULP energy -396701.782039 kJ/mol
# GULP energy per Si atom -12396.930689 kJ/mol
# Density = 2.205985 g / cm^3
# Si number density = 22.110173 Si / 1000 Ang^3
#
#
#
# Elastic Constant Matrix: (Units=GPa)
#
#
# Indices 1 2 3 4 5 6 
#
# 1 64.3322 25.7164 -6.6312 0.0000 0.0000 0.0000
# 2 25.7164 78.7175 44.9642 0.0000 0.0000 0.0000
# 3 -6.6312 44.9642 68.9525 0.0000 0.0000 0.0000
# 4 0.0000 0.0000 0.0000 36.5564 0.0000 0.0000
# 5 0.0000 0.0000 0.0000 0.0000 34.5838 0.0000
# 6 0.0000 0.0000 0.0000 0.0000 0.0000 20.2634
#
#
#
# Elastic Compliance Matrix: (Units=1/GPa)
#
#
# Indices 1 2 3 4 5 6 
#
# 1 0.022014 -0.013388 0.010848 0.000000 0.000000 0.000000
# 2 -0.013388 0.028387 -0.019798 0.000000 0.000000 0.000000
# 3 0.010848 -0.019798 0.028457 0.000000 0.000000 0.000000
# 4 0.000000 0.000000 0.000000 0.027355 0.000000 0.000000
# 5 0.000000 0.000000 0.000000 0.000000 0.028915 0.000000
# 6 0.000000 0.000000 0.000000 0.000000 0.000000 0.049350
#
#
# Mechanical properties :
#
#
# Convention : Reuss Voigt Hill
#
# Bulk Modulus (GPa) = 29.25750 37.78901 33.52326
# Shear Modulus (GPa) = 20.78580 28.14425 24.46503
#
# Velocity S-wave (km/s) = 3.06943 3.57166 3.33003
# Velocity P-wave (km/s) = 5.08166 5.84271 5.47542
#
# Compressibility (1/GPa) = 0.03417927
#
# Stress axis : x y z
#
# Youngs Moduli (GPa) = 45.42510 35.22801 35.14128
#
# Poissons Ratio (x) = 0.47164 -0.38120
# Poissons Ratio (y) = 0.60816 0.69574
# Poissons Ratio (z) = -0.49275 0.69746
#
# Static dielectric constant tensor:
#      x y z
#    x 3.935180 0.000000 0.000000 
#    y 0.000000 3.962850 0.000000 
#    z 0.000000 0.000000 4.383050 
# 
# 
# High freq. dielectric constant tensor:
#      x y z
#    x 1.853440 0.000000 0.000000 
#    y 0.000000 1.855180 0.000000 
#    z 0.000000 0.000000 1.893350 
# 
# From -- ./inp_files/3239.got.cif
#   From: 2010.03.12/outbox.cif.g09.slc.cpg/sg19_2_cif.got.tgz:3239.got - 2010.04.10 18:59:41.
