data_PCOD8157588
_publ_section_title
;
Structure prediction by ZEFSAII (Michael W. Deem and Ramdas Pophale) SiO2 
 PCOD8157588
Probable space group: P 21 21 21
;
_chemical_formula_sum "Si O2"
_cell_formula_units_Z 28
_cell_length_a 15.974836
_cell_length_b 9.348604
_cell_length_c 8.339413
_cell_angle_alpha 90.000000
_cell_angle_beta 90.000000
_cell_angle_gamma 90.000000
_cell_volume 1245.428083
_symmetry_space_group_name_H-M "P 21 21 21"
_symmetry_group_IT_number 19
_symmetry_cell_setting 'orthorhombic'
loop_
_space_group_symop_operation_xyz
x,y,z
1/2-x,-y,1/2+z
1/2+x,1/2-y,-z
-x,1/2+y,1/2-z
loop_
_atom_site_type_symbol
_atom_site_label
_atom_site_fract_x
_atom_site_fract_y
_atom_site_fract_z
Si Si1 0.971069 0.009153 0.100565
Si Si2 0.828948 0.494801 0.810791
Si Si3 0.319605 0.536963 0.327833
Si Si4 0.066632 0.267515 0.637939
Si Si5 0.347267 0.070131 0.560752
Si Si6 0.908378 0.207854 0.832575
Si Si7 0.158046 0.604429 0.151193
O O1 0.068880 0.992707 0.140387
O O2 0.926969 0.050181 0.266658
O O3 0.932941 0.863043 0.023906
O O4 0.959643 0.139476 0.977654
O O5 0.877500 0.627561 0.890748
O O6 0.844021 0.482229 0.621810
O O7 0.730552 0.506077 0.842504
O O8 0.867361 0.354545 0.895050
O O9 0.394933 0.644266 0.286338
O O10 0.332816 0.390959 0.229032
O O11 0.231175 0.608037 0.283329
O O12 0.318296 0.510599 0.516613
O O13 0.971349 0.230558 0.682517
O O14 0.350179 0.241223 0.570542
#
# Coordination Sequence:
#
# PCOD8157588 Si02
#       7
#     4   4   4   4   4   4   4
#     4  11  26  48  74 110 146 193 250 306 371 442
#     4  12  25  46  77 105 145 191 243 301 378 432
#     4  11  23  44  72 101 140 197 240 298 360 447
#     4  11  21  46  77 104 140 189 245 302 369 442
#     4  12  27  51  69 112 150 191 245 310 368 447
#     4  11  22  45  76 102 144 190 244 298 369 444
#     4  12  26  48  71 106 151 193 251 303 371 438
#
# _framework density 22.482230999999999
#
# number of rings (size 3 to 8) (size 9 to 14) (size 15 to 20)
#    0.000    0.571    5.714    2.571    2.000    2.286 
#    7.714    0.000    0.000    0.000    0.000    0.000 
#    0.000    0.000    0.000    0.000    0.000    0.000 
#
# Total GULP energy -347375.843172 kJ/mol
# GULP energy per Si atom -12406.280113 kJ/mol
# Density = 2.243106 g / cm^3
# Si number density = 22.482231 Si / 1000 Ang^3
#
#
#
# Elastic Constant Matrix: (Units=GPa)
#
#
# Indices 1 2 3 4 5 6 
#
# 1 155.0812 48.3914 23.5139 0.0000 0.0000 0.0000
# 2 48.3914 131.5460 23.4465 0.0000 0.0000 0.0000
# 3 23.5139 23.4465 43.9166 0.0000 0.0000 0.0000
# 4 0.0000 0.0000 0.0000 18.6312 0.0000 0.0000
# 5 0.0000 0.0000 0.0000 0.0000 43.1388 0.0000
# 6 0.0000 0.0000 0.0000 0.0000 0.0000 39.5762
#
#
#
# Elastic Compliance Matrix: (Units=1/GPa)
#
#
# Indices 1 2 3 4 5 6 
#
# 1 0.007593 -0.002286 -0.002845 0.000000 0.000000 0.000000
# 2 -0.002286 0.009090 -0.003629 0.000000 0.000000 0.000000
# 3 -0.002845 -0.003629 0.026231 0.000000 0.000000 0.000000
# 4 0.000000 0.000000 0.000000 0.053673 0.000000 0.000000
# 5 0.000000 0.000000 0.000000 0.000000 0.023181 0.000000
# 6 0.000000 0.000000 0.000000 0.000000 0.000000 0.025268
#
#
# Mechanical properties :
#
#
# Convention : Reuss Voigt Hill
#
# Bulk Modulus (GPa) = 39.37942 57.91638 48.64790
# Shear Modulus (GPa) = 29.23633 35.94871 32.59252
#
# Velocity S-wave (km/s) = 3.61004 4.00307 3.81162
# Velocity P-wave (km/s) = 5.91019 6.86898 6.40755
#
# Compressibility (1/GPa) = 0.02539398
#
# Stress axis : x y z
#
# Youngs Moduli (GPa) = 131.70117 110.01485 38.12278
#
# Poissons Ratio (x) = 0.25151 0.10846
# Poissons Ratio (y) = 0.30108 0.13834
# Poissons Ratio (z) = 0.37468 0.39922
#
# Static dielectric constant tensor:
#      x y z
#    x 4.213850 0.000000 0.000000 
#    y 0.000000 4.268050 0.000000 
#    z 0.000000 0.000000 3.784280 
# 
# 
# High freq. dielectric constant tensor:
#      x y z
#    x 1.898870 0.000000 0.000000 
#    y 0.000000 1.895990 0.000000 
#    z 0.000000 0.000000 1.870080 
# 
# From -- ./inp_files/4171.got.cif
#   From: 2010.03.12/outbox.cif.g09.slc.cpg/sg19_3_cif.got.tgz:4171.got - 2010.04.10 18:59:41.
