data_PCOD8157483
_publ_section_title
;
Structure prediction by ZEFSAII (Michael W. Deem and Ramdas Pophale) SiO2 
 PCOD8157483
Probable space group: P 21 21 21
;
_chemical_formula_sum "Si O2"
_cell_formula_units_Z 20
_cell_length_a 8.146634
_cell_length_b 18.569346
_cell_length_c 5.167437
_cell_angle_alpha 90.000000
_cell_angle_beta 90.000000
_cell_angle_gamma 90.000000
_cell_volume 781.717806
_symmetry_space_group_name_H-M "P 21 21 21"
_symmetry_group_IT_number 19
_symmetry_cell_setting 'orthorhombic'
loop_
_space_group_symop_operation_xyz
x,y,z
1/2-x,-y,1/2+z
1/2+x,1/2-y,-z
-x,1/2+y,1/2-z
loop_
_atom_site_type_symbol
_atom_site_label
_atom_site_fract_x
_atom_site_fract_y
_atom_site_fract_z
Si Si1 0.755215 0.046560 0.770849
Si Si2 0.410873 0.914477 0.064528
Si Si3 0.092972 0.233539 0.338604
Si Si4 0.089363 0.923399 0.383066
Si Si5 0.561970 0.710065 0.331072
O O1 0.585469 0.092398 0.734773
O O2 0.925199 0.090494 0.743494
O O3 0.753574 0.982685 0.562654
O O4 0.245816 0.896207 0.221993
O O5 0.432311 0.852826 0.850451
O O6 0.392529 0.991852 0.931746
O O7 0.074823 0.270407 0.620515
O O8 0.276916 0.252116 0.257501
O O9 0.972162 0.264341 0.123073
O O10 0.087205 0.876976 0.649690
#
# Coordination Sequence:
#
# PCOD8157483 Si02
#       5
#     4   4   4   4   4
#     4  10  24  44  72 116 154 194 248 316 396 452
#     4  11  24  48  81 114 154 201 263 324 386 460
#     4  12  28  52  78 115 156 206 258 317 394 465
#     4  11  24  48  81 114 154 201 263 324 386 460
#     4  12  28  52  78 115 156 206 258 317 394 465
#
# _framework density 25.584678
#
# number of rings (size 3 to 8) (size 9 to 14) (size 15 to 20)
#    0.000    0.800    0.000    6.000    2.800    9.600 
#   21.600    0.000    0.000    0.000    0.000    0.000 
#    0.000    0.000    0.000    0.000    0.000    0.000 
#
# Total GULP energy -247997.149069 kJ/mol
# GULP energy per Si atom -12399.857453 kJ/mol
# Density = 2.552645 g / cm^3
# Si number density = 25.584678 Si / 1000 Ang^3
#
#
#
# Elastic Constant Matrix: (Units=GPa)
#
#
# Indices 1 2 3 4 5 6 
#
# 1 197.6876 -3.7497 28.3275 0.0000 0.0000 0.0000
# 2 -3.7497 89.3065 38.8202 0.0000 0.0000 0.0000
# 3 28.3275 38.8202 107.3667 0.0000 0.0000 0.0000
# 4 0.0000 0.0000 0.0000 35.8383 0.0000 0.0000
# 5 0.0000 0.0000 0.0000 0.0000 47.4710 0.0000
# 6 0.0000 0.0000 0.0000 0.0000 0.0000 24.9784
#
#
#
# Elastic Compliance Matrix: (Units=1/GPa)
#
#
# Indices 1 2 3 4 5 6 
#
# 1 0.005330 0.000991 -0.001765 0.000000 0.000000 0.000000
# 2 0.000991 0.013470 -0.005132 0.000000 0.000000 0.000000
# 3 -0.001765 -0.005132 0.011635 0.000000 0.000000 0.000000
# 4 0.000000 0.000000 0.000000 0.027903 0.000000 0.000000
# 5 0.000000 0.000000 0.000000 0.000000 0.021066 0.000000
# 6 0.000000 0.000000 0.000000 0.000000 0.000000 0.040035
#
#
# Mechanical properties :
#
#
# Convention : Reuss Voigt Hill
#
# Bulk Modulus (GPa) = 53.69424 57.90631 55.80027
# Shear Modulus (GPa) = 36.37517 43.72172 40.04845
#
# Velocity S-wave (km/s) = 3.77471 4.13837 3.96072
# Velocity P-wave (km/s) = 6.32695 6.74664 6.54016
#
# Compressibility (1/GPa) = 0.01862397
#
# Stress axis : x y z
#
# Youngs Moduli (GPa) = 187.61274 74.24124 85.94883
#
# Poissons Ratio (x) = -0.07356 0.15166
# Poissons Ratio (y) = -0.18589 0.44105
# Poissons Ratio (z) = 0.33105 0.38097
#
# Static dielectric constant tensor:
#      x y z
#    x 5.284790 0.000000 0.000000 
#    y 0.000000 4.571460 0.000000 
#    z 0.000000 0.000000 4.463790 
# 
# 
# High freq. dielectric constant tensor:
#      x y z
#    x 2.047920 0.000000 0.000000 
#    y 0.000000 2.022610 0.000000 
#    z 0.000000 0.000000 2.011440 
# 
# From -- ./inp_files/440.got.cif
#   From: 2010.03.12/outbox.cif.g09.slc.cpg/sg19_1_cif.got.tgz:440.got - 2010.04.10 18:59:41.
