data_PCOD8157086
_publ_section_title
;
Structure prediction by ZEFSAII (Michael W. Deem and Ramdas Pophale) SiO2 
 PCOD8157086
Probable space group: P 21 21 21
;
_chemical_formula_sum "Si O2"
_cell_formula_units_Z 24
_cell_length_a 5.420057
_cell_length_b 8.872749
_cell_length_c 22.954961
_cell_angle_alpha 90.000000
_cell_angle_beta 90.000000
_cell_angle_gamma 90.000000
_cell_volume 1103.922561
_symmetry_space_group_name_H-M "P 21 21 21"
_symmetry_group_IT_number 19
_symmetry_cell_setting 'orthorhombic'
loop_
_space_group_symop_operation_xyz
x,y,z
1/2-x,-y,1/2+z
1/2+x,1/2-y,-z
-x,1/2+y,1/2-z
loop_
_atom_site_type_symbol
_atom_site_label
_atom_site_fract_x
_atom_site_fract_y
_atom_site_fract_z
Si Si1 0.607699 0.943425 0.357009
Si Si2 0.479485 0.421786 0.718044
Si Si3 0.299496 0.669503 0.978842
Si Si4 0.354745 0.329429 0.020446
Si Si5 0.672682 0.343317 0.257574
Si Si6 0.348763 0.249835 0.354823
O O1 0.613132 0.825413 0.409607
O O2 0.480124 0.873726 0.300415
O O3 0.477649 0.097403 0.378541
O O4 0.886459 0.981308 0.337500
O O5 0.610514 0.533327 0.763190
O O6 0.258532 0.331505 0.749710
O O7 0.651507 0.290148 0.694249
O O8 0.270085 0.664313 0.909078
O O9 0.553118 0.757365 0.993164
O O10 0.318189 0.499313 0.999828
O O11 0.607004 0.263360 0.993885
O O12 0.533188 0.359364 0.319375
#
# Coordination Sequence:
#
# PCOD8157086 Si02
#       6
#     4   4   4   4   4   4
#     4  10  22  45  69  95 143 187 230 296 370 426
#     4  10  21  42  68  97 142 178 232 287 364 417
#     4  12  25  48  80 105 141 200 255 292 357 440
#     4  12  28  50  70 111 150 191 243 310 375 423
#     4  10  22  41  68 104 133 186 228 291 360 429
#     4  10  22  42  71 102 131 182 248 292 342 435
#
# _framework density 21.740656000000001
#
# number of rings (size 3 to 8) (size 9 to 14) (size 15 to 20)
#    0.000    1.333    1.667    3.000    7.000    0.000 
#   15.000    0.000    0.000    0.000    0.000    0.000 
#    0.000    0.000    0.000    0.000    0.000    0.000 
#
# Total GULP energy -297510.020275 kJ/mol
# GULP energy per Si atom -12396.250845 kJ/mol
# Density = 2.169117 g / cm^3
# Si number density = 21.740656 Si / 1000 Ang^3
#
#
#
# Elastic Constant Matrix: (Units=GPa)
#
#
# Indices 1 2 3 4 5 6 
#
# 1 103.4586 43.0791 6.7303 0.0000 0.0000 0.0000
# 2 43.0791 98.5122 51.8307 0.0000 0.0000 0.0000
# 3 6.7303 51.8307 74.4354 0.0000 0.0000 0.0000
# 4 0.0000 0.0000 0.0000 42.6431 0.0000 0.0000
# 5 0.0000 0.0000 0.0000 0.0000 18.0558 0.0000
# 6 0.0000 0.0000 0.0000 0.0000 0.0000 44.3853
#
#
#
# Elastic Compliance Matrix: (Units=1/GPa)
#
#
# Indices 1 2 3 4 5 6 
#
# 1 0.012620 -0.007762 0.004264 0.000000 0.000000 0.000000
# 2 -0.007762 0.020794 -0.013778 0.000000 0.000000 0.000000
# 3 0.004264 -0.013778 0.022643 0.000000 0.000000 0.000000
# 4 0.000000 0.000000 0.000000 0.023450 0.000000 0.000000
# 5 0.000000 0.000000 0.000000 0.000000 0.055384 0.000000
# 6 0.000000 0.000000 0.000000 0.000000 0.000000 0.022530
#
#
# Mechanical properties :
#
#
# Convention : Reuss Voigt Hill
#
# Bulk Modulus (GPa) = 46.50012 53.29850 49.89931
# Shear Modulus (GPa) = 25.10770 32.66792 28.88781
#
# Velocity S-wave (km/s) = 3.40203 3.88057 3.64915
# Velocity P-wave (km/s) = 6.07180 6.68186 6.38412
#
# Compressibility (1/GPa) = 0.02150532
#
# Stress axis : x y z
#
# Youngs Moduli (GPa) = 79.23646 48.09006 44.16469
#
# Poissons Ratio (x) = 0.37329 -0.18831
# Poissons Ratio (y) = 0.61505 0.60848
# Poissons Ratio (z) = -0.33785 0.66257
#
# Static dielectric constant tensor:
#      x y z
#    x 4.283780 0.000000 0.000000 
#    y 0.000000 3.982970 0.000000 
#    z 0.000000 0.000000 3.896380 
# 
# 
# High freq. dielectric constant tensor:
#      x y z
#    x 1.874150 0.000000 0.000000 
#    y 0.000000 1.849640 0.000000 
#    z 0.000000 0.000000 1.851540 
# 
# From -- ./inp_files/481.got.cif
#   From: 2010.03.12/outbox.cif.g09.slc.cpg/sg19_1_cif.got.tgz:481.got - 2010.04.10 18:59:41.
