data_PCOD8157260
_publ_section_title
;
Structure prediction by ZEFSAII (Michael W. Deem and Ramdas Pophale) SiO2 
 PCOD8157260
Probable space group: P 21 21 21
;
_chemical_formula_sum "Si O2"
_cell_formula_units_Z 32
_cell_length_a 14.030073
_cell_length_b 9.898892
_cell_length_c 11.037730
_cell_angle_alpha 90.000000
_cell_angle_beta 90.000000
_cell_angle_gamma 90.000000
_cell_volume 1532.943976
_symmetry_space_group_name_H-M "P 21 21 21"
_symmetry_group_IT_number 19
_symmetry_cell_setting 'orthorhombic'
loop_
_space_group_symop_operation_xyz
x,y,z
1/2-x,-y,1/2+z
1/2+x,1/2-y,-z
-x,1/2+y,1/2-z
loop_
_atom_site_type_symbol
_atom_site_label
_atom_site_fract_x
_atom_site_fract_y
_atom_site_fract_z
Si Si1 0.919907 0.376941 0.812685
Si Si2 0.964122 0.240757 0.332359
Si Si3 0.117234 0.365843 0.681999
Si Si4 0.910824 0.116807 0.964984
Si Si5 0.556344 0.454308 0.854578
Si Si6 0.228752 0.032469 0.298775
Si Si7 0.403217 0.878993 0.013232
Si Si8 0.212354 0.725102 0.313784
O O1 0.830809 0.401205 0.723936
O O2 0.013367 0.396734 0.733362
O O3 0.917692 0.224267 0.858330
O O4 0.921205 0.474992 0.928736
O O5 0.989408 0.399984 0.321740
O O6 0.851918 0.218329 0.308656
O O7 0.021485 0.165202 0.229600
O O8 0.996641 0.180058 0.461650
O O9 0.139612 0.483253 0.586417
O O10 0.131285 0.220684 0.618431
O O11 0.194009 0.365563 0.790876
O O12 0.844414 0.166003 0.073342
O O13 0.019593 0.084204 0.010842
O O14 0.670253 0.461216 0.830125
O O15 0.174601 0.112745 0.405864
O O16 0.240963 0.878943 0.342825
#
# Coordination Sequence:
#
# PCOD8157260 Si02
#       8
#     4   4   4   4   4   4   4   4
#     4  12  26  42  65  97 131 171 219 260 324 392
#     4   9  19  37  65  94 123 166 215 261 311 377
#     4  12  26  42  64  96 136 163 208 273 328 377
#     4  11  24  43  64  96 136 169 208 275 330 365
#     4   9  19  38  65  94 125 162 217 263 308 376
#     4  10  22  42  70  95 120 176 231 253 305 404
#     4  11  22  43  68  92 130 174 211 265 324 376
#     4  10  22  43  67  94 129 169 223 264 312 391
#
# _framework density 20.874866000000001
#
# number of rings (size 3 to 8) (size 9 to 14) (size 15 to 20)
#    0.000    1.500    3.750    0.750    1.750    5.000 
#    2.250    0.000    0.000    0.000    0.000    0.000 
#    0.000    0.000    0.000    0.000    0.000    0.000 
#
# Total GULP energy -396715.546518 kJ/mol
# GULP energy per Si atom -12397.360829 kJ/mol
# Density = 2.082735 g / cm^3
# Si number density = 20.874866 Si / 1000 Ang^3
#
#
#
# Elastic Constant Matrix: (Units=GPa)
#
#
# Indices 1 2 3 4 5 6 
#
# 1 122.6762 37.4266 44.3049 0.0000 0.0000 0.0000
# 2 37.4266 86.3772 26.0685 0.0000 0.0000 0.0000
# 3 44.3049 26.0685 76.6443 0.0000 0.0000 0.0000
# 4 0.0000 0.0000 0.0000 44.2543 0.0000 0.0000
# 5 0.0000 0.0000 0.0000 0.0000 36.3478 0.0000
# 6 0.0000 0.0000 0.0000 0.0000 0.0000 28.1323
#
#
#
# Elastic Compliance Matrix: (Units=1/GPa)
#
#
# Indices 1 2 3 4 5 6 
#
# 1 0.011036 -0.003183 -0.005297 0.000000 0.000000 0.000000
# 2 -0.003183 0.013820 -0.002860 0.000000 0.000000 0.000000
# 3 -0.005297 -0.002860 0.017082 0.000000 0.000000 0.000000
# 4 0.000000 0.000000 0.000000 0.022597 0.000000 0.000000
# 5 0.000000 0.000000 0.000000 0.000000 0.027512 0.000000
# 6 0.000000 0.000000 0.000000 0.000000 0.000000 0.035546
#
#
# Mechanical properties :
#
#
# Convention : Reuss Voigt Hill
#
# Bulk Modulus (GPa) = 51.92915 55.69974 53.81445
# Shear Modulus (GPa) = 31.90996 33.60672 32.75834
#
# Velocity S-wave (km/s) = 3.91401 4.01673 3.96570
# Velocity P-wave (km/s) = 6.73472 6.94642 6.84139
#
# Compressibility (1/GPa) = 0.01925701
#
# Stress axis : x y z
#
# Youngs Moduli (GPa) = 90.61653 72.36103 58.54163
#
# Poissons Ratio (x) = 0.23033 0.31007
# Poissons Ratio (y) = 0.28844 0.16745
# Poissons Ratio (z) = 0.47995 0.20698
#
# Static dielectric constant tensor:
#      x y z
#    x 3.902380 0.000000 0.000000 
#    y 0.000000 3.877120 0.000000 
#    z 0.000000 0.000000 3.816160 
# 
# 
# High freq. dielectric constant tensor:
#      x y z
#    x 1.810600 0.000000 0.000000 
#    y 0.000000 1.829140 0.000000 
#    z 0.000000 0.000000 1.811660 
# 
# From -- ./inp_files/5222.got.cif
#   From: 2010.03.12/outbox.cif.g09.slc.cpg/sg19_3_cif.got.tgz:5222.got - 2010.04.10 18:59:41.
