data_PCOD8157386
_publ_section_title
;
Structure prediction by ZEFSAII (Michael W. Deem and Ramdas Pophale) SiO2 
 PCOD8157386
Probable space group: P 21 21 21
;
_chemical_formula_sum "Si O2"
_cell_formula_units_Z 32
_cell_length_a 16.041531
_cell_length_b 9.978963
_cell_length_c 8.489288
_cell_angle_alpha 90.000000
_cell_angle_beta 90.000000
_cell_angle_gamma 90.000000
_cell_volume 1358.946923
_symmetry_space_group_name_H-M "P 21 21 21"
_symmetry_group_IT_number 19
_symmetry_cell_setting 'orthorhombic'
loop_
_space_group_symop_operation_xyz
x,y,z
1/2-x,-y,1/2+z
1/2+x,1/2-y,-z
-x,1/2+y,1/2-z
loop_
_atom_site_type_symbol
_atom_site_label
_atom_site_fract_x
_atom_site_fract_y
_atom_site_fract_z
Si Si1 0.431243 0.898753 0.317949
Si Si2 0.179842 0.314364 0.710715
Si Si3 0.918730 0.934371 0.269129
Si Si4 0.759240 0.831212 0.117467
Si Si5 0.188216 0.840977 0.340856
Si Si6 0.412770 0.474924 0.382761
Si Si7 0.799677 0.445925 0.512588
Si Si8 0.021251 0.704400 0.387967
O O1 0.357678 0.836687 0.208119
O O2 0.466032 0.800792 0.454909
O O3 0.504432 0.923087 0.196693
O O4 0.388970 0.028268 0.401895
O O5 0.198589 0.383110 0.544439
O O6 0.266020 0.302277 0.808559
O O7 0.106520 0.386663 0.800413
O O8 0.822022 0.889812 0.248021
O O9 0.929012 0.007381 0.434754
O O10 0.969643 0.792894 0.258258
O O11 0.954580 0.050517 0.154471
O O12 0.750995 0.671426 0.101545
O O13 0.666522 0.881162 0.149589
O O14 0.101495 0.798465 0.418683
O O15 0.239590 0.924836 0.470800
O O16 0.180366 0.915266 0.170567
#
# Coordination Sequence:
#
# PCOD8157386 Si02
#       8
#     4   4   4   4   4   4   4   4
#     4  11  26  45  70 106 148 195 247 308 377 446
#     4  10  23  47  64 101 139 188 242 302 357 455
#     4  12  28  44  75 111 148 196 254 312 384 449
#     4  11  25  44  73 102 146 196 244 305 379 443
#     4  10  23  43  73 100 150 190 258 300 384 435
#     4  12  25  44  73 101 145 189 250 300 383 445
#     4  10  24  44  72 107 147 198 249 311 372 460
#     4  12  26  47  72 110 155 198 252 320 374 459
#
# _framework density 23.547644999999999
#
# number of rings (size 3 to 8) (size 9 to 14) (size 15 to 20)
#    0.000    1.000    1.250    4.500    7.000    4.000 
#    0.000    0.000    0.000    0.000    0.000    0.000 
#    0.000    0.000    0.000    0.000    0.000    0.000 
#
# Total GULP energy -396496.189128 kJ/mol
# GULP energy per Si atom -12390.505910 kJ/mol
# Density = 2.349405 g / cm^3
# Si number density = 23.547645 Si / 1000 Ang^3
#
#
#
# Elastic Constant Matrix: (Units=GPa)
#
#
# Indices 1 2 3 4 5 6 
#
# 1 119.0632 24.8428 25.0682 0.0000 0.0000 0.0000
# 2 24.8428 69.9734 18.8009 0.0000 0.0000 0.0000
# 3 25.0682 18.8009 67.2799 0.0000 0.0000 0.0000
# 4 0.0000 0.0000 0.0000 13.8720 0.0000 0.0000
# 5 0.0000 0.0000 0.0000 0.0000 33.6262 0.0000
# 6 0.0000 0.0000 0.0000 0.0000 0.0000 44.1421
#
#
#
# Elastic Compliance Matrix: (Units=1/GPa)
#
#
# Indices 1 2 3 4 5 6 
#
# 1 0.009541 -0.002630 -0.002820 0.000000 0.000000 0.000000
# 2 -0.002630 0.016176 -0.003540 0.000000 0.000000 0.000000
# 3 -0.002820 -0.003540 0.016903 0.000000 0.000000 0.000000
# 4 0.000000 0.000000 0.000000 0.072088 0.000000 0.000000
# 5 0.000000 0.000000 0.000000 0.000000 0.029739 0.000000
# 6 0.000000 0.000000 0.000000 0.000000 0.000000 0.022654
#
#
# Mechanical properties :
#
#
# Convention : Reuss Voigt Hill
#
# Bulk Modulus (GPa) = 40.58431 43.74892 42.16662
# Shear Modulus (GPa) = 25.86713 30.83504 28.35109
#
# Velocity S-wave (km/s) = 3.31796 3.62259 3.47362
# Velocity P-wave (km/s) = 5.65251 6.00972 5.83385
#
# Compressibility (1/GPa) = 0.02464006
#
# Stress axis : x y z
#
# Youngs Moduli (GPa) = 104.80659 61.81975 59.15954
#
# Poissons Ratio (x) = 0.16257 0.16684
# Poissons Ratio (y) = 0.27561 0.20945
# Poissons Ratio (z) = 0.29558 0.21887
#
# Static dielectric constant tensor:
#      x y z
#    x 4.510500 0.000000 0.000000 
#    y 0.000000 4.378390 0.000000 
#    z 0.000000 0.000000 4.071510 
# 
# 
# High freq. dielectric constant tensor:
#      x y z
#    x 1.953120 0.000000 0.000000 
#    y 0.000000 1.934930 0.000000 
#    z 0.000000 0.000000 1.917960 
# 
# From -- ./inp_files/3955.got.cif
#   From: 2010.03.12/outbox.cif.g09.slc.cpg/sg19_2_cif.got.tgz:3955.got - 2010.04.10 18:59:41.
