data_PCOD8157415
_publ_section_title
;
Structure prediction by ZEFSAII (Michael W. Deem and Ramdas Pophale) SiO2 
 PCOD8157415
Probable space group: P 21 21 21
;
_chemical_formula_sum "Si O2"
_cell_formula_units_Z 24
_cell_length_a 9.759592
_cell_length_b 9.506068
_cell_length_c 11.863495
_cell_angle_alpha 90.000000
_cell_angle_beta 90.000000
_cell_angle_gamma 90.000000
_cell_volume 1100.639844
_symmetry_space_group_name_H-M "P 21 21 21"
_symmetry_group_IT_number 19
_symmetry_cell_setting 'orthorhombic'
loop_
_space_group_symop_operation_xyz
x,y,z
1/2-x,-y,1/2+z
1/2+x,1/2-y,-z
-x,1/2+y,1/2-z
loop_
_atom_site_type_symbol
_atom_site_label
_atom_site_fract_x
_atom_site_fract_y
_atom_site_fract_z
Si Si1 0.735972 0.408293 0.795173
Si Si2 0.075433 0.567940 0.334014
Si Si3 0.241968 0.372514 0.633146
Si Si4 0.449506 0.845483 0.226474
Si Si5 0.226518 0.682080 0.886304
Si Si6 0.629645 0.829631 0.428441
O O1 0.583448 0.463065 0.814730
O O2 0.831921 0.542995 0.794231
O O3 0.748806 0.330010 0.675323
O O4 0.780622 0.306330 0.897115
O O5 0.137106 0.643483 0.224077
O O6 0.147022 0.419734 0.358889
O O7 0.095904 0.673592 0.439338
O O8 0.102196 0.306271 0.682507
O O9 0.285692 0.289964 0.519688
O O10 0.219506 0.535176 0.604604
O O11 0.586373 0.889098 0.158255
O O12 0.487279 0.830053 0.358362
#
# Coordination Sequence:
#
# PCOD8157415 Si02
#       6
#     4   4   4   4   4   4
#     4  11  25  43  69 104 130 177 231 278 338 404
#     4  11  25  43  68  98 135 175 227 283 332 393
#     4  11  24  43  71  94 138 183 217 280 343 398
#     4  11  24  43  72  97 134 178 226 270 347 407
#     4  10  25  47  66 101 142 176 225 281 340 408
#     4  10  23  45  66  94 137 175 224 280 338 402
#
# _framework density 21.805499000000001
#
# number of rings (size 3 to 8) (size 9 to 14) (size 15 to 20)
#    0.000    1.333    3.333    2.000    7.000    4.000 
#    0.000    0.000    0.000    0.000    0.000    0.000 
#    0.000    0.000    0.000    0.000    0.000    0.000 
#
# Total GULP energy -297709.504259 kJ/mol
# GULP energy per Si atom -12404.562677 kJ/mol
# Density = 2.175587 g / cm^3
# Si number density = 21.805499 Si / 1000 Ang^3
#
#
#
# Elastic Constant Matrix: (Units=GPa)
#
#
# Indices 1 2 3 4 5 6 
#
# 1 175.8118 46.7711 60.2237 0.0000 0.0000 0.0000
# 2 46.7711 63.6681 19.3815 0.0000 0.0000 0.0000
# 3 60.2237 19.3815 162.1546 0.0000 0.0000 0.0000
# 4 0.0000 0.0000 0.0000 19.2665 0.0000 0.0000
# 5 0.0000 0.0000 0.0000 0.0000 22.0833 0.0000
# 6 0.0000 0.0000 0.0000 0.0000 0.0000 39.5660
#
#
#
# Elastic Compliance Matrix: (Units=1/GPa)
#
#
# Indices 1 2 3 4 5 6 
#
# 1 0.007817 -0.005042 -0.002301 0.000000 0.000000 0.000000
# 2 -0.005042 0.019552 -0.000464 0.000000 0.000000 0.000000
# 3 -0.002301 -0.000464 0.007077 0.000000 0.000000 0.000000
# 4 0.000000 0.000000 0.000000 0.051904 0.000000 0.000000
# 5 0.000000 0.000000 0.000000 0.000000 0.045283 0.000000
# 6 0.000000 0.000000 0.000000 0.000000 0.000000 0.025274
#
#
# Mechanical properties :
#
#
# Convention : Reuss Voigt Hill
#
# Bulk Modulus (GPa) = 53.10188 72.70966 62.90577
# Shear Modulus (GPa) = 27.96438 34.53370 31.24904
#
# Velocity S-wave (km/s) = 3.58501 3.98391 3.78971
# Velocity P-wave (km/s) = 6.44529 7.38777 6.93256
#
# Compressibility (1/GPa) = 0.01883172
#
# Stress axis : x y z
#
# Youngs Moduli (GPa) = 127.91973 51.14584 141.30473
#
# Poissons Ratio (x) = 0.25790 0.32510
# Poissons Ratio (y) = 0.64502 0.06560
# Poissons Ratio (z) = 0.29430 0.02374
#
# Static dielectric constant tensor:
#      x y z
#    x 3.914910 0.000000 0.000000 
#    y 0.000000 3.688410 0.000000 
#    z 0.000000 0.000000 4.315830 
# 
# 
# High freq. dielectric constant tensor:
#      x y z
#    x 1.859870 0.000000 0.000000 
#    y 0.000000 1.847380 0.000000 
#    z 0.000000 0.000000 1.867530 
# 
# From -- ./inp_files/4549.got.cif
#   From: 2010.03.12/outbox.cif.g09.slc.cpg/sg19_3_cif.got.tgz:4549.got - 2010.04.10 18:59:41.
