data_PCOD8157430
_publ_section_title
;
Structure prediction by ZEFSAII (Michael W. Deem and Ramdas Pophale) SiO2 
 PCOD8157430
Probable space group: P 21 21 21
;
_chemical_formula_sum "Si O2"
_cell_formula_units_Z 16
_cell_length_a 12.058451
_cell_length_b 10.864795
_cell_length_c 4.984082
_cell_angle_alpha 90.000000
_cell_angle_beta 90.000000
_cell_angle_gamma 90.000000
_cell_volume 652.977532
_symmetry_space_group_name_H-M "P 21 21 21"
_symmetry_group_IT_number 19
_symmetry_cell_setting 'orthorhombic'
loop_
_space_group_symop_operation_xyz
x,y,z
1/2-x,-y,1/2+z
1/2+x,1/2-y,-z
-x,1/2+y,1/2-z
loop_
_atom_site_type_symbol
_atom_site_label
_atom_site_fract_x
_atom_site_fract_y
_atom_site_fract_z
Si Si1 0.162806 0.906627 0.952475
Si Si2 0.161524 0.176271 0.087230
Si Si3 0.524714 0.651433 0.544744
Si Si4 0.797728 0.937251 0.545264
O O1 0.283847 0.850526 0.880692
O O2 0.074448 0.845327 0.752360
O O3 0.123879 0.880388 0.253841
O O4 0.170339 0.054234 0.903625
O O5 0.032388 0.216829 0.118891
O O6 0.229848 0.290192 0.950334
O O7 0.426706 0.547763 0.546886
O O8 0.718399 0.010202 0.342482
#
# Coordination Sequence:
#
# PCOD8157430 Si02
#       4
#     4   4   4   4
#     4  12  24  49  73 106 152 192 237 322 357 446
#     4  10  28  46  74 112 146 192 256 295 386 430
#     4  10  27  43  72 110 143 199 243 293 373 442
#     4  10  23  46  71 104 149 189 248 300 358 436
#
# _framework density 24.503139000000001
#
# number of rings (size 3 to 8) (size 9 to 14) (size 15 to 20)
#    1.500    0.000    0.000    3.000    0.000   18.000 
#    0.000    0.000    0.000    0.000    0.000    0.000 
#    0.000    0.000    0.000    0.000    0.000    0.000 
#
# Total GULP energy -198274.246785 kJ/mol
# GULP energy per Si atom -12392.140424 kJ/mol
# Density = 2.444737 g / cm^3
# Si number density = 24.503139 Si / 1000 Ang^3
#
#
#
# Elastic Constant Matrix: (Units=GPa)
#
#
# Indices 1 2 3 4 5 6 
#
# 1 66.9131 5.4460 3.8362 0.0000 0.0000 0.0000
# 2 5.4460 107.8136 -13.1685 0.0000 0.0000 0.0000
# 3 3.8362 -13.1685 57.6147 0.0000 0.0000 0.0000
# 4 0.0000 0.0000 0.0000 39.1216 0.0000 0.0000
# 5 0.0000 0.0000 0.0000 0.0000 37.0271 0.0000
# 6 0.0000 0.0000 0.0000 0.0000 0.0000 47.5373
#
#
#
# Elastic Compliance Matrix: (Units=1/GPa)
#
#
# Indices 1 2 3 4 5 6 
#
# 1 0.015088 -0.000910 -0.001213 0.000000 0.000000 0.000000
# 2 -0.000910 0.009597 0.002254 0.000000 0.000000 0.000000
# 3 -0.001213 0.002254 0.017953 0.000000 0.000000 0.000000
# 4 0.000000 0.000000 0.000000 0.025561 0.000000 0.000000
# 5 0.000000 0.000000 0.000000 0.000000 0.027007 0.000000
# 6 0.000000 0.000000 0.000000 0.000000 0.000000 0.021036
#
#
# Mechanical properties :
#
#
# Convention : Reuss Voigt Hill
#
# Bulk Modulus (GPa) = 23.31022 24.95208 24.13115
# Shear Modulus (GPa) = 38.37887 40.48571 39.43229
#
# Velocity S-wave (km/s) = 3.96192 4.06922 4.01593
# Velocity P-wave (km/s) = 5.51932 5.68185 5.60117
#
# Compressibility (1/GPa) = 0.04289963
#
# Stress axis : x y z
#
# Youngs Moduli (GPa) = 66.27624 104.20407 55.70218
#
# Poissons Ratio (x) = 0.09485 0.06755
# Poissons Ratio (y) = 0.06033 -0.12555
# Poissons Ratio (z) = 0.08037 -0.23488
#
# Static dielectric constant tensor:
#      x y z
#    x 4.428520 0.000000 0.000000 
#    y 0.000000 4.397880 0.000000 
#    z 0.000000 0.000000 3.884930 
# 
# 
# High freq. dielectric constant tensor:
#      x y z
#    x 1.980820 0.000000 0.000000 
#    y 0.000000 1.969230 0.000000 
#    z 0.000000 0.000000 1.962980 
# 
# From -- ./inp_files/789.got.cif
#   From: 2010.03.12/outbox.cif.g09.slc.cpg/sg19_1_cif.got.tgz:789.got - 2010.04.10 18:59:41.
