data_PCOD8157817
_publ_section_title
;
Structure prediction by ZEFSAII (Michael W. Deem and Ramdas Pophale) SiO2 
 PCOD8157817
Probable space group: P 21 21 21
;
_chemical_formula_sum "Si O2"
_cell_formula_units_Z 28
_cell_length_a 7.661276
_cell_length_b 11.973425
_cell_length_c 12.558760
_cell_angle_alpha 90.000000
_cell_angle_beta 90.000000
_cell_angle_gamma 90.000000
_cell_volume 1152.036575
_symmetry_space_group_name_H-M "P 21 21 21"
_symmetry_group_IT_number 19
_symmetry_cell_setting 'orthorhombic'
loop_
_space_group_symop_operation_xyz
x,y,z
1/2-x,-y,1/2+z
1/2+x,1/2-y,-z
-x,1/2+y,1/2-z
loop_
_atom_site_type_symbol
_atom_site_label
_atom_site_fract_x
_atom_site_fract_y
_atom_site_fract_z
Si Si1 0.488591 0.850693 0.042510
Si Si2 0.788816 0.179904 0.954256
Si Si3 0.600815 0.893198 0.681743
Si Si4 0.279416 0.014739 0.743011
Si Si5 0.403321 0.091191 0.966511
Si Si6 0.115800 0.566337 0.758181
Si Si7 0.169346 0.766055 0.144459
O O1 0.635811 0.856063 0.135505
O O2 0.354671 0.757916 0.085679
O O3 0.540364 0.806030 0.927471
O O4 0.415072 0.977236 0.033641
O O5 0.589631 0.145141 0.940597
O O6 0.889644 0.141339 0.848042
O O7 0.871296 0.114613 0.055496
O O8 0.797969 0.314251 0.966946
O O9 0.668893 0.779284 0.735032
O O10 0.396288 0.906202 0.715310
O O11 0.717796 0.986261 0.741270
O O12 0.301961 0.060240 0.860942
O O13 0.364975 0.102255 0.657927
O O14 0.070027 0.999807 0.730822
#
# Coordination Sequence:
#
# PCOD8157817 Si02
#       7
#     4   4   4   4   4   4   4
#     4  11  26  46  74 105 153 188 250 308 369 444
#     4  12  26  46  79 107 153 198 251 310 379 445
#     4  12  25  50  74 107 153 193 248 313 369 452
#     4  11  25  47  74 111 146 194 254 305 374 442
#     4  12  24  46  72 110 149 196 250 307 369 448
#     4  11  26  46  76 112 146 198 250 305 374 443
#     4  11  26  47  71 110 144 195 249 304 372 444
#
# _framework density 24.304784999999999
#
# number of rings (size 3 to 8) (size 9 to 14) (size 15 to 20)
#    0.000    0.571    5.714    0.857    4.000    5.714 
#    0.000    1.429    0.000    0.000    0.000    0.000 
#    0.000    0.000    0.000    0.000    0.000    0.000 
#
# Total GULP energy -346945.617082 kJ/mol
# GULP energy per Si atom -12390.914896 kJ/mol
# Density = 2.424947 g / cm^3
# Si number density = 24.304785 Si / 1000 Ang^3
#
#
#
# Elastic Constant Matrix: (Units=GPa)
#
#
# Indices 1 2 3 4 5 6 
#
# 1 69.4202 -5.9358 -0.8351 0.0000 0.0000 0.0000
# 2 -5.9358 58.5110 10.9318 0.0000 0.0000 0.0000
# 3 -0.8351 10.9318 127.8033 0.0000 0.0000 0.0000
# 4 0.0000 0.0000 0.0000 22.8060 0.0000 0.0000
# 5 0.0000 0.0000 0.0000 0.0000 35.3038 0.0000
# 6 0.0000 0.0000 0.0000 0.0000 0.0000 37.1588
#
#
#
# Elastic Compliance Matrix: (Units=1/GPa)
#
#
# Indices 1 2 3 4 5 6 
#
# 1 0.014531 0.001480 -0.000032 0.000000 0.000000 0.000000
# 2 0.001480 0.017519 -0.001489 0.000000 0.000000 0.000000
# 3 -0.000032 -0.001489 0.007952 0.000000 0.000000 0.000000
# 4 0.000000 0.000000 0.000000 0.043848 0.000000 0.000000
# 5 0.000000 0.000000 0.000000 0.000000 0.028326 0.000000
# 6 0.000000 0.000000 0.000000 0.000000 0.000000 0.026912
#
#
# Mechanical properties :
#
#
# Convention : Reuss Voigt Hill
#
# Bulk Modulus (GPa) = 25.04939 29.33959 27.19449
# Shear Modulus (GPa) = 32.79222 35.82528 34.30875
#
# Velocity S-wave (km/s) = 3.67714 3.84344 3.76121
# Velocity P-wave (km/s) = 5.32515 5.63859 5.48411
#
# Compressibility (1/GPa) = 0.03992114
#
# Stress axis : x y z
#
# Youngs Moduli (GPa) = 68.81739 57.08050 125.75973
#
# Poissons Ratio (x) = -0.08448 0.00398
# Poissons Ratio (y) = -0.10186 0.18724
# Poissons Ratio (z) = 0.00218 0.08498
#
# Static dielectric constant tensor:
#      x y z
#    x 4.297100 0.000000 0.000000 
#    y 0.000000 4.387330 0.000000 
#    z 0.000000 0.000000 4.603590 
# 
# 
# High freq. dielectric constant tensor:
#      x y z
#    x 1.957010 0.000000 0.000000 
#    y 0.000000 1.954140 0.000000 
#    z 0.000000 0.000000 1.995170 
# 
# From -- ./inp_files/4617.got.cif
#   From: 2010.03.12/outbox.cif.g09.slc.cpg/sg19_3_cif.got.tgz:4617.got - 2010.04.10 18:59:41.
