data_PCOD8157188
_publ_section_title
;
Structure prediction by ZEFSAII (Michael W. Deem and Ramdas Pophale) SiO2 
 PCOD8157188
Probable space group: P 21 21 21
;
_chemical_formula_sum "Si O2"
_cell_formula_units_Z 32
_cell_length_a 11.840325
_cell_length_b 8.509333
_cell_length_c 14.296887
_cell_angle_alpha 90.000000
_cell_angle_beta 90.000000
_cell_angle_gamma 90.000000
_cell_volume 1440.458091
_symmetry_space_group_name_H-M "P 21 21 21"
_symmetry_group_IT_number 19
_symmetry_cell_setting 'orthorhombic'
loop_
_space_group_symop_operation_xyz
x,y,z
1/2-x,-y,1/2+z
1/2+x,1/2-y,-z
-x,1/2+y,1/2-z
loop_
_atom_site_type_symbol
_atom_site_label
_atom_site_fract_x
_atom_site_fract_y
_atom_site_fract_z
Si Si1 0.619004 0.570023 0.776516
Si Si2 0.380996 0.429978 0.776515
Si Si3 0.237148 0.602279 0.628144
Si Si4 0.745988 0.555276 0.442218
Si Si5 0.051538 0.750000 0.750000
Si Si6 0.500000 0.999999 0.113613
Si Si7 0.754012 0.055276 0.557782
Si Si8 0.762852 0.397721 0.628144
O O1 0.500000 0.500000 0.808972
O O2 0.606150 0.750000 0.750000
O O3 0.704177 0.559810 0.863791
O O4 0.661502 0.469739 0.688091
O O5 0.338497 0.530262 0.688091
O O6 0.295823 0.440190 0.863791
O O7 0.278624 0.767068 0.584217
O O8 0.129885 0.624933 0.695158
O O9 0.203193 0.485586 0.543640
O O10 0.610122 0.531986 0.448792
O O11 0.796807 0.514414 0.543640
O O12 0.974824 0.847585 0.678512
O O13 0.129886 0.875067 0.804842
O O14 0.974824 0.652415 0.821488
O O15 0.610122 0.968013 0.051208
O O16 0.721375 0.232932 0.584218
#
# Coordination Sequence:
#
# PCOD8157188 Si02
#       8
#     4   4   4   4   4   4   4   4
#     4  12  25  45  70  97 135 181 226 284 344 403
#     4  12  25  45  70  97 135 181 226 284 344 403
#     4  11  22  46  66  99 138 174 229 275 338 402
#     4  11  24  43  66 102 134 178 229 278 340 405
#     4  10  22  44  66  94 140 174 216 286 324 406
#     4  10  22  40  68  96 132 174 220 276 338 394
#     4  11  24  43  66 102 134 178 229 278 340 405
#     4  11  22  46  66  99 138 174 229 275 338 402
#
# _framework density 22.215153999999998
#
# number of rings (size 3 to 8) (size 9 to 14) (size 15 to 20)
#    0.000    1.000    5.000    3.000    3.500    2.000 
#   11.250    0.000    0.000    0.000    0.000    0.000 
#    0.000    0.000    0.000    0.000    0.000    0.000 
#
# Total GULP energy -396935.924489 kJ/mol
# GULP energy per Si atom -12404.247640 kJ/mol
# Density = 2.216459 g / cm^3
# Si number density = 22.215154 Si / 1000 Ang^3
#
#
#
# Elastic Constant Matrix: (Units=GPa)
#
#
# Indices 1 2 3 4 5 6 
#
# 1 82.5022 39.2267 31.5720 0.0000 0.0000 0.0000
# 2 39.2267 83.3476 17.6596 0.0000 0.0000 0.0000
# 3 31.5720 17.6596 118.1639 0.0000 0.0000 0.0000
# 4 0.0000 0.0000 0.0000 51.9781 0.0000 0.0000
# 5 0.0000 0.0000 0.0000 0.0000 6.6524 0.0000
# 6 0.0000 0.0000 0.0000 0.0000 0.0000 31.9349
#
#
#
# Elastic Compliance Matrix: (Units=1/GPa)
#
#
# Indices 1 2 3 4 5 6 
#
# 1 0.016860 -0.007209 -0.003427 0.000000 0.000000 0.000000
# 2 -0.007209 0.015473 -0.000386 0.000000 0.000000 0.000000
# 3 -0.003427 -0.000386 0.009436 0.000000 0.000000 0.000000
# 4 0.000000 0.000000 0.000000 0.019239 0.000000 0.000000
# 5 0.000000 0.000000 0.000000 0.000000 0.150322 0.000000
# 6 0.000000 0.000000 0.000000 0.000000 0.000000 0.031314
#
#
# Mechanical properties :
#
#
# Convention : Reuss Voigt Hill
#
# Bulk Modulus (GPa) = 50.69997 51.21445 50.95721
# Shear Modulus (GPa) = 18.43228 31.15011 24.79120
#
# Velocity S-wave (km/s) = 2.88361 3.74866 3.34422
# Velocity P-wave (km/s) = 5.82741 6.46842 6.15626
#
# Compressibility (1/GPa) = 0.01972388
#
# Stress axis : x y z
#
# Youngs Moduli (GPa) = 59.31189 64.63062 105.97355
#
# Poissons Ratio (x) = 0.46591 0.36322
# Poissons Ratio (y) = 0.42757 0.04093
# Poissons Ratio (z) = 0.20329 0.02496
#
# Static dielectric constant tensor:
#      x y z
#    x 3.717030 0.000000 0.000000 
#    y 0.000000 4.113470 0.000000 
#    z 0.000000 0.000000 4.047670 
# 
# 
# High freq. dielectric constant tensor:
#      x y z
#    x 1.857120 0.000000 0.000000 
#    y 0.000000 1.886270 0.000000 
#    z 0.000000 0.000000 1.879850 
# 
# From -- ./inp_files/6154.got.cif
#   From: 2010.03.12/outbox.cif.g09.slc.cpg/sg19_4_cif.got.tgz:6154.got - 2010.04.10 18:59:41.
