data_PCOD8157052
_publ_section_title
;
Structure prediction by ZEFSAII (Michael W. Deem and Ramdas Pophale) SiO2 
 PCOD8157052
Probable space group: P 21 21 21
;
_chemical_formula_sum "Si O2"
_cell_formula_units_Z 28
_cell_length_a 11.286483
_cell_length_b 6.039015
_cell_length_c 16.801277
_cell_angle_alpha 90.000000
_cell_angle_beta 90.000000
_cell_angle_gamma 90.000000
_cell_volume 1145.162274
_symmetry_space_group_name_H-M "P 21 21 21"
_symmetry_group_IT_number 19
_symmetry_cell_setting 'orthorhombic'
loop_
_space_group_symop_operation_xyz
x,y,z
1/2-x,-y,1/2+z
1/2+x,1/2-y,-z
-x,1/2+y,1/2-z
loop_
_atom_site_type_symbol
_atom_site_label
_atom_site_fract_x
_atom_site_fract_y
_atom_site_fract_z
Si Si1 0.131170 0.002196 0.305885
Si Si2 0.445302 0.363703 0.175827
Si Si3 0.415240 0.336594 0.935062
Si Si4 0.295407 0.622405 0.058769
Si Si5 0.868997 0.288688 0.658690
Si Si6 0.022729 0.006820 0.557829
Si Si7 0.423012 0.197728 0.643942
O O1 0.228155 0.184774 0.332318
O O2 0.002995 0.114013 0.314974
O O3 0.144384 0.785028 0.360415
O O4 0.148287 0.930640 0.213774
O O5 0.348544 0.532055 0.141192
O O6 0.574933 0.465796 0.157759
O O7 0.422833 0.351597 0.269101
O O8 0.436291 0.123323 0.136627
O O9 0.500953 0.528884 0.907102
O O10 0.309409 0.436000 0.989887
O O11 0.496951 0.163829 0.985297
O O12 0.160656 0.685638 0.078653
O O13 0.368636 0.837686 0.031076
O O14 0.904463 0.152469 0.578409
#
# Coordination Sequence:
#
# PCOD8157052 Si02
#       7
#     4   4   4   4   4   4   4
#     4  12  28  49  79 114 152 207 264 320 383 467
#     4  10  21  40  75 111 148 191 245 315 380 451
#     4  11  26  54  75 113 153 206 254 321 398 457
#     4  10  25  49  79 108 150 198 256 316 385 465
#     4  11  23  42  77 114 147 193 257 314 382 462
#     4  10  22  48  72 111 149 194 249 316 390 449
#     4  12  27  52  81 113 153 211 267 316 388 473
#
# _framework density 24.450683000000001
#
# number of rings (size 3 to 8) (size 9 to 14) (size 15 to 20)
#    0.000    1.143    2.857    1.714    4.000    3.429 
#   33.429    0.000    0.000    0.000    0.000    0.000 
#    0.000    0.000    0.000    0.000    0.000    0.000 
#
# Total GULP energy -347303.397110 kJ/mol
# GULP energy per Si atom -12403.692754 kJ/mol
# Density = 2.439503 g / cm^3
# Si number density = 24.450683 Si / 1000 Ang^3
#
#
#
# Elastic Constant Matrix: (Units=GPa)
#
#
# Indices 1 2 3 4 5 6 
#
# 1 103.9748 33.5212 32.7683 0.0000 0.0000 0.0000
# 2 33.5212 102.5265 37.4374 0.0000 0.0000 0.0000
# 3 32.7683 37.4374 117.0607 0.0000 0.0000 0.0000
# 4 0.0000 0.0000 0.0000 51.6852 0.0000 0.0000
# 5 0.0000 0.0000 0.0000 0.0000 17.0113 0.0000
# 6 0.0000 0.0000 0.0000 0.0000 0.0000 34.3301
#
#
#
# Elastic Compliance Matrix: (Units=1/GPa)
#
#
# Indices 1 2 3 4 5 6 
#
# 1 0.011244 -0.002861 -0.002232 0.000000 0.000000 0.000000
# 2 -0.002861 0.011771 -0.002964 0.000000 0.000000 0.000000
# 3 -0.002232 -0.002964 0.010115 0.000000 0.000000 0.000000
# 4 0.000000 0.000000 0.000000 0.019348 0.000000 0.000000
# 5 0.000000 0.000000 0.000000 0.000000 0.058784 0.000000
# 6 0.000000 0.000000 0.000000 0.000000 0.000000 0.029129
#
#
# Mechanical properties :
#
#
# Convention : Reuss Voigt Hill
#
# Bulk Modulus (GPa) = 58.76836 59.00176 58.88506
# Shear Modulus (GPa) = 30.83040 35.26100 33.04570
#
# Velocity S-wave (km/s) = 3.55480 3.80166 3.68030
# Velocity P-wave (km/s) = 6.39816 6.59192 6.49576
#
# Compressibility (1/GPa) = 0.01701596
#
# Stress axis : x y z
#
# Youngs Moduli (GPa) = 88.93913 84.95331 98.86001
#
# Poissons Ratio (x) = 0.24305 0.22070
# Poissons Ratio (y) = 0.25445 0.29299
# Poissons Ratio (z) = 0.19855 0.25178
#
# Static dielectric constant tensor:
#      x y z
#    x 4.085610 0.000000 0.000000 
#    y 0.000000 4.589160 0.000000 
#    z 0.000000 0.000000 4.495330 
# 
# 
# High freq. dielectric constant tensor:
#      x y z
#    x 1.947840 0.000000 0.000000 
#    y 0.000000 1.985320 0.000000 
#    z 0.000000 0.000000 1.988120 
# 
# From -- ./inp_files/6703.got.cif
#   From: 2010.03.12/outbox.cif.g09.slc.cpg/sg19_4_cif.got.tgz:6703.got - 2010.04.10 18:59:41.
