data_PCOD8157678
_publ_section_title
;
Structure prediction by ZEFSAII (Michael W. Deem and Ramdas Pophale) SiO2 
 PCOD8157678
Probable space group: P 21 21 21
;
_chemical_formula_sum "Si O2"
_cell_formula_units_Z 20
_cell_length_a 20.478878
_cell_length_b 5.097261
_cell_length_c 8.661949
_cell_angle_alpha 90.000000
_cell_angle_beta 90.000000
_cell_angle_gamma 90.000000
_cell_volume 904.187821
_symmetry_space_group_name_H-M "P 21 21 21"
_symmetry_group_IT_number 19
_symmetry_cell_setting 'orthorhombic'
loop_
_space_group_symop_operation_xyz
x,y,z
1/2-x,-y,1/2+z
1/2+x,1/2-y,-z
-x,1/2+y,1/2-z
loop_
_atom_site_type_symbol
_atom_site_label
_atom_site_fract_x
_atom_site_fract_y
_atom_site_fract_z
Si Si1 0.938669 0.417362 0.077290
Si Si2 0.061492 0.083107 0.077297
Si Si3 0.000031 0.750382 0.849297
Si Si4 0.201667 0.248919 0.143199
Si Si5 0.701531 0.748916 0.642284
O O1 0.953682 0.500025 0.250067
O O2 0.870785 0.262709 0.069000
O O3 0.000136 0.250551 0.017236
O O4 0.938549 0.666244 0.959836
O O5 0.129448 0.237297 0.069369
O O6 0.061572 0.834475 0.959665
O O7 0.023735 0.500439 0.749914
O O8 0.209152 0.500009 0.250479
O O9 0.216332 0.000017 0.250519
O O10 0.250179 0.263182 0.000673
#
# Coordination Sequence:
#
# PCOD8157678 Si02
#       5
#     4   4   4   4   4
#     4  11  23  44  76 100 138 188 240 285 346 428
#     4  11  23  44  76 100 138 188 240 285 346 428
#     4  12  26  42  64 110 148 172 224 302 362 400
#     4  11  26  48  73 103 142 190 236 288 350 419
#     4  11  26  48  73 103 142 190 236 288 350 419
#
# _framework density 22.119297
#
# number of rings (size 3 to 8) (size 9 to 14) (size 15 to 20)
#    0.000    0.800    4.000    2.400    5.600    1.600 
#    7.200    0.000    0.000    0.000    0.000    0.000 
#    0.000    0.000    0.000    0.000    0.000    0.000 
#
# Total GULP energy -247909.683050 kJ/mol
# GULP energy per Si atom -12395.484153 kJ/mol
# Density = 2.206895 g / cm^3
# Si number density = 22.119297 Si / 1000 Ang^3
#
#
#
# Elastic Constant Matrix: (Units=GPa)
#
#
# Indices 1 2 3 4 5 6 
#
# 1 166.9560 73.7740 86.4471 0.0000 0.0000 0.0000
# 2 73.7740 177.3502 96.6778 0.0000 0.0000 0.0000
# 3 86.4471 96.6778 177.1498 0.0000 0.0000 0.0000
# 4 0.0000 0.0000 0.0000 55.0650 0.0000 0.0000
# 5 0.0000 0.0000 0.0000 0.0000 20.2031 0.0000
# 6 0.0000 0.0000 0.0000 0.0000 0.0000 55.8169
#
#
#
# Elastic Compliance Matrix: (Units=1/GPa)
#
#
# Indices 1 2 3 4 5 6 
#
# 1 0.008397 -0.001792 -0.003119 0.000000 0.000000 0.000000
# 2 -0.001792 0.008409 -0.003714 0.000000 0.000000 0.000000
# 3 -0.003119 -0.003714 0.009194 0.000000 0.000000 0.000000
# 4 0.000000 0.000000 0.000000 0.018160 0.000000 0.000000
# 5 0.000000 0.000000 0.000000 0.000000 0.049497 0.000000
# 6 0.000000 0.000000 0.000000 0.000000 0.000000 0.017916
#
#
# Mechanical properties :
#
#
# Convention : Reuss Voigt Hill
#
# Bulk Modulus (GPa) = 114.31695 115.02819 114.67257
# Shear Modulus (GPa) = 37.95300 43.85413 40.90356
#
# Velocity S-wave (km/s) = 4.14675 4.45749 4.30493
# Velocity P-wave (km/s) = 8.64417 8.86616 8.75587
#
# Compressibility (1/GPa) = 0.00874761
#
# Stress axis : x y z
#
# Youngs Moduli (GPa) = 119.09328 118.91987 108.76376
#
# Poissons Ratio (x) = 0.21316 0.33927
# Poissons Ratio (y) = 0.21347 0.40400
# Poissons Ratio (z) = 0.37149 0.44172
#
# Static dielectric constant tensor:
#      x y z
#    x 3.944150 0.000000 0.000000 
#    y 0.000000 4.318000 0.000000 
#    z 0.000000 0.000000 4.015740 
# 
# 
# High freq. dielectric constant tensor:
#      x y z
#    x 1.843860 0.000000 0.000000 
#    y 0.000000 1.887360 0.000000 
#    z 0.000000 0.000000 1.901230 
# 
# From -- ./inp_files/2391.got.cif
#   From: 2010.03.12/outbox.cif.g09.slc.cpg/sg19_2_cif.got.tgz:2391.got - 2010.04.10 18:59:41.
