data_PCOD8157296
_publ_section_title
;
Structure prediction by ZEFSAII (Michael W. Deem and Ramdas Pophale) SiO2 
 PCOD8157296
Probable space group: P 21 21 21
;
_chemical_formula_sum "Si O2"
_cell_formula_units_Z 28
_cell_length_a 8.622381
_cell_length_b 17.054035
_cell_length_c 9.250789
_cell_angle_alpha 90.000000
_cell_angle_beta 90.000000
_cell_angle_gamma 90.000000
_cell_volume 1360.295103
_symmetry_space_group_name_H-M "P 21 21 21"
_symmetry_group_IT_number 19
_symmetry_cell_setting 'orthorhombic'
loop_
_space_group_symop_operation_xyz
x,y,z
1/2-x,-y,1/2+z
1/2+x,1/2-y,-z
-x,1/2+y,1/2-z
loop_
_atom_site_type_symbol
_atom_site_label
_atom_site_fract_x
_atom_site_fract_y
_atom_site_fract_z
Si Si1 0.869785 0.788975 0.099010
Si Si2 0.713696 0.943909 0.037313
Si Si3 0.980163 0.716311 0.384023
Si Si4 0.614775 0.937666 0.731395
Si Si5 0.611371 0.483061 0.541278
Si Si6 0.214387 0.843108 0.078807
Si Si7 0.779748 0.346555 0.084772
O O1 0.747433 0.859925 0.109104
O O2 0.872246 0.748029 0.255054
O O3 0.035591 0.823140 0.052684
O O4 0.821411 0.726796 0.978717
O O5 0.828700 0.008985 0.100078
O O6 0.533700 0.966473 0.067689
O O7 0.739775 0.939017 0.863113
O O8 0.097490 0.650945 0.322997
O O9 0.081788 0.786484 0.449282
O O10 0.877439 0.681328 0.510818
O O11 0.449660 0.970470 0.793102
O O12 0.749350 0.422872 0.507233
O O13 0.672616 0.570244 0.517853
O O14 0.252849 0.854115 0.246210
#
# Coordination Sequence:
#
# PCOD8157296 Si02
#       7
#     4   4   4   4   4   4   4
#     4  11  22  44  71  96 133 181 223 280 327 411
#     4  10  23  41  72  92 137 173 224 273 336 394
#     4  11  25  45  68  95 142 171 223 279 336 392
#     4  10  22  44  65  99 133 172 225 275 327 395
#     4  10  24  44  64 100 134 172 221 281 328 399
#     4  11  23  44  69  97 134 176 229 270 341 400
#     4  11  27  42  67  97 137 173 225 278 339 397
#
# _framework density 20.583767999999999
#
# number of rings (size 3 to 8) (size 9 to 14) (size 15 to 20)
#    0.857    0.571    1.429    4.286    6.000    3.429 
#    2.571    0.000    0.000    0.000    0.000    0.000 
#    0.000    0.000    0.000    0.000    0.000    0.000 
#
# Total GULP energy -347240.201214 kJ/mol
# GULP energy per Si atom -12401.435758 kJ/mol
# Density = 2.053692 g / cm^3
# Si number density = 20.583768 Si / 1000 Ang^3
#
#
#
# Elastic Constant Matrix: (Units=GPa)
#
#
# Indices 1 2 3 4 5 6 
#
# 1 62.9457 38.8495 35.1069 0.0000 0.0000 0.0000
# 2 38.8495 163.9493 40.9710 0.0000 0.0000 0.0000
# 3 35.1069 40.9710 72.2440 0.0000 0.0000 0.0000
# 4 0.0000 0.0000 0.0000 30.4998 0.0000 0.0000
# 5 0.0000 0.0000 0.0000 0.0000 37.7450 0.0000
# 6 0.0000 0.0000 0.0000 0.0000 0.0000 50.9288
#
#
#
# Elastic Compliance Matrix: (Units=1/GPa)
#
#
# Indices 1 2 3 4 5 6 
#
# 1 0.023075 -0.003106 -0.009452 0.000000 0.000000 0.000000
# 2 -0.003106 0.007525 -0.002758 0.000000 0.000000 0.000000
# 3 -0.009452 -0.002758 0.019999 0.000000 0.000000 0.000000
# 4 0.000000 0.000000 0.000000 0.032787 0.000000 0.000000
# 5 0.000000 0.000000 0.000000 0.000000 0.026494 0.000000
# 6 0.000000 0.000000 0.000000 0.000000 0.000000 0.019635
#
#
# Mechanical properties :
#
#
# Convention : Reuss Voigt Hill
#
# Bulk Modulus (GPa) = 50.08175 58.77710 54.42942
# Shear Modulus (GPa) = 29.97546 36.11548 33.04547
#
# Velocity S-wave (km/s) = 3.82025 4.19329 4.01111
# Velocity P-wave (km/s) = 6.62137 7.21540 6.92476
#
# Compressibility (1/GPa) = 0.01996735
#
# Stress axis : x y z
#
# Youngs Moduli (GPa) = 43.33632 132.89622 50.00164
#
# Poissons Ratio (x) = 0.41276 0.47262
# Poissons Ratio (y) = 0.13460 0.13791
# Poissons Ratio (z) = 0.40962 0.36654
#
# Static dielectric constant tensor:
#      x y z
#    x 3.599490 0.000000 0.000000 
#    y 0.000000 3.857860 0.000000 
#    z 0.000000 0.000000 3.590650 
# 
# 
# High freq. dielectric constant tensor:
#      x y z
#    x 1.795600 0.000000 0.000000 
#    y 0.000000 1.824870 0.000000 
#    z 0.000000 0.000000 1.793850 
# 
# From -- ./inp_files/2990.got.cif
#   From: 2010.03.12/outbox.cif.g09.slc.cpg/sg19_2_cif.got.tgz:2990.got - 2010.04.10 18:59:41.
