data_PCOD8157106
_publ_section_title
;
Structure prediction by ZEFSAII (Michael W. Deem and Ramdas Pophale) SiO2 
 PCOD8157106
Probable space group: P 21 21 21
;
_chemical_formula_sum "Si O2"
_cell_formula_units_Z 28
_cell_length_a 16.759381
_cell_length_b 8.986260
_cell_length_c 9.166448
_cell_angle_alpha 90.000000
_cell_angle_beta 90.000000
_cell_angle_gamma 90.000000
_cell_volume 1380.505156
_symmetry_space_group_name_H-M "P 21 21 21"
_symmetry_group_IT_number 19
_symmetry_cell_setting 'orthorhombic'
loop_
_space_group_symop_operation_xyz
x,y,z
1/2-x,-y,1/2+z
1/2+x,1/2-y,-z
-x,1/2+y,1/2-z
loop_
_atom_site_type_symbol
_atom_site_label
_atom_site_fract_x
_atom_site_fract_y
_atom_site_fract_z
Si Si1 0.390265 0.819080 0.780458
Si Si2 0.732629 0.177187 0.308330
Si Si3 0.387999 0.025675 0.032646
Si Si4 0.332074 0.524916 0.907402
Si Si5 0.206119 0.973333 0.074487
Si Si6 0.974891 0.183536 0.048566
Si Si7 0.604212 0.395160 0.174860
O O1 0.341407 0.668258 0.804832
O O2 0.469223 0.791121 0.687605
O O3 0.330213 0.935422 0.707893
O O4 0.416152 0.885884 0.935669
O O5 0.705932 0.063750 0.435545
O O6 0.791474 0.299491 0.381024
O O7 0.657222 0.259519 0.236012
O O8 0.776434 0.090290 0.178787
O O9 0.292924 0.037050 0.041081
O O10 0.425140 0.998275 0.192224
O O11 0.417640 0.176500 0.962423
O O12 0.420772 0.461626 0.932425
O O13 0.152671 0.995706 0.931882
O O14 0.027245 0.171613 0.903111
#
# Coordination Sequence:
#
# PCOD8157106 Si02
#       7
#     4   4   4   4   4   4   4
#     4  11  23  44  67  95 134 175 218 274 331 409
#     4  11  26  42  69 101 134 175 228 281 336 392
#     4  11  21  41  67  91 127 177 223 263 321 404
#     4  12  26  44  67 104 137 174 224 289 337 394
#     4  10  21  43  71  93 122 175 225 268 326 401
#     4  11  26  40  65  95 140 174 215 273 343 403
#     4  10  23  42  68  95 130 170 231 266 332 395
#
# _framework density 20.282432
#
# number of rings (size 3 to 8) (size 9 to 14) (size 15 to 20)
#    0.000    1.143    2.857    4.286    8.000    1.143 
#    0.000    1.429    0.000    0.000    0.000    0.000 
#    0.000    0.000    0.000    0.000    0.000    0.000 
#
# Total GULP energy -347305.449222 kJ/mol
# GULP energy per Si atom -12403.766044 kJ/mol
# Density = 2.023627 g / cm^3
# Si number density = 20.282432 Si / 1000 Ang^3
#
#
#
# Elastic Constant Matrix: (Units=GPa)
#
#
# Indices 1 2 3 4 5 6 
#
# 1 55.0943 30.7878 46.1448 0.0000 0.0000 0.0000
# 2 30.7878 94.7850 44.4686 0.0000 0.0000 0.0000
# 3 46.1448 44.4686 122.7704 0.0000 0.0000 0.0000
# 4 0.0000 0.0000 0.0000 25.4393 0.0000 0.0000
# 5 0.0000 0.0000 0.0000 0.0000 18.6161 0.0000
# 6 0.0000 0.0000 0.0000 0.0000 0.0000 20.4135
#
#
#
# Elastic Compliance Matrix: (Units=1/GPa)
#
#
# Indices 1 2 3 4 5 6 
#
# 1 0.028383 -0.005077 -0.008829 0.000000 0.000000 0.000000
# 2 -0.005077 0.013618 -0.003024 0.000000 0.000000 0.000000
# 3 -0.008829 -0.003024 0.012559 0.000000 0.000000 0.000000
# 4 0.000000 0.000000 0.000000 0.039309 0.000000 0.000000
# 5 0.000000 0.000000 0.000000 0.000000 0.053717 0.000000
# 6 0.000000 0.000000 0.000000 0.000000 0.000000 0.048987
#
#
# Mechanical properties :
#
#
# Convention : Reuss Voigt Hill
#
# Bulk Modulus (GPa) = 48.31091 57.27246 52.79168
# Shear Modulus (GPa) = 21.06735 22.97703 22.02219
#
# Velocity S-wave (km/s) = 3.22638 3.36944 3.29869
# Velocity P-wave (km/s) = 6.14412 6.59062 6.37128
#
# Compressibility (1/GPa) = 0.02069926
#
# Stress axis : x y z
#
# Youngs Moduli (GPa) = 35.23276 73.43124 79.62259
#
# Poissons Ratio (x) = 0.37281 0.70299
# Poissons Ratio (y) = 0.17888 0.24081
# Poissons Ratio (z) = 0.31107 0.22208
#
# Static dielectric constant tensor:
#      x y z
#    x 3.617530 0.000000 0.000000 
#    y 0.000000 3.890030 0.000000 
#    z 0.000000 0.000000 4.047010 
# 
# 
# High freq. dielectric constant tensor:
#      x y z
#    x 1.786520 0.000000 0.000000 
#    y 0.000000 1.796080 0.000000 
#    z 0.000000 0.000000 1.814590 
# 
# From -- ./inp_files/4147.got.cif
#   From: 2010.03.12/outbox.cif.g09.slc.cpg/sg19_3_cif.got.tgz:4147.got - 2010.04.10 18:59:41.
