data_PCOD8157996
_publ_section_title
;
Structure prediction by ZEFSAII (Michael W. Deem and Ramdas Pophale) SiO2 
 PCOD8157996
Probable space group: C 2 2 21
;
_chemical_formula_sum "Si O2"
_cell_formula_units_Z 64
_cell_length_a 18.708711
_cell_length_b 5.331447
_cell_length_c 31.659681
_cell_angle_alpha 90.000000
_cell_angle_beta 90.000000
_cell_angle_gamma 90.000000
_cell_volume 3157.879087
_symmetry_space_group_name_H-M "C 2 2 21"
_symmetry_group_IT_number 20
_symmetry_cell_setting 'orthorhombic'
loop_
_space_group_symop_operation_xyz
x,y,z
-x,-y,1/2+z
x,-y,-z
-x,y,1/2-z
1/2+x,1/2+y,z
1/2-x,1/2-y,1/2+z
1/2+x,1/2-y,-z
1/2-x,1/2+y,1/2-z
loop_
_atom_site_type_symbol
_atom_site_label
_atom_site_fract_x
_atom_site_fract_y
_atom_site_fract_z
Si Si1 0.762102 0.500038 0.313470
Si Si2 0.450802 0.999991 0.378317
Si Si3 0.716046 0.000000 0.904228
Si Si4 0.935362 0.999993 0.400216
Si Si5 0.031998 0.500044 0.704335
Si Si6 0.108272 0.000044 0.720046
Si Si7 0.646982 0.499955 0.810038
Si Si8 0.799562 0.000005 0.549451
O O1 0.735467 0.499971 0.362384
O O2 0.693610 0.499962 0.283529
O O3 0.806553 0.249522 0.304400
O O4 0.806493 0.750702 0.304413
O O5 0.365861 0.000022 0.387403
O O6 0.483832 0.248998 0.400425
O O7 0.466068 0.999968 0.328554
O O8 0.483828 0.750997 0.400431
O O9 0.734711 0.752225 0.931173
O O10 0.734704 0.247773 0.931174
O O11 0.890862 0.000020 0.355749
O O12 0.884129 0.999978 0.440754
O O13 0.078229 0.751215 0.697259
O O14 0.000000 0.500047 0.750000
O O15 0.078236 0.248888 0.697261
O O16 0.090159 0.000046 0.770732
O O17 0.786373 0.000000 0.500000
#
# Coordination Sequence:
#
# PCOD8157996 Si02
#       8
#     8   8   8   8   8   8   8   8
#     4  12  21  37  55  75 109 138 186 218 262 316
#     4  10  18  33  52  70  99 139 179 203 257 325
#     4  10  19  34  54  79 104 146 166 208 270 323
#     4  10  17  31  52  76 100 142 171 198 266 321
#     4  12  24  39  52  72 107 139 183 233 268 300
#     4  12  26  36  53  81 102 143 191 235 260 291
#     4  12  19  36  53  73 106 143 183 215 261 310
#     4  10  18  30  50  81 115 133 162 207 261 333
#
# _framework density 20.266767999999999
#
# number of rings (size 3 to 8) (size 9 to 14) (size 15 to 20)
#    0.000    1.000    5.000    5.250    0.000    0.000 
#    0.000    0.000    0.000    0.000    0.000    0.000 
#    0.000   80.000    0.000    0.000    0.000    0.000 
#
# Total GULP energy -396562.926874 kJ/mol
# GULP energy per Si atom -12392.591465 kJ/mol
# Density = 2.022064 g / cm^3
# Si number density = 20.266768 Si / 1000 Ang^3
#
#
#
# Elastic Constant Matrix: (Units=GPa)
#
#
# Indices 1 2 3 4 5 6 
#
# 1 27.4115 17.7520 -1.9476 0.0000 0.0000 0.0000
# 2 17.7520 220.7870 15.4014 0.0000 0.0000 0.0000
# 3 -1.9476 15.4014 70.8462 0.0000 0.0000 0.0000
# 4 0.0000 0.0000 0.0000 24.1523 0.0000 0.0000
# 5 0.0000 0.0000 0.0000 0.0000 13.5099 0.0000
# 6 0.0000 0.0000 0.0000 0.0000 0.0000 12.9291
#
#
#
# Elastic Compliance Matrix: (Units=1/GPa)
#
#
# Indices 1 2 3 4 5 6 
#
# 1 0.038702 -0.003235 0.001767 0.000000 0.000000 0.000000
# 2 -0.003235 0.004869 -0.001148 0.000000 0.000000 0.000000
# 3 0.001767 -0.001148 0.014413 0.000000 0.000000 0.000000
# 4 0.000000 0.000000 0.000000 0.041404 0.000000 0.000000
# 5 0.000000 0.000000 0.000000 0.000000 0.074020 0.000000
# 6 0.000000 0.000000 0.000000 0.000000 0.000000 0.077345
#
#
# Mechanical properties :
#
#
# Convention : Reuss Voigt Hill
#
# Bulk Modulus (GPa) = 18.95606 42.38404 30.67005
# Shear Modulus (GPa) = 18.27701 29.30753 23.79227
#
# Velocity S-wave (km/s) = 3.00629 3.80687 3.43002
# Velocity P-wave (km/s) = 4.62860 6.34677 5.55452
#
# Compressibility (1/GPa) = 0.05275359
#
# Stress axis : x y z
#
# Youngs Moduli (GPa) = 25.83865 205.36392 69.38121
#
# Poissons Ratio (x) = 0.66436 -0.12261
# Poissons Ratio (y) = 0.08359 0.07962
# Poissons Ratio (z) = -0.04566 0.23566
#
# Static dielectric constant tensor:
#      x y z
#    x 3.138810 0.000000 0.000000 
#    y 0.000000 5.364030 0.000000 
#    z 0.000000 0.000000 3.558580 
# 
# 
# High freq. dielectric constant tensor:
#      x y z
#    x 1.720370 0.000000 0.000000 
#    y 0.000000 1.844330 0.000000 
#    z 0.000000 0.000000 1.769660 
# 
# From -- ./inp_files/31373.got.cif
#   From: 2010.03.12/outbox.cif.g09.slc.cpg/sg20_16_cif.got.tgz:31373.got - 2010.04.14 01:38:04.
