data_PCOD8157802
_publ_section_title
;
Structure prediction by ZEFSAII (Michael W. Deem and Ramdas Pophale) SiO2 
 PCOD8157802
Probable space group: P 21 21 21
;
_chemical_formula_sum "Si O2"
_cell_formula_units_Z 28
_cell_length_a 5.003785
_cell_length_b 9.490650
_cell_length_c 25.289927
_cell_angle_alpha 90.000000
_cell_angle_beta 90.000000
_cell_angle_gamma 90.000000
_cell_volume 1200.997696
_symmetry_space_group_name_H-M "P 21 21 21"
_symmetry_group_IT_number 19
_symmetry_cell_setting 'orthorhombic'
loop_
_space_group_symop_operation_xyz
x,y,z
1/2-x,-y,1/2+z
1/2+x,1/2-y,-z
-x,1/2+y,1/2-z
loop_
_atom_site_type_symbol
_atom_site_label
_atom_site_fract_x
_atom_site_fract_y
_atom_site_fract_z
Si Si1 0.950308 0.168352 0.678735
Si Si2 0.619166 0.834564 0.976246
Si Si3 0.911312 0.890983 0.627641
Si Si4 0.059067 0.664922 0.150386
Si Si5 0.601012 0.059878 0.765530
Si Si6 0.877737 0.838529 0.511946
Si Si7 0.590653 0.340767 0.811189
O O1 0.744122 0.294002 0.664850
O O2 0.249619 0.225582 0.680555
O O3 0.944951 0.059052 0.630238
O O4 0.880088 0.085995 0.733562
O O5 0.605717 0.833452 0.912477
O O6 0.366961 0.757109 0.002608
O O7 0.642581 0.001099 0.990380
O O8 0.603131 0.857246 0.638964
O O9 0.996369 0.841811 0.570452
O O10 0.108657 0.813635 0.669077
O O11 0.133423 0.514938 0.177228
O O12 0.403816 0.976932 0.726444
O O13 0.478322 0.212480 0.776719
O O14 0.089526 0.737332 0.482832
#
# Coordination Sequence:
#
# PCOD8157802 Si02
#       7
#     4   4   4   4   4   4   4
#     4  11  25  45  71 104 140 189 229 291 349 437
#     4  12  27  51  78 107 144 198 257 313 361 439
#     4  11  25  44  73  97 145 186 235 280 372 422
#     4  12  26  44  75 103 143 184 244 292 357 417
#     4  11  26  45  69 104 143 179 235 281 356 421
#     4  12  27  47  74 110 149 188 247 314 376 432
#     4  11  26  44  70 101 140 188 229 289 347 436
#
# _framework density 23.313946999999999
#
# number of rings (size 3 to 8) (size 9 to 14) (size 15 to 20)
#    0.000    0.571    1.429    6.000    8.000    3.429 
#    0.000    0.000    0.000    0.000    0.000    0.000 
#    0.000    0.000    0.000    0.000    0.000    0.000 
#
# Total GULP energy -347039.820177 kJ/mol
# GULP energy per Si atom -12394.279292 kJ/mol
# Density = 2.326088 g / cm^3
# Si number density = 23.313947 Si / 1000 Ang^3
#
#
#
# Elastic Constant Matrix: (Units=GPa)
#
#
# Indices 1 2 3 4 5 6 
#
# 1 92.1096 25.3733 13.6442 0.0000 0.0000 0.0000
# 2 25.3733 132.5884 31.7519 0.0000 0.0000 0.0000
# 3 13.6442 31.7519 113.0761 0.0000 0.0000 0.0000
# 4 0.0000 0.0000 0.0000 28.0045 0.0000 0.0000
# 5 0.0000 0.0000 0.0000 0.0000 13.8698 0.0000
# 6 0.0000 0.0000 0.0000 0.0000 0.0000 34.5665
#
#
#
# Elastic Compliance Matrix: (Units=1/GPa)
#
#
# Indices 1 2 3 4 5 6 
#
# 1 0.011533 -0.002009 -0.000827 0.000000 0.000000 0.000000
# 2 -0.002009 0.008436 -0.002126 0.000000 0.000000 0.000000
# 3 -0.000827 -0.002126 0.009541 0.000000 0.000000 0.000000
# 4 0.000000 0.000000 0.000000 0.035709 0.000000 0.000000
# 5 0.000000 0.000000 0.000000 0.000000 0.072099 0.000000
# 6 0.000000 0.000000 0.000000 0.000000 0.000000 0.028930
#
#
# Mechanical properties :
#
#
# Convention : Reuss Voigt Hill
#
# Bulk Modulus (GPa) = 51.06334 53.25700 52.16017
# Shear Modulus (GPa) = 27.36735 33.08847 30.22791
#
# Velocity S-wave (km/s) = 3.42988 3.77139 3.60468
# Velocity P-wave (km/s) = 6.13478 6.46974 6.30448
#
# Compressibility (1/GPa) = 0.01958352
#
# Stress axis : x y z
#
# Youngs Moduli (GPa) = 86.71096 118.54260 104.81588
#
# Poissons Ratio (x) = 0.23813 0.08673
# Poissons Ratio (y) = 0.17419 0.22288
# Poissons Ratio (z) = 0.07175 0.25207
#
# Static dielectric constant tensor:
#      x y z
#    x 4.087370 0.000000 0.000000 
#    y 0.000000 4.431610 0.000000 
#    z 0.000000 0.000000 4.265770 
# 
# 
# High freq. dielectric constant tensor:
#      x y z
#    x 1.925330 0.000000 0.000000 
#    y 0.000000 1.933420 0.000000 
#    z 0.000000 0.000000 1.929350 
# 
# From -- ./inp_files/7262.got.cif
#   From: 2010.03.12/outbox.cif.g09.slc.cpg/sg19_4_cif.got.tgz:7262.got - 2010.04.10 18:59:41.
