data_PCOD8157758
_publ_section_title
;
Structure prediction by ZEFSAII (Michael W. Deem and Ramdas Pophale) SiO2 
 PCOD8157758
Probable space group: P 21 21 21
;
_chemical_formula_sum "Si O2"
_cell_formula_units_Z 24
_cell_length_a 9.208552
_cell_length_b 6.368365
_cell_length_c 18.381871
_cell_angle_alpha 90.000000
_cell_angle_beta 90.000000
_cell_angle_gamma 90.000000
_cell_volume 1077.975786
_symmetry_space_group_name_H-M "P 21 21 21"
_symmetry_group_IT_number 19
_symmetry_cell_setting 'orthorhombic'
loop_
_space_group_symop_operation_xyz
x,y,z
1/2-x,-y,1/2+z
1/2+x,1/2-y,-z
-x,1/2+y,1/2-z
loop_
_atom_site_type_symbol
_atom_site_label
_atom_site_fract_x
_atom_site_fract_y
_atom_site_fract_z
Si Si1 0.425512 0.155121 0.554066
Si Si2 0.670996 0.997522 0.835338
Si Si3 0.699807 0.284070 0.220047
Si Si4 0.110893 0.858719 0.679314
Si Si5 0.075037 0.744180 0.392654
Si Si6 0.880383 0.527768 0.975754
O O1 0.338135 0.323947 0.601984
O O2 0.538344 0.258861 0.498582
O O3 0.519467 0.995274 0.603619
O O4 0.294052 0.039016 0.512317
O O5 0.803413 0.156477 0.850089
O O6 0.522880 0.129036 0.834657
O O7 0.696683 0.885916 0.758763
O O8 0.534584 0.208797 0.220069
O O9 0.705469 0.506954 0.262427
O O10 0.762227 0.282857 0.137884
O O11 0.075720 0.995597 0.608081
O O12 0.063640 0.837415 0.473879
#
# Coordination Sequence:
#
# PCOD8157758 Si02
#       6
#     4   4   4   4   4   4
#     4  11  26  47  69 106 139 194 234 296 357 428
#     4  11  24  46  68  98 145 185 237 296 354 421
#     4  12  27  44  72 108 141 190 248 295 361 431
#     4  12  26  47  72 106 145 190 237 304 360 423
#     4  11  28  44  73 105 142 195 239 298 360 435
#     4  11  27  44  74 103 150 186 243 295 360 430
#
# _framework density 22.263950000000001
#
# number of rings (size 3 to 8) (size 9 to 14) (size 15 to 20)
#    0.000    0.667    5.000    0.000   11.667    2.667 
#    0.000    0.000    0.000    0.000    0.000    0.000 
#    0.000    0.000    0.000    0.000    0.000    0.000 
#
# Total GULP energy -297624.315784 kJ/mol
# GULP energy per Si atom -12401.013158 kJ/mol
# Density = 2.221328 g / cm^3
# Si number density = 22.263950 Si / 1000 Ang^3
#
#
#
# Elastic Constant Matrix: (Units=GPa)
#
#
# Indices 1 2 3 4 5 6 
#
# 1 94.9394 42.8832 27.5531 0.0000 0.0000 0.0000
# 2 42.8832 127.6876 40.8962 0.0000 0.0000 0.0000
# 3 27.5531 40.8962 86.9266 0.0000 0.0000 0.0000
# 4 0.0000 0.0000 0.0000 32.5043 0.0000 0.0000
# 5 0.0000 0.0000 0.0000 0.0000 44.9107 0.0000
# 6 0.0000 0.0000 0.0000 0.0000 0.0000 41.8537
#
#
#
# Elastic Compliance Matrix: (Units=1/GPa)
#
#
# Indices 1 2 3 4 5 6 
#
# 1 0.012829 -0.003539 -0.002401 0.000000 0.000000 0.000000
# 2 -0.003539 0.010198 -0.003676 0.000000 0.000000 0.000000
# 3 -0.002401 -0.003676 0.013994 0.000000 0.000000 0.000000
# 4 0.000000 0.000000 0.000000 0.030765 0.000000 0.000000
# 5 0.000000 0.000000 0.000000 0.000000 0.022266 0.000000
# 6 0.000000 0.000000 0.000000 0.000000 0.000000 0.023893
#
#
# Mechanical properties :
#
#
# Convention : Reuss Voigt Hill
#
# Bulk Modulus (GPa) = 56.21756 59.13539 57.67647
# Shear Modulus (GPa) = 35.94363 37.06847 36.50605
#
# Velocity S-wave (km/s) = 4.02236 4.08481 4.05371
# Velocity P-wave (km/s) = 6.84674 6.99044 6.91896
#
# Compressibility (1/GPa) = 0.01778804
#
# Stress axis : x y z
#
# Youngs Moduli (GPa) = 77.95091 98.06249 71.45731
#
# Poissons Ratio (x) = 0.34708 0.17158
# Poissons Ratio (y) = 0.27590 0.26266
# Poissons Ratio (z) = 0.18717 0.36045
#
# Static dielectric constant tensor:
#      x y z
#    x 3.995070 0.000000 0.000000 
#    y 0.000000 4.212250 0.000000 
#    z 0.000000 0.000000 3.756360 
# 
# 
# High freq. dielectric constant tensor:
#      x y z
#    x 1.882310 0.000000 0.000000 
#    y 0.000000 1.887040 0.000000 
#    z 0.000000 0.000000 1.868210 
# 
# From -- ./inp_files/413.got.cif
#   From: 2010.03.12/outbox.cif.g09.slc.cpg/sg19_1_cif.got.tgz:413.got - 2010.04.10 18:59:41.
