data_PCOD8157567
_publ_section_title
;
Structure prediction by ZEFSAII (Michael W. Deem and Ramdas Pophale) SiO2 
 PCOD8157567
Probable space group: P 21 21 21
;
_chemical_formula_sum "Si O2"
_cell_formula_units_Z 24
_cell_length_a 4.903385
_cell_length_b 17.093396
_cell_length_c 13.613736
_cell_angle_alpha 90.000000
_cell_angle_beta 90.000000
_cell_angle_gamma 90.000000
_cell_volume 1141.042111
_symmetry_space_group_name_H-M "P 21 21 21"
_symmetry_group_IT_number 19
_symmetry_cell_setting 'orthorhombic'
loop_
_space_group_symop_operation_xyz
x,y,z
1/2-x,-y,1/2+z
1/2+x,1/2-y,-z
-x,1/2+y,1/2-z
loop_
_atom_site_type_symbol
_atom_site_label
_atom_site_fract_x
_atom_site_fract_y
_atom_site_fract_z
Si Si1 0.881414 0.286347 0.048800
Si Si2 0.489779 0.798720 0.737353
Si Si3 0.597383 0.541505 0.490108
Si Si4 0.594058 0.042805 0.430090
Si Si5 0.481241 0.595710 0.279771
Si Si6 0.690181 0.784919 0.951181
O O1 0.992603 0.271219 0.158469
O O2 0.114286 0.266115 0.969383
O O3 0.798042 0.376252 0.033704
O O4 0.680579 0.870008 0.702295
O O5 0.581189 0.765621 0.842432
O O6 0.183445 0.831681 0.741983
O O7 0.815585 0.474055 0.512154
O O8 0.567247 0.544567 0.372769
O O9 0.313089 0.522858 0.542749
O O10 0.527247 0.038891 0.314349
O O11 0.707773 0.126689 0.462331
O O12 0.442402 0.772520 0.026900
#
# Coordination Sequence:
#
# PCOD8157567 Si02
#       6
#     4   4   4   4   4   4
#     4  12  22  40  67 100 127 165 219 268 332 381
#     4  11  21  41  68  95 123 169 218 266 316 401
#     4  12  23  42  67  95 134 168 213 280 318 391
#     4  11  25  43  64  95 131 169 219 263 328 395
#     4  11  22  42  69  87 127 180 208 252 340 388
#     4  11  23  44  69  92 126 175 223 265 322 388
#
# _framework density 21.033403
#
# number of rings (size 3 to 8) (size 9 to 14) (size 15 to 20)
#    0.000    0.667    3.333    7.000    0.000    0.000 
#    9.000    0.000    0.000    0.000    0.000    0.000 
#    0.000    0.000    0.000    0.000    0.000    0.000 
#
# Total GULP energy -297766.126854 kJ/mol
# GULP energy per Si atom -12406.921952 kJ/mol
# Density = 2.098553 g / cm^3
# Si number density = 21.033403 Si / 1000 Ang^3
#
#
#
# Elastic Constant Matrix: (Units=GPa)
#
#
# Indices 1 2 3 4 5 6 
#
# 1 96.3422 16.4709 30.9089 0.0000 0.0000 0.0000
# 2 16.4709 65.1797 59.7107 0.0000 0.0000 0.0000
# 3 30.9089 59.7107 138.9876 0.0000 0.0000 0.0000
# 4 0.0000 0.0000 0.0000 42.1209 0.0000 0.0000
# 5 0.0000 0.0000 0.0000 0.0000 35.0020 0.0000
# 6 0.0000 0.0000 0.0000 0.0000 0.0000 38.9801
#
#
#
# Elastic Compliance Matrix: (Units=1/GPa)
#
#
# Indices 1 2 3 4 5 6 
#
# 1 0.011209 -0.000905 -0.002104 0.000000 0.000000 0.000000
# 2 -0.000905 0.025372 -0.010699 0.000000 0.000000 0.000000
# 3 -0.002104 -0.010699 0.012259 0.000000 0.000000 0.000000
# 4 0.000000 0.000000 0.000000 0.023741 0.000000 0.000000
# 5 0.000000 0.000000 0.000000 0.000000 0.028570 0.000000
# 6 0.000000 0.000000 0.000000 0.000000 0.000000 0.025654
#
#
# Mechanical properties :
#
#
# Convention : Reuss Voigt Hill
#
# Bulk Modulus (GPa) = 46.67520 57.18782 51.93151
# Shear Modulus (GPa) = 30.98599 36.11520 33.55060
#
# Velocity S-wave (km/s) = 3.84237 4.14821 3.99822
# Velocity P-wave (km/s) = 6.47489 7.08461 6.78660
#
# Compressibility (1/GPa) = 0.02142465
#
# Stress axis : x y z
#
# Youngs Moduli (GPa) = 89.21069 39.41340 81.57197
#
# Poissons Ratio (x) = 0.03568 0.17162
# Poissons Ratio (y) = 0.08076 0.87273
# Poissons Ratio (z) = 0.18769 0.42168
#
# Static dielectric constant tensor:
#      x y z
#    x 4.015020 0.000000 0.000000 
#    y 0.000000 3.500370 0.000000 
#    z 0.000000 0.000000 3.904520 
# 
# 
# High freq. dielectric constant tensor:
#      x y z
#    x 1.847940 0.000000 0.000000 
#    y 0.000000 1.800610 0.000000 
#    z 0.000000 0.000000 1.831900 
# 
# From -- ./inp_files/5660.got.cif
#   From: 2010.03.12/outbox.cif.g09.slc.cpg/sg19_3_cif.got.tgz:5660.got - 2010.04.10 18:59:41.
