data_PCOD8157222
_publ_section_title
;
Structure prediction by ZEFSAII (Michael W. Deem and Ramdas Pophale) SiO2 
 PCOD8157222
Probable space group: P 21 21 21
;
_chemical_formula_sum "Si O2"
_cell_formula_units_Z 32
_cell_length_a 12.273290
_cell_length_b 13.909629
_cell_length_c 8.726689
_cell_angle_alpha 90.000000
_cell_angle_beta 90.000000
_cell_angle_gamma 90.000000
_cell_volume 1489.793385
_symmetry_space_group_name_H-M "P 21 21 21"
_symmetry_group_IT_number 19
_symmetry_cell_setting 'orthorhombic'
loop_
_space_group_symop_operation_xyz
x,y,z
1/2-x,-y,1/2+z
1/2+x,1/2-y,-z
-x,1/2+y,1/2-z
loop_
_atom_site_type_symbol
_atom_site_label
_atom_site_fract_x
_atom_site_fract_y
_atom_site_fract_z
Si Si1 0.988162 0.665193 0.706002
Si Si2 0.805133 0.090351 0.302341
Si Si3 0.724656 0.293474 0.383240
Si Si4 0.127267 0.526908 0.869871
Si Si5 0.116876 0.926134 0.287051
Si Si6 0.777269 0.617806 0.206462
Si Si7 0.016301 0.090681 0.124483
Si Si8 0.553204 0.626418 0.386180
O O1 0.094382 0.631085 0.801373
O O2 0.979654 0.596732 0.558175
O O3 0.997534 0.774104 0.654791
O O4 0.882576 0.657145 0.813623
O O5 0.729516 0.179678 0.351568
O O6 0.854414 0.036666 0.449394
O O7 0.902273 0.128846 0.193304
O O8 0.735351 0.012695 0.209373
O O9 0.829438 0.342622 0.310684
O O10 0.729535 0.310258 0.564515
O O11 0.024577 0.459115 0.831279
O O12 0.061176 0.876030 0.430929
O O13 0.203205 0.007090 0.347868
O O14 0.028870 0.978597 0.175947
O O15 0.669962 0.619636 0.308142
O O16 0.881369 0.651726 0.308247
#
# Coordination Sequence:
#
# PCOD8157222 Si02
#       8
#     4   4   4   4   4   4   4   4
#     4  12  25  45  71 108 139 190 238 294 357 430
#     4  12  25  50  66 105 145 194 236 290 365 427
#     4  12  24  42  71 107 142 181 245 291 351 434
#     4  12  26  48  72  97 152 185 236 300 356 427
#     4  10  22  41  69  99 136 183 228 297 338 419
#     4  10  23  41  71 104 136 184 230 299 358 404
#     4  10  24  43  69 101 140 187 230 293 357 419
#     4  12  23  46  71 103 140 186 237 288 360 418
#
# _framework density 21.479489999999998
#
# number of rings (size 3 to 8) (size 9 to 14) (size 15 to 20)
#    0.750    0.000    2.500    6.000    3.500    0.000 
#    4.500    0.000    0.000    0.000    0.000    0.000 
#    0.000    0.000    0.000    0.000    0.000    0.000 
#
# Total GULP energy -396861.848151 kJ/mol
# GULP energy per Si atom -12401.932755 kJ/mol
# Density = 2.143060 g / cm^3
# Si number density = 21.479490 Si / 1000 Ang^3
#
#
#
# Elastic Constant Matrix: (Units=GPa)
#
#
# Indices 1 2 3 4 5 6 
#
# 1 111.3610 16.3071 45.4347 0.0000 0.0000 0.0000
# 2 16.3071 55.2619 18.9248 0.0000 0.0000 0.0000
# 3 45.4347 18.9248 104.3168 0.0000 0.0000 0.0000
# 4 0.0000 0.0000 0.0000 32.7973 0.0000 0.0000
# 5 0.0000 0.0000 0.0000 0.0000 40.7179 0.0000
# 6 0.0000 0.0000 0.0000 0.0000 0.0000 34.6742
#
#
#
# Elastic Compliance Matrix: (Units=1/GPa)
#
#
# Indices 1 2 3 4 5 6 
#
# 1 0.011072 -0.001723 -0.004510 0.000000 0.000000 0.000000
# 2 -0.001723 0.019562 -0.002799 0.000000 0.000000 0.000000
# 3 -0.004510 -0.002799 0.012058 0.000000 0.000000 0.000000
# 4 0.000000 0.000000 0.000000 0.030490 0.000000 0.000000
# 5 0.000000 0.000000 0.000000 0.000000 0.024559 0.000000
# 6 0.000000 0.000000 0.000000 0.000000 0.000000 0.028840
#
#
# Mechanical properties :
#
#
# Convention : Reuss Voigt Hill
#
# Bulk Modulus (GPa) = 40.60064 48.03032 44.31548
# Shear Modulus (GPa) = 32.71083 34.32276 33.51680
#
# Velocity S-wave (km/s) = 3.90665 4.00175 3.95449
# Velocity P-wave (km/s) = 6.26836 6.61525 6.44414
#
# Compressibility (1/GPa) = 0.02463015
#
# Stress axis : x y z
#
# Youngs Moduli (GPa) = 90.31731 51.11839 82.93154
#
# Poissons Ratio (x) = 0.08807 0.37401
# Poissons Ratio (y) = 0.15560 0.23209
# Poissons Ratio (z) = 0.40732 0.14306
#
# Static dielectric constant tensor:
#      x y z
#    x 3.854220 0.000000 0.000000 
#    y 0.000000 3.723970 0.000000 
#    z 0.000000 0.000000 3.858370 
# 
# 
# High freq. dielectric constant tensor:
#      x y z
#    x 1.846450 0.000000 0.000000 
#    y 0.000000 1.835700 0.000000 
#    z 0.000000 0.000000 1.851490 
# 
# From -- ./inp_files/3576.got.cif
#   From: 2010.03.12/outbox.cif.g09.slc.cpg/sg19_2_cif.got.tgz:3576.got - 2010.04.10 18:59:41.
