data_PCOD8157534
_publ_section_title
;
Structure prediction by ZEFSAII (Michael W. Deem and Ramdas Pophale) SiO2 
 PCOD8157534
Probable space group: P 21 21 21
;
_chemical_formula_sum "Si O2"
_cell_formula_units_Z 32
_cell_length_a 10.964285
_cell_length_b 14.346507
_cell_length_c 9.081596
_cell_angle_alpha 90.000000
_cell_angle_beta 90.000000
_cell_angle_gamma 90.000000
_cell_volume 1428.527708
_symmetry_space_group_name_H-M "P 21 21 21"
_symmetry_group_IT_number 19
_symmetry_cell_setting 'orthorhombic'
loop_
_space_group_symop_operation_xyz
x,y,z
1/2-x,-y,1/2+z
1/2+x,1/2-y,-z
-x,1/2+y,1/2-z
loop_
_atom_site_type_symbol
_atom_site_label
_atom_site_fract_x
_atom_site_fract_y
_atom_site_fract_z
Si Si1 0.843930 0.073638 0.765416
Si Si2 0.168763 0.010381 0.377375
Si Si3 0.476926 0.822482 0.904206
Si Si4 0.647772 0.251345 0.313033
Si Si5 0.400820 0.028872 0.204411
Si Si6 0.904115 0.318897 0.213313
Si Si7 0.562818 0.735649 0.383155
Si Si8 0.268709 0.418872 0.555260
O O1 0.859737 0.178654 0.821105
O O2 0.761842 0.077507 0.619979
O O3 0.969658 0.018429 0.735778
O O4 0.760435 0.021716 0.885448
O O5 0.156007 0.007449 0.552633
O O6 0.082568 0.929931 0.306004
O O7 0.309869 0.996963 0.334626
O O8 0.123330 0.112252 0.323337
O O9 0.490847 0.724531 0.817591
O O10 0.440011 0.806197 0.073539
O O11 0.599675 0.882540 0.895233
O O12 0.775183 0.302487 0.292077
O O13 0.580310 0.250622 0.154919
O O14 0.665599 0.148620 0.378752
O O15 0.402597 0.140828 0.201612
O O16 0.914553 0.268143 0.056523
#
# Coordination Sequence:
#
# PCOD8157534 Si02
#       8
#     4   4   4   4   4   4   4   4
#     4  12  25  48  71 107 147 188 236 302 369 425
#     4  11  23  45  69  98 145 180 234 293 356 428
#     4  11  24  45  71 104 143 187 240 292 358 434
#     4  11  23  48  68 100 146 184 236 296 354 432
#     4  11  25  46  70 105 138 187 237 294 359 434
#     4  10  26  43  70 106 138 188 238 293 363 430
#     4  11  24  45  72 101 145 184 235 301 362 425
#     4  11  26  44  75 101 142 192 234 297 357 432
#
# _framework density 22.400684999999999
#
# number of rings (size 3 to 8) (size 9 to 14) (size 15 to 20)
#    0.000    1.000    3.750    1.500    5.250    5.000 
#    0.000    0.000    0.000    0.000    0.000    0.000 
#    0.000    0.000    0.000    0.000    0.000    0.000 
#
# Total GULP energy -396781.560118 kJ/mol
# GULP energy per Si atom -12399.423754 kJ/mol
# Density = 2.234970 g / cm^3
# Si number density = 22.400685 Si / 1000 Ang^3
#
#
#
# Elastic Constant Matrix: (Units=GPa)
#
#
# Indices 1 2 3 4 5 6 
#
# 1 69.2535 16.9866 34.4321 0.0000 0.0000 0.0000
# 2 16.9866 105.5280 19.9351 0.0000 0.0000 0.0000
# 3 34.4321 19.9351 95.3002 0.0000 0.0000 0.0000
# 4 0.0000 0.0000 0.0000 34.9728 0.0000 0.0000
# 5 0.0000 0.0000 0.0000 0.0000 39.6934 0.0000
# 6 0.0000 0.0000 0.0000 0.0000 0.0000 31.0911
#
#
#
# Elastic Compliance Matrix: (Units=1/GPa)
#
#
# Indices 1 2 3 4 5 6 
#
# 1 0.017899 -0.001728 -0.006106 0.000000 0.000000 0.000000
# 2 -0.001728 0.010033 -0.001474 0.000000 0.000000 0.000000
# 3 -0.006106 -0.001474 0.013008 0.000000 0.000000 0.000000
# 4 0.000000 0.000000 0.000000 0.028594 0.000000 0.000000
# 5 0.000000 0.000000 0.000000 0.000000 0.025193 0.000000
# 6 0.000000 0.000000 0.000000 0.000000 0.000000 0.032164
#
#
# Mechanical properties :
#
#
# Convention : Reuss Voigt Hill
#
# Bulk Modulus (GPa) = 44.79504 45.86548 45.33026
# Shear Modulus (GPa) = 32.69114 34.39999 33.54557
#
# Velocity S-wave (km/s) = 3.82433 3.92301 3.87398
# Velocity P-wave (km/s) = 6.28818 6.40621 6.34747
#
# Compressibility (1/GPa) = 0.02232390
#
# Stress axis : x y z
#
# Youngs Moduli (GPa) = 55.86866 99.67303 76.87853
#
# Poissons Ratio (x) = 0.17221 0.46939
# Poissons Ratio (y) = 0.09653 0.11335
# Poissons Ratio (z) = 0.34111 0.14696
#
# Static dielectric constant tensor:
#      x y z
#    x 3.926630 0.000000 0.000000 
#    y 0.000000 4.424100 0.000000 
#    z 0.000000 0.000000 3.957550 
# 
# 
# High freq. dielectric constant tensor:
#      x y z
#    x 1.876190 0.000000 0.000000 
#    y 0.000000 1.904690 0.000000 
#    z 0.000000 0.000000 1.874710 
# 
# From -- ./inp_files/3642.got.cif
#   From: 2010.03.12/outbox.cif.g09.slc.cpg/sg19_2_cif.got.tgz:3642.got - 2010.04.10 18:59:41.
