data_PCOD8157265
_publ_section_title
;
Structure prediction by ZEFSAII (Michael W. Deem and Ramdas Pophale) SiO2 
 PCOD8157265
Probable space group: P 21 21 21
;
_chemical_formula_sum "Si O2"
_cell_formula_units_Z 28
_cell_length_a 9.947750
_cell_length_b 10.488273
_cell_length_c 12.887288
_cell_angle_alpha 90.000000
_cell_angle_beta 90.000000
_cell_angle_gamma 90.000000
_cell_volume 1344.591556
_symmetry_space_group_name_H-M "P 21 21 21"
_symmetry_group_IT_number 19
_symmetry_cell_setting 'orthorhombic'
loop_
_space_group_symop_operation_xyz
x,y,z
1/2-x,-y,1/2+z
1/2+x,1/2-y,-z
-x,1/2+y,1/2-z
loop_
_atom_site_type_symbol
_atom_site_label
_atom_site_fract_x
_atom_site_fract_y
_atom_site_fract_z
Si Si1 0.024187 0.507147 0.928033
Si Si2 0.098445 0.742497 0.558292
Si Si3 0.850353 0.128554 0.384767
Si Si4 0.239681 0.130013 0.502253
Si Si5 0.866583 0.620430 0.437784
Si Si6 0.703811 0.925640 0.263205
Si Si7 0.121801 0.198239 0.288807
O O1 0.119201 0.560791 0.840077
O O2 0.986684 0.362714 0.901891
O O3 0.891610 0.593706 0.932214
O O4 0.096107 0.515433 0.040454
O O5 0.244818 0.790259 0.517026
O O6 0.111462 0.645351 0.652999
O O7 0.013396 0.674377 0.467432
O O8 0.782492 0.232807 0.457407
O O9 0.966484 0.198298 0.320144
O O10 0.746518 0.064229 0.305297
O O11 0.212916 0.138214 0.379369
O O12 0.353835 0.022616 0.517801
O O13 0.854732 0.613009 0.313373
O O14 0.836711 0.843666 0.236322
#
# Coordination Sequence:
#
# PCOD8157265 Si02
#       7
#     4   4   4   4   4   4   4
#     4  10  22  43  61  95 138 166 227 277 330 403
#     4  10  23  42  65  96 134 175 223 280 330 398
#     4  11  24  41  68  96 133 179 223 277 339 407
#     4  10  23  43  66  96 136 174 221 282 334 398
#     4  10  23  44  68  98 135 180 223 283 339 403
#     4  11  24  41  67  97 133 175 226 277 338 404
#     4  10  23  44  65  96 135 173 223 276 336 407
#
# _framework density 20.824166999999999
#
# number of rings (size 3 to 8) (size 9 to 14) (size 15 to 20)
#    0.000    1.714    1.429    1.714    4.000    8.000 
#    0.000    0.000    0.000    0.000    0.000    0.000 
#    0.000    0.000    0.000    0.000    0.000    0.000 
#
# Total GULP energy -347274.838194 kJ/mol
# GULP energy per Si atom -12402.672793 kJ/mol
# Density = 2.077677 g / cm^3
# Si number density = 20.824167 Si / 1000 Ang^3
#
#
#
# Elastic Constant Matrix: (Units=GPa)
#
#
# Indices 1 2 3 4 5 6 
#
# 1 85.7724 38.9595 56.3460 0.0000 0.0000 0.0000
# 2 38.9595 96.9539 52.2006 0.0000 0.0000 0.0000
# 3 56.3460 52.2006 119.0270 0.0000 0.0000 0.0000
# 4 0.0000 0.0000 0.0000 30.5978 0.0000 0.0000
# 5 0.0000 0.0000 0.0000 0.0000 35.4416 0.0000
# 6 0.0000 0.0000 0.0000 0.0000 0.0000 31.1446
#
#
#
# Elastic Compliance Matrix: (Units=1/GPa)
#
#
# Indices 1 2 3 4 5 6 
#
# 1 0.017744 -0.003414 -0.006903 0.000000 0.000000 0.000000
# 2 -0.003414 0.014159 -0.004594 0.000000 0.000000 0.000000
# 3 -0.006903 -0.004594 0.013684 0.000000 0.000000 0.000000
# 4 0.000000 0.000000 0.000000 0.032682 0.000000 0.000000
# 5 0.000000 0.000000 0.000000 0.000000 0.028215 0.000000
# 6 0.000000 0.000000 0.000000 0.000000 0.000000 0.032108
#
#
# Mechanical properties :
#
#
# Convention : Reuss Voigt Hill
#
# Bulk Modulus (GPa) = 63.42460 66.30728 64.86594
# Shear Modulus (GPa) = 28.79056 29.71993 29.25525
#
# Velocity S-wave (km/s) = 3.72231 3.78191 3.75223
# Velocity P-wave (km/s) = 6.99982 7.14010 7.07031
#
# Compressibility (1/GPa) = 0.01576675
#
# Stress axis : x y z
#
# Youngs Moduli (GPa) = 56.35772 70.62561 73.07980
#
# Poissons Ratio (x) = 0.24109 0.50444
# Poissons Ratio (y) = 0.19239 0.33570
# Poissons Ratio (z) = 0.38901 0.32443
#
# Static dielectric constant tensor:
#      x y z
#    x 3.914130 0.000000 0.000000 
#    y 0.000000 3.724110 0.000000 
#    z 0.000000 0.000000 3.709690 
# 
# 
# High freq. dielectric constant tensor:
#      x y z
#    x 1.815970 0.000000 0.000000 
#    y 0.000000 1.816210 0.000000 
#    z 0.000000 0.000000 1.815610 
# 
# From -- ./inp_files/4584.got.cif
#   From: 2010.03.12/outbox.cif.g09.slc.cpg/sg19_3_cif.got.tgz:4584.got - 2010.04.10 18:59:41.
