data_PCOD8157297
_publ_section_title
;
Structure prediction by ZEFSAII (Michael W. Deem and Ramdas Pophale) SiO2 
 PCOD8157297
Probable space group: P 21 21 21
;
_chemical_formula_sum "Si O2"
_cell_formula_units_Z 28
_cell_length_a 12.017184
_cell_length_b 19.957722
_cell_length_c 5.064313
_cell_angle_alpha 90.000000
_cell_angle_beta 90.000000
_cell_angle_gamma 90.000000
_cell_volume 1214.602636
_symmetry_space_group_name_H-M "P 21 21 21"
_symmetry_group_IT_number 19
_symmetry_cell_setting 'orthorhombic'
loop_
_space_group_symop_operation_xyz
x,y,z
1/2-x,-y,1/2+z
1/2+x,1/2-y,-z
-x,1/2+y,1/2-z
loop_
_atom_site_type_symbol
_atom_site_label
_atom_site_fract_x
_atom_site_fract_y
_atom_site_fract_z
Si Si1 0.888604 0.214953 0.156273
Si Si2 0.726208 0.542423 0.476852
Si Si3 0.624970 0.045818 0.563068
Si Si4 0.021221 0.240116 0.670614
Si Si5 0.244153 0.167911 0.730177
Si Si6 0.569418 0.616282 0.137712
Si Si7 0.755361 0.085415 0.064255
O O1 0.939863 0.212367 0.446603
O O2 0.827058 0.285450 0.098572
O O3 0.796500 0.158752 0.127322
O O4 0.985897 0.206106 0.944673
O O5 0.714224 0.489393 0.718302
O O6 0.797960 0.605902 0.588291
O O7 0.603769 0.571783 0.395051
O O8 0.495594 0.067996 0.571392
O O9 0.660668 0.065616 0.268545
O O10 0.640548 0.965928 0.593858
O O11 0.700075 0.084762 0.775477
O O12 0.012532 0.320808 0.697237
O O13 0.145603 0.214297 0.614906
O O14 0.313153 0.139116 0.483560
#
# Coordination Sequence:
#
# PCOD8157297 Si02
#       7
#     4   4   4   4   4   4   4
#     4  11  24  43  70 100 140 179 231 293 351 421
#     4  12  26  47  72 100 144 193 236 296 359 437
#     4  10  23  41  72  96 139 177 233 282 345 423
#     4  11  26  42  71 100 137 185 232 294 351 427
#     4  11  26  47  71 106 146 182 250 295 366 434
#     4  11  25  48  72 108 140 194 236 293 371 431
#     4  10  22  44  66 104 132 182 230 289 343 409
#
# _framework density 23.052807999999999
#
# number of rings (size 3 to 8) (size 9 to 14) (size 15 to 20)
#    0.000    1.143    2.857    1.714    4.000    4.571 
#    2.571    0.000    0.000    0.000    0.000    0.000 
#    0.000    0.000    0.000    0.000    0.000    0.000 
#
# Total GULP energy -347148.982418 kJ/mol
# GULP energy per Si atom -12398.177944 kJ/mol
# Density = 2.300034 g / cm^3
# Si number density = 23.052808 Si / 1000 Ang^3
#
#
#
# Elastic Constant Matrix: (Units=GPa)
#
#
# Indices 1 2 3 4 5 6 
#
# 1 93.7837 55.4880 27.0013 0.0000 0.0000 0.0000
# 2 55.4880 125.3724 50.3004 0.0000 0.0000 0.0000
# 3 27.0013 50.3004 103.0232 0.0000 0.0000 0.0000
# 4 0.0000 0.0000 0.0000 34.2146 0.0000 0.0000
# 5 0.0000 0.0000 0.0000 0.0000 26.2259 0.0000
# 6 0.0000 0.0000 0.0000 0.0000 0.0000 43.9634
#
#
#
# Elastic Compliance Matrix: (Units=1/GPa)
#
#
# Indices 1 2 3 4 5 6 
#
# 1 0.014502 -0.006086 -0.000830 0.000000 0.000000 0.000000
# 2 -0.006086 0.012473 -0.004495 0.000000 0.000000 0.000000
# 3 -0.000830 -0.004495 0.012119 0.000000 0.000000 0.000000
# 4 0.000000 0.000000 0.000000 0.029227 0.000000 0.000000
# 5 0.000000 0.000000 0.000000 0.000000 0.038130 0.000000
# 6 0.000000 0.000000 0.000000 0.000000 0.000000 0.022746
#
#
# Mechanical properties :
#
#
# Convention : Reuss Voigt Hill
#
# Bulk Modulus (GPa) = 61.44921 65.30651 63.37786
# Shear Modulus (GPa) = 31.75761 33.50676 32.63219
#
# Velocity S-wave (km/s) = 3.71563 3.81659 3.76645
# Velocity P-wave (km/s) = 6.71726 6.91465 6.81667
#
# Compressibility (1/GPa) = 0.01627360
#
# Stress axis : x y z
#
# Youngs Moduli (GPa) = 68.95441 80.17286 82.51788
#
# Poissons Ratio (x) = 0.48791 0.06846
# Poissons Ratio (y) = 0.41963 0.37091
# Poissons Ratio (z) = 0.05721 0.36037
#
# Static dielectric constant tensor:
#      x y z
#    x 3.914090 0.000000 0.000000 
#    y 0.000000 4.480450 0.000000 
#    z 0.000000 0.000000 4.126830 
# 
# 
# High freq. dielectric constant tensor:
#      x y z
#    x 1.890330 0.000000 0.000000 
#    y 0.000000 1.923520 0.000000 
#    z 0.000000 0.000000 1.918500 
# 
# From -- ./inp_files/1120.got.cif
#   From: 2010.03.12/outbox.cif.g09.slc.cpg/sg19_1_cif.got.tgz:1120.got - 2010.04.10 18:59:41.
