data_PCOD8157173
_publ_section_title
;
Structure prediction by ZEFSAII (Michael W. Deem and Ramdas Pophale) SiO2 
 PCOD8157173
Probable space group: P 21 21 21
;
_chemical_formula_sum "Si O2"
_cell_formula_units_Z 24
_cell_length_a 12.250564
_cell_length_b 11.703638
_cell_length_c 7.905789
_cell_angle_alpha 90.000000
_cell_angle_beta 90.000000
_cell_angle_gamma 90.000000
_cell_volume 1133.501719
_symmetry_space_group_name_H-M "P 21 21 21"
_symmetry_group_IT_number 19
_symmetry_cell_setting 'orthorhombic'
loop_
_space_group_symop_operation_xyz
x,y,z
1/2-x,-y,1/2+z
1/2+x,1/2-y,-z
-x,1/2+y,1/2-z
loop_
_atom_site_type_symbol
_atom_site_label
_atom_site_fract_x
_atom_site_fract_y
_atom_site_fract_z
Si Si1 0.731824 0.846848 0.474176
Si Si2 0.178432 0.425856 0.694732
Si Si3 0.501436 0.234091 0.417601
Si Si4 0.712306 0.648785 0.252674
Si Si5 0.314487 0.908693 0.095407
Si Si6 0.855290 0.241035 0.288432
O O1 0.823314 0.900525 0.601350
O O2 0.779211 0.738317 0.370538
O O3 0.631231 0.798640 0.592401
O O4 0.689528 0.940722 0.342574
O O5 0.068626 0.382710 0.605185
O O6 0.280707 0.355265 0.615413
O O7 0.391043 0.222367 0.311097
O O8 0.573089 0.342690 0.357996
O O9 0.470648 0.247077 0.616777
O O10 0.670629 0.541116 0.360972
O O11 0.790079 0.606631 0.103148
O O12 0.213273 0.859372 0.203924
#
# Coordination Sequence:
#
# PCOD8157173 Si02
#       6
#     4   4   4   4   4   4
#     4  10  22  40  64  92 123 174 211 264 317 381
#     4   9  22  40  64  91 130 165 216 264 323 369
#     4  10  22  41  65  91 129 168 216 268 315 392
#     4  11  24  42  70  91 137 170 217 266 331 381
#     4  10  22  42  65  94 129 171 211 271 320 390
#     4   8  20  41  60  93 126 162 215 253 330 369
#
# _framework density 21.173324000000001
#
# number of rings (size 3 to 8) (size 9 to 14) (size 15 to 20)
#    1.000    1.333    0.000    1.000    9.333    0.000 
#   12.000    0.000    0.000    0.000    0.000    0.000 
#    0.000    0.000    0.000    0.000    0.000    0.000 
#
# Total GULP energy -297358.279592 kJ/mol
# GULP energy per Si atom -12389.928316 kJ/mol
# Density = 2.112513 g / cm^3
# Si number density = 21.173324 Si / 1000 Ang^3
#
#
#
# Elastic Constant Matrix: (Units=GPa)
#
#
# Indices 1 2 3 4 5 6 
#
# 1 58.1936 18.5566 19.8845 0.0000 0.0000 0.0000
# 2 18.5566 135.6909 59.9686 0.0000 0.0000 0.0000
# 3 19.8845 59.9686 114.7837 0.0000 0.0000 0.0000
# 4 0.0000 0.0000 0.0000 45.6475 0.0000 0.0000
# 5 0.0000 0.0000 0.0000 0.0000 17.8767 0.0000
# 6 0.0000 0.0000 0.0000 0.0000 0.0000 13.8361
#
#
#
# Elastic Compliance Matrix: (Units=1/GPa)
#
#
# Indices 1 2 3 4 5 6 
#
# 1 0.018481 -0.001446 -0.002446 0.000000 0.000000 0.000000
# 2 -0.001446 0.009695 -0.004815 0.000000 0.000000 0.000000
# 3 -0.002446 -0.004815 0.011651 0.000000 0.000000 0.000000
# 4 0.000000 0.000000 0.000000 0.021907 0.000000 0.000000
# 5 0.000000 0.000000 0.000000 0.000000 0.055939 0.000000
# 6 0.000000 0.000000 0.000000 0.000000 0.000000 0.072275
#
#
# Mechanical properties :
#
#
# Convention : Reuss Voigt Hill
#
# Bulk Modulus (GPa) = 44.61606 56.16529 50.39067
# Shear Modulus (GPa) = 23.27382 29.48928 26.38155
#
# Velocity S-wave (km/s) = 3.31902 3.73601 3.53367
# Velocity P-wave (km/s) = 5.98377 6.72268 6.36396
#
# Compressibility (1/GPa) = 0.02241346
#
# Stress axis : x y z
#
# Youngs Moduli (GPa) = 54.10966 103.14175 85.82790
#
# Poissons Ratio (x) = 0.14919 0.20992
# Poissons Ratio (y) = 0.07827 0.41324
# Poissons Ratio (z) = 0.13234 0.49660
#
# Static dielectric constant tensor:
#      x y z
#    x 3.383560 0.000000 0.000000 
#    y 0.000000 3.765450 0.000000 
#    z 0.000000 0.000000 3.751180 
# 
# 
# High freq. dielectric constant tensor:
#      x y z
#    x 1.787660 0.000000 0.000000 
#    y 0.000000 1.838690 0.000000 
#    z 0.000000 0.000000 1.826940 
# 
# From -- ./inp_files/3407.got.cif
#   From: 2010.03.12/outbox.cif.g09.slc.cpg/sg19_2_cif.got.tgz:3407.got - 2010.04.10 18:59:41.
