data_PCOD8157398
_publ_section_title
;
Structure prediction by ZEFSAII (Michael W. Deem and Ramdas Pophale) SiO2 
 PCOD8157398
Probable space group: P 21 21 21
;
_chemical_formula_sum "Si O2"
_cell_formula_units_Z 24
_cell_length_a 9.502787
_cell_length_b 20.966839
_cell_length_c 5.552687
_cell_angle_alpha 90.000000
_cell_angle_beta 90.000000
_cell_angle_gamma 90.000000
_cell_volume 1106.336265
_symmetry_space_group_name_H-M "P 21 21 21"
_symmetry_group_IT_number 19
_symmetry_cell_setting 'orthorhombic'
loop_
_space_group_symop_operation_xyz
x,y,z
1/2-x,-y,1/2+z
1/2+x,1/2-y,-z
-x,1/2+y,1/2-z
loop_
_atom_site_type_symbol
_atom_site_label
_atom_site_fract_x
_atom_site_fract_y
_atom_site_fract_z
Si Si1 0.051288 0.067491 0.819785
Si Si2 0.671040 0.628167 0.599358
Si Si3 0.024387 0.682273 0.022643
Si Si4 0.712030 0.701579 0.105736
Si Si5 0.447844 0.536270 0.474206
Si Si6 0.168673 0.575025 0.286583
O O1 0.197128 0.081489 0.953740
O O2 0.917131 0.053770 0.982032
O O3 0.023069 0.129659 0.664266
O O4 0.067375 0.000439 0.680035
O O5 0.682736 0.667191 0.848707
O O6 0.532323 0.585050 0.643480
O O7 0.656043 0.667522 0.349496
O O8 0.880827 0.713511 0.132048
O O9 0.125569 0.733054 0.896466
O O10 0.115832 0.646200 0.224066
O O11 0.335663 0.579036 0.328438
O O12 0.358283 0.479552 0.591645
#
# Coordination Sequence:
#
# PCOD8157398 Si02
#       6
#     4   4   4   4   4   4
#     4  10  23  44  66  94 141 173 225 281 341 400
#     4  11  27  44  69 104 135 180 231 282 340 411
#     4  10  25  44  68  96 135 184 224 286 335 402
#     4  11  26  46  69 101 136 181 234 277 343 405
#     4  11  25  39  71 101 135 183 226 279 352 410
#     4  11  22  43  63 100 138 175 226 283 339 404
#
# _framework density 21.693221999999999
#
# number of rings (size 3 to 8) (size 9 to 14) (size 15 to 20)
#    0.000    1.333    3.333    0.000    9.333    1.333 
#    0.000    0.000    0.000    0.000    0.000    0.000 
#    0.000    0.000    0.000    0.000    0.000    0.000 
#
# Total GULP energy -297367.595304 kJ/mol
# GULP energy per Si atom -12390.316471 kJ/mol
# Density = 2.164385 g / cm^3
# Si number density = 21.693222 Si / 1000 Ang^3
#
#
#
# Elastic Constant Matrix: (Units=GPa)
#
#
# Indices 1 2 3 4 5 6 
#
# 1 95.1924 35.3680 -8.8195 0.0000 0.0000 0.0000
# 2 35.3680 42.0215 -2.2097 0.0000 0.0000 0.0000
# 3 -8.8195 -2.2097 74.1233 0.0000 0.0000 0.0000
# 4 0.0000 0.0000 0.0000 -12.7967 0.0000 0.0000
# 5 0.0000 0.0000 0.0000 0.0000 18.0912 0.0000
# 6 0.0000 0.0000 0.0000 0.0000 0.0000 36.6388
#
#
#
# Elastic Compliance Matrix: (Units=1/GPa)
#
#
# Indices 1 2 3 4 5 6 
#
# 1 0.015439 -0.012918 0.001452 0.000000 0.000000 0.000000
# 2 -0.012918 0.034644 -0.000504 0.000000 0.000000 0.000000
# 3 0.001452 -0.000504 0.013649 0.000000 0.000000 0.000000
# 4 0.000000 0.000000 0.000000 -0.078145 0.000000 0.000000
# 5 0.000000 0.000000 0.000000 0.000000 0.055275 0.000000
# 6 0.000000 0.000000 0.000000 0.000000 0.000000 0.027293
#
#
# Mechanical properties :
#
#
# Convention : Reuss Voigt Hill
#
# Bulk Modulus (GPa) = 25.13173 28.89053 27.01113
# Shear Modulus (GPa) = 47.45626 20.85324 34.15475
#
# Velocity S-wave (km/s) = 4.68226 3.10381 3.97223
# Velocity P-wave (km/s) = 6.39075 5.11777 5.78935
#
# Compressibility (1/GPa) = 0.03979033
#
# Stress axis : x y z
#
# Youngs Moduli (GPa) = 64.76991 28.86523 73.26681
#
# Poissons Ratio (x) = 0.37289 -0.10638
# Poissons Ratio (y) = 0.83672 0.03695
# Poissons Ratio (z) = -0.09404 0.01456
#
# Static dielectric constant tensor:
#      x y z
#    x 5.179190 0.000000 0.000000 
#    y 0.000000 3.888140 0.000000 
#    z 0.000000 0.000000 3.972240 
# 
# 
# High freq. dielectric constant tensor:
#      x y z
#    x 1.866370 0.000000 0.000000 
#    y 0.000000 1.848230 0.000000 
#    z 0.000000 0.000000 1.847740 
# 
# From -- ./inp_files/471.got.cif
#   From: 2010.03.12/outbox.cif.g09.slc.cpg/sg19_1_cif.got.tgz:471.got - 2010.04.10 18:59:41.
