data_PCOD8157993
_publ_section_title
;
Structure prediction by ZEFSAII (Michael W. Deem and Ramdas Pophale) SiO2 
 PCOD8157993
Probable space group: C 2 2 21
;
_chemical_formula_sum "Si O2"
_cell_formula_units_Z 48
_cell_length_a 9.889875
_cell_length_b 18.016218
_cell_length_c 15.198319
_cell_angle_alpha 90.000000
_cell_angle_beta 90.000000
_cell_angle_gamma 90.000000
_cell_volume 2708.008271
_symmetry_space_group_name_H-M "C 2 2 21"
_symmetry_group_IT_number 20
_symmetry_cell_setting 'orthorhombic'
loop_
_space_group_symop_operation_xyz
x,y,z
-x,-y,1/2+z
x,-y,-z
-x,y,1/2-z
1/2+x,1/2+y,z
1/2-x,1/2-y,1/2+z
1/2+x,1/2-y,-z
1/2-x,1/2+y,1/2-z
loop_
_atom_site_type_symbol
_atom_site_label
_atom_site_fract_x
_atom_site_fract_y
_atom_site_fract_z
Si Si1 0.500000 0.302050 0.750000
Si Si2 0.805050 0.037446 0.584811
Si Si3 0.485713 0.956225 0.417690
Si Si4 0.500000 0.953956 0.750000
Si Si5 0.794949 0.818850 0.494658
Si Si6 0.004790 0.287461 0.428481
Si Si7 0.274419 0.400691 0.680538
O O1 0.491397 0.250096 0.833805
O O2 0.367894 0.354484 0.746649
O O3 0.644824 0.037905 0.573485
O O4 0.847502 0.124618 0.583577
O O5 0.875376 0.000000 0.500000
O O6 0.834521 0.985818 0.670434
O O7 0.443826 0.869958 0.419018
O O8 0.417788 0.000000 0.500000
O O9 0.438616 0.994111 0.326886
O O10 0.621665 0.901412 0.717047
O O11 0.653738 0.782061 0.468491
O O12 0.770969 0.864789 0.583979
O O13 0.906145 0.755619 0.505169
#
# Coordination Sequence:
#
# PCOD8157993 Si02
#       7
#     4   8   8   4   8   8   8
#     4  10  21  32  46  74 111 134 148 198 269 312
#     4   7  12  27  48  66  86 119 160 194 228 279
#     4   9  17  29  48  73  96 122 166 214 244 284
#     4  10  17  30  54  72  93 132 174 210 245 290
#     4   9  18  32  52  71  96 131 168 207 246 299
#     4  10  19  33  50  73 103 133 165 205 259 306
#     4   9  18  32  50  74  97 127 169 205 245 300
#
# _framework density 17.725204000000002
#
# number of rings (size 3 to 8) (size 9 to 14) (size 15 to 20)
#    0.000    3.000    0.000    3.500    0.000    2.667 
#    0.000    1.667    0.000    2.000    0.000    0.000 
#    0.000    0.000    0.000    0.000    0.000    0.000 
#
# Total GULP energy -297327.710358 kJ/mol
# GULP energy per Si atom -12388.654598 kJ/mol
# Density = 1.768486 g / cm^3
# Si number density = 17.725204 Si / 1000 Ang^3
#
#
#
# Elastic Constant Matrix: (Units=GPa)
#
#
# Indices 1 2 3 4 5 6 
#
# 1 67.2225 54.7721 23.9424 0.0000 0.0000 0.0000
# 2 54.7721 134.9758 45.7308 0.0000 0.0000 0.0000
# 3 23.9424 45.7308 68.4618 0.0000 0.0000 0.0000
# 4 0.0000 0.0000 0.0000 27.0137 0.0000 0.0000
# 5 0.0000 0.0000 0.0000 0.0000 22.9397 0.0000
# 6 0.0000 0.0000 0.0000 0.0000 0.0000 27.6313
#
#
#
# Elastic Compliance Matrix: (Units=1/GPa)
#
#
# Indices 1 2 3 4 5 6 
#
# 1 0.022498 -0.008354 -0.002287 0.000000 0.000000 0.000000
# 2 -0.008354 0.012678 -0.005547 0.000000 0.000000 0.000000
# 3 -0.002287 -0.005547 0.019112 0.000000 0.000000 0.000000
# 4 0.000000 0.000000 0.000000 0.037018 0.000000 0.000000
# 5 0.000000 0.000000 0.000000 0.000000 0.043593 0.000000
# 6 0.000000 0.000000 0.000000 0.000000 0.000000 0.036191
#
#
# Mechanical properties :
#
#
# Convention : Reuss Voigt Hill
#
# Bulk Modulus (GPa) = 45.64076 57.72788 51.68432
# Shear Modulus (GPa) = 23.72247 25.26460 24.49353
#
# Velocity S-wave (km/s) = 3.66231 3.77947 3.72135
# Velocity P-wave (km/s) = 6.60971 7.18922 6.90555
#
# Compressibility (1/GPa) = 0.02191024
#
# Stress axis : x y z
#
# Youngs Moduli (GPa) = 44.44894 78.87495 52.32336
#
# Poissons Ratio (x) = 0.65896 0.11968
# Poissons Ratio (y) = 0.37135 0.29024
# Poissons Ratio (z) = 0.10167 0.43753
#
# Static dielectric constant tensor:
#      x y z
#    x 2.925860 0.000000 0.000000 
#    y 0.000000 3.783750 0.000000 
#    z 0.000000 0.000000 3.374540 
# 
# 
# High freq. dielectric constant tensor:
#      x y z
#    x 1.645190 0.000000 0.000000 
#    y 0.000000 1.700190 0.000000 
#    z 0.000000 0.000000 1.677250 
# 
# From -- ./inp_files/18965.got.cif
#   From: 2010.03.12/outbox.cif.g09.slc.cpg/sg20_10_cif.got.tgz:18965.got - 2010.04.14 01:38:04.
