data_PCOD8157772
_publ_section_title
;
Structure prediction by ZEFSAII (Michael W. Deem and Ramdas Pophale) SiO2 
 PCOD8157772
Probable space group: P 21 21 21
;
_chemical_formula_sum "Si O2"
_cell_formula_units_Z 28
_cell_length_a 16.072698
_cell_length_b 12.262605
_cell_length_c 6.649946
_cell_angle_alpha 90.000000
_cell_angle_beta 90.000000
_cell_angle_gamma 90.000000
_cell_volume 1310.658784
_symmetry_space_group_name_H-M "P 21 21 21"
_symmetry_group_IT_number 19
_symmetry_cell_setting 'orthorhombic'
loop_
_space_group_symop_operation_xyz
x,y,z
1/2-x,-y,1/2+z
1/2+x,1/2-y,-z
-x,1/2+y,1/2-z
loop_
_atom_site_type_symbol
_atom_site_label
_atom_site_fract_x
_atom_site_fract_y
_atom_site_fract_z
Si Si1 0.131719 0.373643 0.485000
Si Si2 0.650749 0.594528 0.234599
Si Si3 0.775788 0.625736 0.573609
Si Si4 0.572902 0.932412 0.782641
Si Si5 0.294897 0.267950 0.577066
Si Si6 0.930813 0.717263 0.339859
Si Si7 0.531268 0.094377 0.125009
O O1 0.114625 0.486749 0.374935
O O2 0.230860 0.354314 0.480203
O O3 0.085000 0.273969 0.374939
O O4 0.102367 0.380519 0.714001
O O5 0.690175 0.615923 0.452047
O O6 0.693782 0.494338 0.124660
O O7 0.554047 0.567744 0.261917
O O8 0.660532 0.700446 0.097266
O O9 0.758529 0.690963 0.776792
O O10 0.842906 0.686599 0.436341
O O11 0.633184 0.829570 0.803191
O O12 0.485072 0.890999 0.694288
O O13 0.558835 0.989550 0.996840
O O14 0.980275 0.800472 0.483381
#
# Coordination Sequence:
#
# PCOD8157772 Si02
#       7
#     4   4   4   4   4   4   4
#     4  11  25  45  69 101 140 183 234 289 347 423
#     4  12  26  43  71 103 136 180 236 286 353 420
#     4  12  25  42  72 102 138 182 230 292 346 417
#     4  11  28  43  72 103 142 182 240 290 346 434
#     4  12  26  46  70 103 143 187 234 288 358 414
#     4  11  24  47  67 101 141 180 232 293 348 417
#     4  11  26  46  71 101 140 186 232 288 362 415
#
# _framework density 21.363302000000001
#
# number of rings (size 3 to 8) (size 9 to 14) (size 15 to 20)
#    0.000    0.571    4.286    2.571    6.000    6.857 
#    0.000    0.000    0.000    0.000    0.000    0.000 
#    0.000    0.000    0.000    0.000    0.000    0.000 
#
# Total GULP energy -347468.337110 kJ/mol
# GULP energy per Si atom -12409.583468 kJ/mol
# Density = 2.131468 g / cm^3
# Si number density = 21.363302 Si / 1000 Ang^3
#
#
#
# Elastic Constant Matrix: (Units=GPa)
#
#
# Indices 1 2 3 4 5 6 
#
# 1 83.1415 18.9751 18.6667 0.0000 0.0000 0.0000
# 2 18.9751 76.9201 23.6369 0.0000 0.0000 0.0000
# 3 18.6667 23.6369 95.7884 0.0000 0.0000 0.0000
# 4 0.0000 0.0000 0.0000 34.8140 0.0000 0.0000
# 5 0.0000 0.0000 0.0000 0.0000 35.3820 0.0000
# 6 0.0000 0.0000 0.0000 0.0000 0.0000 38.2068
#
#
#
# Elastic Compliance Matrix: (Units=1/GPa)
#
#
# Indices 1 2 3 4 5 6 
#
# 1 0.013055 -0.002639 -0.001893 0.000000 0.000000 0.000000
# 2 -0.002639 0.014601 -0.003089 0.000000 0.000000 0.000000
# 3 -0.001893 -0.003089 0.011571 0.000000 0.000000 0.000000
# 4 0.000000 0.000000 0.000000 0.028724 0.000000 0.000000
# 5 0.000000 0.000000 0.000000 0.000000 0.028263 0.000000
# 6 0.000000 0.000000 0.000000 0.000000 0.000000 0.026173
#
#
# Mechanical properties :
#
#
# Convention : Reuss Voigt Hill
#
# Bulk Modulus (GPa) = 41.69180 42.04527 41.86853
# Shear Modulus (GPa) = 34.33537 34.65198 34.49367
#
# Velocity S-wave (km/s) = 4.01335 4.03182 4.02260
# Velocity P-wave (km/s) = 6.40578 6.43412 6.41996
#
# Compressibility (1/GPa) = 0.02398553
#
# Stress axis : x y z
#
# Youngs Moduli (GPa) = 76.59944 68.49052 86.42511
#
# Poissons Ratio (x) = 0.18073 0.16360
# Poissons Ratio (y) = 0.20213 0.26694
# Poissons Ratio (z) = 0.14500 0.21154
#
# Static dielectric constant tensor:
#      x y z
#    x 3.808280 0.000000 0.000000 
#    y 0.000000 3.919650 0.000000 
#    z 0.000000 0.000000 3.923570 
# 
# 
# High freq. dielectric constant tensor:
#      x y z
#    x 1.844980 0.000000 0.000000 
#    y 0.000000 1.846750 0.000000 
#    z 0.000000 0.000000 1.850170 
# 
# From -- ./inp_files/1051.got.cif
#   From: 2010.03.12/outbox.cif.g09.slc.cpg/sg19_1_cif.got.tgz:1051.got - 2010.04.10 18:59:41.
