data_PCOD8157687
_publ_section_title
;
Structure prediction by ZEFSAII (Michael W. Deem and Ramdas Pophale) SiO2 
 PCOD8157687
Probable space group: P 21 21 21
;
_chemical_formula_sum "Si O2"
_cell_formula_units_Z 28
_cell_length_a 9.368574
_cell_length_b 17.891589
_cell_length_c 7.581623
_cell_angle_alpha 90.000000
_cell_angle_beta 90.000000
_cell_angle_gamma 90.000000
_cell_volume 1270.821606
_symmetry_space_group_name_H-M "P 21 21 21"
_symmetry_group_IT_number 19
_symmetry_cell_setting 'orthorhombic'
loop_
_space_group_symop_operation_xyz
x,y,z
1/2-x,-y,1/2+z
1/2+x,1/2-y,-z
-x,1/2+y,1/2-z
loop_
_atom_site_type_symbol
_atom_site_label
_atom_site_fract_x
_atom_site_fract_y
_atom_site_fract_z
Si Si1 0.188015 0.784005 0.677805
Si Si2 0.987196 0.911233 0.562817
Si Si3 0.900992 0.485407 0.276462
Si Si4 0.076078 0.023701 0.834002
Si Si5 0.964195 0.679743 0.788500
Si Si6 0.255640 0.299010 0.843564
Si Si7 0.963877 0.650652 0.178924
O O1 0.158967 0.734215 0.506611
O O2 0.353435 0.791043 0.730446
O O3 0.121614 0.865396 0.641193
O O4 0.101331 0.733743 0.818578
O O5 0.840526 0.867213 0.587127
O O6 0.006254 0.932580 0.355086
O O7 0.979290 0.984958 0.683920
O O8 0.737554 0.470493 0.233502
O O9 0.933238 0.473849 0.486011
O O10 0.942797 0.570507 0.259172
O O11 0.019523 0.110022 0.850101
O O12 0.834055 0.731680 0.734638
O O13 0.925793 0.643684 0.974783
O O14 0.372722 0.324884 0.702982
#
# Coordination Sequence:
#
# PCOD8157687 Si02
#       7
#     4   4   4   4   4   4   4
#     4  11  23  45  70  97 133 182 229 276 343 410
#     4  11  24  46  67 102 135 179 233 282 340 413
#     4  12  22  41  71  99 135 184 231 280 342 410
#     4  12  22  42  72 103 136 180 236 286 341 412
#     4  11  24  43  70 101 136 176 234 289 335 413
#     4  11  25  45  67  99 141 176 227 288 347 402
#     4  12  22  44  69  99 134 185 226 281 348 408
#
# _framework density 22.032990999999999
#
# number of rings (size 3 to 8) (size 9 to 14) (size 15 to 20)
#    0.000    0.571    4.286    5.143    0.000    0.000 
#   18.000    0.000    0.000    0.000    0.000    0.000 
#    0.000    0.000    0.000    0.000    0.000    0.000 
#
# Total GULP energy -347145.447863 kJ/mol
# GULP energy per Si atom -12398.051709 kJ/mol
# Density = 2.198284 g / cm^3
# Si number density = 22.032991 Si / 1000 Ang^3
#
#
#
# Elastic Constant Matrix: (Units=GPa)
#
#
# Indices 1 2 3 4 5 6 
#
# 1 90.8251 45.1440 13.6583 0.0000 0.0000 0.0000
# 2 45.1440 109.8455 24.3402 0.0000 0.0000 0.0000
# 3 13.6583 24.3402 100.4855 0.0000 0.0000 0.0000
# 4 0.0000 0.0000 0.0000 34.2675 0.0000 0.0000
# 5 0.0000 0.0000 0.0000 0.0000 19.3912 0.0000
# 6 0.0000 0.0000 0.0000 0.0000 0.0000 20.3741
#
#
#
# Elastic Compliance Matrix: (Units=1/GPa)
#
#
# Indices 1 2 3 4 5 6 
#
# 1 0.013864 -0.005580 -0.000533 0.000000 0.000000 0.000000
# 2 -0.005580 0.011866 -0.002116 0.000000 0.000000 0.000000
# 3 -0.000533 -0.002116 0.010537 0.000000 0.000000 0.000000
# 4 0.000000 0.000000 0.000000 0.029182 0.000000 0.000000
# 5 0.000000 0.000000 0.000000 0.000000 0.051570 0.000000
# 6 0.000000 0.000000 0.000000 0.000000 0.000000 0.049082
#
#
# Mechanical properties :
#
#
# Convention : Reuss Voigt Hill
#
# Bulk Modulus (GPa) = 50.48105 51.93792 51.20949
# Shear Modulus (GPa) = 26.43276 29.34079 27.88677
#
# Velocity S-wave (km/s) = 3.46741 3.65317 3.56150
# Velocity P-wave (km/s) = 6.24435 6.43570 6.34074
#
# Compressibility (1/GPa) = 0.01980941
#
# Stress axis : x y z
#
# Youngs Moduli (GPa) = 72.13146 84.27730 94.90717
#
# Poissons Ratio (x) = 0.47023 0.05057
# Poissons Ratio (y) = 0.40246 0.20080
# Poissons Ratio (z) = 0.03844 0.17831
#
# Static dielectric constant tensor:
#      x y z
#    x 3.837500 0.000000 0.000000 
#    y 0.000000 4.260760 0.000000 
#    z 0.000000 0.000000 4.161580 
# 
# 
# High freq. dielectric constant tensor:
#      x y z
#    x 1.852600 0.000000 0.000000 
#    y 0.000000 1.878030 0.000000 
#    z 0.000000 0.000000 1.873910 
# 
# From -- ./inp_files/2954.got.cif
#   From: 2010.03.12/outbox.cif.g09.slc.cpg/sg19_2_cif.got.tgz:2954.got - 2010.04.10 18:59:41.
