data_PCOD8157422
_publ_section_title
;
Structure prediction by ZEFSAII (Michael W. Deem and Ramdas Pophale) SiO2 
 PCOD8157422
Probable space group: P 21 21 21
;
_chemical_formula_sum "Si O2"
_cell_formula_units_Z 32
_cell_length_a 30.591863
_cell_length_b 8.594517
_cell_length_c 5.250323
_cell_angle_alpha 90.000000
_cell_angle_beta 90.000000
_cell_angle_gamma 90.000000
_cell_volume 1380.426929
_symmetry_space_group_name_H-M "P 21 21 21"
_symmetry_group_IT_number 19
_symmetry_cell_setting 'orthorhombic'
loop_
_space_group_symop_operation_xyz
x,y,z
1/2-x,-y,1/2+z
1/2+x,1/2-y,-z
-x,1/2+y,1/2-z
loop_
_atom_site_type_symbol
_atom_site_label
_atom_site_fract_x
_atom_site_fract_y
_atom_site_fract_z
Si Si1 0.862605 0.663068 0.301879
Si Si2 0.562962 0.896559 0.862627
Si Si3 0.767680 0.076894 0.744046
Si Si4 0.980787 0.589271 0.849717
Si Si5 0.639843 0.032696 0.094848
Si Si6 0.734240 0.416696 0.712273
Si Si7 0.059239 0.957835 0.141984
Si Si8 0.072657 0.363319 0.529228
O O1 0.848747 0.789781 0.516970
O O2 0.818119 0.595326 0.182269
O O3 0.891449 0.520880 0.415006
O O4 0.892503 0.745883 0.095385
O O5 0.614886 0.935593 0.875662
O O6 0.533640 0.914086 0.122054
O O7 0.559184 0.720465 0.767053
O O8 0.544871 0.026143 0.662567
O O9 0.755603 0.254126 0.791163
O O10 0.739480 0.013561 0.508228
O O11 0.818292 0.062076 0.679218
O O12 0.962577 0.551911 0.130516
O O13 0.961627 0.763457 0.798613
O O14 0.967053 0.475664 0.622897
O O15 0.602435 0.024290 0.304986
O O16 0.753652 0.465873 0.439670
#
# Coordination Sequence:
#
# PCOD8157422 Si02
#       8
#     4   4   4   4   4   4   4   4
#     4  10  23  47  69  98 142 186 228 283 363 422
#     4  11  27  40  68 106 138 177 237 294 333 413
#     4  12  26  48  76 105 139 189 240 290 350 433
#     4  11  25  45  69  96 144 184 231 274 361 411
#     4  11  24  44  73  99 140 182 240 283 353 417
#     4  12  28  45  73 107 145 184 229 299 360 423
#     4  11  26  44  71 102 136 187 230 294 344 415
#     4  10  23  45  71  97 136 195 227 287 344 424
#
# _framework density 23.181232999999999
#
# number of rings (size 3 to 8) (size 9 to 14) (size 15 to 20)
#    0.000    1.000    2.500    2.250   10.500    1.000 
#    0.000    0.000    0.000    0.000    0.000    0.000 
#    0.000    0.000    0.000    0.000    0.000    0.000 
#
# Total GULP energy -396699.413008 kJ/mol
# GULP energy per Si atom -12396.856656 kJ/mol
# Density = 2.312847 g / cm^3
# Si number density = 23.181233 Si / 1000 Ang^3
#
#
#
# Elastic Constant Matrix: (Units=GPa)
#
#
# Indices 1 2 3 4 5 6 
#
# 1 125.9758 33.7143 3.8023 0.0000 0.0000 0.0000
# 2 33.7143 93.5849 3.2652 0.0000 0.0000 0.0000
# 3 3.8023 3.2652 64.4997 0.0000 0.0000 0.0000
# 4 0.0000 0.0000 0.0000 13.5125 0.0000 0.0000
# 5 0.0000 0.0000 0.0000 0.0000 27.7509 0.0000
# 6 0.0000 0.0000 0.0000 0.0000 0.0000 33.6107
#
#
#
# Elastic Compliance Matrix: (Units=1/GPa)
#
#
# Indices 1 2 3 4 5 6 
#
# 1 0.008793 -0.003155 -0.000359 0.000000 0.000000 0.000000
# 2 -0.003155 0.011837 -0.000413 0.000000 0.000000 0.000000
# 3 -0.000359 -0.000413 0.015546 0.000000 0.000000 0.000000
# 4 0.000000 0.000000 0.000000 0.074005 0.000000 0.000000
# 5 0.000000 0.000000 0.000000 0.000000 0.036035 0.000000
# 6 0.000000 0.000000 0.000000 0.000000 0.000000 0.029752
#
#
# Mechanical properties :
#
#
# Convention : Reuss Voigt Hill
#
# Bulk Modulus (GPa) = 35.30873 40.62489 37.96681
# Shear Modulus (GPa) = 25.87144 31.19341 28.53243
#
# Velocity S-wave (km/s) = 3.34436 3.67227 3.51214
# Velocity P-wave (km/s) = 5.49342 5.96185 5.73242
#
# Compressibility (1/GPa) = 0.02832161
#
# Stress axis : x y z
#
# Youngs Moduli (GPa) = 113.72304 84.48363 64.32524
#
# Poissons Ratio (x) = 0.26657 0.02307
# Poissons Ratio (y) = 0.35883 0.02658
# Poissons Ratio (z) = 0.04079 0.03491
#
# Static dielectric constant tensor:
#      x y z
#    x 4.294520 0.000000 0.000000 
#    y 0.000000 4.245670 0.000000 
#    z 0.000000 0.000000 4.039890 
# 
# 
# High freq. dielectric constant tensor:
#      x y z
#    x 1.930130 0.000000 0.000000 
#    y 0.000000 1.918190 0.000000 
#    z 0.000000 0.000000 1.911310 
# 
# From -- ./inp_files/707.got.cif
#   From: 2010.03.12/outbox.cif.g09.slc.cpg/sg19_1_cif.got.tgz:707.got - 2010.04.10 18:59:41.
