data_PCOD8157938
_publ_section_title
;
Structure prediction by ZEFSAII (Michael W. Deem and Ramdas Pophale) SiO2 
 PCOD8157938
Probable space group: P 21 21 21
;
_chemical_formula_sum "Si O2"
_cell_formula_units_Z 12
_cell_length_a 9.759521
_cell_length_b 5.068907
_cell_length_c 9.774211
_cell_angle_alpha 90.000000
_cell_angle_beta 90.000000
_cell_angle_gamma 90.000000
_cell_volume 483.531238
_symmetry_space_group_name_H-M "P 21 21 21"
_symmetry_group_IT_number 19
_symmetry_cell_setting 'orthorhombic'
loop_
_space_group_symop_operation_xyz
x,y,z
1/2-x,-y,1/2+z
1/2+x,1/2-y,-z
-x,1/2+y,1/2-z
loop_
_atom_site_type_symbol
_atom_site_label
_atom_site_fract_x
_atom_site_fract_y
_atom_site_fract_z
Si Si1 0.240582 0.624108 0.496519
Si Si2 0.089898 0.427552 0.251195
Si Si3 0.013185 0.191979 0.838938
O O1 0.186813 0.412615 0.385060
O O2 0.322077 0.480771 0.619391
O O3 0.343005 0.824506 0.419142
O O4 0.109580 0.779610 0.558431
O O5 0.031158 0.136735 0.226568
O O6 0.019316 0.401424 0.716444
#
# Coordination Sequence:
#
# PCOD8157938 Si02
#       3
#     4   4   4
#     4  12  28  50  80 110 152 198 248 310 372 442
#     4  12  30  48  76 114 152 196 250 306 374 442
#     4  12  30  48  76 114 152 196 250 306 374 442
#
# _framework density 24.817423000000002
#
# number of rings (size 3 to 8) (size 9 to 14) (size 15 to 20)
#    0.000    0.000    6.667    0.000    9.333    5.333 
#    0.000    0.000    0.000    0.000    0.000    0.000 
#    0.000    0.000    0.000    0.000    0.000    0.000 
#
# Total GULP energy -148827.075852 kJ/mol
# GULP energy per Si atom -12402.256321 kJ/mol
# Density = 2.476094 g / cm^3
# Si number density = 24.817423 Si / 1000 Ang^3
#
#
#
# Elastic Constant Matrix: (Units=GPa)
#
#
# Indices 1 2 3 4 5 6 
#
# 1 124.8049 -2.2830 31.9068 0.0000 0.0000 0.0000
# 2 -2.2830 54.2399 -0.6983 0.0000 0.0000 0.0000
# 3 31.9068 -0.6983 136.5812 0.0000 0.0000 0.0000
# 4 0.0000 0.0000 0.0000 19.2348 0.0000 0.0000
# 5 0.0000 0.0000 0.0000 0.0000 76.9176 0.0000
# 6 0.0000 0.0000 0.0000 0.0000 0.0000 18.7642
#
#
#
# Elastic Compliance Matrix: (Units=1/GPa)
#
#
# Indices 1 2 3 4 5 6 
#
# 1 0.008527 0.000333 -0.001990 0.000000 0.000000 0.000000
# 2 0.000333 0.018451 0.000016 0.000000 0.000000 0.000000
# 3 -0.001990 0.000016 0.007787 0.000000 0.000000 0.000000
# 4 0.000000 0.000000 0.000000 0.051989 0.000000 0.000000
# 5 0.000000 0.000000 0.000000 0.000000 0.013001 0.000000
# 6 0.000000 0.000000 0.000000 0.000000 0.000000 0.053293
#
#
# Mechanical properties :
#
#
# Convention : Reuss Voigt Hill
#
# Bulk Modulus (GPa) = 31.76242 41.49746 36.62994
# Shear Modulus (GPa) = 29.97171 42.09669 36.03420
#
# Velocity S-wave (km/s) = 3.47895 4.12303 3.81461
# Velocity P-wave (km/s) = 5.38179 6.27879 5.84752
#
# Compressibility (1/GPa) = 0.03148375
#
# Stress axis : x y z
#
# Youngs Moduli (GPa) = 117.26823 54.19808 128.42389
#
# Poissons Ratio (x) = -0.01806 0.25561
# Poissons Ratio (y) = -0.03909 -0.00211
# Poissons Ratio (z) = 0.23341 -0.00089
#
# Static dielectric constant tensor:
#      x y z
#    x 4.889930 0.000000 0.000000 
#    y 0.000000 3.573740 0.000000 
#    z 0.000000 0.000000 4.881800 
# 
# 
# High freq. dielectric constant tensor:
#      x y z
#    x 2.016770 0.000000 0.000000 
#    y 0.000000 1.933140 0.000000 
#    z 0.000000 0.000000 2.017580 
# 
# From -- ./inp_files/245.got.cif
#   From: 2010.03.12/outbox.cif.g09.slc.cpg/sg19_1_cif.got.tgz:245.got - 2010.04.10 18:59:41.
