data_PCOD8157193
_publ_section_title
;
Structure prediction by ZEFSAII (Michael W. Deem and Ramdas Pophale) SiO2 
 PCOD8157193
Probable space group: P 21 21 21
;
_chemical_formula_sum "Si O2"
_cell_formula_units_Z 32
_cell_length_a 9.121260
_cell_length_b 11.379229
_cell_length_c 15.119731
_cell_angle_alpha 90.000000
_cell_angle_beta 90.000000
_cell_angle_gamma 90.000000
_cell_volume 1569.320823
_symmetry_space_group_name_H-M "P 21 21 21"
_symmetry_group_IT_number 19
_symmetry_cell_setting 'orthorhombic'
loop_
_space_group_symop_operation_xyz
x,y,z
1/2-x,-y,1/2+z
1/2+x,1/2-y,-z
-x,1/2+y,1/2-z
loop_
_atom_site_type_symbol
_atom_site_label
_atom_site_fract_x
_atom_site_fract_y
_atom_site_fract_z
Si Si1 0.800282 0.009716 0.943633
Si Si2 0.844147 0.543782 0.101376
Si Si3 0.495959 0.842770 0.158540
Si Si4 0.393390 0.305337 0.636727
Si Si5 0.032288 0.440510 0.946652
Si Si6 0.024318 0.711079 0.652847
Si Si7 0.442723 0.147050 0.477746
Si Si8 0.764463 0.349156 0.226867
O O1 0.713523 0.915591 0.882712
O O2 0.924431 0.942114 0.000961
O O3 0.883369 0.103937 0.884579
O O4 0.686812 0.082902 0.004328
O O5 0.678542 0.581722 0.081520
O O6 0.856103 0.455498 0.185255
O O7 0.937408 0.656790 0.130557
O O8 0.910974 0.486131 0.014200
O O9 0.574507 0.781353 0.243641
O O10 0.485462 0.751208 0.079249
O O11 0.332337 0.884613 0.187030
O O12 0.575466 0.960761 0.125751
O O13 0.370433 0.200440 0.565680
O O14 0.367760 0.256173 0.736434
O O15 0.953124 0.329703 0.901738
O O16 0.847693 0.691607 0.649284
#
# Coordination Sequence:
#
# PCOD8157193 Si02
#       8
#     4   4   4   4   4   4   4   4
#     4  11  22  43  69  97 130 179 226 271 340 406
#     4  11  24  42  67  98 139 172 226 276 348 400
#     4  10  22  40  70  95 125 174 230 274 325 399
#     4  11  23  42  66 100 136 168 224 288 327 399
#     4  11  25  44  65 100 135 176 225 284 337 403
#     4  10  25  40  69  93 134 177 221 273 336 404
#     4  12  20  44  70 100 124 177 229 273 330 410
#     4  10  23  43  62  95 135 175 213 287 329 397
#
# _framework density 20.390988
#
# number of rings (size 3 to 8) (size 9 to 14) (size 15 to 20)
#    0.750    0.500    5.000    1.500    7.000    0.000 
#    6.750    0.000    0.000    0.000    0.000    0.000 
#    0.000    0.000    0.000    0.000    0.000    0.000 
#
# Total GULP energy -396537.293549 kJ/mol
# GULP energy per Si atom -12391.790423 kJ/mol
# Density = 2.034458 g / cm^3
# Si number density = 20.390988 Si / 1000 Ang^3
#
#
#
# Elastic Constant Matrix: (Units=GPa)
#
#
# Indices 1 2 3 4 5 6 
#
# 1 77.3331 27.7029 26.8148 0.0000 0.0000 0.0000
# 2 27.7029 89.8392 48.3752 0.0000 0.0000 0.0000
# 3 26.8148 48.3752 82.2235 0.0000 0.0000 0.0000
# 4 0.0000 0.0000 0.0000 48.5300 0.0000 0.0000
# 5 0.0000 0.0000 0.0000 0.0000 27.8531 0.0000
# 6 0.0000 0.0000 0.0000 0.0000 0.0000 32.7185
#
#
#
# Elastic Compliance Matrix: (Units=1/GPa)
#
#
# Indices 1 2 3 4 5 6 
#
# 1 0.015090 -0.002932 -0.003196 0.000000 0.000000 0.000000
# 2 -0.002932 0.016862 -0.008964 0.000000 0.000000 0.000000
# 3 -0.003196 -0.008964 0.018478 0.000000 0.000000 0.000000
# 4 0.000000 0.000000 0.000000 0.020606 0.000000 0.000000
# 5 0.000000 0.000000 0.000000 0.000000 0.035903 0.000000
# 6 0.000000 0.000000 0.000000 0.000000 0.000000 0.030564
#
#
# Mechanical properties :
#
#
# Convention : Reuss Voigt Hill
#
# Bulk Modulus (GPa) = 49.39462 50.57572 49.98517
# Shear Modulus (GPa) = 28.66387 31.58720 30.12553
#
# Velocity S-wave (km/s) = 3.75335 3.94010 3.84786
# Velocity P-wave (km/s) = 6.56200 6.74952 6.65642
#
# Compressibility (1/GPa) = 0.02024512
#
# Stress axis : x y z
#
# Youngs Moduli (GPa) = 66.27070 59.30435 54.11740
#
# Poissons Ratio (x) = 0.17389 0.17296
# Poissons Ratio (y) = 0.19432 0.48513
# Poissons Ratio (z) = 0.21180 0.53163
#
# Static dielectric constant tensor:
#      x y z
#    x 3.660330 0.000000 0.000000 
#    y 0.000000 3.640090 0.000000 
#    z 0.000000 0.000000 3.583750 
# 
# 
# High freq. dielectric constant tensor:
#      x y z
#    x 1.793140 0.000000 0.000000 
#    y 0.000000 1.791210 0.000000 
#    z 0.000000 0.000000 1.786820 
# 
# From -- ./inp_files/5890.got.cif
#   From: 2010.03.12/outbox.cif.g09.slc.cpg/sg19_3_cif.got.tgz:5890.got - 2010.04.10 18:59:41.
