data_PCOD8157162
_publ_section_title
;
Structure prediction by ZEFSAII (Michael W. Deem and Ramdas Pophale) SiO2 
 PCOD8157162
Probable space group: P 21 21 21
;
_chemical_formula_sum "Si O2"
_cell_formula_units_Z 28
_cell_length_a 5.128637
_cell_length_b 12.875046
_cell_length_c 19.856730
_cell_angle_alpha 90.000000
_cell_angle_beta 90.000000
_cell_angle_gamma 90.000000
_cell_volume 1311.168422
_symmetry_space_group_name_H-M "P 21 21 21"
_symmetry_group_IT_number 19
_symmetry_cell_setting 'orthorhombic'
loop_
_space_group_symop_operation_xyz
x,y,z
1/2-x,-y,1/2+z
1/2+x,1/2-y,-z
-x,1/2+y,1/2-z
loop_
_atom_site_type_symbol
_atom_site_label
_atom_site_fract_x
_atom_site_fract_y
_atom_site_fract_z
Si Si1 0.569590 0.832908 0.858518
Si Si2 0.045346 0.482493 0.583380
Si Si3 0.788103 0.296899 0.531041
Si Si4 0.368374 0.282476 0.039970
Si Si5 0.776625 0.466013 0.725745
Si Si6 0.835905 0.310477 0.249560
Si Si7 0.854694 0.278513 0.813428
O O1 0.329400 0.772065 0.894763
O O2 0.740513 0.745887 0.820105
O O3 0.715313 0.900865 0.915033
O O4 0.481597 0.909554 0.799643
O O5 0.122659 0.593650 0.553732
O O6 0.841336 0.422831 0.533410
O O7 0.954305 0.492499 0.660927
O O8 0.559557 0.267168 0.477764
O O9 0.292361 0.218868 0.107192
O O10 0.646724 0.241820 0.014462
O O11 0.679593 0.567804 0.763959
O O12 0.908609 0.392599 0.782186
O O13 0.624815 0.283727 0.192674
O O14 0.125440 0.281404 0.225535
#
# Coordination Sequence:
#
# PCOD8157162 Si02
#       7
#     4   4   4   4   4   4   4
#     4  10  22  40  69 100 130 177 225 272 350 415
#     4  11  22  43  74  94 131 182 230 275 348 411
#     4  11  23  41  66  96 134 175 223 277 328 411
#     4  12  28  46  69  99 140 193 234 279 328 421
#     4  10  22  39  70 102 131 172 217 289 352 393
#     4  11  22  40  70 102 133 166 217 291 345 400
#     4  11  23  43  68 101 135 171 232 277 337 411
#
# _framework density 21.354997999999998
#
# number of rings (size 3 to 8) (size 9 to 14) (size 15 to 20)
#    0.000    1.143    4.286    1.714    4.000    0.000 
#    2.571    1.429    6.286    0.000    0.000    0.000 
#    0.000    0.000    0.000    0.000    0.000    0.000 
#
# Total GULP energy -346951.315533 kJ/mol
# GULP energy per Si atom -12391.118412 kJ/mol
# Density = 2.130639 g / cm^3
# Si number density = 21.354998 Si / 1000 Ang^3
#
#
#
# Elastic Constant Matrix: (Units=GPa)
#
#
# Indices 1 2 3 4 5 6 
#
# 1 96.0390 42.0802 28.3683 0.0000 0.0000 0.0000
# 2 42.0802 150.0685 75.9510 0.0000 0.0000 0.0000
# 3 28.3683 75.9510 86.5910 0.0000 0.0000 0.0000
# 4 0.0000 0.0000 0.0000 43.5481 0.0000 0.0000
# 5 0.0000 0.0000 0.0000 0.0000 36.9005 0.0000
# 6 0.0000 0.0000 0.0000 0.0000 0.0000 28.9001
#
#
#
# Elastic Compliance Matrix: (Units=1/GPa)
#
#
# Indices 1 2 3 4 5 6 
#
# 1 0.012019 -0.002477 -0.001765 0.000000 0.000000 0.000000
# 2 -0.002477 0.012494 -0.010147 0.000000 0.000000 0.000000
# 3 -0.001765 -0.010147 0.021027 0.000000 0.000000 0.000000
# 4 0.000000 0.000000 0.000000 0.022963 0.000000 0.000000
# 5 0.000000 0.000000 0.000000 0.000000 0.027100 0.000000
# 6 0.000000 0.000000 0.000000 0.000000 0.000000 0.034602
#
#
# Mechanical properties :
#
#
# Convention : Reuss Voigt Hill
#
# Bulk Modulus (GPa) = 59.65957 69.49974 64.57966
# Shear Modulus (GPa) = 30.38221 34.28966 32.33593
#
# Velocity S-wave (km/s) = 3.77599 4.01146 3.89551
# Velocity P-wave (km/s) = 6.85627 7.35332 7.10914
#
# Compressibility (1/GPa) = 0.01676177
#
# Stress axis : x y z
#
# Youngs Moduli (GPa) = 83.20102 80.04055 47.55794
#
# Poissons Ratio (x) = 0.19826 0.08394
# Poissons Ratio (y) = 0.20608 0.48257
# Poissons Ratio (z) = 0.14685 0.81217
#
# Static dielectric constant tensor:
#      x y z
#    x 3.939560 0.000000 0.000000 
#    y 0.000000 3.931880 0.000000 
#    z 0.000000 0.000000 3.837520 
# 
# 
# High freq. dielectric constant tensor:
#      x y z
#    x 1.847170 0.000000 0.000000 
#    y 0.000000 1.834840 0.000000 
#    z 0.000000 0.000000 1.824130 
# 
# From -- ./inp_files/4524.got.cif
#   From: 2010.03.12/outbox.cif.g09.slc.cpg/sg19_3_cif.got.tgz:4524.got - 2010.04.10 18:59:41.
