data_PCOD8157763
_publ_section_title
;
Structure prediction by ZEFSAII (Michael W. Deem and Ramdas Pophale) SiO2 
 PCOD8157763
Probable space group: P 21 21 21
;
_chemical_formula_sum "Si O2"
_cell_formula_units_Z 24
_cell_length_a 15.837249
_cell_length_b 10.288818
_cell_length_c 6.656868
_cell_angle_alpha 90.000000
_cell_angle_beta 90.000000
_cell_angle_gamma 90.000000
_cell_volume 1084.713825
_symmetry_space_group_name_H-M "P 21 21 21"
_symmetry_group_IT_number 19
_symmetry_cell_setting 'orthorhombic'
loop_
_space_group_symop_operation_xyz
x,y,z
1/2-x,-y,1/2+z
1/2+x,1/2-y,-z
-x,1/2+y,1/2-z
loop_
_atom_site_type_symbol
_atom_site_label
_atom_site_fract_x
_atom_site_fract_y
_atom_site_fract_z
Si Si1 0.270400 0.314209 0.056738
Si Si2 0.894713 0.381150 0.811176
Si Si3 0.052693 0.275237 0.617915
Si Si4 0.857126 0.612050 0.562989
Si Si5 0.858771 0.958317 0.159661
Si Si6 0.960328 0.539357 0.172408
O O1 0.347851 0.258370 0.188592
O O2 0.197000 0.381615 0.181368
O O3 0.231658 0.185971 0.954152
O O4 0.307900 0.412339 0.894305
O O5 0.975223 0.369540 0.666333
O O6 0.836137 0.489181 0.704729
O O7 0.920521 0.426060 0.034874
O O8 0.077203 0.206712 0.825411
O O9 0.128299 0.366521 0.535165
O O10 0.025438 0.170768 0.452040
O O11 0.895756 0.569604 0.351119
O O12 0.949404 0.990986 0.251438
#
# Coordination Sequence:
#
# PCOD8157763 Si02
#       6
#     4   4   4   4   4   4
#     4  12  28  44  70 109 150 180 239 308 372 416
#     4  11  27  43  76 103 142 188 246 296 359 430
#     4  11  24  46  74 102 138 189 247 290 352 444
#     4  11  24  47  71 104 144 186 240 298 360 427
#     4  12  26  46  72 105 146 192 235 301 371 429
#     4  11  25  48  75 103 138 195 243 289 362 448
#
# _framework density 22.125651999999999
#
# number of rings (size 3 to 8) (size 9 to 14) (size 15 to 20)
#    0.000    0.667    3.333    3.000    9.333    0.000 
#    0.000    0.000    0.000    0.000    0.000    0.000 
#    0.000    0.000    0.000    0.000    0.000    0.000 
#
# Total GULP energy -297714.281677 kJ/mol
# GULP energy per Si atom -12404.761737 kJ/mol
# Density = 2.207529 g / cm^3
# Si number density = 22.125652 Si / 1000 Ang^3
#
#
#
# Elastic Constant Matrix: (Units=GPa)
#
#
# Indices 1 2 3 4 5 6 
#
# 1 78.7297 25.7109 24.3951 0.0000 0.0000 0.0000
# 2 25.7109 82.0168 21.0263 0.0000 0.0000 0.0000
# 3 24.3951 21.0263 90.4923 0.0000 0.0000 0.0000
# 4 0.0000 0.0000 0.0000 35.9927 0.0000 0.0000
# 5 0.0000 0.0000 0.0000 0.0000 25.0173 0.0000
# 6 0.0000 0.0000 0.0000 0.0000 0.0000 55.6760
#
#
#
# Elastic Compliance Matrix: (Units=1/GPa)
#
#
# Indices 1 2 3 4 5 6 
#
# 1 0.014938 -0.003882 -0.003125 0.000000 0.000000 0.000000
# 2 -0.003882 0.013974 -0.002200 0.000000 0.000000 0.000000
# 3 -0.003125 -0.002200 0.012404 0.000000 0.000000 0.000000
# 4 0.000000 0.000000 0.000000 0.027783 0.000000 0.000000
# 5 0.000000 0.000000 0.000000 0.000000 0.039972 0.000000
# 6 0.000000 0.000000 0.000000 0.000000 0.000000 0.017961
#
#
# Mechanical properties :
#
#
# Convention : Reuss Voigt Hill
#
# Bulk Modulus (GPa) = 43.66514 43.72261 43.69387
# Shear Modulus (GPa) = 32.66263 35.34430 34.00347
#
# Velocity S-wave (km/s) = 3.84635 4.00113 3.92450
# Velocity P-wave (km/s) = 6.28520 6.41477 6.35032
#
# Compressibility (1/GPa) = 0.02290157
#
# Stress axis : x y z
#
# Youngs Moduli (GPa) = 66.94513 71.56391 80.61664
#
# Poissons Ratio (x) = 0.27778 0.25193
# Poissons Ratio (y) = 0.25985 0.17739
# Poissons Ratio (z) = 0.20921 0.15747
#
# Static dielectric constant tensor:
#      x y z
#    x 3.937180 0.000000 0.000000 
#    y 0.000000 4.225470 0.000000 
#    z 0.000000 0.000000 4.027730 
# 
# 
# High freq. dielectric constant tensor:
#      x y z
#    x 1.871310 0.000000 0.000000 
#    y 0.000000 1.890720 0.000000 
#    z 0.000000 0.000000 1.875460 
# 
# From -- ./inp_files/1431.got.cif
#   From: 2010.03.12/outbox.cif.g09.slc.cpg/sg19_1_cif.got.tgz:1431.got - 2010.04.10 18:59:41.
