data_PCOD8157509
_publ_section_title
;
Structure prediction by ZEFSAII (Michael W. Deem and Ramdas Pophale) SiO2 
 PCOD8157509
Probable space group: P 21 21 21
;
_chemical_formula_sum "Si O2"
_cell_formula_units_Z 12
_cell_length_a 17.343120
_cell_length_b 4.917295
_cell_length_c 4.883875
_cell_angle_alpha 90.000000
_cell_angle_beta 90.000000
_cell_angle_gamma 90.000000
_cell_volume 416.502903
_symmetry_space_group_name_H-M "P 21 21 21"
_symmetry_group_IT_number 19
_symmetry_cell_setting 'orthorhombic'
loop_
_space_group_symop_operation_xyz
x,y,z
1/2-x,-y,1/2+z
1/2+x,1/2-y,-z
-x,1/2+y,1/2-z
loop_
_atom_site_type_symbol
_atom_site_label
_atom_site_fract_x
_atom_site_fract_y
_atom_site_fract_z
Si Si1 0.950413 0.105432 0.806456
Si Si2 0.178222 0.244207 0.814152
Si Si3 0.846239 0.382732 0.188840
O O1 0.873288 0.016262 0.632072
O O2 0.004242 0.842483 0.852600
O O3 0.921818 0.209239 0.105270
O O4 0.269096 0.304193 0.856100
O O5 0.147069 0.001220 0.007246
O O6 0.161558 0.144745 0.507552
#
# Coordination Sequence:
#
# PCOD8157509 Si02
#       3
#     4   4   4
#     4  12  26  54  78 122 162 208 258 336 398 468
#     4  10  24  50  83 114 155 210 268 323 388 474
#     4  10  24  50  83 114 155 210 268 323 388 474
#
# _framework density 28.811326000000001
#
# number of rings (size 3 to 8) (size 9 to 14) (size 15 to 20)
#    0.000    1.333    3.333    0.000    0.000   10.667 
#   12.000    0.000    0.000    0.000    0.000    0.000 
#    0.000    0.000    0.000    0.000    0.000    0.000 
#
# Total GULP energy -148823.649921 kJ/mol
# GULP energy per Si atom -12401.970827 kJ/mol
# Density = 2.874575 g / cm^3
# Si number density = 28.811326 Si / 1000 Ang^3
#
#
#
# Elastic Constant Matrix: (Units=GPa)
#
#
# Indices 1 2 3 4 5 6 
#
# 1 127.7595 38.7567 -0.7606 0.0000 0.0000 0.0000
# 2 38.7567 128.9529 -7.1459 0.0000 0.0000 0.0000
# 3 -0.7606 -7.1459 42.6583 0.0000 0.0000 0.0000
# 4 0.0000 0.0000 0.0000 12.5792 0.0000 0.0000
# 5 0.0000 0.0000 0.0000 0.0000 36.9086 0.0000
# 6 0.0000 0.0000 0.0000 0.0000 0.0000 72.5300
#
#
#
# Elastic Compliance Matrix: (Units=1/GPa)
#
#
# Indices 1 2 3 4 5 6 
#
# 1 0.008616 -0.002605 -0.000283 0.000000 0.000000 0.000000
# 2 -0.002605 0.008615 0.001397 0.000000 0.000000 0.000000
# 3 -0.000283 0.001397 0.023671 0.000000 0.000000 0.000000
# 4 0.000000 0.000000 0.000000 0.079497 0.000000 0.000000
# 5 0.000000 0.000000 0.000000 0.000000 0.027094 0.000000
# 6 0.000000 0.000000 0.000000 0.000000 0.000000 0.013787
#
#
# Mechanical properties :
#
#
# Convention : Reuss Voigt Hill
#
# Bulk Modulus (GPa) = 26.37161 40.11899 33.24530
# Shear Modulus (GPa) = 28.26422 42.30493 35.28458
#
# Velocity S-wave (km/s) = 3.13551 3.83605 3.50334
# Velocity P-wave (km/s) = 4.72034 5.79443 5.28474
#
# Compressibility (1/GPa) = 0.03791957
#
# Stress axis : x y z
#
# Youngs Moduli (GPa) = 116.06571 116.07467 42.24575
#
# Poissons Ratio (x) = 0.30239 0.01195
# Poissons Ratio (y) = 0.30237 -0.05901
# Poissons Ratio (z) = 0.03282 -0.16212
#
# Static dielectric constant tensor:
#      x y z
#    x 5.791560 0.000000 0.000000 
#    y 0.000000 5.032940 0.000000 
#    z 0.000000 0.000000 4.808360 
# 
# 
# High freq. dielectric constant tensor:
#      x y z
#    x 2.185340 0.000000 0.000000 
#    y 0.000000 2.177630 0.000000 
#    z 0.000000 0.000000 2.149100 
# 
# From -- ./inp_files/91.got.cif
#   From: 2010.03.12/outbox.cif.g09.slc.cpg/sg19_1_cif.got.tgz:91.got - 2010.04.10 18:59:41.
