data_PCOD8157407
_publ_section_title
;
Structure prediction by ZEFSAII (Michael W. Deem and Ramdas Pophale) SiO2 
 PCOD8157407
Probable space group: P 21 21 21
;
_chemical_formula_sum "Si O2"
_cell_formula_units_Z 28
_cell_length_a 11.058552
_cell_length_b 10.008626
_cell_length_c 11.921211
_cell_angle_alpha 90.000000
_cell_angle_beta 90.000000
_cell_angle_gamma 90.000000
_cell_volume 1319.450495
_symmetry_space_group_name_H-M "P 21 21 21"
_symmetry_group_IT_number 19
_symmetry_cell_setting 'orthorhombic'
loop_
_space_group_symop_operation_xyz
x,y,z
1/2-x,-y,1/2+z
1/2+x,1/2-y,-z
-x,1/2+y,1/2-z
loop_
_atom_site_type_symbol
_atom_site_label
_atom_site_fract_x
_atom_site_fract_y
_atom_site_fract_z
Si Si1 0.416327 0.339981 0.335222
Si Si2 0.055223 0.961189 0.817690
Si Si3 0.633444 0.186395 0.671642
Si Si4 0.770784 0.441978 0.316821
Si Si5 0.006437 0.041211 0.063126
Si Si6 0.913395 0.579261 0.014750
Si Si7 0.937012 0.316179 0.149880
O O1 0.478746 0.195520 0.313555
O O2 0.459760 0.453292 0.250816
O O3 0.274830 0.334240 0.318153
O O4 0.456801 0.384671 0.459949
O O5 0.188771 0.972038 0.766269
O O6 0.059877 0.026150 0.939691
O O7 0.605964 0.333587 0.625258
O O8 0.567864 0.164482 0.791184
O O9 0.584697 0.080387 0.581826
O O10 0.879054 0.539189 0.353716
O O11 0.693173 0.390831 0.423587
O O12 0.831838 0.319791 0.246069
O O13 0.932347 0.176944 0.083449
O O14 0.915186 0.426490 0.054231
#
# Coordination Sequence:
#
# PCOD8157407 Si02
#       7
#     4   4   4   4   4   4   4
#     4  11  25  43  67  97 136 178 225 277 344 401
#     4  11  24  44  67  98 133 177 226 274 338 408
#     4  11  23  44  67  97 135 175 224 278 330 404
#     4  10  23  44  70  93 134 182 222 269 342 409
#     4  11  23  42  68 101 134 168 229 285 327 398
#     4  11  24  45  69  94 138 185 220 276 347 405
#     4  11  24  42  68 102 132 175 230 277 338 401
#
# _framework density 21.220955
#
# number of rings (size 3 to 8) (size 9 to 14) (size 15 to 20)
#    0.000    1.143    1.429    5.143    6.000    3.429 
#    5.143    0.000    0.000    0.000    0.000    0.000 
#    0.000    0.000    0.000    0.000    0.000    0.000 
#
# Total GULP energy -347228.336244 kJ/mol
# GULP energy per Si atom -12401.012009 kJ/mol
# Density = 2.117265 g / cm^3
# Si number density = 21.220955 Si / 1000 Ang^3
#
#
#
# Elastic Constant Matrix: (Units=GPa)
#
#
# Indices 1 2 3 4 5 6 
#
# 1 89.8564 26.8280 32.0153 0.0000 0.0000 0.0000
# 2 26.8280 102.1563 36.7184 0.0000 0.0000 0.0000
# 3 32.0153 36.7184 102.5327 0.0000 0.0000 0.0000
# 4 0.0000 0.0000 0.0000 33.8362 0.0000 0.0000
# 5 0.0000 0.0000 0.0000 0.0000 15.4862 0.0000
# 6 0.0000 0.0000 0.0000 0.0000 0.0000 22.0783
#
#
#
# Elastic Compliance Matrix: (Units=1/GPa)
#
#
# Indices 1 2 3 4 5 6 
#
# 1 0.012952 -0.002236 -0.003244 0.000000 0.000000 0.000000
# 2 -0.002236 0.011621 -0.003464 0.000000 0.000000 0.000000
# 3 -0.003244 -0.003464 0.012006 0.000000 0.000000 0.000000
# 4 0.000000 0.000000 0.000000 0.029554 0.000000 0.000000
# 5 0.000000 0.000000 0.000000 0.000000 0.064573 0.000000
# 6 0.000000 0.000000 0.000000 0.000000 0.000000 0.045293
#
#
# Mechanical properties :
#
#
# Convention : Reuss Voigt Hill
#
# Bulk Modulus (GPa) = 53.49425 53.96319 53.72872
# Shear Modulus (GPa) = 24.98542 27.54574 26.26558
#
# Velocity S-wave (km/s) = 3.43504 3.60675 3.52194
# Velocity P-wave (km/s) = 6.40278 6.54440 6.47398
#
# Compressibility (1/GPa) = 0.01869360
#
# Stress axis : x y z
#
# Youngs Moduli (GPa) = 77.20806 86.05155 83.29070
#
# Poissons Ratio (x) = 0.19237 0.27016
# Poissons Ratio (y) = 0.17260 0.28848
# Poissons Ratio (z) = 0.25043 0.29805
#
# Static dielectric constant tensor:
#      x y z
#    x 3.932600 0.000000 0.000000 
#    y 0.000000 3.832970 0.000000 
#    z 0.000000 0.000000 4.038050 
# 
# 
# High freq. dielectric constant tensor:
#      x y z
#    x 1.833720 0.000000 0.000000 
#    y 0.000000 1.832290 0.000000 
#    z 0.000000 0.000000 1.841450 
# 
# From -- ./inp_files/4934.got.cif
#   From: 2010.03.12/outbox.cif.g09.slc.cpg/sg19_3_cif.got.tgz:4934.got - 2010.04.10 18:59:41.
