data_PCOD8157913
_publ_section_title
;
Structure prediction by ZEFSAII (Michael W. Deem and Ramdas Pophale) SiO2 
 PCOD8157913
Probable space group: P 21 21 21
;
_chemical_formula_sum "Si O2"
_cell_formula_units_Z 24
_cell_length_a 7.025140
_cell_length_b 27.343452
_cell_length_c 5.316497
_cell_angle_alpha 90.000000
_cell_angle_beta 90.000000
_cell_angle_gamma 90.000000
_cell_volume 1021.254300
_symmetry_space_group_name_H-M "P 21 21 21"
_symmetry_group_IT_number 19
_symmetry_cell_setting 'orthorhombic'
loop_
_space_group_symop_operation_xyz
x,y,z
1/2-x,-y,1/2+z
1/2+x,1/2-y,-z
-x,1/2+y,1/2-z
loop_
_atom_site_type_symbol
_atom_site_label
_atom_site_fract_x
_atom_site_fract_y
_atom_site_fract_z
Si Si1 0.371375 0.005833 0.967918
Si Si2 0.884261 0.675328 0.047271
Si Si3 0.626161 0.097199 0.956606
Si Si4 0.866393 0.084978 0.460638
Si Si5 0.063532 0.809066 0.596416
Si Si6 0.711861 0.758880 0.770229
O O1 0.254665 0.991458 0.216575
O O2 0.541258 0.967755 0.923636
O O3 0.462546 0.058465 0.019477
O O4 0.751415 0.665986 0.288523
O O5 0.053075 0.714049 0.072065
O O6 0.745668 0.702230 0.852150
O O7 0.968072 0.623452 0.964038
O O8 0.723566 0.082293 0.695026
O O9 0.768623 0.099963 0.196555
O O10 0.529766 0.150256 0.912944
O O11 0.120287 0.754487 0.498810
O O12 0.893132 0.794315 0.785622
#
# Coordination Sequence:
#
# PCOD8157913 Si02
#       6
#     4   4   4   4   4   4
#     4  12  26  50  80 110 146 188 244 302 372 442
#     4  12  27  44  70 103 147 197 250 301 366 433
#     4  12  28  48  76 108 149 191 245 302 370 439
#     4  12  28  48  76 108 149 191 245 302 370 439
#     4  12  27  44  70 103 147 197 250 301 366 433
#     4  12  26  44  68 102 146 196 250 302 360 428
#
# _framework density 23.500513000000002
#
# number of rings (size 3 to 8) (size 9 to 14) (size 15 to 20)
#    0.000    0.000    5.000    4.000   11.667    0.000 
#    0.000    0.000    0.000    0.000    0.000    0.000 
#    0.000    0.000    0.000    0.000    0.000    0.000 
#
# Total GULP energy -297446.233919 kJ/mol
# GULP energy per Si atom -12393.593080 kJ/mol
# Density = 2.344703 g / cm^3
# Si number density = 23.500513 Si / 1000 Ang^3
#
#
#
# Elastic Constant Matrix: (Units=GPa)
#
#
# Indices 1 2 3 4 5 6 
#
# 1 92.1492 24.0686 21.5863 0.0000 0.0000 0.0000
# 2 24.0686 100.0730 2.5387 0.0000 0.0000 0.0000
# 3 21.5863 2.5387 84.1650 0.0000 0.0000 0.0000
# 4 0.0000 0.0000 0.0000 34.6404 0.0000 0.0000
# 5 0.0000 0.0000 0.0000 0.0000 36.8568 0.0000
# 6 0.0000 0.0000 0.0000 0.0000 0.0000 55.3599
#
#
#
# Elastic Compliance Matrix: (Units=1/GPa)
#
#
# Indices 1 2 3 4 5 6 
#
# 1 0.012326 -0.002887 -0.003074 0.000000 0.000000 0.000000
# 2 -0.002887 0.010676 0.000418 0.000000 0.000000 0.000000
# 3 -0.003074 0.000418 0.012657 0.000000 0.000000 0.000000
# 4 0.000000 0.000000 0.000000 0.028868 0.000000 0.000000
# 5 0.000000 0.000000 0.000000 0.000000 0.027132 0.000000
# 6 0.000000 0.000000 0.000000 0.000000 0.000000 0.018064
#
#
# Mechanical properties :
#
#
# Convention : Reuss Voigt Hill
#
# Bulk Modulus (GPa) = 40.69240 41.41940 41.05590
# Shear Modulus (GPa) = 38.75969 40.58432 39.67201
#
# Velocity S-wave (km/s) = 4.06558 4.16017 4.11315
# Velocity P-wave (km/s) = 6.27628 6.38273 6.32973
#
# Compressibility (1/GPa) = 0.02457462
#
# Stress axis : x y z
#
# Youngs Moduli (GPa) = 81.12879 93.66506 79.00586
#
# Poissons Ratio (x) = 0.27037 0.24289
# Poissons Ratio (y) = 0.23418 -0.03305
# Poissons Ratio (z) = 0.24941 -0.03918
#
# Static dielectric constant tensor:
#      x y z
#    x 4.458980 0.000000 0.000000 
#    y 0.000000 4.304130 0.000000 
#    z 0.000000 0.000000 4.046550 
# 
# 
# High freq. dielectric constant tensor:
#      x y z
#    x 1.952950 0.000000 0.000000 
#    y 0.000000 1.942120 0.000000 
#    z 0.000000 0.000000 1.920710 
# 
# From -- ./inp_files/189.got.cif
#   From: 2010.03.12/outbox.cif.g09.slc.cpg/sg19_1_cif.got.tgz:189.got - 2010.04.10 18:59:41.
