data_PCOD8157811
_publ_section_title
;
Structure prediction by ZEFSAII (Michael W. Deem and Ramdas Pophale) SiO2 
 PCOD8157811
Probable space group: P 21 21 21
;
_chemical_formula_sum "Si O2"
_cell_formula_units_Z 28
_cell_length_a 8.605464
_cell_length_b 12.255959
_cell_length_c 11.800797
_cell_angle_alpha 90.000000
_cell_angle_beta 90.000000
_cell_angle_gamma 90.000000
_cell_volume 1244.608983
_symmetry_space_group_name_H-M "P 21 21 21"
_symmetry_group_IT_number 19
_symmetry_cell_setting 'orthorhombic'
loop_
_space_group_symop_operation_xyz
x,y,z
1/2-x,-y,1/2+z
1/2+x,1/2-y,-z
-x,1/2+y,1/2-z
loop_
_atom_site_type_symbol
_atom_site_label
_atom_site_fract_x
_atom_site_fract_y
_atom_site_fract_z
Si Si1 0.770875 0.285672 0.023009
Si Si2 0.211365 0.877581 0.710896
Si Si3 0.998463 0.255359 0.222302
Si Si4 0.990839 0.245339 0.625995
Si Si5 0.568250 0.410214 0.200144
Si Si6 0.282637 0.582542 0.633390
Si Si7 0.804674 0.160998 0.417519
O O1 0.631839 0.337090 0.097200
O O2 0.918022 0.259585 0.100061
O O3 0.819971 0.372954 0.924796
O O4 0.715571 0.171343 0.967963
O O5 0.392208 0.850784 0.729958
O O6 0.102316 0.785297 0.764126
O O7 0.176771 0.985216 0.782350
O O8 0.104334 0.366111 0.231663
O O9 0.870118 0.239856 0.318729
O O10 0.086309 0.144152 0.676363
O O11 0.116932 0.330911 0.577715
O O12 0.869149 0.209352 0.532729
O O13 0.389330 0.441640 0.179495
O O14 0.352044 0.465910 0.594736
#
# Coordination Sequence:
#
# PCOD8157811 Si02
#       7
#     4   4   4   4   4   4   4
#     4  11  25  49  75 111 147 198 255 319 372 465
#     4  11  26  46  74 110 149 193 252 312 382 445
#     4  11  25  46  71 108 148 187 262 309 372 456
#     4  12  26  48  70 108 153 193 253 311 374 455
#     4  12  25  49  77 109 147 202 251 314 379 457
#     4  11  25  47  77 104 147 201 251 308 382 450
#     4  12  28  47  72 106 153 202 244 315 387 442
#
# _framework density 22.497025000000001
#
# number of rings (size 3 to 8) (size 9 to 14) (size 15 to 20)
#    0.000    0.571    5.714    2.571    4.000    2.286 
#    2.571    0.000    0.000    0.000    0.000    0.000 
#    0.000    0.000    0.000    0.000    0.000    0.000 
#
# Total GULP energy -347065.931042 kJ/mol
# GULP energy per Si atom -12395.211823 kJ/mol
# Density = 2.244582 g / cm^3
# Si number density = 22.497025 Si / 1000 Ang^3
#
#
#
# Elastic Constant Matrix: (Units=GPa)
#
#
# Indices 1 2 3 4 5 6 
#
# 1 108.6898 21.7349 39.0815 0.0000 0.0000 0.0000
# 2 21.7349 66.6163 24.5439 0.0000 0.0000 0.0000
# 3 39.0815 24.5439 128.0359 0.0000 0.0000 0.0000
# 4 0.0000 0.0000 0.0000 31.2536 0.0000 0.0000
# 5 0.0000 0.0000 0.0000 0.0000 43.5610 0.0000
# 6 0.0000 0.0000 0.0000 0.0000 0.0000 32.9832
#
#
#
# Elastic Compliance Matrix: (Units=1/GPa)
#
#
# Indices 1 2 3 4 5 6 
#
# 1 0.010697 -0.002461 -0.002793 0.000000 0.000000 0.000000
# 2 -0.002461 0.016718 -0.002454 0.000000 0.000000 0.000000
# 3 -0.002793 -0.002454 0.009133 0.000000 0.000000 0.000000
# 4 0.000000 0.000000 0.000000 0.031996 0.000000 0.000000
# 5 0.000000 0.000000 0.000000 0.000000 0.022956 0.000000
# 6 0.000000 0.000000 0.000000 0.000000 0.000000 0.030319
#
#
# Mechanical properties :
#
#
# Convention : Reuss Voigt Hill
#
# Bulk Modulus (GPa) = 47.32009 52.67364 49.99686
# Shear Modulus (GPa) = 34.65483 36.09165 35.37324
#
# Velocity S-wave (km/s) = 3.92907 4.00970 3.96959
# Velocity P-wave (km/s) = 6.45470 6.70085 6.57892
#
# Compressibility (1/GPa) = 0.02113267
#
# Stress axis : x y z
#
# Youngs Moduli (GPa) = 93.48386 59.81475 109.48928
#
# Poissons Ratio (x) = 0.14720 0.30585
# Poissons Ratio (y) = 0.23006 0.26865
# Poissons Ratio (z) = 0.26114 0.14676
#
# Static dielectric constant tensor:
#      x y z
#    x 4.205490 0.000000 0.000000 
#    y 0.000000 4.045260 0.000000 
#    z 0.000000 0.000000 3.947050 
# 
# 
# High freq. dielectric constant tensor:
#      x y z
#    x 1.905770 0.000000 0.000000 
#    y 0.000000 1.878840 0.000000 
#    z 0.000000 0.000000 1.883070 
# 
# From -- ./inp_files/4597.got.cif
#   From: 2010.03.12/outbox.cif.g09.slc.cpg/sg19_3_cif.got.tgz:4597.got - 2010.04.10 18:59:41.
