data_PCOD8157314
_publ_section_title
;
Structure prediction by ZEFSAII (Michael W. Deem and Ramdas Pophale) SiO2 
 PCOD8157314
Probable space group: P 21 21 21
;
_chemical_formula_sum "Si O2"
_cell_formula_units_Z 24
_cell_length_a 11.663643
_cell_length_b 7.652257
_cell_length_c 9.769064
_cell_angle_alpha 90.000000
_cell_angle_beta 90.000000
_cell_angle_gamma 90.000000
_cell_volume 871.920162
_symmetry_space_group_name_H-M "P 21 21 21"
_symmetry_group_IT_number 19
_symmetry_cell_setting 'orthorhombic'
loop_
_space_group_symop_operation_xyz
x,y,z
1/2-x,-y,1/2+z
1/2+x,1/2-y,-z
-x,1/2+y,1/2-z
loop_
_atom_site_type_symbol
_atom_site_label
_atom_site_fract_x
_atom_site_fract_y
_atom_site_fract_z
Si Si1 0.925199 0.597490 0.941445
Si Si2 0.966948 0.719799 0.240813
Si Si3 0.936689 0.762336 0.662743
Si Si4 0.284857 0.874447 0.564946
Si Si5 0.172538 0.544631 0.321087
Si Si6 0.353090 0.447562 0.122042
O O1 0.926181 0.759302 0.831388
O O2 0.791576 0.545610 0.961839
O O3 0.005816 0.440059 0.890399
O O4 0.974099 0.667930 0.082929
O O5 0.893916 0.584515 0.337346
O O6 0.096508 0.722432 0.306249
O O7 0.908260 0.908406 0.263529
O O8 0.818580 0.718965 0.580255
O O9 0.011722 0.587965 0.630487
O O10 0.204065 0.740889 0.647017
O O11 0.299421 0.561965 0.250491
O O12 0.184883 0.474060 0.475709
#
# Coordination Sequence:
#
# PCOD8157314 Si02
#       6
#     4   4   4   4   4   4
#     4  11  25  41  70 102 138 183 232 290 346 416
#     4  11  24  45  68 101 138 182 232 282 349 413
#     4  11  24  44  69 101 145 178 234 290 346 409
#     4  10  22  45  68  97 134 184 230 286 345 406
#     4  11  25  45  70 101 138 187 232 284 349 412
#     4  10  24  42  69  98 139 180 232 286 347 408
#
# _framework density 27.525458
#
# number of rings (size 3 to 8) (size 9 to 14) (size 15 to 20)
#    0.000    1.333    1.667    3.000    9.333    0.000 
#    3.000    0.000    0.000    0.000    0.000    0.000 
#    0.000    0.000    0.000    0.000    0.000    0.000 
#
# Total GULP energy -297625.239552 kJ/mol
# GULP energy per Si atom -12401.051648 kJ/mol
# Density = 2.746281 g / cm^3
# Si number density = 27.525458 Si / 1000 Ang^3
#
#
#
# Elastic Constant Matrix: (Units=GPa)
#
#
# Indices 1 2 3 4 5 6 
#
# 1 81.5386 -1.8539 16.4990 0.0000 0.0000 0.0000
# 2 -1.8539 50.8994 15.4736 0.0000 0.0000 0.0000
# 3 16.4990 15.4736 193.4636 0.0000 0.0000 0.0000
# 4 0.0000 0.0000 0.0000 43.8623 0.0000 0.0000
# 5 0.0000 0.0000 0.0000 0.0000 47.0670 0.0000
# 6 0.0000 0.0000 0.0000 0.0000 0.0000 39.6840
#
#
#
# Elastic Compliance Matrix: (Units=1/GPa)
#
#
# Indices 1 2 3 4 5 6 
#
# 1 0.012511 0.000799 -0.001131 0.000000 0.000000 0.000000
# 2 0.000799 0.020187 -0.001683 0.000000 0.000000 0.000000
# 3 -0.001131 -0.001683 0.005400 0.000000 0.000000 0.000000
# 4 0.000000 0.000000 0.000000 0.022799 0.000000 0.000000
# 5 0.000000 0.000000 0.000000 0.000000 0.021246 0.000000
# 6 0.000000 0.000000 0.000000 0.000000 0.000000 0.025199
#
#
# Mechanical properties :
#
#
# Convention : Reuss Voigt Hill
#
# Bulk Modulus (GPa) = 29.35136 42.90433 36.12785
# Shear Modulus (GPa) = 40.74065 45.84151 43.29108
#
# Velocity S-wave (km/s) = 3.85139 4.08539 3.97011
# Velocity P-wave (km/s) = 5.51943 6.15425 5.84547
#
# Compressibility (1/GPa) = 0.03406997
#
# Stress axis : x y z
#
# Youngs Moduli (GPa) = 79.92874 49.53607 185.18609
#
# Poissons Ratio (x) = -0.03960 0.20943
# Poissons Ratio (y) = -0.06390 0.31163
# Poissons Ratio (z) = 0.09039 0.08336
#
# Static dielectric constant tensor:
#      x y z
#    x 5.575290 0.000000 0.000000 
#    y 0.000000 5.095790 0.000000 
#    z 0.000000 0.000000 4.983840 
# 
# 
# High freq. dielectric constant tensor:
#      x y z
#    x 2.131790 0.000000 0.000000 
#    y 0.000000 2.111770 0.000000 
#    z 0.000000 0.000000 2.123450 
# 
# From -- ./inp_files/2687.got.cif
#   From: 2010.03.12/outbox.cif.g09.slc.cpg/sg19_2_cif.got.tgz:2687.got - 2010.04.10 18:59:41.
