data_PCOD8157559
_publ_section_title
;
Structure prediction by ZEFSAII (Michael W. Deem and Ramdas Pophale) SiO2 
 PCOD8157559
Probable space group: P 21 21 21
;
_chemical_formula_sum "Si O2"
_cell_formula_units_Z 32
_cell_length_a 10.905198
_cell_length_b 13.891251
_cell_length_c 9.297948
_cell_angle_alpha 90.000000
_cell_angle_beta 90.000000
_cell_angle_gamma 90.000000
_cell_volume 1408.516785
_symmetry_space_group_name_H-M "P 21 21 21"
_symmetry_group_IT_number 19
_symmetry_cell_setting 'orthorhombic'
loop_
_space_group_symop_operation_xyz
x,y,z
1/2-x,-y,1/2+z
1/2+x,1/2-y,-z
-x,1/2+y,1/2-z
loop_
_atom_site_type_symbol
_atom_site_label
_atom_site_fract_x
_atom_site_fract_y
_atom_site_fract_z
Si Si1 0.892004 0.722036 0.291376
Si Si2 0.858394 0.321102 0.276074
Si Si3 0.468500 0.979533 0.773657
Si Si4 0.976405 0.930248 0.787032
Si Si5 0.339007 0.213950 0.401786
Si Si6 0.939638 0.086483 0.577052
Si Si7 0.826607 0.999589 0.056256
Si Si8 0.699171 0.189396 0.080950
O O1 0.907316 0.607551 0.315293
O O2 0.781198 0.746196 0.184030
O O3 0.873251 0.769926 0.445579
O O4 0.013872 0.764488 0.220437
O O5 0.875724 0.431290 0.228965
O O6 0.801181 0.313221 0.435547
O O7 0.764858 0.275814 0.163010
O O8 0.598708 0.010404 0.705362
O O9 0.488455 0.943600 0.934869
O O10 0.896849 0.863458 0.683113
O O11 0.103685 0.878981 0.824053
O O12 0.005732 0.031482 0.708637
O O13 0.904231 0.950932 0.932015
O O14 0.441356 0.298849 0.398944
O O15 0.797625 0.058648 0.570302
O O16 0.800442 0.112414 0.026474
#
# Coordination Sequence:
#
# PCOD8157559 Si02
#       8
#     4   4   4   4   4   4   4   4
#     4  12  28  47  72 110 146 192 244 298 369 436
#     4  12  25  48  73 105 149 188 242 298 368 437
#     4  12  25  45  72 104 148 187 235 305 362 432
#     4  11  25  44  69 107 139 187 248 301 355 428
#     4  12  26  46  72 105 146 194 239 300 368 436
#     4  11  23  42  73 101 138 186 248 296 354 425
#     4  11  20  45  71 104 134 187 246 297 348 419
#     4  11  26  45  76 102 144 193 242 305 362 427
#
# _framework density 22.718931999999999
#
# number of rings (size 3 to 8) (size 9 to 14) (size 15 to 20)
#    0.000    0.500    3.750    5.250    5.250    2.000 
#    2.250    0.000    0.000    0.000    0.000    0.000 
#    0.000    0.000    0.000    0.000    0.000    0.000 
#
# Total GULP energy -397010.588670 kJ/mol
# GULP energy per Si atom -12406.580896 kJ/mol
# Density = 2.266722 g / cm^3
# Si number density = 22.718932 Si / 1000 Ang^3
#
#
#
# Elastic Constant Matrix: (Units=GPa)
#
#
# Indices 1 2 3 4 5 6 
#
# 1 26.1598 -15.5878 13.4895 0.0000 0.0000 0.0000
# 2 -15.5878 80.0532 3.5260 0.0000 0.0000 0.0000
# 3 13.4895 3.5260 74.5732 0.0000 0.0000 0.0000
# 4 0.0000 0.0000 0.0000 43.9059 0.0000 0.0000
# 5 0.0000 0.0000 0.0000 0.0000 25.3470 0.0000
# 6 0.0000 0.0000 0.0000 0.0000 0.0000 36.1947
#
#
#
# Elastic Compliance Matrix: (Units=1/GPa)
#
#
# Indices 1 2 3 4 5 6 
#
# 1 0.048962 0.009945 -0.009327 0.000000 0.000000 0.000000
# 2 0.009945 0.014538 -0.002486 0.000000 0.000000 0.000000
# 3 -0.009327 -0.002486 0.015214 0.000000 0.000000 0.000000
# 4 0.000000 0.000000 0.000000 0.022776 0.000000 0.000000
# 5 0.000000 0.000000 0.000000 0.000000 0.039452 0.000000
# 6 0.000000 0.000000 0.000000 0.000000 0.000000 0.027628
#
#
# Mechanical properties :
#
#
# Convention : Reuss Voigt Hill
#
# Bulk Modulus (GPa) = 13.33749 20.40459 16.87104
# Shear Modulus (GPa) = 25.34217 33.04675 29.19446
#
# Velocity S-wave (km/s) = 3.34348 3.81805 3.58862
# Velocity P-wave (km/s) = 4.55945 5.33268 4.96115
#
# Compressibility (1/GPa) = 0.07497661
#
# Stress axis : x y z
#
# Youngs Moduli (GPa) = 20.42412 68.78721 65.72752
#
# Poissons Ratio (x) = -0.68406 0.61303
# Poissons Ratio (y) = -0.20311 0.16341
# Poissons Ratio (z) = 0.19049 0.17102
#
# Static dielectric constant tensor:
#      x y z
#    x 3.900140 0.000000 0.000000 
#    y 0.000000 4.542270 0.000000 
#    z 0.000000 0.000000 4.128670 
# 
# 
# High freq. dielectric constant tensor:
#      x y z
#    x 1.881570 0.000000 0.000000 
#    y 0.000000 1.915680 0.000000 
#    z 0.000000 0.000000 1.904890 
# 
# From -- ./inp_files/3592.got.cif
#   From: 2010.03.12/outbox.cif.g09.slc.cpg/sg19_2_cif.got.tgz:3592.got - 2010.04.10 18:59:41.
