data_PCOD8157774
_publ_section_title
;
Structure prediction by ZEFSAII (Michael W. Deem and Ramdas Pophale) SiO2 
 PCOD8157774
Probable space group: P 21 21 21
;
_chemical_formula_sum "Si O2"
_cell_formula_units_Z 24
_cell_length_a 7.820555
_cell_length_b 9.659254
_cell_length_c 13.899172
_cell_angle_alpha 90.000000
_cell_angle_beta 90.000000
_cell_angle_gamma 90.000000
_cell_volume 1049.953560
_symmetry_space_group_name_H-M "P 21 21 21"
_symmetry_group_IT_number 19
_symmetry_cell_setting 'orthorhombic'
loop_
_space_group_symop_operation_xyz
x,y,z
1/2-x,-y,1/2+z
1/2+x,1/2-y,-z
-x,1/2+y,1/2-z
loop_
_atom_site_type_symbol
_atom_site_label
_atom_site_fract_x
_atom_site_fract_y
_atom_site_fract_z
Si Si1 0.083967 0.450195 0.759321
Si Si2 0.134144 0.142674 0.085578
Si Si3 0.296445 0.378873 0.588104
Si Si4 0.489100 0.605823 0.472552
Si Si5 0.955300 0.865354 0.075676
Si Si6 0.201016 0.742006 0.766846
O O1 0.251060 0.399425 0.700497
O O2 0.069726 0.616079 0.744406
O O3 0.911115 0.380344 0.718333
O O4 0.111643 0.415628 0.871954
O O5 0.041250 0.237252 0.006375
O O6 0.168552 0.235705 0.179267
O O7 0.309894 0.081736 0.042521
O O8 0.011445 0.015640 0.114440
O O9 0.424400 0.497781 0.551792
O O10 0.379045 0.230017 0.573139
O O11 0.117422 0.383251 0.531402
O O12 0.808423 0.795821 0.139615
#
# Coordination Sequence:
#
# PCOD8157774 Si02
#       6
#     4   4   4   4   4   4
#     4  11  26  47  70 105 143 186 239 293 365 422
#     4  11  26  46  74 105 141 187 243 295 361 430
#     4  12  25  46  70 103 145 187 239 294 361 421
#     4  11  24  47  69 103 140 190 238 298 356 429
#     4  12  27  45  71 107 143 186 242 294 361 433
#     4  11  26  47  72 105 144 190 237 300 356 431
#
# _framework density 22.858153999999999
#
# number of rings (size 3 to 8) (size 9 to 14) (size 15 to 20)
#    0.000    0.667    3.333    3.000    9.333    0.000 
#    0.000    1.667    0.000    0.000    0.000    0.000 
#    0.000    0.000    0.000    0.000    0.000    0.000 
#
# Total GULP energy -297724.634154 kJ/mol
# GULP energy per Si atom -12405.193090 kJ/mol
# Density = 2.280613 g / cm^3
# Si number density = 22.858154 Si / 1000 Ang^3
#
#
#
# Elastic Constant Matrix: (Units=GPa)
#
#
# Indices 1 2 3 4 5 6 
#
# 1 71.3573 35.9279 26.1247 0.0000 0.0000 0.0000
# 2 35.9279 134.1248 43.2065 0.0000 0.0000 0.0000
# 3 26.1247 43.2065 82.1450 0.0000 0.0000 0.0000
# 4 0.0000 0.0000 0.0000 32.8792 0.0000 0.0000
# 5 0.0000 0.0000 0.0000 0.0000 35.8895 0.0000
# 6 0.0000 0.0000 0.0000 0.0000 0.0000 53.3073
#
#
#
# Elastic Compliance Matrix: (Units=1/GPa)
#
#
# Indices 1 2 3 4 5 6 
#
# 1 0.017056 -0.003397 -0.003638 0.000000 0.000000 0.000000
# 2 -0.003397 0.009653 -0.003997 0.000000 0.000000 0.000000
# 3 -0.003638 -0.003997 0.015433 0.000000 0.000000 0.000000
# 4 0.000000 0.000000 0.000000 0.030414 0.000000 0.000000
# 5 0.000000 0.000000 0.000000 0.000000 0.027863 0.000000
# 6 0.000000 0.000000 0.000000 0.000000 0.000000 0.018759
#
#
# Mechanical properties :
#
#
# Convention : Reuss Voigt Hill
#
# Bulk Modulus (GPa) = 49.80361 55.34948 52.57654
# Shear Modulus (GPa) = 33.79850 36.57305 35.18578
#
# Velocity S-wave (km/s) = 3.84945 4.00434 3.92766
# Velocity P-wave (km/s) = 6.44927 6.75622 6.60453
#
# Compressibility (1/GPa) = 0.02007887
#
# Stress axis : x y z
#
# Youngs Moduli (GPa) = 58.62991 103.59153 64.79680
#
# Poissons Ratio (x) = 0.35190 0.23571
# Poissons Ratio (y) = 0.19917 0.25900
# Poissons Ratio (z) = 0.21327 0.41406
#
# Static dielectric constant tensor:
#      x y z
#    x 3.971940 0.000000 0.000000 
#    y 0.000000 4.228380 0.000000 
#    z 0.000000 0.000000 4.137790 
# 
# 
# High freq. dielectric constant tensor:
#      x y z
#    x 1.898840 0.000000 0.000000 
#    y 0.000000 1.913470 0.000000 
#    z 0.000000 0.000000 1.906190 
# 
# From -- ./inp_files/4548.got.cif
#   From: 2010.03.12/outbox.cif.g09.slc.cpg/sg19_3_cif.got.tgz:4548.got - 2010.04.10 18:59:41.
