data_PCOD8157123
_publ_section_title
;
Structure prediction by ZEFSAII (Michael W. Deem and Ramdas Pophale) SiO2 
 PCOD8157123
Probable space group: P 21 21 21
;
_chemical_formula_sum "Si O2"
_cell_formula_units_Z 28
_cell_length_a 5.950552
_cell_length_b 14.565856
_cell_length_c 14.112392
_cell_angle_alpha 90.000000
_cell_angle_beta 90.000000
_cell_angle_gamma 90.000000
_cell_volume 1223.189933
_symmetry_space_group_name_H-M "P 21 21 21"
_symmetry_group_IT_number 19
_symmetry_cell_setting 'orthorhombic'
loop_
_space_group_symop_operation_xyz
x,y,z
1/2-x,-y,1/2+z
1/2+x,1/2-y,-z
-x,1/2+y,1/2-z
loop_
_atom_site_type_symbol
_atom_site_label
_atom_site_fract_x
_atom_site_fract_y
_atom_site_fract_z
Si Si1 0.243794 0.484853 0.742782
Si Si2 0.874996 0.878692 0.930310
Si Si3 0.482493 0.978012 0.576336
Si Si4 0.620819 0.279110 0.958914
Si Si5 0.030244 0.322884 0.228534
Si Si6 0.360885 0.906342 0.190557
Si Si7 0.704026 0.769574 0.098194
O O1 0.266144 0.405159 0.663772
O O2 0.343054 0.447334 0.841778
O O3 0.360862 0.578093 0.709019
O O4 0.980725 0.508565 0.756984
O O5 0.113914 0.834794 0.899018
O O6 0.758087 0.797083 0.989781
O O7 0.892230 0.972441 0.989738
O O8 0.357010 0.888799 0.536939
O O9 0.315108 0.053587 0.616465
O O10 0.611605 0.245727 0.851459
O O11 0.367995 0.253903 0.001450
O O12 0.086888 0.277870 0.330621
O O13 0.762080 0.341505 0.231262
O O14 0.531013 0.845387 0.133105
#
# Coordination Sequence:
#
# PCOD8157123 Si02
#       7
#     4   4   4   4   4   4   4
#     4  10  24  44  73 103 140 195 241 315 379 444
#     4  12  24  44  71 104 144 191 248 303 383 453
#     4  11  25  47  67 107 146 189 247 311 367 448
#     4  12  31  48  77 111 148 204 256 309 375 458
#     4  10  24  48  69 102 147 191 245 316 381 442
#     4  10  21  46  70  99 144 188 241 311 378 439
#     4  11  25  43  69 106 147 190 246 315 377 454
#
# _framework density 22.890967
#
# number of rings (size 3 to 8) (size 9 to 14) (size 15 to 20)
#    0.000    1.143    4.286    1.714   12.000    1.143 
#    5.143    0.000    0.000    0.000    0.000    0.000 
#    0.000    0.000    0.000    0.000    0.000    0.000 
#
# Total GULP energy -346968.000655 kJ/mol
# GULP energy per Si atom -12391.714309 kJ/mol
# Density = 2.283887 g / cm^3
# Si number density = 22.890967 Si / 1000 Ang^3
#
#
#
# Elastic Constant Matrix: (Units=GPa)
#
#
# Indices 1 2 3 4 5 6 
#
# 1 92.9979 -2.0699 27.5891 0.0000 0.0000 0.0000
# 2 -2.0699 82.1644 25.8574 0.0000 0.0000 0.0000
# 3 27.5891 25.8574 104.3678 0.0000 0.0000 0.0000
# 4 0.0000 0.0000 0.0000 38.9029 0.0000 0.0000
# 5 0.0000 0.0000 0.0000 0.0000 19.8737 0.0000
# 6 0.0000 0.0000 0.0000 0.0000 0.0000 26.8045
#
#
#
# Elastic Compliance Matrix: (Units=1/GPa)
#
#
# Indices 1 2 3 4 5 6 
#
# 1 0.011812 0.001388 -0.003467 0.000000 0.000000 0.000000
# 2 0.001388 0.013363 -0.003678 0.000000 0.000000 0.000000
# 3 -0.003467 -0.003678 0.011409 0.000000 0.000000 0.000000
# 4 0.000000 0.000000 0.000000 0.025705 0.000000 0.000000
# 5 0.000000 0.000000 0.000000 0.000000 0.050318 0.000000
# 6 0.000000 0.000000 0.000000 0.000000 0.000000 0.037307
#
#
# Mechanical properties :
#
#
# Convention : Reuss Voigt Hill
#
# Bulk Modulus (GPa) = 39.88390 42.47594 41.17992
# Shear Modulus (GPa) = 29.44925 32.32644 30.88785
#
# Velocity S-wave (km/s) = 3.59067 3.76199 3.67733
# Velocity P-wave (km/s) = 5.88658 6.12096 6.00491
#
# Compressibility (1/GPa) = 0.02507277
#
# Stress axis : x y z
#
# Youngs Moduli (GPa) = 84.65805 74.83281 87.64983
#
# Poissons Ratio (x) = -0.10391 0.30384
# Poissons Ratio (y) = -0.11755 0.32236
# Poissons Ratio (z) = 0.29347 0.27522
#
# Static dielectric constant tensor:
#      x y z
#    x 4.714190 0.000000 0.000000 
#    y 0.000000 4.076270 0.000000 
#    z 0.000000 0.000000 4.230320 
# 
# 
# High freq. dielectric constant tensor:
#      x y z
#    x 1.906680 0.000000 0.000000 
#    y 0.000000 1.905480 0.000000 
#    z 0.000000 0.000000 1.903200 
# 
# From -- ./inp_files/5716.got.cif
#   From: 2010.03.12/outbox.cif.g09.slc.cpg/sg19_3_cif.got.tgz:5716.got - 2010.04.10 18:59:41.
