data_PCOD8157102
_publ_section_title
;
Structure prediction by ZEFSAII (Michael W. Deem and Ramdas Pophale) SiO2 
 PCOD8157102
Probable space group: P 21 21 21
;
_chemical_formula_sum "Si O2"
_cell_formula_units_Z 28
_cell_length_a 14.509807
_cell_length_b 9.384324
_cell_length_c 9.573906
_cell_angle_alpha 90.000000
_cell_angle_beta 90.000000
_cell_angle_gamma 90.000000
_cell_volume 1303.628326
_symmetry_space_group_name_H-M "P 21 21 21"
_symmetry_group_IT_number 19
_symmetry_cell_setting 'orthorhombic'
loop_
_space_group_symop_operation_xyz
x,y,z
1/2-x,-y,1/2+z
1/2+x,1/2-y,-z
-x,1/2+y,1/2-z
loop_
_atom_site_type_symbol
_atom_site_label
_atom_site_fract_x
_atom_site_fract_y
_atom_site_fract_z
Si Si1 0.958303 0.230819 0.365400
Si Si2 0.698310 0.975631 0.905711
Si Si3 0.527009 0.470759 0.409065
Si Si4 0.700500 0.568432 0.254440
Si Si5 0.445424 0.711051 0.577238
Si Si6 0.164224 0.605250 0.790297
Si Si7 0.857848 0.503897 0.462498
O O1 0.871905 0.129864 0.324740
O O2 0.921090 0.365952 0.449011
O O3 0.028540 0.145941 0.466812
O O4 0.011147 0.280636 0.229854
O O5 0.652225 0.131001 0.914176
O O6 0.792874 0.992953 0.820405
O O7 0.716487 0.913392 0.060775
O O8 0.622179 0.471223 0.326538
O O9 0.514047 0.627703 0.474786
O O10 0.443106 0.433630 0.304491
O O11 0.676235 0.734717 0.264876
O O12 0.797871 0.533701 0.324745
O O13 0.709101 0.516655 0.094787
O O14 0.428043 0.866222 0.513404
#
# Coordination Sequence:
#
# PCOD8157102 Si02
#       7
#     4   4   4   4   4   4   4
#     4  10  22  44  67 102 135 174 228 279 343 409
#     4  10  21  43  68  92 136 175 223 278 334 407
#     4  10  25  46  68  95 141 180 226 283 342 412
#     4  12  27  45  67 103 142 177 229 288 348 405
#     4  10  22  41  69  99 131 179 228 277 346 407
#     4  10  22  48  64 100 134 174 229 278 337 410
#     4  12  25  43  71 101 139 179 231 285 342 414
#
# _framework density 21.478515999999999
#
# number of rings (size 3 to 8) (size 9 to 14) (size 15 to 20)
#    0.000    1.714    4.286    1.714    6.000    3.429 
#    2.571    0.000    0.000    0.000    0.000    0.000 
#    0.000    0.000    0.000    0.000    0.000    0.000 
#
# Total GULP energy -347258.019510 kJ/mol
# GULP energy per Si atom -12402.072125 kJ/mol
# Density = 2.142963 g / cm^3
# Si number density = 21.478516 Si / 1000 Ang^3
#
#
#
# Elastic Constant Matrix: (Units=GPa)
#
#
# Indices 1 2 3 4 5 6 
#
# 1 33.1421 13.3299 19.3785 0.0000 0.0000 0.0000
# 2 13.3299 88.1016 36.8418 0.0000 0.0000 0.0000
# 3 19.3785 36.8418 74.4299 0.0000 0.0000 0.0000
# 4 0.0000 0.0000 0.0000 37.5811 0.0000 0.0000
# 5 0.0000 0.0000 0.0000 0.0000 42.4624 0.0000
# 6 0.0000 0.0000 0.0000 0.0000 0.0000 20.2568
#
#
#
# Elastic Compliance Matrix: (Units=1/GPa)
#
#
# Indices 1 2 3 4 5 6 
#
# 1 0.035846 -0.001918 -0.008384 0.000000 0.000000 0.000000
# 2 -0.001918 0.014416 -0.006636 0.000000 0.000000 0.000000
# 3 -0.008384 -0.006636 0.018903 0.000000 0.000000 0.000000
# 4 0.000000 0.000000 0.000000 0.026609 0.000000 0.000000
# 5 0.000000 0.000000 0.000000 0.000000 0.023550 0.000000
# 6 0.000000 0.000000 0.000000 0.000000 0.000000 0.049366
#
#
# Mechanical properties :
#
#
# Convention : Reuss Voigt Hill
#
# Bulk Modulus (GPa) = 28.33679 37.19714 32.76696
# Shear Modulus (GPa) = 23.32853 28.46829 25.89841
#
# Velocity S-wave (km/s) = 3.29923 3.64460 3.47620
# Velocity P-wave (km/s) = 5.26640 5.92171 5.60364
#
# Compressibility (1/GPa) = 0.03528981
#
# Stress axis : x y z
#
# Youngs Moduli (GPa) = 27.89676 69.36819 52.90134
#
# Poissons Ratio (x) = 0.13303 0.44351
# Poissons Ratio (y) = 0.05350 0.35107
# Poissons Ratio (z) = 0.23388 0.46035
#
# Static dielectric constant tensor:
#      x y z
#    x 3.625940 0.000000 0.000000 
#    y 0.000000 4.014560 0.000000 
#    z 0.000000 0.000000 3.855750 
# 
# 
# High freq. dielectric constant tensor:
#      x y z
#    x 1.825320 0.000000 0.000000 
#    y 0.000000 1.857160 0.000000 
#    z 0.000000 0.000000 1.843240 
# 
# From -- ./inp_files/4154.got.cif
#   From: 2010.03.12/outbox.cif.g09.slc.cpg/sg19_3_cif.got.tgz:4154.got - 2010.04.10 18:59:41.
