data_PCOD8157061
_publ_section_title
;
Structure prediction by ZEFSAII (Michael W. Deem and Ramdas Pophale) SiO2 
 PCOD8157061
Probable space group: P 21 21 21
;
_chemical_formula_sum "Si O2"
_cell_formula_units_Z 32
_cell_length_a 9.074210
_cell_length_b 12.462588
_cell_length_c 14.084021
_cell_angle_alpha 90.000000
_cell_angle_beta 90.000000
_cell_angle_gamma 90.000000
_cell_volume 1592.735748
_symmetry_space_group_name_H-M "P 21 21 21"
_symmetry_group_IT_number 19
_symmetry_cell_setting 'orthorhombic'
loop_
_space_group_symop_operation_xyz
x,y,z
1/2-x,-y,1/2+z
1/2+x,1/2-y,-z
-x,1/2+y,1/2-z
loop_
_atom_site_type_symbol
_atom_site_label
_atom_site_fract_x
_atom_site_fract_y
_atom_site_fract_z
Si Si1 0.127533 0.292240 0.222107
Si Si2 0.139863 0.847618 0.405021
Si Si3 0.387059 0.390433 0.319038
Si Si4 0.077576 0.489939 0.005878
Si Si5 0.058863 0.053526 0.861738
Si Si6 0.808896 0.177599 0.948209
Si Si7 0.573354 0.308918 0.584627
Si Si8 0.407535 0.179581 0.437334
O O1 0.223782 0.386077 0.272851
O O2 0.232397 0.249343 0.135281
O O3 0.092275 0.203451 0.301825
O O4 0.971975 0.333203 0.182471
O O5 0.269093 0.920774 0.365134
O O6 0.197172 0.736106 0.450001
O O7 0.059435 0.907411 0.492652
O O8 0.382704 0.479420 0.399688
O O9 0.507947 0.432364 0.245898
O O10 0.433941 0.273886 0.360037
O O11 0.218863 0.433505 0.051305
O O12 0.036113 0.592028 0.069715
O O13 0.975578 0.142379 0.925896
O O14 0.031197 0.932192 0.896444
O O15 0.499053 0.205544 0.533536
O O16 0.733735 0.328800 0.537657
#
# Coordination Sequence:
#
# PCOD8157061 Si02
#       8
#     4   4   4   4   4   4   4   4
#     4   9  21  41  62  89 125 160 215 264 305 391
#     4  11  22  43  61  93 126 166 216 264 316 389
#     4   9  22  41  61  91 128 168 208 268 322 383
#     4  10  21  42  63  90 128 171 209 264 330 375
#     4  11  22  39  62  96 123 168 216 256 324 377
#     4  10  23  41  63  87 132 169 211 260 325 391
#     4  10  21  41  64  93 128 164 212 270 321 377
#     4  10  22  38  64  91 130 162 213 270 319 381
#
# _framework density 20.091217
#
# number of rings (size 3 to 8) (size 9 to 14) (size 15 to 20)
#    0.000    2.000    1.250    1.500    5.250    6.000 
#    6.750    1.250    0.000    0.000    0.000    0.000 
#    0.000    0.000    0.000    0.000    0.000    0.000 
#
# Total GULP energy -396687.926148 kJ/mol
# GULP energy per Si atom -12396.497692 kJ/mol
# Density = 2.004549 g / cm^3
# Si number density = 20.091217 Si / 1000 Ang^3
#
#
#
# Elastic Constant Matrix: (Units=GPa)
#
#
# Indices 1 2 3 4 5 6 
#
# 1 99.8826 24.6793 44.4826 0.0000 0.0000 0.0000
# 2 24.6793 75.9828 37.8585 0.0000 0.0000 0.0000
# 3 44.4826 37.8585 114.0532 0.0000 0.0000 0.0000
# 4 0.0000 0.0000 0.0000 26.9423 0.0000 0.0000
# 5 0.0000 0.0000 0.0000 0.0000 32.9805 0.0000
# 6 0.0000 0.0000 0.0000 0.0000 0.0000 30.3023
#
#
#
# Elastic Compliance Matrix: (Units=1/GPa)
#
#
# Indices 1 2 3 4 5 6 
#
# 1 0.012348 -0.001930 -0.004175 0.000000 0.000000 0.000000
# 2 -0.001930 0.016071 -0.004582 0.000000 0.000000 0.000000
# 3 -0.004175 -0.004582 0.011917 0.000000 0.000000 0.000000
# 4 0.000000 0.000000 0.000000 0.037116 0.000000 0.000000
# 5 0.000000 0.000000 0.000000 0.000000 0.030321 0.000000
# 6 0.000000 0.000000 0.000000 0.000000 0.000000 0.033001
#
#
# Mechanical properties :
#
#
# Convention : Reuss Voigt Hill
#
# Bulk Modulus (GPa) = 52.73848 55.99551 54.36700
# Shear Modulus (GPa) = 29.67910 30.23823 29.95866
#
# Velocity S-wave (km/s) = 3.84763 3.88370 3.86571
# Velocity P-wave (km/s) = 6.78568 6.93123 6.85884
#
# Compressibility (1/GPa) = 0.01896149
#
# Stress axis : x y z
#
# Youngs Moduli (GPa) = 80.98384 62.22528 83.91351
#
# Poissons Ratio (x) = 0.12012 0.35036
# Poissons Ratio (y) = 0.15633 0.38446
# Poissons Ratio (z) = 0.33812 0.28509
#
# Static dielectric constant tensor:
#      x y z
#    x 3.748630 0.000000 0.000000 
#    y 0.000000 3.531330 0.000000 
#    z 0.000000 0.000000 3.674900 
# 
# 
# High freq. dielectric constant tensor:
#      x y z
#    x 1.796170 0.000000 0.000000 
#    y 0.000000 1.770590 0.000000 
#    z 0.000000 0.000000 1.780580 
# 
# From -- ./inp_files/5946.got.cif
#   From: 2010.03.12/outbox.cif.g09.slc.cpg/sg19_3_cif.got.tgz:5946.got - 2010.04.10 18:59:41.
