data_PCOD8157884
_publ_section_title
;
Structure prediction by ZEFSAII (Michael W. Deem and Ramdas Pophale) SiO2 
 PCOD8157884
Probable space group: P 21 21 21
;
_chemical_formula_sum "Si O2"
_cell_formula_units_Z 24
_cell_length_a 9.631533
_cell_length_b 6.463647
_cell_length_c 16.911622
_cell_angle_alpha 90.000000
_cell_angle_beta 90.000000
_cell_angle_gamma 90.000000
_cell_volume 1052.830142
_symmetry_space_group_name_H-M "P 21 21 21"
_symmetry_group_IT_number 19
_symmetry_cell_setting 'orthorhombic'
loop_
_space_group_symop_operation_xyz
x,y,z
1/2-x,-y,1/2+z
1/2+x,1/2-y,-z
-x,1/2+y,1/2-z
loop_
_atom_site_type_symbol
_atom_site_label
_atom_site_fract_x
_atom_site_fract_y
_atom_site_fract_z
Si Si1 0.203175 0.505070 0.910616
Si Si2 0.146403 0.142780 0.799562
Si Si3 0.796828 0.004752 0.410606
Si Si4 0.027963 0.295659 0.354969
Si Si5 0.472076 0.703979 0.145007
Si Si6 0.853518 0.642385 0.299588
O O1 0.227699 0.315789 0.850143
O O2 0.322720 0.675928 0.896022
O O3 0.052970 0.609293 0.897330
O O4 0.211400 0.422460 0.999984
O O5 0.042775 0.253014 0.738387
O O6 0.249970 0.000201 0.749992
O O7 0.059866 0.007270 0.862257
O O8 0.772224 0.815272 0.350234
O O9 0.677318 0.175633 0.395959
O O10 0.947057 0.108817 0.397229
O O11 0.042952 0.252802 0.261589
O O12 0.940126 0.506856 0.362242
#
# Coordination Sequence:
#
# PCOD8157884 Si02
#       6
#     4   4   4   4   4   4
#     4  12  28  45  71 109 147 185 235 302 365 417
#     4  12  24  46  75 103 140 188 243 286 348 436
#     4  12  28  45  71 109 147 185 235 302 365 417
#     4  12  24  47  74 103 141 190 238 290 358 431
#     4  12  24  47  74 103 141 190 238 290 358 431
#     4  12  24  46  75 103 140 188 243 286 348 436
#
# _framework density 22.795701999999999
#
# number of rings (size 3 to 8) (size 9 to 14) (size 15 to 20)
#    0.000    0.000    6.667    4.000    0.000    2.667 
#    0.000    0.000    0.000    0.000    0.000    0.000 
#    0.000    0.000    0.000    0.000    0.000    0.000 
#
# Total GULP energy -297756.567156 kJ/mol
# GULP energy per Si atom -12406.523632 kJ/mol
# Density = 2.274382 g / cm^3
# Si number density = 22.795702 Si / 1000 Ang^3
#
#
#
# Elastic Constant Matrix: (Units=GPa)
#
#
# Indices 1 2 3 4 5 6 
#
# 1 108.0466 46.5975 36.9628 0.0000 0.0000 0.0000
# 2 46.5975 110.8702 49.8247 0.0000 0.0000 0.0000
# 3 36.9628 49.8247 134.9526 0.0000 0.0000 0.0000
# 4 0.0000 0.0000 0.0000 33.4729 0.0000 0.0000
# 5 0.0000 0.0000 0.0000 0.0000 19.7950 0.0000
# 6 0.0000 0.0000 0.0000 0.0000 0.0000 42.8904
#
#
#
# Elastic Compliance Matrix: (Units=1/GPa)
#
#
# Indices 1 2 3 4 5 6 
#
# 1 0.011603 -0.004135 -0.001652 0.000000 0.000000 0.000000
# 2 -0.004135 0.012287 -0.003404 0.000000 0.000000 0.000000
# 3 -0.001652 -0.003404 0.009119 0.000000 0.000000 0.000000
# 4 0.000000 0.000000 0.000000 0.029875 0.000000 0.000000
# 5 0.000000 0.000000 0.000000 0.000000 0.050518 0.000000
# 6 0.000000 0.000000 0.000000 0.000000 0.000000 0.023315
#
#
# Mechanical properties :
#
#
# Convention : Reuss Voigt Hill
#
# Bulk Modulus (GPa) = 68.35609 68.95992 68.65801
# Shear Modulus (GPa) = 31.25505 33.93062 32.59283
#
# Velocity S-wave (km/s) = 3.70685 3.86225 3.78535
# Velocity P-wave (km/s) = 6.95503 7.08564 7.02064
#
# Compressibility (1/GPa) = 0.01462928
#
# Stress axis : x y z
#
# Youngs Moduli (GPa) = 86.18161 81.38696 109.65974
#
# Poissons Ratio (x) = 0.33650 0.18112
# Poissons Ratio (y) = 0.35632 0.37327
# Poissons Ratio (z) = 0.14234 0.27704
#
# Static dielectric constant tensor:
#      x y z
#    x 4.143270 0.000000 0.000000 
#    y 0.000000 4.153100 0.000000 
#    z 0.000000 0.000000 3.915190 
# 
# 
# High freq. dielectric constant tensor:
#      x y z
#    x 1.908430 0.000000 0.000000 
#    y 0.000000 1.904090 0.000000 
#    z 0.000000 0.000000 1.884140 
# 
# From -- ./inp_files/410.got.cif
#   From: 2010.03.12/outbox.cif.g09.slc.cpg/sg19_1_cif.got.tgz:410.got - 2010.04.10 18:59:41.
