data_PCOD8157049
_publ_section_title
;
Structure prediction by ZEFSAII (Michael W. Deem and Ramdas Pophale) SiO2 
 PCOD8157049
Probable space group: P 21 21 21
;
_chemical_formula_sum "Si O2"
_cell_formula_units_Z 24
_cell_length_a 7.524645
_cell_length_b 5.224232
_cell_length_c 25.076155
_cell_angle_alpha 90.000000
_cell_angle_beta 90.000000
_cell_angle_gamma 90.000000
_cell_volume 985.755970
_symmetry_space_group_name_H-M "P 21 21 21"
_symmetry_group_IT_number 19
_symmetry_cell_setting 'orthorhombic'
loop_
_space_group_symop_operation_xyz
x,y,z
1/2-x,-y,1/2+z
1/2+x,1/2-y,-z
-x,1/2+y,1/2-z
loop_
_atom_site_type_symbol
_atom_site_label
_atom_site_fract_x
_atom_site_fract_y
_atom_site_fract_z
Si Si1 0.981615 0.977587 0.025847
Si Si2 0.418637 0.216149 0.126180
Si Si3 0.909805 0.972028 0.414385
Si Si4 0.882733 0.164936 0.565115
Si Si5 0.112637 0.922208 0.739107
Si Si6 0.265022 0.987723 0.845257
O O1 0.766759 0.972781 0.028383
O O2 0.063261 0.756183 0.063519
O O3 0.051409 0.257860 0.040712
O O4 0.043929 0.917503 0.965342
O O5 0.291623 0.445028 0.106423
O O6 0.612860 0.303391 0.144456
O O7 0.449141 0.018876 0.077227
O O8 0.321972 0.084940 0.177588
O O9 0.044067 0.915138 0.365333
O O10 0.791938 0.237535 0.621202
O O11 0.276015 0.934614 0.781626
O O12 0.989353 0.165492 0.746051
#
# Coordination Sequence:
#
# PCOD8157049 Si02
#       6
#     4   4   4   4   4   4
#     4  11  26  42  65  99 133 175 227 276 328 410
#     4  11  23  42  71  96 132 181 220 277 340 396
#     4  11  26  43  65 101 134 172 224 274 336 400
#     4  11  23  42  68  93 137 176 224 277 339 391
#     4  10  21  40  70  98 127 174 227 267 338 404
#     4  10  23  45  65  97 137 174 220 281 335 393
#
# _framework density 24.346796000000001
#
# number of rings (size 3 to 8) (size 9 to 14) (size 15 to 20)
#    0.000    1.333    3.333    1.000    7.000    0.000 
#    0.000   10.000    0.000    0.000    0.000    0.000 
#    0.000    0.000    0.000    0.000    0.000    0.000 
#
# Total GULP energy -297556.979107 kJ/mol
# GULP energy per Si atom -12398.207463 kJ/mol
# Density = 2.429138 g / cm^3
# Si number density = 24.346796 Si / 1000 Ang^3
#
#
#
# Elastic Constant Matrix: (Units=GPa)
#
#
# Indices 1 2 3 4 5 6 
#
# 1 69.9825 4.9785 25.0083 0.0000 0.0000 0.0000
# 2 4.9785 70.3928 -5.6926 0.0000 0.0000 0.0000
# 3 25.0083 -5.6926 77.1788 0.0000 0.0000 0.0000
# 4 0.0000 0.0000 0.0000 30.7070 0.0000 0.0000
# 5 0.0000 0.0000 0.0000 0.0000 29.2104 0.0000
# 6 0.0000 0.0000 0.0000 0.0000 0.0000 34.3288
#
#
#
# Elastic Compliance Matrix: (Units=1/GPa)
#
#
# Indices 1 2 3 4 5 6 
#
# 1 0.016336 -0.001593 -0.005411 0.000000 0.000000 0.000000
# 2 -0.001593 0.014447 0.001582 0.000000 0.000000 0.000000
# 3 -0.005411 0.001582 0.014827 0.000000 0.000000 0.000000
# 4 0.000000 0.000000 0.000000 0.032566 0.000000 0.000000
# 5 0.000000 0.000000 0.000000 0.000000 0.034234 0.000000
# 6 0.000000 0.000000 0.000000 0.000000 0.000000 0.029130
#
#
# Mechanical properties :
#
#
# Convention : Reuss Voigt Hill
#
# Bulk Modulus (GPa) = 28.76425 29.57139 29.16782
# Shear Modulus (GPa) = 30.49289 31.73324 31.11306
#
# Velocity S-wave (km/s) = 3.54282 3.61416 3.57867
# Velocity P-wave (km/s) = 5.34560 5.43953 5.39277
#
# Compressibility (1/GPa) = 0.03476538
#
# Stress axis : x y z
#
# Youngs Moduli (GPa) = 61.21373 69.22054 67.44496
#
# Poissons Ratio (x) = 0.11027 0.36494
# Poissons Ratio (y) = 0.09751 -0.10668
# Poissons Ratio (z) = 0.33122 -0.10949
#
# Static dielectric constant tensor:
#      x y z
#    x 4.230070 0.000000 0.000000 
#    y 0.000000 4.118150 0.000000 
#    z 0.000000 0.000000 5.006560 
# 
# 
# High freq. dielectric constant tensor:
#      x y z
#    x 1.947720 0.000000 0.000000 
#    y 0.000000 1.966240 0.000000 
#    z 0.000000 0.000000 1.977770 
# 
# From -- ./inp_files/7320.got.cif
#   From: 2010.03.12/outbox.cif.g09.slc.cpg/sg19_4_cif.got.tgz:7320.got - 2010.04.10 18:59:41.
