data_PCOD8157601
_publ_section_title
;
Structure prediction by ZEFSAII (Michael W. Deem and Ramdas Pophale) SiO2 
 PCOD8157601
Probable space group: P 21 21 21
;
_chemical_formula_sum "Si O2"
_cell_formula_units_Z 32
_cell_length_a 14.418398
_cell_length_b 12.379046
_cell_length_c 8.137080
_cell_angle_alpha 90.000000
_cell_angle_beta 90.000000
_cell_angle_gamma 90.000000
_cell_volume 1452.354959
_symmetry_space_group_name_H-M "P 21 21 21"
_symmetry_group_IT_number 19
_symmetry_cell_setting 'orthorhombic'
loop_
_space_group_symop_operation_xyz
x,y,z
1/2-x,-y,1/2+z
1/2+x,1/2-y,-z
-x,1/2+y,1/2-z
loop_
_atom_site_type_symbol
_atom_site_label
_atom_site_fract_x
_atom_site_fract_y
_atom_site_fract_z
Si Si1 0.718861 0.882680 0.979025
Si Si2 0.475687 0.000722 0.667994
Si Si3 0.622443 0.298199 0.969649
Si Si4 0.862771 0.545474 0.039723
Si Si5 0.659283 0.084212 0.782818
Si Si6 0.785201 0.398973 0.785806
Si Si7 0.383718 0.743016 0.152910
Si Si8 0.586273 0.697255 0.033442
O O1 0.753572 0.882972 0.168565
O O2 0.626864 0.807008 0.951330
O O3 0.802747 0.845296 0.860440
O O4 0.691723 0.003100 0.925068
O O5 0.584085 0.030524 0.658536
O O6 0.410520 0.094843 0.589774
O O7 0.455726 0.885424 0.582186
O O8 0.454652 0.988886 0.862497
O O9 0.609225 0.186261 0.870578
O O10 0.724387 0.339853 0.923551
O O11 0.614434 0.287172 0.163601
O O12 0.777393 0.528442 0.164907
O O13 0.857818 0.475730 0.876289
O O14 0.861637 0.669600 0.986988
O O15 0.843971 0.314410 0.684493
O O16 0.484057 0.699140 0.106995
#
# Coordination Sequence:
#
# PCOD8157601 Si02
#       8
#     4   4   4   4   4   4   4   4
#     4  12  26  48  74 103 148 193 240 304 372 439
#     4  11  26  45  75 104 145 186 244 303 364 435
#     4  11  26  47  69 105 142 187 244 295 358 440
#     4  11  22  42  70 104 139 183 236 298 357 422
#     4  12  26  50  71 104 146 194 242 295 372 444
#     4  11  22  42  70 103 136 184 236 297 355 428
#     4  12  25  46  72 106 150 184 244 300 364 439
#     4  12  25  46  73 107 144 193 242 304 364 433
#
# _framework density 22.033180999999999
#
# number of rings (size 3 to 8) (size 9 to 14) (size 15 to 20)
#    0.000    0.500    3.750    5.250    5.250    1.000 
#    6.750    0.000    0.000    0.000    0.000    0.000 
#    0.000    0.000    0.000    0.000    0.000    0.000 
#
# Total GULP energy -396805.284796 kJ/mol
# GULP energy per Si atom -12400.165150 kJ/mol
# Density = 2.198303 g / cm^3
# Si number density = 22.033181 Si / 1000 Ang^3
#
#
#
# Elastic Constant Matrix: (Units=GPa)
#
#
# Indices 1 2 3 4 5 6 
#
# 1 86.2066 26.7150 13.1436 0.0000 0.0000 0.0000
# 2 26.7150 121.1176 35.3762 0.0000 0.0000 0.0000
# 3 13.1436 35.3762 100.9853 0.0000 0.0000 0.0000
# 4 0.0000 0.0000 0.0000 43.1834 0.0000 0.0000
# 5 0.0000 0.0000 0.0000 0.0000 31.3980 0.0000
# 6 0.0000 0.0000 0.0000 0.0000 0.0000 21.6104
#
#
#
# Elastic Compliance Matrix: (Units=1/GPa)
#
#
# Indices 1 2 3 4 5 6 
#
# 1 0.012500 -0.002542 -0.000736 0.000000 0.000000 0.000000
# 2 -0.002542 0.009714 -0.003072 0.000000 0.000000 0.000000
# 3 -0.000736 -0.003072 0.011075 0.000000 0.000000 0.000000
# 4 0.000000 0.000000 0.000000 0.023157 0.000000 0.000000
# 5 0.000000 0.000000 0.000000 0.000000 0.031849 0.000000
# 6 0.000000 0.000000 0.000000 0.000000 0.000000 0.046274
#
#
# Mechanical properties :
#
#
# Convention : Reuss Voigt Hill
#
# Bulk Modulus (GPa) = 48.57275 50.97544 49.77410
# Shear Modulus (GPa) = 32.43946 34.77668 33.60807
#
# Velocity S-wave (km/s) = 3.84122 3.97719 3.90980
# Velocity P-wave (km/s) = 6.46269 6.65407 6.55908
#
# Compressibility (1/GPa) = 0.02058768
#
# Stress axis : x y z
#
# Youngs Moduli (GPa) = 79.99943 102.93915 90.29746
#
# Poissons Ratio (x) = 0.26168 0.06650
# Poissons Ratio (y) = 0.20336 0.27741
# Poissons Ratio (z) = 0.05891 0.31625
#
# Static dielectric constant tensor:
#      x y z
#    x 4.148560 0.000000 0.000000 
#    y 0.000000 4.075620 0.000000 
#    z 0.000000 0.000000 4.116810 
# 
# 
# High freq. dielectric constant tensor:
#      x y z
#    x 1.863830 0.000000 0.000000 
#    y 0.000000 1.873530 0.000000 
#    z 0.000000 0.000000 1.871400 
# 
# From -- ./inp_files/3963.got.cif
#   From: 2010.03.12/outbox.cif.g09.slc.cpg/sg19_2_cif.got.tgz:3963.got - 2010.04.10 18:59:41.
