data_PCOD8157505
_publ_section_title
;
Structure prediction by ZEFSAII (Michael W. Deem and Ramdas Pophale) SiO2 
 PCOD8157505
Probable space group: P 21 21 21
;
_chemical_formula_sum "Si O2"
_cell_formula_units_Z 28
_cell_length_a 7.998636
_cell_length_b 10.630810
_cell_length_c 11.669765
_cell_angle_alpha 90.000000
_cell_angle_beta 90.000000
_cell_angle_gamma 90.000000
_cell_volume 992.303219
_symmetry_space_group_name_H-M "P 21 21 21"
_symmetry_group_IT_number 19
_symmetry_cell_setting 'orthorhombic'
loop_
_space_group_symop_operation_xyz
x,y,z
1/2-x,-y,1/2+z
1/2+x,1/2-y,-z
-x,1/2+y,1/2-z
loop_
_atom_site_type_symbol
_atom_site_label
_atom_site_fract_x
_atom_site_fract_y
_atom_site_fract_z
Si Si1 0.640396 0.801417 0.438619
Si Si2 0.879043 0.022196 0.745029
Si Si3 0.922194 0.988859 0.102700
Si Si4 0.677784 0.627149 0.046440
Si Si5 0.469975 0.037416 0.020312
Si Si6 0.829153 0.156624 0.379306
Si Si7 0.641043 0.332360 0.765903
O O1 0.676810 0.888804 0.549680
O O2 0.522030 0.688813 0.483010
O O3 0.809435 0.751617 0.375980
O O4 0.546260 0.886871 0.342666
O O5 0.714919 0.084532 0.680408
O O6 0.817462 0.886465 0.793876
O O7 0.024154 0.004142 0.653095
O O8 0.075440 0.033769 0.183622
O O9 0.989063 0.905342 0.995325
O O10 0.790503 0.505632 0.023629
O O11 0.741936 0.746275 0.972693
O O12 0.694346 0.651914 0.183234
O O13 0.614765 0.972668 0.944220
O O14 0.985837 0.221101 0.311323
#
# Coordination Sequence:
#
# PCOD8157505 Si02
#       7
#     4   4   4   4   4   4   4
#     4  12  26  44  76 107 158 187 267 307 385 456
#     4  11  26  45  73 111 152 200 252 315 392 445
#     4  11  26  47  77 109 149 202 252 321 385 454
#     4  11  24  49  77 105 154 199 257 314 389 463
#     4  11  26  46  73 116 148 204 258 316 379 458
#     4  10  24  47  77 105 157 201 255 311 390 455
#     4  10  24  48  69 111 144 197 247 320 370 457
#
# _framework density 28.217179999999999
#
# number of rings (size 3 to 8) (size 9 to 14) (size 15 to 20)
#    0.000    1.143    1.429    2.571    8.000    3.429 
#    7.714    0.000    0.000    0.000    0.000    0.000 
#    0.000    0.000    0.000    0.000    0.000    0.000 
#
# Total GULP energy -347081.678093 kJ/mol
# GULP energy per Si atom -12395.774218 kJ/mol
# Density = 2.815296 g / cm^3
# Si number density = 28.217180 Si / 1000 Ang^3
#
#
#
# Elastic Constant Matrix: (Units=GPa)
#
#
# Indices 1 2 3 4 5 6 
#
# 1 32.0050 22.9276 36.0104 0.0000 0.0000 0.0000
# 2 22.9276 65.8843 26.0218 0.0000 0.0000 0.0000
# 3 36.0104 26.0218 132.3844 0.0000 0.0000 0.0000
# 4 0.0000 0.0000 0.0000 53.9149 0.0000 0.0000
# 5 0.0000 0.0000 0.0000 0.0000 70.9583 0.0000
# 6 0.0000 0.0000 0.0000 0.0000 0.0000 24.4657
#
#
#
# Elastic Compliance Matrix: (Units=1/GPa)
#
#
# Indices 1 2 3 4 5 6 
#
# 1 0.055322 -0.014429 -0.012212 0.000000 0.000000 0.000000
# 2 -0.014429 0.020219 -0.000049 0.000000 0.000000 0.000000
# 3 -0.012212 -0.000049 0.010885 0.000000 0.000000 0.000000
# 4 0.000000 0.000000 0.000000 0.018548 0.000000 0.000000
# 5 0.000000 0.000000 0.000000 0.000000 0.014093 0.000000
# 6 0.000000 0.000000 0.000000 0.000000 0.000000 0.040874
#
#
# Mechanical properties :
#
#
# Convention : Reuss Voigt Hill
#
# Bulk Modulus (GPa) = 30.26121 44.46594 37.36357
# Shear Modulus (GPa) = 22.28796 39.55537 30.92167
#
# Velocity S-wave (km/s) = 2.81351 3.74815 3.31395
# Velocity P-wave (km/s) = 4.61543 5.87573 5.28329
#
# Compressibility (1/GPa) = 0.03304560
#
# Stress axis : x y z
#
# Youngs Moduli (GPa) = 18.07594 49.45893 91.86619
#
# Poissons Ratio (x) = 0.71362 1.12190
# Poissons Ratio (y) = 0.26081 0.00454
# Poissons Ratio (z) = 0.22075 0.00245
#
# Static dielectric constant tensor:
#      x y z
#    x 4.831850 0.000000 0.000000 
#    y 0.000000 4.943950 0.000000 
#    z 0.000000 0.000000 5.608830 
# 
# 
# High freq. dielectric constant tensor:
#      x y z
#    x 2.126020 0.000000 0.000000 
#    y 0.000000 2.129130 0.000000 
#    z 0.000000 0.000000 2.168810 
# 
# From -- ./inp_files/4591.got.cif
#   From: 2010.03.12/outbox.cif.g09.slc.cpg/sg19_3_cif.got.tgz:4591.got - 2010.04.10 18:59:41.
