data_PCOD8157343
_publ_section_title
;
Structure prediction by ZEFSAII (Michael W. Deem and Ramdas Pophale) SiO2 
 PCOD8157343
Probable space group: P 21 21 21
;
_chemical_formula_sum "Si O2"
_cell_formula_units_Z 28
_cell_length_a 10.745125
_cell_length_b 16.598417
_cell_length_c 7.401111
_cell_angle_alpha 90.000000
_cell_angle_beta 90.000000
_cell_angle_gamma 90.000000
_cell_volume 1320.003434
_symmetry_space_group_name_H-M "P 21 21 21"
_symmetry_group_IT_number 19
_symmetry_cell_setting 'orthorhombic'
loop_
_space_group_symop_operation_xyz
x,y,z
1/2-x,-y,1/2+z
1/2+x,1/2-y,-z
-x,1/2+y,1/2-z
loop_
_atom_site_type_symbol
_atom_site_label
_atom_site_fract_x
_atom_site_fract_y
_atom_site_fract_z
Si Si1 0.714341 0.091909 0.827185
Si Si2 0.380179 0.438375 0.847641
Si Si3 0.315248 0.743346 0.917055
Si Si4 0.915794 0.225396 0.337418
Si Si5 0.366994 0.028163 0.629940
Si Si6 0.200413 0.890738 0.762510
Si Si7 0.548821 0.640387 0.566927
O O1 0.723852 0.158753 0.671292
O O2 0.589914 0.106898 0.939721
O O3 0.715771 0.003071 0.737748
O O4 0.826602 0.099784 0.968456
O O5 0.409323 0.369901 0.699406
O O6 0.504533 0.483501 0.903158
O O7 0.464174 0.749524 0.966175
O O8 0.298322 0.817808 0.779024
O O9 0.217431 0.754105 0.081553
O O10 0.940269 0.269775 0.147035
O O11 0.257058 0.964915 0.652679
O O12 0.346527 0.085040 0.459159
O O13 0.367326 0.082397 0.808829
O O14 0.087816 0.858304 0.641288
#
# Coordination Sequence:
#
# PCOD8157343 Si02
#       7
#     4   4   4   4   4   4   4
#     4  10  24  42  64  95 135 174 224 281 335 414
#     4  11  23  43  64  96 134 177 224 284 340 413
#     4  11  24  44  68 100 136 179 231 279 340 411
#     4  11  23  44  68  98 140 177 228 290 335 409
#     4  11  23  40  66  97 131 168 226 281 333 403
#     4  12  22  42  69  96 131 178 219 282 343 399
#     4  10  23  41  65  96 133 171 222 281 336 399
#
# _framework density 21.212067000000001
#
# number of rings (size 3 to 8) (size 9 to 14) (size 15 to 20)
#    0.000    1.143    4.286    1.714    2.000    1.143 
#    5.143    0.000    0.000    0.000    0.000    0.000 
#    0.000    0.000    0.000    0.000    0.000    0.000 
#
# Total GULP energy -347166.755908 kJ/mol
# GULP energy per Si atom -12398.812711 kJ/mol
# Density = 2.116379 g / cm^3
# Si number density = 21.212067 Si / 1000 Ang^3
#
#
#
# Elastic Constant Matrix: (Units=GPa)
#
#
# Indices 1 2 3 4 5 6 
#
# 1 72.4730 19.2902 20.3562 0.0000 0.0000 0.0000
# 2 19.2902 119.5493 22.8879 0.0000 0.0000 0.0000
# 3 20.3562 22.8879 59.6681 0.0000 0.0000 0.0000
# 4 0.0000 0.0000 0.0000 29.5475 0.0000 0.0000
# 5 0.0000 0.0000 0.0000 0.0000 37.6534 0.0000
# 6 0.0000 0.0000 0.0000 0.0000 0.0000 32.3248
#
#
#
# Elastic Compliance Matrix: (Units=1/GPa)
#
#
# Indices 1 2 3 4 5 6 
#
# 1 0.015543 -0.001611 -0.004685 0.000000 0.000000 0.000000
# 2 -0.001611 0.009195 -0.002977 0.000000 0.000000 0.000000
# 3 -0.004685 -0.002977 0.019500 0.000000 0.000000 0.000000
# 4 0.000000 0.000000 0.000000 0.033844 0.000000 0.000000
# 5 0.000000 0.000000 0.000000 0.000000 0.026558 0.000000
# 6 0.000000 0.000000 0.000000 0.000000 0.000000 0.030936
#
#
# Mechanical properties :
#
#
# Convention : Reuss Voigt Hill
#
# Bulk Modulus (GPa) = 38.92379 41.86208 40.39293
# Shear Modulus (GPa) = 30.73429 32.51556 31.62493
#
# Velocity S-wave (km/s) = 3.81058 3.91945 3.86540
# Velocity P-wave (km/s) = 6.14413 6.34513 6.24544
#
# Compressibility (1/GPa) = 0.02569123
#
# Stress axis : x y z
#
# Youngs Moduli (GPa) = 64.33820 108.75798 51.28303
#
# Poissons Ratio (x) = 0.17522 0.24024
# Poissons Ratio (y) = 0.10365 0.15269
# Poissons Ratio (z) = 0.30140 0.32381
#
# Static dielectric constant tensor:
#      x y z
#    x 3.808650 0.000000 0.000000 
#    y 0.000000 4.118290 0.000000 
#    z 0.000000 0.000000 3.515830 
# 
# 
# High freq. dielectric constant tensor:
#      x y z
#    x 1.830720 0.000000 0.000000 
#    y 0.000000 1.853810 0.000000 
#    z 0.000000 0.000000 1.811650 
# 
# From -- ./inp_files/1058.got.cif
#   From: 2010.03.12/outbox.cif.g09.slc.cpg/sg19_1_cif.got.tgz:1058.got - 2010.04.10 18:59:41.
