data_PCOD8157219
_publ_section_title
;
Structure prediction by ZEFSAII (Michael W. Deem and Ramdas Pophale) SiO2 
 PCOD8157219
Probable space group: P 21 21 21
;
_chemical_formula_sum "Si O2"
_cell_formula_units_Z 32
_cell_length_a 14.343047
_cell_length_b 5.567834
_cell_length_c 16.821568
_cell_angle_alpha 90.000000
_cell_angle_beta 90.000000
_cell_angle_gamma 90.000000
_cell_volume 1343.365454
_symmetry_space_group_name_H-M "P 21 21 21"
_symmetry_group_IT_number 19
_symmetry_cell_setting 'orthorhombic'
loop_
_space_group_symop_operation_xyz
x,y,z
1/2-x,-y,1/2+z
1/2+x,1/2-y,-z
-x,1/2+y,1/2-z
loop_
_atom_site_type_symbol
_atom_site_label
_atom_site_fract_x
_atom_site_fract_y
_atom_site_fract_z
Si Si1 0.608784 0.419277 0.677124
Si Si2 0.816739 0.198308 0.958712
Si Si3 0.434023 0.118630 0.658601
Si Si4 0.358098 0.391000 0.521433
Si Si5 0.008492 0.760465 0.450543
Si Si6 0.889961 0.241562 0.789973
Si Si7 0.605425 0.258559 0.199181
Si Si8 0.279260 0.012556 0.420108
O O1 0.540241 0.190071 0.682914
O O2 0.621873 0.532506 0.764438
O O3 0.565816 0.616103 0.619529
O O4 0.711170 0.352475 0.643549
O O5 0.821202 0.245869 0.865122
O O6 0.746401 0.987624 0.979629
O O7 0.781878 0.437697 0.003296
O O8 0.919106 0.125448 0.991502
O O9 0.377723 0.328323 0.614440
O O10 0.436615 0.919343 0.590274
O O11 0.442989 0.565802 0.496672
O O12 0.360153 0.187232 0.453305
O O13 0.869775 0.491198 0.744714
O O14 0.996260 0.239010 0.820086
O O15 0.867970 0.994167 0.741464
O O16 0.668490 0.281932 0.119359
#
# Coordination Sequence:
#
# PCOD8157219 Si02
#       8
#     4   4   4   4   4   4   4   4
#     4  10  22  41  68  99 142 181 237 288 362 440
#     4  11  26  44  71 105 143 188 243 303 370 447
#     4  11  21  42  68 102 139 187 232 293 365 445
#     4  11  26  41  67 107 139 187 240 299 376 440
#     4  10  23  44  68 100 143 188 233 298 361 439
#     4  10  25  47  75 101 143 190 249 303 372 433
#     4  10  25  49  73 106 138 196 245 309 366 444
#     4  11  26  44  68 104 143 185 245 301 370 438
#
# _framework density 23.820772000000002
#
# number of rings (size 3 to 8) (size 9 to 14) (size 15 to 20)
#    0.000    1.500    1.250    1.500    8.750    3.000 
#    0.000    0.000    0.000    0.000    0.000    0.000 
#    0.000    0.000    0.000    0.000    0.000    0.000 
#
# Total GULP energy -396694.379760 kJ/mol
# GULP energy per Si atom -12396.699368 kJ/mol
# Density = 2.376655 g / cm^3
# Si number density = 23.820772 Si / 1000 Ang^3
#
#
#
# Elastic Constant Matrix: (Units=GPa)
#
#
# Indices 1 2 3 4 5 6 
#
# 1 104.8223 30.2249 57.9070 0.0000 0.0000 0.0000
# 2 30.2249 101.1825 35.2684 0.0000 0.0000 0.0000
# 3 57.9070 35.2684 91.0060 0.0000 0.0000 0.0000
# 4 0.0000 0.0000 0.0000 31.7681 0.0000 0.0000
# 5 0.0000 0.0000 0.0000 0.0000 42.3034 0.0000
# 6 0.0000 0.0000 0.0000 0.0000 0.0000 36.6706
#
#
#
# Elastic Compliance Matrix: (Units=1/GPa)
#
#
# Indices 1 2 3 4 5 6 
#
# 1 0.014862 -0.001322 -0.008945 0.000000 0.000000 0.000000
# 2 -0.001322 0.011544 -0.003633 0.000000 0.000000 0.000000
# 3 -0.008945 -0.003633 0.018088 0.000000 0.000000 0.000000
# 4 0.000000 0.000000 0.000000 0.031478 0.000000 0.000000
# 5 0.000000 0.000000 0.000000 0.000000 0.023639 0.000000
# 6 0.000000 0.000000 0.000000 0.000000 0.000000 0.027270
#
#
# Mechanical properties :
#
#
# Convention : Reuss Voigt Hill
#
# Bulk Modulus (GPa) = 59.89567 60.42348 60.15958
# Shear Modulus (GPa) = 31.20228 33.72245 32.46237
#
# Velocity S-wave (km/s) = 3.62315 3.76663 3.69558
# Velocity P-wave (km/s) = 6.53466 6.65865 6.59695
#
# Compressibility (1/GPa) = 0.01669570
#
# Stress axis : x y z
#
# Youngs Moduli (GPa) = 67.28384 86.62331 55.28655
#
# Poissons Ratio (x) = 0.11451 0.49452
# Poissons Ratio (y) = 0.08894 0.20084
# Poissons Ratio (z) = 0.60183 0.31468
#
# Static dielectric constant tensor:
#      x y z
#    x 4.361440 0.000000 0.000000 
#    y 0.000000 4.154910 0.000000 
#    z 0.000000 0.000000 4.271840 
# 
# 
# High freq. dielectric constant tensor:
#      x y z
#    x 1.948480 0.000000 0.000000 
#    y 0.000000 1.932370 0.000000 
#    z 0.000000 0.000000 1.950340 
# 
# From -- ./inp_files/6492.got.cif
#   From: 2010.03.12/outbox.cif.g09.slc.cpg/sg19_4_cif.got.tgz:6492.got - 2010.04.10 18:59:41.
