data_PCOD8157762
_publ_section_title
;
Structure prediction by ZEFSAII (Michael W. Deem and Ramdas Pophale) SiO2 
 PCOD8157762
Probable space group: P 21 21 21
;
_chemical_formula_sum "Si O2"
_cell_formula_units_Z 28
_cell_length_a 11.140649
_cell_length_b 11.526081
_cell_length_c 9.139797
_cell_angle_alpha 90.000000
_cell_angle_beta 90.000000
_cell_angle_gamma 90.000000
_cell_volume 1173.623261
_symmetry_space_group_name_H-M "P 21 21 21"
_symmetry_group_IT_number 19
_symmetry_cell_setting 'orthorhombic'
loop_
_space_group_symop_operation_xyz
x,y,z
1/2-x,-y,1/2+z
1/2+x,1/2-y,-z
-x,1/2+y,1/2-z
loop_
_atom_site_type_symbol
_atom_site_label
_atom_site_fract_x
_atom_site_fract_y
_atom_site_fract_z
Si Si1 0.950139 0.345188 0.403407
Si Si2 0.856428 0.056225 0.706536
Si Si3 0.616395 0.944978 0.646263
Si Si4 0.010515 0.100631 0.428679
Si Si5 0.784263 0.421565 0.151690
Si Si6 0.067477 0.920760 0.794701
Si Si7 0.847518 0.248215 0.929335
O O1 0.847534 0.347351 0.280024
O O2 0.891752 0.343180 0.566031
O O3 0.022679 0.462449 0.408137
O O4 0.039091 0.234979 0.388165
O O5 0.797110 0.160831 0.803640
O O6 0.957740 0.095470 0.591292
O O7 0.753084 0.986154 0.622673
O O8 0.932842 0.972344 0.814200
O O9 0.597521 0.932300 0.819517
O O10 0.587446 0.828399 0.554106
O O11 0.128034 0.022950 0.407707
O O12 0.664234 0.475022 0.219370
O O13 0.753105 0.331587 0.017811
O O14 0.063383 0.838730 0.650604
#
# Coordination Sequence:
#
# PCOD8157762 Si02
#       7
#     4   4   4   4   4   4   4
#     4  11  24  46  73 101 144 186 235 305 363 432
#     4  12  26  47  72 108 144 186 245 297 362 435
#     4  11  26  48  71 106 144 190 244 295 372 438
#     4  11  24  46  73 101 144 186 235 305 363 432
#     4  11  26  48  71 106 144 190 244 295 372 438
#     4  12  26  47  72 108 144 186 245 297 362 435
#     4  12  24  48  74 106 142 194 238 304 362 426
#
# _framework density 23.857741999999998
#
# number of rings (size 3 to 8) (size 9 to 14) (size 15 to 20)
#    0.000    0.571    5.714    1.714    2.000    1.143 
#   10.286    0.000    0.000    0.000    0.000    0.000 
#    0.000    0.000    0.000    0.000    0.000    0.000 
#
# Total GULP energy -346937.402559 kJ/mol
# GULP energy per Si atom -12390.621520 kJ/mol
# Density = 2.380344 g / cm^3
# Si number density = 23.857742 Si / 1000 Ang^3
#
#
#
# Elastic Constant Matrix: (Units=GPa)
#
#
# Indices 1 2 3 4 5 6 
#
# 1 71.5842 19.6044 14.7111 0.0000 0.0000 0.0000
# 2 19.6044 120.9877 30.9363 0.0000 0.0000 0.0000
# 3 14.7111 30.9363 110.5294 0.0000 0.0000 0.0000
# 4 0.0000 0.0000 0.0000 57.3182 0.0000 0.0000
# 5 0.0000 0.0000 0.0000 0.0000 19.3011 0.0000
# 6 0.0000 0.0000 0.0000 0.0000 0.0000 13.8977
#
#
#
# Elastic Compliance Matrix: (Units=1/GPa)
#
#
# Indices 1 2 3 4 5 6 
#
# 1 0.014817 -0.002043 -0.001400 0.000000 0.000000 0.000000
# 2 -0.002043 0.009184 -0.002299 0.000000 0.000000 0.000000
# 3 -0.001400 -0.002299 0.009877 0.000000 0.000000 0.000000
# 4 0.000000 0.000000 0.000000 0.017446 0.000000 0.000000
# 5 0.000000 0.000000 0.000000 0.000000 0.051811 0.000000
# 6 0.000000 0.000000 0.000000 0.000000 0.000000 0.071954
#
#
# Mechanical properties :
#
#
# Convention : Reuss Voigt Hill
#
# Bulk Modulus (GPa) = 44.65390 48.17832 46.41611
# Shear Modulus (GPa) = 25.76823 33.96005 29.86414
#
# Velocity S-wave (km/s) = 3.29002 3.77694 3.54186
# Velocity P-wave (km/s) = 5.76105 6.26564 6.01863
#
# Compressibility (1/GPa) = 0.02239446
#
# Stress axis : x y z
#
# Youngs Moduli (GPa) = 67.49101 108.88417 101.24409
#
# Poissons Ratio (x) = 0.22243 0.14177
# Poissons Ratio (y) = 0.13787 0.23273
# Poissons Ratio (z) = 0.09451 0.25029
#
# Static dielectric constant tensor:
#      x y z
#    x 3.695000 0.000000 0.000000 
#    y 0.000000 4.534900 0.000000 
#    z 0.000000 0.000000 4.700190 
# 
# 
# High freq. dielectric constant tensor:
#      x y z
#    x 1.892870 0.000000 0.000000 
#    y 0.000000 1.962770 0.000000 
#    z 0.000000 0.000000 1.976700 
# 
# From -- ./inp_files/3453.got.cif
#   From: 2010.03.12/outbox.cif.g09.slc.cpg/sg19_2_cif.got.tgz:3453.got - 2010.04.10 18:59:41.
