data_PCOD8157883
_publ_section_title
;
Structure prediction by ZEFSAII (Michael W. Deem and Ramdas Pophale) SiO2 
 PCOD8157883
Probable space group: P 21 21 21
;
_chemical_formula_sum "Si O2"
_cell_formula_units_Z 20
_cell_length_a 7.367892
_cell_length_b 12.433152
_cell_length_c 9.200497
_cell_angle_alpha 90.000000
_cell_angle_beta 90.000000
_cell_angle_gamma 90.000000
_cell_volume 842.821843
_symmetry_space_group_name_H-M "P 21 21 21"
_symmetry_group_IT_number 19
_symmetry_cell_setting 'orthorhombic'
loop_
_space_group_symop_operation_xyz
x,y,z
1/2-x,-y,1/2+z
1/2+x,1/2-y,-z
-x,1/2+y,1/2-z
loop_
_atom_site_type_symbol
_atom_site_label
_atom_site_fract_x
_atom_site_fract_y
_atom_site_fract_z
Si Si1 0.826584 0.407171 0.039196
Si Si2 0.519548 0.371873 0.466009
Si Si3 0.798296 0.828355 0.830684
Si Si4 0.798388 0.806816 0.488333
Si Si5 0.531709 0.946638 0.325968
O O1 0.740233 0.315320 0.930774
O O2 0.685605 0.424996 0.171190
O O3 0.850118 0.523240 0.967009
O O4 0.022781 0.357966 0.085929
O O5 0.635557 0.264938 0.439392
O O6 0.402008 0.362321 0.612956
O O7 0.391616 0.397781 0.325941
O O8 0.802317 0.793086 0.663380
O O9 0.934864 0.927612 0.844355
O O10 0.628969 0.883378 0.455909
#
# Coordination Sequence:
#
# PCOD8157883 Si02
#       5
#     4   4   4   4   4
#     4  12  24  46  74 107 143 195 248 300 364 444
#     4  12  27  47  75 112 149 194 249 311 369 436
#     4  12  25  51  70 111 154 188 250 310 368 445
#     4  12  25  48  75 104 147 198 245 302 375 442
#     4  12  25  48  76 106 149 193 250 301 376 445
#
# _framework density 23.729808999999999
#
# number of rings (size 3 to 8) (size 9 to 14) (size 15 to 20)
#    0.000    0.000    8.000    1.200    0.000    3.200 
#   10.800    0.000    0.000    0.000    0.000    0.000 
#    0.000    0.000    0.000    0.000    0.000    0.000 
#
# Total GULP energy -247826.636165 kJ/mol
# GULP energy per Si atom -12391.331808 kJ/mol
# Density = 2.367580 g / cm^3
# Si number density = 23.729809 Si / 1000 Ang^3
#
#
#
# Elastic Constant Matrix: (Units=GPa)
#
#
# Indices 1 2 3 4 5 6 
#
# 1 131.4531 47.2982 40.7153 0.0000 0.0000 0.0000
# 2 47.2982 189.6653 16.0514 0.0000 0.0000 0.0000
# 3 40.7153 16.0514 59.6302 0.0000 0.0000 0.0000
# 4 0.0000 0.0000 0.0000 29.5393 0.0000 0.0000
# 5 0.0000 0.0000 0.0000 0.0000 24.3796 0.0000
# 6 0.0000 0.0000 0.0000 0.0000 0.0000 50.0019
#
#
#
# Elastic Compliance Matrix: (Units=1/GPa)
#
#
# Indices 1 2 3 4 5 6 
#
# 1 0.010360 -0.002031 -0.006527 0.000000 0.000000 0.000000
# 2 -0.002031 0.005794 -0.000173 0.000000 0.000000 0.000000
# 3 -0.006527 -0.000173 0.021273 0.000000 0.000000 0.000000
# 4 0.000000 0.000000 0.000000 0.033853 0.000000 0.000000
# 5 0.000000 0.000000 0.000000 0.000000 0.041018 0.000000
# 6 0.000000 0.000000 0.000000 0.000000 0.000000 0.019999
#
#
# Mechanical properties :
#
#
# Convention : Reuss Voigt Hill
#
# Bulk Modulus (GPa) = 50.08762 65.43091 57.75927
# Shear Modulus (GPa) = 31.96670 39.22974 35.59822
#
# Velocity S-wave (km/s) = 3.67428 4.07035 3.87738
# Velocity P-wave (km/s) = 6.25730 7.05149 6.66623
#
# Compressibility (1/GPa) = 0.01996501
#
# Stress axis : x y z
#
# Youngs Moduli (GPa) = 96.52841 172.60519 47.00803
#
# Poissons Ratio (x) = 0.35058 0.30681
# Poissons Ratio (y) = 0.19606 0.00812
# Poissons Ratio (z) = 0.63002 0.02981
#
# Static dielectric constant tensor:
#      x y z
#    x 4.256690 0.000000 0.000000 
#    y 0.000000 4.755950 0.000000 
#    z 0.000000 0.000000 4.081410 
# 
# 
# High freq. dielectric constant tensor:
#      x y z
#    x 1.933780 0.000000 0.000000 
#    y 0.000000 1.981310 0.000000 
#    z 0.000000 0.000000 1.906940 
# 
# From -- ./inp_files/2650.got.cif
#   From: 2010.03.12/outbox.cif.g09.slc.cpg/sg19_2_cif.got.tgz:2650.got - 2010.04.10 18:59:41.
