data_PCOD8157518
_publ_section_title
;
Structure prediction by ZEFSAII (Michael W. Deem and Ramdas Pophale) SiO2 
 PCOD8157518
Probable space group: P 21 21 21
;
_chemical_formula_sum "Si O2"
_cell_formula_units_Z 32
_cell_length_a 21.503504
_cell_length_b 11.382855
_cell_length_c 5.126238
_cell_angle_alpha 90.000000
_cell_angle_beta 90.000000
_cell_angle_gamma 90.000000
_cell_volume 1254.755775
_symmetry_space_group_name_H-M "P 21 21 21"
_symmetry_group_IT_number 19
_symmetry_cell_setting 'orthorhombic'
loop_
_space_group_symop_operation_xyz
x,y,z
1/2-x,-y,1/2+z
1/2+x,1/2-y,-z
-x,1/2+y,1/2-z
loop_
_atom_site_type_symbol
_atom_site_label
_atom_site_fract_x
_atom_site_fract_y
_atom_site_fract_z
Si Si1 0.116551 0.431905 0.586621
Si Si2 0.946526 0.826728 0.418608
Si Si3 0.246587 0.312103 0.623553
Si Si4 0.814084 0.587406 0.037983
Si Si5 0.426135 0.154224 0.657223
Si Si6 0.606393 0.416583 0.034910
Si Si7 0.367745 0.336530 0.363451
Si Si8 0.307547 0.164271 0.010594
O O1 0.095271 0.394936 0.298094
O O2 0.188377 0.398308 0.627226
O O3 0.071210 0.375282 0.798418
O O4 0.112851 0.572514 0.637759
O O5 0.937325 0.687485 0.426893
O O6 0.018404 0.851777 0.365094
O O7 0.233922 0.196302 0.443452
O O8 0.309116 0.384192 0.538146
O O9 0.256133 0.258478 0.913325
O O10 0.868673 0.614879 0.825402
O O11 0.779871 0.466769 0.939245
O O12 0.837890 0.575661 0.330025
O O13 0.427803 0.284894 0.518941
O O14 0.432023 0.039962 0.465513
O O15 0.359895 0.144970 0.792610
O O16 0.341639 0.213236 0.260562
#
# Coordination Sequence:
#
# PCOD8157518 Si02
#       8
#     4   4   4   4   4   4   4   4
#     4  12  30  48  72 108 148 194 256 291 375 435
#     4  12  27  49  75 108 141 200 240 313 356 449
#     4  11  26  44  71 104 142 198 241 306 361 441
#     4  11  23  44  69 105 141 174 236 294 366 424
#     4  10  26  47  73 109 143 192 247 299 384 425
#     4  11  22  46  71 102 144 176 235 305 349 432
#     4  11  27  47  72 105 151 198 245 304 363 451
#     4  10  25  43  71 105 144 190 238 304 368 439
#
# _framework density 25.502969
#
# number of rings (size 3 to 8) (size 9 to 14) (size 15 to 20)
#    0.000    1.000    3.750    0.000   14.000    0.000 
#    0.000    0.000    0.000    0.000    0.000    0.000 
#    0.000    0.000    0.000    0.000    0.000    0.000 
#
# Total GULP energy -396579.556218 kJ/mol
# GULP energy per Si atom -12393.111132 kJ/mol
# Density = 2.544492 g / cm^3
# Si number density = 25.502969 Si / 1000 Ang^3
#
#
#
# Elastic Constant Matrix: (Units=GPa)
#
#
# Indices 1 2 3 4 5 6 
#
# 1 45.5652 16.8955 -8.1316 0.0000 0.0000 0.0000
# 2 16.8955 114.7691 -3.3951 0.0000 0.0000 0.0000
# 3 -8.1316 -3.3951 55.8282 0.0000 0.0000 0.0000
# 4 0.0000 0.0000 0.0000 38.3231 0.0000 0.0000
# 5 0.0000 0.0000 0.0000 0.0000 16.1101 0.0000
# 6 0.0000 0.0000 0.0000 0.0000 0.0000 28.3483
#
#
#
# Elastic Compliance Matrix: (Units=1/GPa)
#
#
# Indices 1 2 3 4 5 6 
#
# 1 0.023791 -0.003406 0.003258 0.000000 0.000000 0.000000
# 2 -0.003406 0.009216 0.000064 0.000000 0.000000 0.000000
# 3 0.003258 0.000064 0.018391 0.000000 0.000000 0.000000
# 4 0.000000 0.000000 0.000000 0.026094 0.000000 0.000000
# 5 0.000000 0.000000 0.000000 0.000000 0.062073 0.000000
# 6 0.000000 0.000000 0.000000 0.000000 0.000000 0.035276
#
#
# Mechanical properties :
#
#
# Convention : Reuss Voigt Hill
#
# Bulk Modulus (GPa) = 19.51943 25.21115 22.36529
# Shear Modulus (GPa) = 26.03026 30.60921 28.31973
#
# Velocity S-wave (km/s) = 3.19827 3.46818 3.33595
# Velocity P-wave (km/s) = 4.61616 5.09360 4.86074
#
# Compressibility (1/GPa) = 0.05123101
#
# Stress axis : x y z
#
# Youngs Moduli (GPa) = 42.03284 108.50166 54.37572
#
# Poissons Ratio (x) = 0.36955 -0.17716
# Poissons Ratio (y) = 0.14316 -0.00350
# Poissons Ratio (z) = -0.13695 -0.00699
#
# Static dielectric constant tensor:
#      x y z
#    x 4.413300 0.000000 0.000000 
#    y 0.000000 4.922740 0.000000 
#    z 0.000000 0.000000 4.572740 
# 
# 
# High freq. dielectric constant tensor:
#      x y z
#    x 2.004100 0.000000 0.000000 
#    y 0.000000 2.025870 0.000000 
#    z 0.000000 0.000000 2.023190 
# 
# From -- ./inp_files/2191.got.cif
#   From: 2010.03.12/outbox.cif.g09.slc.cpg/sg19_2_cif.got.tgz:2191.got - 2010.04.10 18:59:41.
