data_PCOD8157428
_publ_section_title
;
Structure prediction by ZEFSAII (Michael W. Deem and Ramdas Pophale) SiO2 
 PCOD8157428
Probable space group: P 21 21 21
;
_chemical_formula_sum "Si O2"
_cell_formula_units_Z 28
_cell_length_a 19.336232
_cell_length_b 7.783473
_cell_length_c 7.927820
_cell_angle_alpha 90.000000
_cell_angle_beta 90.000000
_cell_angle_gamma 90.000000
_cell_volume 1193.161008
_symmetry_space_group_name_H-M "P 21 21 21"
_symmetry_group_IT_number 19
_symmetry_cell_setting 'orthorhombic'
loop_
_space_group_symop_operation_xyz
x,y,z
1/2-x,-y,1/2+z
1/2+x,1/2-y,-z
-x,1/2+y,1/2-z
loop_
_atom_site_type_symbol
_atom_site_label
_atom_site_fract_x
_atom_site_fract_y
_atom_site_fract_z
Si Si1 0.319324 0.703873 0.376626
Si Si2 0.620585 0.671342 0.834614
Si Si3 0.704755 0.816120 0.132350
Si Si4 0.935572 0.673487 0.409616
Si Si5 0.973353 0.872648 0.109358
Si Si6 0.661063 0.289452 0.487482
Si Si7 0.182889 0.819487 0.510339
O O1 0.308017 0.508015 0.431667
O O2 0.396825 0.770090 0.419653
O O3 0.303408 0.717069 0.180389
O O4 0.264750 0.822642 0.475892
O O5 0.612316 0.462953 0.803024
O O6 0.544882 0.739937 0.895434
O O7 0.645340 0.759927 0.658063
O O8 0.672424 0.693777 0.989906
O O9 0.669778 0.785857 0.316454
O O10 0.787232 0.771063 0.138134
O O11 0.946235 0.847286 0.301951
O O12 0.008466 0.570848 0.443247
O O13 0.914882 0.795681 0.989914
O O14 0.653250 0.491747 0.464823
#
# Coordination Sequence:
#
# PCOD8157428 Si02
#       7
#     4   4   4   4   4   4   4
#     4  12  27  45  71 111 148 193 248 316 364 448
#     4  10  24  48  71 108 144 194 246 304 372 440
#     4  12  27  45  76 110 151 190 252 310 370 444
#     4  10  23  46  69 103 141 199 241 298 369 442
#     4  10  24  44  70 104 146 197 240 300 369 443
#     4  12  23  48  72 108 147 194 250 310 374 438
#     4  12  24  46  79 106 145 193 245 310 380 431
#
# _framework density 23.467074
#
# number of rings (size 3 to 8) (size 9 to 14) (size 15 to 20)
#    0.857    0.000    2.857    4.286    2.000    2.286 
#    5.143    0.000    0.000    0.000    0.000    0.000 
#    0.000    0.000    0.000    0.000    0.000    0.000 
#
# Total GULP energy -346928.385840 kJ/mol
# GULP energy per Si atom -12390.299494 kJ/mol
# Density = 2.341366 g / cm^3
# Si number density = 23.467074 Si / 1000 Ang^3
#
#
#
# Elastic Constant Matrix: (Units=GPa)
#
#
# Indices 1 2 3 4 5 6 
#
# 1 114.6376 31.0144 45.3232 0.0000 0.0000 0.0000
# 2 31.0144 68.7659 11.7119 0.0000 0.0000 0.0000
# 3 45.3232 11.7119 114.2423 0.0000 0.0000 0.0000
# 4 0.0000 0.0000 0.0000 23.6972 0.0000 0.0000
# 5 0.0000 0.0000 0.0000 0.0000 40.2122 0.0000
# 6 0.0000 0.0000 0.0000 0.0000 0.0000 33.4588
#
#
#
# Elastic Compliance Matrix: (Units=1/GPa)
#
#
# Indices 1 2 3 4 5 6 
#
# 1 0.011579 -0.004519 -0.004130 0.000000 0.000000 0.000000
# 2 -0.004519 0.016564 0.000095 0.000000 0.000000 0.000000
# 3 -0.004130 0.000095 0.010382 0.000000 0.000000 0.000000
# 4 0.000000 0.000000 0.000000 0.042199 0.000000 0.000000
# 5 0.000000 0.000000 0.000000 0.000000 0.024868 0.000000
# 6 0.000000 0.000000 0.000000 0.000000 0.000000 0.029887
#
#
# Mechanical properties :
#
#
# Convention : Reuss Voigt Hill
#
# Bulk Modulus (GPa) = 46.69406 52.63833 49.66620
# Shear Modulus (GPa) = 31.30344 33.44674 32.37509
#
# Velocity S-wave (km/s) = 3.65626 3.77936 3.71832
# Velocity P-wave (km/s) = 6.14534 6.44392 6.29640
#
# Compressibility (1/GPa) = 0.02141600
#
# Stress axis : x y z
#
# Youngs Moduli (GPa) = 86.36619 60.37204 96.31829
#
# Poissons Ratio (x) = 0.27280 0.39783
# Poissons Ratio (y) = 0.39026 -0.00911
# Poissons Ratio (z) = 0.35672 -0.00571
#
# Static dielectric constant tensor:
#      x y z
#    x 4.238530 0.000000 0.000000 
#    y 0.000000 3.903290 0.000000 
#    z 0.000000 0.000000 4.041740 
# 
# 
# High freq. dielectric constant tensor:
#      x y z
#    x 1.930770 0.000000 0.000000 
#    y 0.000000 1.916270 0.000000 
#    z 0.000000 0.000000 1.917780 
# 
# From -- ./inp_files/4187.got.cif
#   From: 2010.03.12/outbox.cif.g09.slc.cpg/sg19_3_cif.got.tgz:4187.got - 2010.04.10 18:59:41.
