data_PCOD8157038
_publ_section_title
;
Structure prediction by ZEFSAII (Michael W. Deem and Ramdas Pophale) SiO2 
 PCOD8157038
Probable space group: P 21 21 21
;
_chemical_formula_sum "Si O2"
_cell_formula_units_Z 24
_cell_length_a 5.154753
_cell_length_b 11.103437
_cell_length_c 16.272574
_cell_angle_alpha 90.000000
_cell_angle_beta 90.000000
_cell_angle_gamma 90.000000
_cell_volume 931.368505
_symmetry_space_group_name_H-M "P 21 21 21"
_symmetry_group_IT_number 19
_symmetry_cell_setting 'orthorhombic'
loop_
_space_group_symop_operation_xyz
x,y,z
1/2-x,-y,1/2+z
1/2+x,1/2-y,-z
-x,1/2+y,1/2-z
loop_
_atom_site_type_symbol
_atom_site_label
_atom_site_fract_x
_atom_site_fract_y
_atom_site_fract_z
Si Si1 0.552412 0.849931 0.276417
Si Si2 0.598218 0.745114 0.443469
Si Si3 0.603814 0.607246 0.979038
Si Si4 0.786585 0.469100 0.832878
Si Si5 0.601069 0.877271 0.944448
Si Si6 0.044374 0.704803 0.234873
O O1 0.620694 0.852618 0.374354
O O2 0.796396 0.794920 0.225717
O O3 0.295480 0.768434 0.271091
O O4 0.483454 0.980051 0.237074
O O5 0.864154 0.734872 0.494120
O O6 0.558624 0.620613 0.393080
O O7 0.660653 0.580170 0.883349
O O8 0.580037 0.749884 0.991977
O O9 0.340451 0.548494 0.015230
O O10 0.836944 0.551765 0.034190
O O11 0.540950 0.402105 0.794700
O O12 0.630165 0.860253 0.848329
#
# Coordination Sequence:
#
# PCOD8157038 Si02
#       6
#     4   4   4   4   4   4
#     4  11  25  46  77 106 145 193 249 301 362 445
#     4  11  26  51  75 108 154 195 247 312 367 446
#     4  10  22  38  68 100 136 180 232 284 366 423
#     4  11  26  47  77 105 145 201 243 300 374 441
#     4  10  21  40  64 100 141 179 225 302 347 421
#     4  11  24  44  71 107 143 184 248 303 358 436
#
# _framework density 25.768530999999999
#
# number of rings (size 3 to 8) (size 9 to 14) (size 15 to 20)
#    0.000    1.333    1.667    3.000    4.667    9.333 
#    0.000    6.667    0.000    0.000    0.000    0.000 
#    0.000    0.000    0.000    0.000    0.000    0.000 
#
# Total GULP energy -297537.031485 kJ/mol
# GULP energy per Si atom -12397.376312 kJ/mol
# Density = 2.570988 g / cm^3
# Si number density = 25.768531 Si / 1000 Ang^3
#
#
#
# Elastic Constant Matrix: (Units=GPa)
#
#
# Indices 1 2 3 4 5 6 
#
# 1 139.3271 -5.7680 33.1543 0.0000 0.0000 0.0000
# 2 -5.7680 37.0218 19.0089 0.0000 0.0000 0.0000
# 3 33.1543 19.0089 136.6256 0.0000 0.0000 0.0000
# 4 0.0000 0.0000 0.0000 41.9751 0.0000 0.0000
# 5 0.0000 0.0000 0.0000 0.0000 48.8126 0.0000
# 6 0.0000 0.0000 0.0000 0.0000 0.0000 19.9208
#
#
#
# Elastic Compliance Matrix: (Units=1/GPa)
#
#
# Indices 1 2 3 4 5 6 
#
# 1 0.007804 0.002356 -0.002222 0.000000 0.000000 0.000000
# 2 0.002356 0.029801 -0.004718 0.000000 0.000000 0.000000
# 3 -0.002222 -0.004718 0.008515 0.000000 0.000000 0.000000
# 4 0.000000 0.000000 0.000000 0.023824 0.000000 0.000000
# 5 0.000000 0.000000 0.000000 0.000000 0.020487 0.000000
# 6 0.000000 0.000000 0.000000 0.000000 0.000000 0.050199
#
#
# Mechanical properties :
#
#
# Convention : Reuss Voigt Hill
#
# Bulk Modulus (GPa) = 27.06151 45.08498 36.07325
# Shear Modulus (GPa) = 30.84290 39.91366 35.37828
#
# Velocity S-wave (km/s) = 3.46341 3.93991 3.70932
# Velocity P-wave (km/s) = 5.14958 6.18315 5.68988
#
# Compressibility (1/GPa) = 0.03695285
#
# Stress axis : x y z
#
# Youngs Moduli (GPa) = 128.14699 33.55620 117.44288
#
# Poissons Ratio (x) = -0.07907 0.26090
# Poissons Ratio (y) = -0.30197 0.55410
# Poissons Ratio (z) = 0.28468 0.15832
#
# Static dielectric constant tensor:
#      x y z
#    x 5.029730 0.000000 0.000000 
#    y 0.000000 4.552010 0.000000 
#    z 0.000000 0.000000 4.733130 
# 
# 
# High freq. dielectric constant tensor:
#      x y z
#    x 2.048520 0.000000 0.000000 
#    y 0.000000 2.011540 0.000000 
#    z 0.000000 0.000000 2.035510 
# 
# From -- ./inp_files/5655.got.cif
#   From: 2010.03.12/outbox.cif.g09.slc.cpg/sg19_3_cif.got.tgz:5655.got - 2010.04.10 18:59:41.
