data_PCOD8157675
_publ_section_title
;
Structure prediction by ZEFSAII (Michael W. Deem and Ramdas Pophale) SiO2 
 PCOD8157675
Probable space group: P 21 21 21
;
_chemical_formula_sum "Si O2"
_cell_formula_units_Z 24
_cell_length_a 12.521139
_cell_length_b 11.395489
_cell_length_c 6.933051
_cell_angle_alpha 90.000000
_cell_angle_beta 90.000000
_cell_angle_gamma 90.000000
_cell_volume 989.238927
_symmetry_space_group_name_H-M "P 21 21 21"
_symmetry_group_IT_number 19
_symmetry_cell_setting 'orthorhombic'
loop_
_space_group_symop_operation_xyz
x,y,z
1/2-x,-y,1/2+z
1/2+x,1/2-y,-z
-x,1/2+y,1/2-z
loop_
_atom_site_type_symbol
_atom_site_label
_atom_site_fract_x
_atom_site_fract_y
_atom_site_fract_z
Si Si1 0.493392 0.080080 0.359200
Si Si2 0.855160 0.560631 0.918193
Si Si3 0.034312 0.703956 0.073456
Si Si4 0.322904 0.155293 0.816877
Si Si5 0.375397 0.509154 0.776727
Si Si6 0.685004 0.131971 0.070908
O O1 0.433592 0.206499 0.397899
O O2 0.591023 0.108637 0.220548
O O3 0.419295 0.976180 0.276472
O O4 0.530484 0.035213 0.571634
O O5 0.733818 0.597092 0.871074
O O6 0.858995 0.442515 0.037699
O O7 0.910669 0.667554 0.036750
O O8 0.067534 0.775064 0.267804
O O9 0.097260 0.581928 0.100008
O O10 0.232495 0.238708 0.905460
O O11 0.274363 0.467031 0.897114
O O12 0.351025 0.626083 0.653295
#
# Coordination Sequence:
#
# PCOD8157675 Si02
#       6
#     4   4   4   4   4   4
#     4  12  25  44  74 106 148 194 248 305 370 448
#     4  12  26  49  73 108 154 196 249 310 377 447
#     4  11  25  45  74 108 145 197 253 295 375 441
#     4  11  27  49  71 111 149 200 246 313 377 445
#     4  11  24  43  71 108 146 190 248 309 364 439
#     4  11  23  44  71 105 144 191 246 306 375 434
#
# _framework density 24.261075000000002
#
# number of rings (size 3 to 8) (size 9 to 14) (size 15 to 20)
#    0.000    0.667    5.000    2.000    0.000    6.667 
#    0.000    0.000    0.000    0.000    0.000    0.000 
#    0.000    0.000    0.000    0.000    0.000    0.000 
#
# Total GULP energy -297328.489643 kJ/mol
# GULP energy per Si atom -12388.687068 kJ/mol
# Density = 2.420586 g / cm^3
# Si number density = 24.261075 Si / 1000 Ang^3
#
#
#
# Elastic Constant Matrix: (Units=GPa)
#
#
# Indices 1 2 3 4 5 6 
#
# 1 54.4537 21.8529 31.7044 0.0000 0.0000 0.0000
# 2 21.8529 110.2623 44.5070 0.0000 0.0000 0.0000
# 3 31.7044 44.5070 101.7887 0.0000 0.0000 0.0000
# 4 0.0000 0.0000 0.0000 47.7206 0.0000 0.0000
# 5 0.0000 0.0000 0.0000 0.0000 48.0920 0.0000
# 6 0.0000 0.0000 0.0000 0.0000 0.0000 43.2670
#
#
#
# Elastic Compliance Matrix: (Units=1/GPa)
#
#
# Indices 1 2 3 4 5 6 
#
# 1 0.022792 -0.002006 -0.006222 0.000000 0.000000 0.000000
# 2 -0.002006 0.011190 -0.004268 0.000000 0.000000 0.000000
# 3 -0.006222 -0.004268 0.013628 0.000000 0.000000 0.000000
# 4 0.000000 0.000000 0.000000 0.020955 0.000000 0.000000
# 5 0.000000 0.000000 0.000000 0.000000 0.020793 0.000000
# 6 0.000000 0.000000 0.000000 0.000000 0.000000 0.023112
#
#
# Mechanical properties :
#
#
# Convention : Reuss Voigt Hill
#
# Bulk Modulus (GPa) = 44.21152 51.40369 47.80761
# Shear Modulus (GPa) = 34.48242 39.04527 36.76385
#
# Velocity S-wave (km/s) = 3.77411 4.01606 3.89696
# Velocity P-wave (km/s) = 6.10366 6.53748 6.32429
#
# Compressibility (1/GPa) = 0.02261854
#
# Stress axis : x y z
#
# Youngs Moduli (GPa) = 43.87556 89.36948 73.37607
#
# Poissons Ratio (x) = 0.17924 0.45655
# Poissons Ratio (y) = 0.08800 0.31316
# Poissons Ratio (z) = 0.27300 0.38142
#
# Static dielectric constant tensor:
#      x y z
#    x 4.461770 0.000000 0.000000 
#    y 0.000000 4.788230 0.000000 
#    z 0.000000 0.000000 4.313320 
# 
# 
# High freq. dielectric constant tensor:
#      x y z
#    x 1.960370 0.000000 0.000000 
#    y 0.000000 1.979320 0.000000 
#    z 0.000000 0.000000 1.956190 
# 
# From -- ./inp_files/1430.got.cif
#   From: 2010.03.12/outbox.cif.g09.slc.cpg/sg19_1_cif.got.tgz:1430.got - 2010.04.10 18:59:41.
