data_PCOD8157434
_publ_section_title
;
Structure prediction by ZEFSAII (Michael W. Deem and Ramdas Pophale) SiO2 
 PCOD8157434
Probable space group: P 21 21 21
;
_chemical_formula_sum "Si O2"
_cell_formula_units_Z 28
_cell_length_a 20.845979
_cell_length_b 8.708441
_cell_length_c 6.981313
_cell_angle_alpha 90.000000
_cell_angle_beta 90.000000
_cell_angle_gamma 90.000000
_cell_volume 1267.359485
_symmetry_space_group_name_H-M "P 21 21 21"
_symmetry_group_IT_number 19
_symmetry_cell_setting 'orthorhombic'
loop_
_space_group_symop_operation_xyz
x,y,z
1/2-x,-y,1/2+z
1/2+x,1/2-y,-z
-x,1/2+y,1/2-z
loop_
_atom_site_type_symbol
_atom_site_label
_atom_site_fract_x
_atom_site_fract_y
_atom_site_fract_z
Si Si1 0.029476 0.729230 0.640947
Si Si2 0.956863 0.004129 0.528938
Si Si3 0.951409 0.591914 0.309405
Si Si4 0.745713 0.685633 0.268449
Si Si5 0.824997 0.404606 0.398491
Si Si6 0.652918 0.811239 0.560748
Si Si7 0.128342 0.376806 0.264839
O O1 0.046533 0.659695 0.849404
O O2 0.095496 0.782335 0.540114
O O3 0.983805 0.875430 0.674057
O O4 0.993599 0.613210 0.498652
O O5 0.886652 0.957159 0.443541
O O6 0.005127 0.009846 0.348475
O O7 0.892141 0.492746 0.386949
O O8 0.928370 0.751592 0.210708
O O9 0.767258 0.516824 0.336321
O O10 0.716214 0.787888 0.436701
O O11 0.805795 0.786802 0.206390
O O12 0.692051 0.660707 0.106606
O O13 0.830722 0.254855 0.267893
O O14 0.631292 0.989816 0.574580
#
# Coordination Sequence:
#
# PCOD8157434 Si02
#       7
#     4   4   4   4   4   4   4
#     4  11  26  40  70 103 134 183 230 277 363 422
#     4  11  24  45  67 102 141 184 231 290 350 424
#     4  10  23  47  70  98 143 176 230 294 352 414
#     4  11  26  47  70 100 134 187 236 287 349 413
#     4  11  24  47  73  97 136 182 240 289 338 423
#     4  12  25  42  68 102 137 180 230 281 350 410
#     4  10  26  46  66 100 143 182 223 298 346 410
#
# _framework density 22.093178999999999
#
# number of rings (size 3 to 8) (size 9 to 14) (size 15 to 20)
#    0.000    1.143    4.286    0.000    8.000    0.000 
#    0.000    0.000    0.000    0.000    0.000    0.000 
#    0.000    0.000    0.000    0.000    0.000    0.000 
#
# Total GULP energy -347069.637863 kJ/mol
# GULP energy per Si atom -12395.344209 kJ/mol
# Density = 2.204289 g / cm^3
# Si number density = 22.093179 Si / 1000 Ang^3
#
#
#
# Elastic Constant Matrix: (Units=GPa)
#
#
# Indices 1 2 3 4 5 6 
#
# 1 67.6051 23.3297 20.9451 0.0000 0.0000 0.0000
# 2 23.3297 86.6157 12.9481 0.0000 0.0000 0.0000
# 3 20.9451 12.9481 46.2970 0.0000 0.0000 0.0000
# 4 0.0000 0.0000 0.0000 40.6961 0.0000 0.0000
# 5 0.0000 0.0000 0.0000 0.0000 35.9480 0.0000
# 6 0.0000 0.0000 0.0000 0.0000 0.0000 32.2793
#
#
#
# Elastic Compliance Matrix: (Units=1/GPa)
#
#
# Indices 1 2 3 4 5 6 
#
# 1 0.018365 -0.003866 -0.007227 0.000000 0.000000 0.000000
# 2 -0.003866 0.012863 -0.001848 0.000000 0.000000 0.000000
# 3 -0.007227 -0.001848 0.025386 0.000000 0.000000 0.000000
# 4 0.000000 0.000000 0.000000 0.024572 0.000000 0.000000
# 5 0.000000 0.000000 0.000000 0.000000 0.027818 0.000000
# 6 0.000000 0.000000 0.000000 0.000000 0.000000 0.030980
#
#
# Mechanical properties :
#
#
# Convention : Reuss Voigt Hill
#
# Bulk Modulus (GPa) = 32.54071 34.99595 33.76833
# Shear Modulus (GPa) = 28.39115 31.33767 29.86441
#
# Velocity S-wave (km/s) = 3.58867 3.77029 3.68060
# Velocity P-wave (km/s) = 5.65086 5.90153 5.77755
#
# Compressibility (1/GPa) = 0.03073074
#
# Stress axis : x y z
#
# Youngs Moduli (GPa) = 54.45124 77.74296 39.39140
#
# Poissons Ratio (x) = 0.30057 0.28469
# Poissons Ratio (y) = 0.21052 0.07281
# Poissons Ratio (z) = 0.39353 0.14370
#
# Static dielectric constant tensor:
#      x y z
#    x 4.081090 0.000000 0.000000 
#    y 0.000000 4.056420 0.000000 
#    z 0.000000 0.000000 3.732160 
# 
# 
# High freq. dielectric constant tensor:
#      x y z
#    x 1.876680 0.000000 0.000000 
#    y 0.000000 1.877680 0.000000 
#    z 0.000000 0.000000 1.855300 
# 
# From -- ./inp_files/2121.got.cif
#   From: 2010.03.12/outbox.cif.g09.slc.cpg/sg19_2_cif.got.tgz:2121.got - 2010.04.10 18:59:41.
