data_PCOD8157941
_publ_section_title
;
Structure prediction by ZEFSAII (Michael W. Deem and Ramdas Pophale) SiO2 
 PCOD8157941
Probable space group: P 21 21 21
;
_chemical_formula_sum "Si O2"
_cell_formula_units_Z 16
_cell_length_a 8.615901
_cell_length_b 7.257738
_cell_length_c 8.491523
_cell_angle_alpha 90.000000
_cell_angle_beta 90.000000
_cell_angle_gamma 90.000000
_cell_volume 530.991509
_symmetry_space_group_name_H-M "P 21 21 21"
_symmetry_group_IT_number 19
_symmetry_cell_setting 'orthorhombic'
loop_
_space_group_symop_operation_xyz
x,y,z
1/2-x,-y,1/2+z
1/2+x,1/2-y,-z
-x,1/2+y,1/2-z
loop_
_atom_site_type_symbol
_atom_site_label
_atom_site_fract_x
_atom_site_fract_y
_atom_site_fract_z
Si Si1 0.280735 0.474185 0.692719
Si Si2 0.449249 0.067538 0.179574
Si Si3 0.716741 0.642247 0.009497
Si Si4 0.477201 0.815539 0.591410
O O1 0.294166 0.361240 0.526931
O O2 0.366336 0.668712 0.677927
O O3 0.358496 0.338255 0.821284
O O4 0.102060 0.507467 0.734946
O O5 0.312706 0.109135 0.306010
O O6 0.390335 0.919613 0.047646
O O7 0.487586 0.256088 0.087587
O O8 0.600575 0.516085 0.908082
#
# Coordination Sequence:
#
# PCOD8157941 Si02
#       4
#     4   4   4   4
#     4  12  30  54  91 126 179 240 297 380 455 536
#     4  12  30  56  87 129 179 240 298 374 451 543
#     4  12  30  53  84 129 181 230 304 368 446 551
#     4  12  28  55  86 128 177 234 305 362 458 538
#
# _framework density 30.132307000000001
#
# number of rings (size 3 to 8) (size 9 to 14) (size 15 to 20)
#    0.000    0.000    2.500    4.500   17.500    0.000 
#    0.000    2.500    0.000    0.000    0.000    0.000 
#    0.000    0.000    0.000    0.000    0.000    0.000 
#
# Total GULP energy -198470.013832 kJ/mol
# GULP energy per Si atom -12404.375864 kJ/mol
# Density = 3.006373 g / cm^3
# Si number density = 30.132307 Si / 1000 Ang^3
#
#
#
# Elastic Constant Matrix: (Units=GPa)
#
#
# Indices 1 2 3 4 5 6 
#
# 1 166.4961 51.9429 80.6950 0.0000 0.0000 0.0000
# 2 51.9429 141.2537 32.1919 0.0000 0.0000 0.0000
# 3 80.6950 32.1919 126.4519 0.0000 0.0000 0.0000
# 4 0.0000 0.0000 0.0000 49.9641 0.0000 0.0000
# 5 0.0000 0.0000 0.0000 0.0000 58.2042 0.0000
# 6 0.0000 0.0000 0.0000 0.0000 0.0000 33.7191
#
#
#
# Elastic Compliance Matrix: (Units=1/GPa)
#
#
# Indices 1 2 3 4 5 6 
#
# 1 0.009294 -0.002193 -0.005373 0.000000 0.000000 0.000000
# 2 -0.002193 0.008033 -0.000645 0.000000 0.000000 0.000000
# 3 -0.005373 -0.000645 0.011501 0.000000 0.000000 0.000000
# 4 0.000000 0.000000 0.000000 0.020014 0.000000 0.000000
# 5 0.000000 0.000000 0.000000 0.000000 0.017181 0.000000
# 6 0.000000 0.000000 0.000000 0.000000 0.000000 0.029657
#
#
# Mechanical properties :
#
#
# Convention : Reuss Voigt Hill
#
# Bulk Modulus (GPa) = 80.60928 84.87347 82.74138
# Shear Modulus (GPa) = 43.01480 46.33560 44.67520
#
# Velocity S-wave (km/s) = 3.78237 3.92565 3.85468
# Velocity P-wave (km/s) = 6.77384 6.98397 6.87971
#
# Compressibility (1/GPa) = 0.01240552
#
# Stress axis : x y z
#
# Youngs Moduli (GPa) = 107.59091 124.48498 86.94801
#
# Poissons Ratio (x) = 0.27304 0.46716
# Poissons Ratio (y) = 0.23598 0.05611
# Poissons Ratio (z) = 0.57807 0.08034
#
# Static dielectric constant tensor:
#      x y z
#    x 5.714170 0.000000 0.000000 
#    y 0.000000 5.541330 0.000000 
#    z 0.000000 0.000000 5.564550 
# 
# 
# High freq. dielectric constant tensor:
#      x y z
#    x 2.239220 0.000000 0.000000 
#    y 0.000000 2.247820 0.000000 
#    z 0.000000 0.000000 2.240630 
# 
# From -- ./inp_files/2550.got.cif
#   From: 2010.03.12/outbox.cif.g09.slc.cpg/sg19_2_cif.got.tgz:2550.got - 2010.04.10 18:59:41.
