data_PCOD8157522
_publ_section_title
;
Structure prediction by ZEFSAII (Michael W. Deem and Ramdas Pophale) SiO2 
 PCOD8157522
Probable space group: P 21 21 21
;
_chemical_formula_sum "Si O2"
_cell_formula_units_Z 24
_cell_length_a 16.037866
_cell_length_b 5.392408
_cell_length_c 12.103723
_cell_angle_alpha 90.000000
_cell_angle_beta 90.000000
_cell_angle_gamma 90.000000
_cell_volume 1046.762850
_symmetry_space_group_name_H-M "P 21 21 21"
_symmetry_group_IT_number 19
_symmetry_cell_setting 'orthorhombic'
loop_
_space_group_symop_operation_xyz
x,y,z
1/2-x,-y,1/2+z
1/2+x,1/2-y,-z
-x,1/2+y,1/2-z
loop_
_atom_site_type_symbol
_atom_site_label
_atom_site_fract_x
_atom_site_fract_y
_atom_site_fract_z
Si Si1 0.900915 0.825644 0.814987
Si Si2 0.054337 0.100851 0.899934
Si Si3 0.095412 0.771550 0.083272
Si Si4 0.769342 0.992764 0.303121
Si Si5 0.669739 0.522467 0.714466
Si Si6 0.940712 0.492969 0.008821
O O1 0.890185 0.756942 0.685433
O O2 0.826056 0.017034 0.848213
O O3 0.897383 0.590695 0.897012
O O4 0.991835 0.943628 0.824189
O O5 0.998142 0.257230 0.984924
O O6 0.117177 0.928475 0.972129
O O7 0.161478 0.541493 0.099172
O O8 0.098207 0.948618 0.191185
O O9 0.999714 0.693467 0.068654
O O10 0.767347 0.244956 0.228527
O O11 0.787255 0.745518 0.232685
O O12 0.633606 0.559334 0.592924
#
# Coordination Sequence:
#
# PCOD8157522 Si02
#       6
#     4   4   4   4   4   4
#     4  11  25  44  71  97 141 186 234 285 348 422
#     4  11  23  44  70 100 135 191 240 283 341 426
#     4   9  24  40  71 100 137 180 227 291 339 414
#     4  10  25  45  67 107 140 179 222 296 351 411
#     4  10  25  44  68 103 139 177 231 289 356 410
#     4  11  24  43  71  99 136 187 236 286 343 425
#
# _framework density 22.927827000000001
#
# number of rings (size 3 to 8) (size 9 to 14) (size 15 to 20)
#    1.000    0.667    1.667    1.000   11.667    1.333 
#    6.000    0.000    0.000    0.000    0.000    0.000 
#    0.000    0.000    0.000    0.000    0.000    0.000 
#
# Total GULP energy -297366.738780 kJ/mol
# GULP energy per Si atom -12390.280783 kJ/mol
# Density = 2.287564 g / cm^3
# Si number density = 22.927827 Si / 1000 Ang^3
#
#
#
# Elastic Constant Matrix: (Units=GPa)
#
#
# Indices 1 2 3 4 5 6 
#
# 1 35.2760 -7.5719 11.8718 0.0000 0.0000 0.0000
# 2 -7.5719 102.7834 21.1992 0.0000 0.0000 0.0000
# 3 11.8718 21.1992 92.8616 0.0000 0.0000 0.0000
# 4 0.0000 0.0000 0.0000 31.9563 0.0000 0.0000
# 5 0.0000 0.0000 0.0000 0.0000 22.8759 0.0000
# 6 0.0000 0.0000 0.0000 0.0000 0.0000 18.9177
#
#
#
# Elastic Compliance Matrix: (Units=1/GPa)
#
#
# Indices 1 2 3 4 5 6 
#
# 1 0.030601 0.003212 -0.004646 0.000000 0.000000 0.000000
# 2 0.003212 0.010547 -0.002818 0.000000 0.000000 0.000000
# 3 -0.004646 -0.002818 0.012006 0.000000 0.000000 0.000000
# 4 0.000000 0.000000 0.000000 0.031293 0.000000 0.000000
# 5 0.000000 0.000000 0.000000 0.000000 0.043714 0.000000
# 6 0.000000 0.000000 0.000000 0.000000 0.000000 0.052861
#
#
# Mechanical properties :
#
#
# Convention : Reuss Voigt Hill
#
# Bulk Modulus (GPa) = 22.39592 31.32437 26.86014
# Shear Modulus (GPa) = 24.46085 28.44477 26.45281
#
# Velocity S-wave (km/s) = 3.26983 3.52607 3.40036
# Velocity P-wave (km/s) = 4.90356 5.50176 5.21125
#
# Compressibility (1/GPa) = 0.04465098
#
# Stress axis : x y z
#
# Youngs Moduli (GPa) = 32.67884 94.81217 83.29135
#
# Poissons Ratio (x) = -0.30458 0.38693
# Poissons Ratio (y) = -0.10498 0.23476
# Poissons Ratio (z) = 0.15181 0.26723
#
# Static dielectric constant tensor:
#      x y z
#    x 3.932860 0.000000 0.000000 
#    y 0.000000 4.110310 0.000000 
#    z 0.000000 0.000000 3.968220 
# 
# 
# High freq. dielectric constant tensor:
#      x y z
#    x 1.893270 0.000000 0.000000 
#    y 0.000000 1.903580 0.000000 
#    z 0.000000 0.000000 1.898320 
# 
# From -- ./inp_files/960.got.cif
#   From: 2010.03.12/outbox.cif.g09.slc.cpg/sg19_1_cif.got.tgz:960.got - 2010.04.10 18:59:41.
