data_PCOD8157662
_publ_section_title
;
Structure prediction by ZEFSAII (Michael W. Deem and Ramdas Pophale) SiO2 
 PCOD8157662
Probable space group: P 21 21 21
;
_chemical_formula_sum "Si O2"
_cell_formula_units_Z 28
_cell_length_a 6.570506
_cell_length_b 19.275501
_cell_length_c 9.934773
_cell_angle_alpha 90.000000
_cell_angle_beta 90.000000
_cell_angle_gamma 90.000000
_cell_volume 1258.236964
_symmetry_space_group_name_H-M "P 21 21 21"
_symmetry_group_IT_number 19
_symmetry_cell_setting 'orthorhombic'
loop_
_space_group_symop_operation_xyz
x,y,z
1/2-x,-y,1/2+z
1/2+x,1/2-y,-z
-x,1/2+y,1/2-z
loop_
_atom_site_type_symbol
_atom_site_label
_atom_site_fract_x
_atom_site_fract_y
_atom_site_fract_z
Si Si1 0.616283 0.430701 0.238628
Si Si2 0.498853 0.167232 0.728138
Si Si3 0.382428 0.469528 0.479245
Si Si4 0.198365 0.073551 0.314044
Si Si5 0.085202 0.361136 0.571151
Si Si6 0.286927 0.390587 0.047029
Si Si7 0.886082 0.182174 0.207653
O O1 0.783292 0.372523 0.271242
O O2 0.425133 0.428562 0.341297
O O3 0.704355 0.508321 0.263687
O O4 0.514298 0.414148 0.093907
O O5 0.575374 0.175472 0.574458
O O6 0.655806 0.126260 0.821374
O O7 0.491385 0.243677 0.789735
O O8 0.588321 0.463665 0.562947
O O9 0.192208 0.435574 0.556327
O O10 0.323833 0.549497 0.460491
O O11 0.362948 0.127965 0.368207
O O12 0.043283 0.118218 0.224382
O O13 0.215297 0.315156 0.675398
O O14 0.295018 0.326710 0.942418
#
# Coordination Sequence:
#
# PCOD8157662 Si02
#       7
#     4   4   4   4   4   4   4
#     4  12  25  42  75 105 141 189 240 293 365 430
#     4  12  28  48  72 105 146 195 239 295 367 439
#     4  11  23  42  70 111 131 181 237 301 357 415
#     4  11  24  44  72 103 137 185 241 294 354 419
#     4  11  24  47  74 102 140 182 244 302 350 426
#     4  12  27  47  71 105 154 181 243 306 364 428
#     4  11  31  46  72 105 147 195 240 295 365 437
#
# _framework density 22.253360000000001
#
# number of rings (size 3 to 8) (size 9 to 14) (size 15 to 20)
#    0.000    0.571    5.714    0.857   10.000    2.286 
#    0.000    0.000    0.000    0.000    0.000    0.000 
#    0.000    0.000    0.000    0.000    0.000    0.000 
#
# Total GULP energy -347211.650894 kJ/mol
# GULP energy per Si atom -12400.416103 kJ/mol
# Density = 2.220271 g / cm^3
# Si number density = 22.253360 Si / 1000 Ang^3
#
#
#
# Elastic Constant Matrix: (Units=GPa)
#
#
# Indices 1 2 3 4 5 6 
#
# 1 97.3323 21.1986 36.4924 0.0000 0.0000 0.0000
# 2 21.1986 85.1842 9.7903 0.0000 0.0000 0.0000
# 3 36.4924 9.7903 99.8950 0.0000 0.0000 0.0000
# 4 0.0000 0.0000 0.0000 31.1141 0.0000 0.0000
# 5 0.0000 0.0000 0.0000 0.0000 36.9757 0.0000
# 6 0.0000 0.0000 0.0000 0.0000 0.0000 21.2491
#
#
#
# Elastic Compliance Matrix: (Units=1/GPa)
#
#
# Indices 1 2 3 4 5 6 
#
# 1 0.012451 -0.002605 -0.004293 0.000000 0.000000 0.000000
# 2 -0.002605 0.012418 -0.000265 0.000000 0.000000 0.000000
# 3 -0.004293 -0.000265 0.011605 0.000000 0.000000 0.000000
# 4 0.000000 0.000000 0.000000 0.032140 0.000000 0.000000
# 5 0.000000 0.000000 0.000000 0.000000 0.027045 0.000000
# 6 0.000000 0.000000 0.000000 0.000000 0.000000 0.047061
#
#
# Mechanical properties :
#
#
# Convention : Reuss Voigt Hill
#
# Bulk Modulus (GPa) = 45.15344 46.37488 45.76416
# Shear Modulus (GPa) = 30.40831 32.19648 31.30240
#
# Velocity S-wave (km/s) = 3.70058 3.80783 3.75458
# Velocity P-wave (km/s) = 6.21238 6.34172 6.27739
#
# Compressibility (1/GPa) = 0.02214671
#
# Stress axis : x y z
#
# Youngs Moduli (GPa) = 80.31431 80.52785 86.17089
#
# Poissons Ratio (x) = 0.20978 0.36995
# Poissons Ratio (y) = 0.20923 0.02287
# Poissons Ratio (z) = 0.34480 0.02137
#
# Static dielectric constant tensor:
#      x y z
#    x 4.090650 0.000000 0.000000 
#    y 0.000000 3.717280 0.000000 
#    z 0.000000 0.000000 4.034810 
# 
# 
# High freq. dielectric constant tensor:
#      x y z
#    x 1.887730 0.000000 0.000000 
#    y 0.000000 1.863580 0.000000 
#    z 0.000000 0.000000 1.882460 
# 
# From -- ./inp_files/4484.got.cif
#   From: 2010.03.12/outbox.cif.g09.slc.cpg/sg19_3_cif.got.tgz:4484.got - 2010.04.10 18:59:41.
