data_PCOD8157773
_publ_section_title
;
Structure prediction by ZEFSAII (Michael W. Deem and Ramdas Pophale) SiO2 
 PCOD8157773
Probable space group: P 21 21 21
;
_chemical_formula_sum "Si O2"
_cell_formula_units_Z 20
_cell_length_a 6.499406
_cell_length_b 9.524821
_cell_length_c 14.895275
_cell_angle_alpha 90.000000
_cell_angle_beta 90.000000
_cell_angle_gamma 90.000000
_cell_volume 922.102109
_symmetry_space_group_name_H-M "P 21 21 21"
_symmetry_group_IT_number 19
_symmetry_cell_setting 'orthorhombic'
loop_
_space_group_symop_operation_xyz
x,y,z
1/2-x,-y,1/2+z
1/2+x,1/2-y,-z
-x,1/2+y,1/2-z
loop_
_atom_site_type_symbol
_atom_site_label
_atom_site_fract_x
_atom_site_fract_y
_atom_site_fract_z
Si Si1 0.636673 0.679575 0.657318
Si Si2 0.644981 0.954482 0.926933
Si Si3 0.961625 0.442473 0.696188
Si Si4 0.714865 0.035013 0.124158
Si Si5 0.097989 0.261207 0.326900
O O1 0.449770 0.595853 0.614131
O O2 0.828787 0.580964 0.678216
O O3 0.702484 0.811183 0.595363
O O4 0.558673 0.761660 0.745350
O O5 0.501920 0.819456 0.910416
O O6 0.868475 0.933836 0.882527
O O7 0.632461 0.964825 0.033718
O O8 0.823888 0.301988 0.692512
O O9 0.047198 0.450633 0.797183
O O10 0.891997 0.928553 0.157937
#
# Coordination Sequence:
#
# PCOD8157773 Si02
#       5
#     4   4   4   4   4
#     4  11  24  47  68  97 139 177 228 281 334 406
#     4  11  27  43  65 105 135 175 231 277 337 406
#     4  11  24  47  68  98 140 178 221 280 346 393
#     4  12  25  42  75  97 135 185 222 283 339 403
#     4  11  24  47  68  97 139 177 228 281 334 406
#
# _framework density 21.689572999999999
#
# number of rings (size 3 to 8) (size 9 to 14) (size 15 to 20)
#    0.000    0.800    4.000    2.400    5.600    0.000 
#    7.200    0.000    0.000    0.000    0.000    0.000 
#    0.000    0.000    0.000    0.000    0.000    0.000 
#
# Total GULP energy -248003.570495 kJ/mol
# GULP energy per Si atom -12400.178525 kJ/mol
# Density = 2.164021 g / cm^3
# Si number density = 21.689573 Si / 1000 Ang^3
#
#
#
# Elastic Constant Matrix: (Units=GPa)
#
#
# Indices 1 2 3 4 5 6 
#
# 1 100.1504 35.2059 21.6610 0.0000 0.0000 0.0000
# 2 35.2059 117.5398 -6.5713 0.0000 0.0000 0.0000
# 3 21.6610 -6.5713 95.8955 0.0000 0.0000 0.0000
# 4 0.0000 0.0000 0.0000 29.1116 0.0000 0.0000
# 5 0.0000 0.0000 0.0000 0.0000 24.8282 0.0000
# 6 0.0000 0.0000 0.0000 0.0000 0.0000 27.1156
#
#
#
# Elastic Compliance Matrix: (Units=1/GPa)
#
#
# Indices 1 2 3 4 5 6 
#
# 1 0.011939 -0.003741 -0.002953 0.000000 0.000000 0.000000
# 2 -0.003741 0.009713 0.001511 0.000000 0.000000 0.000000
# 3 -0.002953 0.001511 0.011199 0.000000 0.000000 0.000000
# 4 0.000000 0.000000 0.000000 0.034351 0.000000 0.000000
# 5 0.000000 0.000000 0.000000 0.000000 0.040277 0.000000
# 6 0.000000 0.000000 0.000000 0.000000 0.000000 0.036879
#
#
# Mechanical properties :
#
#
# Convention : Reuss Voigt Hill
#
# Bulk Modulus (GPa) = 44.47801 46.01965 45.24883
# Shear Modulus (GPa) = 30.82270 33.76374 32.29322
#
# Velocity S-wave (km/s) = 3.77382 3.94976 3.86279
# Velocity P-wave (km/s) = 6.28809 6.48570 6.38766
#
# Compressibility (1/GPa) = 0.02248302
#
# Stress axis : x y z
#
# Youngs Moduli (GPa) = 83.76055 102.95749 89.29698
#
# Poissons Ratio (x) = 0.38517 0.26370
# Poissons Ratio (y) = 0.31335 -0.13489
# Poissons Ratio (z) = 0.24735 -0.15553
#
# Static dielectric constant tensor:
#      x y z
#    x 3.882190 0.000000 0.000000 
#    y 0.000000 4.117330 0.000000 
#    z 0.000000 0.000000 3.959080 
# 
# 
# High freq. dielectric constant tensor:
#      x y z
#    x 1.852520 0.000000 0.000000 
#    y 0.000000 1.875880 0.000000 
#    z 0.000000 0.000000 1.846930 
# 
# From -- ./inp_files/4077.got.cif
#   From: 2010.03.12/outbox.cif.g09.slc.cpg/sg19_3_cif.got.tgz:4077.got - 2010.04.10 18:59:41.
