data_PCOD8157237
_publ_section_title
;
Structure prediction by ZEFSAII (Michael W. Deem and Ramdas Pophale) SiO2 
 PCOD8157237
Probable space group: P 21 21 21
;
_chemical_formula_sum "Si O2"
_cell_formula_units_Z 28
_cell_length_a 16.133067
_cell_length_b 5.206703
_cell_length_c 16.371403
_cell_angle_alpha 90.000000
_cell_angle_beta 90.000000
_cell_angle_gamma 90.000000
_cell_volume 1375.199298
_symmetry_space_group_name_H-M "P 21 21 21"
_symmetry_group_IT_number 19
_symmetry_cell_setting 'orthorhombic'
loop_
_space_group_symop_operation_xyz
x,y,z
1/2-x,-y,1/2+z
1/2+x,1/2-y,-z
-x,1/2+y,1/2-z
loop_
_atom_site_type_symbol
_atom_site_label
_atom_site_fract_x
_atom_site_fract_y
_atom_site_fract_z
Si Si1 0.076649 0.065406 0.172068
Si Si2 0.581694 0.139375 0.182389
Si Si3 0.811354 0.617014 0.058989
Si Si4 0.976511 0.568942 0.144589
Si Si5 0.248592 0.874702 0.594340
Si Si6 0.897702 0.357036 0.784943
Si Si7 0.776243 0.873664 0.565598
O O1 0.028502 0.307985 0.133491
O O2 0.172301 0.049969 0.147484
O O3 0.072461 0.074996 0.269853
O O4 0.037756 0.807236 0.136695
O O5 0.612225 0.364562 0.243165
O O6 0.483946 0.161341 0.164921
O O7 0.629188 0.147384 0.096054
O O8 0.603670 0.862207 0.217501
O O9 0.772634 0.368907 0.104709
O O10 0.910037 0.604525 0.072010
O O11 0.770939 0.872738 0.096964
O O12 0.787528 0.606302 0.962292
O O13 0.176118 0.789764 0.654298
O O14 0.274520 0.641624 0.533356
#
# Coordination Sequence:
#
# PCOD8157237 Si02
#       7
#     4   4   4   4   4   4   4
#     4  10  23  39  65  89 122 157 209 253 295 362
#     4  10  22  42  64  91 122 163 209 244 317 352
#     4  10  23  41  59  92 123 161 203 242 313 365
#     4  10  22  43  61  90 119 166 203 247 307 359
#     4  10  26  39  63  96 126 157 209 250 315 350
#     4  10  23  41  65  92 121 161 207 262 291 370
#     4  10  23  39  61  94 123 163 200 246 310 372
#
# _framework density 20.360686999999999
#
# number of rings (size 3 to 8) (size 9 to 14) (size 15 to 20)
#    0.857    1.143    0.000    1.714    8.000    1.143 
#    0.000    0.000    0.000    0.000    0.000    0.000 
#    0.000    0.000    0.000    0.000    0.000    0.000 
#
# Total GULP energy -347074.405048 kJ/mol
# GULP energy per Si atom -12395.514466 kJ/mol
# Density = 2.031434 g / cm^3
# Si number density = 20.360687 Si / 1000 Ang^3
#
#
#
# Elastic Constant Matrix: (Units=GPa)
#
#
# Indices 1 2 3 4 5 6 
#
# 1 157.0315 27.6944 70.1097 0.0000 0.0000 0.0000
# 2 27.6944 114.1143 12.9351 0.0000 0.0000 0.0000
# 3 70.1097 12.9351 61.3380 0.0000 0.0000 0.0000
# 4 0.0000 0.0000 0.0000 8.8199 0.0000 0.0000
# 5 0.0000 0.0000 0.0000 0.0000 33.1164 0.0000
# 6 0.0000 0.0000 0.0000 0.0000 0.0000 26.1515
#
#
#
# Elastic Compliance Matrix: (Units=1/GPa)
#
#
# Indices 1 2 3 4 5 6 
#
# 1 0.013263 -0.001537 -0.014835 0.000000 0.000000 0.000000
# 2 -0.001537 0.009156 -0.000174 0.000000 0.000000 0.000000
# 3 -0.014835 -0.000174 0.033296 0.000000 0.000000 0.000000
# 4 0.000000 0.000000 0.000000 0.113379 0.000000 0.000000
# 5 0.000000 0.000000 0.000000 0.000000 0.030197 0.000000
# 6 0.000000 0.000000 0.000000 0.000000 0.000000 0.038239
#
#
# Mechanical properties :
#
#
# Convention : Reuss Voigt Hill
#
# Bulk Modulus (GPa) = 44.20344 61.55139 52.87741
# Shear Modulus (GPa) = 17.97507 28.40053 23.18780
#
# Velocity S-wave (km/s) = 2.97447 3.73885 3.37835
# Velocity P-wave (km/s) = 5.79258 6.99534 6.42218
#
# Compressibility (1/GPa) = 0.02262268
#
# Stress axis : x y z
#
# Youngs Moduli (GPa) = 75.39953 109.21921 30.03324
#
# Poissons Ratio (x) = 0.16788 0.44555
# Poissons Ratio (y) = 0.11590 0.00522
# Poissons Ratio (z) = 1.11856 0.01899
#
# Static dielectric constant tensor:
#      x y z
#    x 3.682600 0.000000 0.000000 
#    y 0.000000 3.764460 0.000000 
#    z 0.000000 0.000000 3.343000 
# 
# 
# High freq. dielectric constant tensor:
#      x y z
#    x 1.803070 0.000000 0.000000 
#    y 0.000000 1.805920 0.000000 
#    z 0.000000 0.000000 1.769510 
# 
# From -- ./inp_files/6246.got.cif
#   From: 2010.03.12/outbox.cif.g09.slc.cpg/sg19_4_cif.got.tgz:6246.got - 2010.04.10 18:59:41.
