data_PCOD8157904
_publ_section_title
;
Structure prediction by ZEFSAII (Michael W. Deem and Ramdas Pophale) SiO2 
 PCOD8157904
Probable space group: P 21 21 21
;
_chemical_formula_sum "Si O2"
_cell_formula_units_Z 24
_cell_length_a 5.227818
_cell_length_b 9.787730
_cell_length_c 17.729723
_cell_angle_alpha 90.000000
_cell_angle_beta 90.000000
_cell_angle_gamma 90.000000
_cell_volume 907.202818
_symmetry_space_group_name_H-M "P 21 21 21"
_symmetry_group_IT_number 19
_symmetry_cell_setting 'orthorhombic'
loop_
_space_group_symop_operation_xyz
x,y,z
1/2-x,-y,1/2+z
1/2+x,1/2-y,-z
-x,1/2+y,1/2-z
loop_
_atom_site_type_symbol
_atom_site_label
_atom_site_fract_x
_atom_site_fract_y
_atom_site_fract_z
Si Si1 0.866916 0.853049 0.635939
Si Si2 0.144673 0.074443 0.053768
Si Si3 0.428702 0.934174 0.380579
Si Si4 0.721399 0.049047 0.751191
Si Si5 0.594333 0.339325 0.678807
Si Si6 0.815683 0.274286 0.454600
O O1 0.623843 0.919662 0.595923
O O2 0.787487 0.697091 0.660414
O O3 0.123855 0.831520 0.584946
O O4 0.930003 0.955556 0.705801
O O5 0.074888 0.107282 0.967713
O O6 0.270157 0.926192 0.065793
O O7 0.703156 0.933965 0.339006
O O8 0.307425 0.084115 0.371093
O O9 0.688099 0.195552 0.712336
O O10 0.475634 0.946771 0.754367
O O11 0.357967 0.311648 0.621833
O O12 0.085763 0.293646 0.499078
#
# Coordination Sequence:
#
# PCOD8157904 Si02
#       6
#     4   4   4   4   4   4
#     4  12  29  51  80 115 161 205 266 324 403 469
#     4  12  27  50  80 117 158 206 264 328 397 476
#     4  12  28  48  81 110 160 207 267 326 401 468
#     4  12  29  49  78 114 159 213 266 328 399 478
#     4  12  28  48  78 112 161 207 268 331 394 481
#     4  12  25  48  81 118 157 204 265 329 400 472
#
# _framework density 26.454947000000001
#
# number of rings (size 3 to 8) (size 9 to 14) (size 15 to 20)
#    0.000    0.000    3.333    5.000    9.333    1.333 
#    0.000    0.000    0.000    0.000    0.000    0.000 
#    0.000    0.000    0.000    0.000    0.000    0.000 
#
# Total GULP energy -297385.128539 kJ/mol
# GULP energy per Si atom -12391.047022 kJ/mol
# Density = 2.639473 g / cm^3
# Si number density = 26.454947 Si / 1000 Ang^3
#
#
#
# Elastic Constant Matrix: (Units=GPa)
#
#
# Indices 1 2 3 4 5 6 
#
# 1 93.5702 0.4739 26.7100 0.0000 0.0000 0.0000
# 2 0.4739 174.0816 17.3224 0.0000 0.0000 0.0000
# 3 26.7100 17.3224 102.1005 0.0000 0.0000 0.0000
# 4 0.0000 0.0000 0.0000 39.8510 0.0000 0.0000
# 5 0.0000 0.0000 0.0000 0.0000 37.0174 0.0000
# 6 0.0000 0.0000 0.0000 0.0000 0.0000 30.1165
#
#
#
# Elastic Compliance Matrix: (Units=1/GPa)
#
#
# Indices 1 2 3 4 5 6 
#
# 1 0.011562 0.000274 -0.003071 0.000000 0.000000 0.000000
# 2 0.000274 0.005850 -0.001064 0.000000 0.000000 0.000000
# 3 -0.003071 -0.001064 0.010778 0.000000 0.000000 0.000000
# 4 0.000000 0.000000 0.000000 0.025093 0.000000 0.000000
# 5 0.000000 0.000000 0.000000 0.000000 0.027014 0.000000
# 6 0.000000 0.000000 0.000000 0.000000 0.000000 0.033204
#
#
# Mechanical properties :
#
#
# Convention : Reuss Voigt Hill
#
# Bulk Modulus (GPa) = 48.85746 50.97386 49.91566
# Shear Modulus (GPa) = 39.04793 43.08005 41.06399
#
# Velocity S-wave (km/s) = 3.84606 4.03976 3.94410
# Velocity P-wave (km/s) = 6.18314 6.40855 6.29685
#
# Compressibility (1/GPa) = 0.02046770
#
# Stress axis : x y z
#
# Youngs Moduli (GPa) = 86.48658 170.95248 92.77909
#
# Poissons Ratio (x) = -0.04687 0.28495
# Poissons Ratio (y) = -0.02371 0.09873
# Poissons Ratio (z) = 0.26563 0.18192
#
# Static dielectric constant tensor:
#      x y z
#    x 4.317450 0.000000 0.000000 
#    y 0.000000 5.218790 0.000000 
#    z 0.000000 0.000000 5.019990 
# 
# 
# High freq. dielectric constant tensor:
#      x y z
#    x 2.042650 0.000000 0.000000 
#    y 0.000000 2.097270 0.000000 
#    z 0.000000 0.000000 2.065620 
# 
# From -- ./inp_files/6389.got.cif
#   From: 2010.03.12/outbox.cif.g09.slc.cpg/sg19_4_cif.got.tgz:6389.got - 2010.04.10 18:59:41.
