data_PCOD8157967
_publ_section_title
;
Structure prediction by ZEFSAII (Michael W. Deem and Ramdas Pophale) SiO2 
 PCOD8157967
Probable space group: C 2 2 21
;
_chemical_formula_sum "Si O2"
_cell_formula_units_Z 32
_cell_length_a 15.871958
_cell_length_b 8.517645
_cell_length_c 11.753544
_cell_angle_alpha 90.000000
_cell_angle_beta 90.000000
_cell_angle_gamma 90.000000
_cell_volume 1588.981638
_symmetry_space_group_name_H-M "C 2 2 21"
_symmetry_group_IT_number 20
_symmetry_cell_setting 'orthorhombic'
loop_
_space_group_symop_operation_xyz
x,y,z
-x,-y,1/2+z
x,-y,-z
-x,y,1/2-z
1/2+x,1/2+y,z
1/2-x,1/2-y,1/2+z
1/2+x,1/2-y,-z
1/2-x,1/2+y,1/2-z
loop_
_atom_site_type_symbol
_atom_site_label
_atom_site_fract_x
_atom_site_fract_y
_atom_site_fract_z
Si Si1 0.002858 0.784964 0.095007
Si Si2 0.048656 0.142917 0.141340
Si Si3 0.641957 0.218849 0.251894
Si Si4 0.722602 0.483812 0.864867
O O1 0.067330 0.669972 0.163434
O O2 0.905686 0.773765 0.132512
O O3 0.031065 0.960509 0.122931
O O4 0.013104 0.751186 0.961566
O O5 0.150063 0.149751 0.150934
O O6 0.000000 0.210231 0.250000
O O7 0.698727 0.351422 0.192614
O O8 0.697615 0.072390 0.291260
O O9 0.742423 0.500000 0.000000
#
# Coordination Sequence:
#
# PCOD8157967 Si02
#       4
#     8   8   8   8
#     4   9  17  35  58  80 114 160 191 238 291 361
#     4  10  16  33  60  84 108 151 213 237 276 350
#     4  10  20  37  62  83 120 154 198 244 306 344
#     4  11  21  37  59  92 122 153 198 259 289 353
#
# _framework density 20.138686
#
# number of rings (size 3 to 8) (size 9 to 14) (size 15 to 20)
#    0.000    2.000   10.000    0.000    0.000    2.000 
#    0.000    0.000   16.500    0.000    0.000    0.000 
#    0.000    0.000    0.000    0.000    0.000    0.000 
#
# Total GULP energy -198214.831412 kJ/mol
# GULP energy per Si atom -12388.426963 kJ/mol
# Density = 2.009285 g / cm^3
# Si number density = 20.138686 Si / 1000 Ang^3
#
#
#
# Elastic Constant Matrix: (Units=GPa)
#
#
# Indices 1 2 3 4 5 6 
#
# 1 83.4458 29.9697 52.1140 0.0000 0.0000 0.0000
# 2 29.9697 28.9558 25.3755 0.0000 0.0000 0.0000
# 3 52.1140 25.3755 168.6554 0.0000 0.0000 0.0000
# 4 0.0000 0.0000 0.0000 16.2293 0.0000 0.0000
# 5 0.0000 0.0000 0.0000 0.0000 28.5820 0.0000
# 6 0.0000 0.0000 0.0000 0.0000 0.0000 25.1058
#
#
#
# Elastic Compliance Matrix: (Units=1/GPa)
#
#
# Indices 1 2 3 4 5 6 
#
# 1 0.020893 -0.018392 -0.003689 0.000000 0.000000 0.000000
# 2 -0.018392 0.055971 -0.002738 0.000000 0.000000 0.000000
# 3 -0.003689 -0.002738 0.007481 0.000000 0.000000 0.000000
# 4 0.000000 0.000000 0.000000 0.061617 0.000000 0.000000
# 5 0.000000 0.000000 0.000000 0.000000 0.034987 0.000000
# 6 0.000000 0.000000 0.000000 0.000000 0.000000 0.039831
#
#
# Mechanical properties :
#
#
# Convention : Reuss Voigt Hill
#
# Bulk Modulus (GPa) = 28.81233 55.10838 41.96036
# Shear Modulus (GPa) = 17.73129 25.55661 21.64395
#
# Velocity S-wave (km/s) = 2.97047 3.56621 3.28189
# Velocity P-wave (km/s) = 5.10911 6.66191 5.93650
#
# Compressibility (1/GPa) = 0.03470736
#
# Stress axis : x y z
#
# Youngs Moduli (GPa) = 47.86287 17.86636 133.67163
#
# Poissons Ratio (x) = 0.32860 0.49307
# Poissons Ratio (y) = 0.88030 0.36602
# Poissons Ratio (z) = 0.17655 0.04892
#
# Static dielectric constant tensor:
#      x y z
#    x 4.002640 0.000000 0.000000 
#    y 0.000000 2.972000 0.000000 
#    z 0.000000 0.000000 4.463050 
# 
# 
# High freq. dielectric constant tensor:
#      x y z
#    x 1.794580 0.000000 0.000000 
#    y 0.000000 1.720670 0.000000 
#    z 0.000000 0.000000 1.801540 
# 
# From -- ./inp_files/12450.got.cif
#   From: 2010.03.12/outbox.cif.g09.slc.cpg/sg20_7_cif.got.tgz:12450.got - 2010.04.14 01:38:04.
