data_PCOD8157439
_publ_section_title
;
Structure prediction by ZEFSAII (Michael W. Deem and Ramdas Pophale) SiO2 
 PCOD8157439
Probable space group: P 21 21 21
;
_chemical_formula_sum "Si O2"
_cell_formula_units_Z 24
_cell_length_a 10.842136
_cell_length_b 8.656204
_cell_length_c 10.851271
_cell_angle_alpha 90.000000
_cell_angle_beta 90.000000
_cell_angle_gamma 90.000000
_cell_volume 1018.410676
_symmetry_space_group_name_H-M "P 21 21 21"
_symmetry_group_IT_number 19
_symmetry_cell_setting 'orthorhombic'
loop_
_space_group_symop_operation_xyz
x,y,z
1/2-x,-y,1/2+z
1/2+x,1/2-y,-z
-x,1/2+y,1/2-z
loop_
_atom_site_type_symbol
_atom_site_label
_atom_site_fract_x
_atom_site_fract_y
_atom_site_fract_z
Si Si1 0.121461 0.998612 0.614200
Si Si2 0.388278 0.004211 0.517109
Si Si3 0.999027 0.689046 0.697175
Si Si4 0.958649 0.819028 0.198444
Si Si5 0.060011 0.533261 0.092741
Si Si6 0.690838 0.815198 0.110031
O O1 0.261312 0.946551 0.583260
O O2 0.035061 0.867385 0.676659
O O3 0.114071 0.147977 0.707220
O O4 0.065682 0.045425 0.483804
O O5 0.458852 0.876749 0.435257
O O6 0.477699 0.037119 0.630908
O O7 0.371512 0.154716 0.432207
O O8 0.121288 0.620368 0.767119
O O9 0.049271 0.671470 0.193511
O O10 0.831718 0.781809 0.131613
O O11 0.930061 0.868601 0.339303
O O12 0.175829 0.559976 0.001073
#
# Coordination Sequence:
#
# PCOD8157439 Si02
#       6
#     4   4   4   4   4   4
#     4  11  25  48  75 103 148 188 251 302 364 437
#     4  11  25  46  76 105 145 192 241 310 365 433
#     4  11  25  46  77 103 142 198 240 298 380 431
#     4  11  25  45  72 102 145 189 240 301 362 430
#     4  10  25  45  69 108 137 185 243 295 364 430
#     4  10  23  48  71  99 151 184 243 304 363 433
#
# _framework density 23.566130999999999
#
# number of rings (size 3 to 8) (size 9 to 14) (size 15 to 20)
#    0.000    1.333    3.333    0.000    9.333    0.000 
#   12.000    0.000    0.000    0.000    0.000    0.000 
#    0.000    0.000    0.000    0.000    0.000    0.000 
#
# Total GULP energy -297327.373918 kJ/mol
# GULP energy per Si atom -12388.640580 kJ/mol
# Density = 2.351249 g / cm^3
# Si number density = 23.566131 Si / 1000 Ang^3
#
#
#
# Elastic Constant Matrix: (Units=GPa)
#
#
# Indices 1 2 3 4 5 6 
#
# 1 74.6722 16.9719 19.8482 0.0000 0.0000 0.0000
# 2 16.9719 59.0051 43.3103 0.0000 0.0000 0.0000
# 3 19.8482 43.3103 96.6757 0.0000 0.0000 0.0000
# 4 0.0000 0.0000 0.0000 45.6134 0.0000 0.0000
# 5 0.0000 0.0000 0.0000 0.0000 28.2044 0.0000
# 6 0.0000 0.0000 0.0000 0.0000 0.0000 27.6927
#
#
#
# Elastic Compliance Matrix: (Units=1/GPa)
#
#
# Indices 1 2 3 4 5 6 
#
# 1 0.014504 -0.002959 -0.001652 0.000000 0.000000 0.000000
# 2 -0.002959 0.025855 -0.010975 0.000000 0.000000 0.000000
# 3 -0.001652 -0.010975 0.015600 0.000000 0.000000 0.000000
# 4 0.000000 0.000000 0.000000 0.021923 0.000000 0.000000
# 5 0.000000 0.000000 0.000000 0.000000 0.035456 0.000000
# 6 0.000000 0.000000 0.000000 0.000000 0.000000 0.036111
#
#
# Mechanical properties :
#
#
# Convention : Reuss Voigt Hill
#
# Bulk Modulus (GPa) = 40.34635 43.40154 41.87394
# Shear Modulus (GPa) = 26.47149 30.31694 28.39421
#
# Velocity S-wave (km/s) = 3.35518 3.59062 3.47489
# Velocity P-wave (km/s) = 5.67162 5.97051 5.82298
#
# Compressibility (1/GPa) = 0.02478539
#
# Stress axis : x y z
#
# Youngs Moduli (GPa) = 68.94865 38.67747 64.10289
#
# Poissons Ratio (x) = 0.11445 0.10590
# Poissons Ratio (y) = 0.20403 0.70355
# Poissons Ratio (z) = 0.11390 0.42450
#
# Static dielectric constant tensor:
#      x y z
#    x 4.015490 0.000000 0.000000 
#    y 0.000000 4.025780 0.000000 
#    z 0.000000 0.000000 4.445790 
# 
# 
# High freq. dielectric constant tensor:
#      x y z
#    x 1.916860 0.000000 0.000000 
#    y 0.000000 1.919490 0.000000 
#    z 0.000000 0.000000 1.949020 
# 
# From -- ./inp_files/4912.got.cif
#   From: 2010.03.12/outbox.cif.g09.slc.cpg/sg19_3_cif.got.tgz:4912.got - 2010.04.10 18:59:41.
