data_PCOD8157712
_publ_section_title
;
Structure prediction by ZEFSAII (Michael W. Deem and Ramdas Pophale) SiO2 
 PCOD8157712
Probable space group: P 21 21 21
;
_chemical_formula_sum "Si O2"
_cell_formula_units_Z 24
_cell_length_a 12.340021
_cell_length_b 9.726024
_cell_length_c 8.654013
_cell_angle_alpha 90.000000
_cell_angle_beta 90.000000
_cell_angle_gamma 90.000000
_cell_volume 1038.648932
_symmetry_space_group_name_H-M "P 21 21 21"
_symmetry_group_IT_number 19
_symmetry_cell_setting 'orthorhombic'
loop_
_space_group_symop_operation_xyz
x,y,z
1/2-x,-y,1/2+z
1/2+x,1/2-y,-z
-x,1/2+y,1/2-z
loop_
_atom_site_type_symbol
_atom_site_label
_atom_site_fract_x
_atom_site_fract_y
_atom_site_fract_z
Si Si1 0.466395 0.666762 0.694327
Si Si2 0.439412 0.163449 0.125182
Si Si3 0.397059 0.959933 0.655970
Si Si4 0.175141 0.337034 0.768581
Si Si5 0.695709 0.460067 0.187562
Si Si6 0.234028 0.595490 0.592472
O O1 0.534569 0.611813 0.547370
O O2 0.476435 0.831989 0.691490
O O3 0.526463 0.595852 0.840585
O O4 0.340498 0.625528 0.694124
O O5 0.551411 0.208783 0.202929
O O6 0.356366 0.290607 0.130605
O O7 0.399752 0.031618 0.218972
O O8 0.336058 0.944063 0.492009
O O9 0.305999 0.954496 0.789805
O O10 0.228183 0.188192 0.737484
O O11 0.187609 0.443352 0.628119
O O12 0.232464 0.407517 0.914627
#
# Coordination Sequence:
#
# PCOD8157712 Si02
#       6
#     4   4   4   4   4   4
#     4  11  26  48  73 105 146 187 242 304 362 427
#     4  11  23  49  71 102 146 190 244 300 362 425
#     4  12  26  49  75 106 146 194 237 305 360 430
#     4  11  25  42  73 102 142 192 235 301 357 430
#     4  12  24  50  73 105 147 192 240 296 361 435
#     4  11  24  46  69 104 147 181 240 304 358 423
#
# _framework density 23.106943000000001
#
# number of rings (size 3 to 8) (size 9 to 14) (size 15 to 20)
#    0.000    0.667    5.000    3.000    4.667    1.333 
#   12.000    0.000    0.000    0.000    0.000    0.000 
#    0.000    0.000    0.000    0.000    0.000    0.000 
#
# Total GULP energy -297569.627682 kJ/mol
# GULP energy per Si atom -12398.734487 kJ/mol
# Density = 2.305435 g / cm^3
# Si number density = 23.106943 Si / 1000 Ang^3
#
#
#
# Elastic Constant Matrix: (Units=GPa)
#
#
# Indices 1 2 3 4 5 6 
#
# 1 100.9330 34.2832 41.4352 0.0000 0.0000 0.0000
# 2 34.2832 130.6673 59.4434 0.0000 0.0000 0.0000
# 3 41.4352 59.4434 51.4100 0.0000 0.0000 0.0000
# 4 0.0000 0.0000 0.0000 34.4584 0.0000 0.0000
# 5 0.0000 0.0000 0.0000 0.0000 42.9286 0.0000
# 6 0.0000 0.0000 0.0000 0.0000 0.0000 44.7515
#
#
#
# Elastic Compliance Matrix: (Units=1/GPa)
#
#
# Indices 1 2 3 4 5 6 
#
# 1 0.015494 0.003409 -0.016430 0.000000 0.000000 0.000000
# 2 0.003409 0.016896 -0.022284 0.000000 0.000000 0.000000
# 3 -0.016430 -0.022284 0.058459 0.000000 0.000000 0.000000
# 4 0.000000 0.000000 0.000000 0.029021 0.000000 0.000000
# 5 0.000000 0.000000 0.000000 0.000000 0.023294 0.000000
# 6 0.000000 0.000000 0.000000 0.000000 0.000000 0.022346
#
#
# Mechanical properties :
#
#
# Convention : Reuss Voigt Hill
#
# Bulk Modulus (GPa) = 49.40561 61.48155 55.44358
# Shear Modulus (GPa) = 20.58743 34.28426 27.43585
#
# Velocity S-wave (km/s) = 2.98814 3.85609 3.44952
# Velocity P-wave (km/s) = 5.77347 6.81843 6.31760
#
# Compressibility (1/GPa) = 0.02024061
#
# Stress axis : x y z
#
# Youngs Moduli (GPa) = 64.53917 59.18570 17.10588
#
# Poissons Ratio (x) = -0.20177 0.28105
# Poissons Ratio (y) = -0.22002 0.38118
# Poissons Ratio (z) = 1.06037 1.31888
#
# Static dielectric constant tensor:
#      x y z
#    x 4.417940 0.000000 0.000000 
#    y 0.000000 4.215310 0.000000 
#    z 0.000000 0.000000 3.956720 
# 
# 
# High freq. dielectric constant tensor:
#      x y z
#    x 1.937270 0.000000 0.000000 
#    y 0.000000 1.917550 0.000000 
#    z 0.000000 0.000000 1.888800 
# 
# From -- ./inp_files/3317.got.cif
#   From: 2010.03.12/outbox.cif.g09.slc.cpg/sg19_2_cif.got.tgz:3317.got - 2010.04.10 18:59:41.
