data_PCOD8157648
_publ_section_title
;
Structure prediction by ZEFSAII (Michael W. Deem and Ramdas Pophale) SiO2 
 PCOD8157648
Probable space group: P 21 21 21
;
_chemical_formula_sum "Si O2"
_cell_formula_units_Z 28
_cell_length_a 4.911604
_cell_length_b 16.839566
_cell_length_c 16.428767
_cell_angle_alpha 90.000000
_cell_angle_beta 90.000000
_cell_angle_gamma 90.000000
_cell_volume 1358.811485
_symmetry_space_group_name_H-M "P 21 21 21"
_symmetry_group_IT_number 19
_symmetry_cell_setting 'orthorhombic'
loop_
_space_group_symop_operation_xyz
x,y,z
1/2-x,-y,1/2+z
1/2+x,1/2-y,-z
-x,1/2+y,1/2-z
loop_
_atom_site_type_symbol
_atom_site_label
_atom_site_fract_x
_atom_site_fract_y
_atom_site_fract_z
Si Si1 0.435073 0.388876 0.243979
Si Si2 0.747196 0.990995 0.883108
Si Si3 0.644612 0.887427 0.733912
Si Si4 0.251175 0.970464 0.990055
Si Si5 0.723895 0.290744 0.463355
Si Si6 0.875911 0.462368 0.841860
Si Si7 0.078970 0.788087 0.219671
O O1 0.332027 0.426759 0.159789
O O2 0.497303 0.455138 0.311318
O O3 0.707525 0.338810 0.227194
O O4 0.210450 0.330859 0.281782
O O5 0.763340 0.917961 0.820001
O O6 0.441632 0.998818 0.916174
O O7 0.941492 0.973098 0.959475
O O8 0.389259 0.942256 0.710993
O O9 0.546490 0.797272 0.738413
O O10 0.889175 0.895527 0.668068
O O11 0.328599 0.882561 0.018087
O O12 0.287987 0.031303 0.064537
O O13 0.441244 0.244565 0.473649
O O14 0.819127 0.277910 0.371760
#
# Coordination Sequence:
#
# PCOD8157648 Si02
#       7
#     4   4   4   4   4   4   4
#     4  11  23  41  65  90 123 171 221 254 309 384
#     4  11  24  40  64  91 127 163 215 259 311 378
#     4  11  23  41  64  94 127 166 215 266 311 384
#     4  12  23  40  63  91 127 167 205 262 318 376
#     4  12  25  37  59  96 137 162 194 248 335 402
#     4  11  23  41  65  90 126 170 222 255 313 387
#     4  12  23  40  66  92 129 167 210 264 317 377
#
# _framework density 20.606244
#
# number of rings (size 3 to 8) (size 9 to 14) (size 15 to 20)
#    0.000    0.571    1.429    9.429    2.000    0.000 
#    0.000    0.000    0.000   17.143    0.000    0.000 
#    0.000    0.000    0.000    0.000    0.000    0.000 
#
# Total GULP energy -347415.341939 kJ/mol
# GULP energy per Si atom -12407.690784 kJ/mol
# Density = 2.055934 g / cm^3
# Si number density = 20.606244 Si / 1000 Ang^3
#
#
#
# Elastic Constant Matrix: (Units=GPa)
#
#
# Indices 1 2 3 4 5 6 
#
# 1 85.2070 9.4782 2.7211 0.0000 0.0000 0.0000
# 2 9.4782 75.3321 27.4346 0.0000 0.0000 0.0000
# 3 2.7211 27.4346 60.9031 0.0000 0.0000 0.0000
# 4 0.0000 0.0000 0.0000 16.3759 0.0000 0.0000
# 5 0.0000 0.0000 0.0000 0.0000 37.6204 0.0000
# 6 0.0000 0.0000 0.0000 0.0000 0.0000 43.2542
#
#
#
# Elastic Compliance Matrix: (Units=1/GPa)
#
#
# Indices 1 2 3 4 5 6 
#
# 1 0.011904 -0.001560 0.000171 0.000000 0.000000 0.000000
# 2 -0.001560 0.016084 -0.007176 0.000000 0.000000 0.000000
# 3 0.000171 -0.007176 0.019644 0.000000 0.000000 0.000000
# 4 0.000000 0.000000 0.000000 0.061065 0.000000 0.000000
# 5 0.000000 0.000000 0.000000 0.000000 0.026581 0.000000
# 6 0.000000 0.000000 0.000000 0.000000 0.000000 0.023119
#
#
# Mechanical properties :
#
#
# Convention : Reuss Voigt Hill
#
# Bulk Modulus (GPa) = 32.78362 33.41222 33.09792
# Shear Modulus (GPa) = 26.92583 31.57066 29.24824
#
# Velocity S-wave (km/s) = 3.61873 3.91844 3.77156
# Velocity P-wave (km/s) = 5.77965 6.05987 5.92142
#
# Compressibility (1/GPa) = 0.03050304
#
# Stress axis : x y z
#
# Youngs Moduli (GPa) = 84.00395 62.17337 50.90551
#
# Poissons Ratio (x) = 0.09699 -0.00870
# Poissons Ratio (y) = 0.13105 0.36528
# Poissons Ratio (z) = -0.01435 0.44613
#
# Static dielectric constant tensor:
#      x y z
#    x 4.021860 0.000000 0.000000 
#    y 0.000000 3.773230 0.000000 
#    z 0.000000 0.000000 3.669850 
# 
# 
# High freq. dielectric constant tensor:
#      x y z
#    x 1.830360 0.000000 0.000000 
#    y 0.000000 1.797670 0.000000 
#    z 0.000000 0.000000 1.794120 
# 
# From -- ./inp_files/5688.got.cif
#   From: 2010.03.12/outbox.cif.g09.slc.cpg/sg19_3_cif.got.tgz:5688.got - 2010.04.10 18:59:41.
