data_PCOD8157340
_publ_section_title
;
Structure prediction by ZEFSAII (Michael W. Deem and Ramdas Pophale) SiO2 
 PCOD8157340
Probable space group: P 21 21 21
;
_chemical_formula_sum "Si O2"
_cell_formula_units_Z 28
_cell_length_a 5.055947
_cell_length_b 19.897456
_cell_length_c 13.462586
_cell_angle_alpha 90.000000
_cell_angle_beta 90.000000
_cell_angle_gamma 90.000000
_cell_volume 1354.342654
_symmetry_space_group_name_H-M "P 21 21 21"
_symmetry_group_IT_number 19
_symmetry_cell_setting 'orthorhombic'
loop_
_space_group_symop_operation_xyz
x,y,z
1/2-x,-y,1/2+z
1/2+x,1/2-y,-z
-x,1/2+y,1/2-z
loop_
_atom_site_type_symbol
_atom_site_label
_atom_site_fract_x
_atom_site_fract_y
_atom_site_fract_z
Si Si1 0.530261 0.642479 0.331004
Si Si2 0.299824 0.859756 0.870657
Si Si3 0.300138 0.600443 0.015410
Si Si4 0.705771 0.050968 0.022456
Si Si5 0.677888 0.206262 0.656700
Si Si6 0.831638 0.716452 0.716751
Si Si7 0.225516 0.125495 0.970506
O O1 0.725362 0.620936 0.242126
O O2 0.347123 0.579542 0.365531
O O3 0.337267 0.703350 0.300283
O O4 0.716075 0.663852 0.424798
O O5 0.595059 0.885048 0.895056
O O6 0.275881 0.780090 0.888362
O O7 0.096649 0.896551 0.943963
O O8 0.252435 0.527778 0.968350
O O9 0.261186 0.654103 0.929308
O O10 0.450914 0.068330 0.953796
O O11 0.947738 0.088336 0.970635
O O12 0.383484 0.199166 0.699417
O O13 0.883382 0.191845 0.745414
O O14 0.760580 0.680540 0.614811
#
# Coordination Sequence:
#
# PCOD8157340 Si02
#       7
#     4   4   4   4   4   4   4
#     4   9  25  39  68  96 132 163 221 266 328 399
#     4  11  23  41  70  95 123 174 223 272 326 381
#     4  12  24  45  64  93 133 178 216 276 320 385
#     4  10  24  42  60  92 138 170 216 258 331 397
#     4  11  24  42  66 100 127 165 229 271 323 374
#     4  11  23  40  69  98 128 169 213 276 328 380
#     4  10  23  41  63  96 133 169 212 267 324 402
#
# _framework density 20.674237999999999
#
# number of rings (size 3 to 8) (size 9 to 14) (size 15 to 20)
#    0.857    0.571    0.000    5.143    8.000    0.000 
#    7.714    0.000    0.000    0.000    0.000    0.000 
#    0.000    0.000    0.000    0.000    0.000    0.000 
#
# Total GULP energy -347194.390972 kJ/mol
# GULP energy per Si atom -12399.799678 kJ/mol
# Density = 2.062718 g / cm^3
# Si number density = 20.674238 Si / 1000 Ang^3
#
#
#
# Elastic Constant Matrix: (Units=GPa)
#
#
# Indices 1 2 3 4 5 6 
#
# 1 97.8520 21.8885 16.8299 0.0000 0.0000 0.0000
# 2 21.8885 83.2943 38.8099 0.0000 0.0000 0.0000
# 3 16.8299 38.8099 84.0403 0.0000 0.0000 0.0000
# 4 0.0000 0.0000 0.0000 21.0027 0.0000 0.0000
# 5 0.0000 0.0000 0.0000 0.0000 26.0094 0.0000
# 6 0.0000 0.0000 0.0000 0.0000 0.0000 28.7000
#
#
#
# Elastic Compliance Matrix: (Units=1/GPa)
#
#
# Indices 1 2 3 4 5 6 
#
# 1 0.010937 -0.002362 -0.001100 0.000000 0.000000 0.000000
# 2 -0.002362 0.015807 -0.006827 0.000000 0.000000 0.000000
# 3 -0.001100 -0.006827 0.015272 0.000000 0.000000 0.000000
# 4 0.000000 0.000000 0.000000 0.047613 0.000000 0.000000
# 5 0.000000 0.000000 0.000000 0.000000 0.038448 0.000000
# 6 0.000000 0.000000 0.000000 0.000000 0.000000 0.034843
#
#
# Mechanical properties :
#
#
# Convention : Reuss Voigt Hill
#
# Bulk Modulus (GPa) = 46.64237 46.69368 46.66803
# Shear Modulus (GPa) = 26.22711 27.65298 26.94004
#
# Velocity S-wave (km/s) = 3.56559 3.66123 3.61373
# Velocity P-wave (km/s) = 6.28974 6.36453 6.32725
#
# Compressibility (1/GPa) = 0.02143973
#
# Stress axis : x y z
#
# Youngs Moduli (GPa) = 91.43333 63.26272 65.47995
#
# Poissons Ratio (x) = 0.14941 0.07200
# Poissons Ratio (y) = 0.21594 0.44702
# Poissons Ratio (z) = 0.10054 0.43188
#
# Static dielectric constant tensor:
#      x y z
#    x 3.908220 0.000000 0.000000 
#    y 0.000000 3.565080 0.000000 
#    z 0.000000 0.000000 3.624620 
# 
# 
# High freq. dielectric constant tensor:
#      x y z
#    x 1.826740 0.000000 0.000000 
#    y 0.000000 1.792660 0.000000 
#    z 0.000000 0.000000 1.804020 
# 
# From -- ./inp_files/4514.got.cif
#   From: 2010.03.12/outbox.cif.g09.slc.cpg/sg19_3_cif.got.tgz:4514.got - 2010.04.10 18:59:41.
