data_PCOD8157304
_publ_section_title
;
Structure prediction by ZEFSAII (Michael W. Deem and Ramdas Pophale) SiO2 
 PCOD8157304
Probable space group: P 21 21 21
;
_chemical_formula_sum "Si O2"
_cell_formula_units_Z 24
_cell_length_a 8.696081
_cell_length_b 7.720311
_cell_length_c 14.496885
_cell_angle_alpha 90.000000
_cell_angle_beta 90.000000
_cell_angle_gamma 90.000000
_cell_volume 973.269392
_symmetry_space_group_name_H-M "P 21 21 21"
_symmetry_group_IT_number 19
_symmetry_cell_setting 'orthorhombic'
loop_
_space_group_symop_operation_xyz
x,y,z
1/2-x,-y,1/2+z
1/2+x,1/2-y,-z
-x,1/2+y,1/2-z
loop_
_atom_site_type_symbol
_atom_site_label
_atom_site_fract_x
_atom_site_fract_y
_atom_site_fract_z
Si Si1 0.273366 0.410297 0.084014
Si Si2 0.549900 0.264379 0.429932
Si Si3 0.186475 0.130009 0.833185
Si Si4 0.342346 0.046522 0.528790
Si Si5 0.469852 0.249392 0.923697
Si Si6 0.908305 0.291287 0.757074
O O1 0.333961 0.604167 0.086505
O O2 0.291487 0.329734 0.186476
O O3 0.091377 0.406727 0.057614
O O4 0.359290 0.285421 0.010688
O O5 0.440375 0.225113 0.518608
O O6 0.662486 0.427478 0.448353
O O7 0.439109 0.296332 0.342972
O O8 0.361644 0.198784 0.836679
O O9 0.073206 0.290664 0.810678
O O10 0.161964 0.984310 0.753617
O O11 0.136502 0.046538 0.929801
O O12 0.426208 0.919450 0.601826
#
# Coordination Sequence:
#
# PCOD8157304 Si02
#       6
#     4   4   4   4   4   4
#     4  11  22  44  70 101 143 191 242 298 366 436
#     4  10  24  42  68 105 137 187 245 298 376 423
#     4  11  24  45  68 104 136 198 237 292 375 423
#     4  10  22  44  69 105 136 185 244 300 351 443
#     4  11  22  43  73 101 138 190 246 289 360 431
#     4  11  22  48  66 100 148 187 242 301 372 432
#
# _framework density 24.659153
#
# number of rings (size 3 to 8) (size 9 to 14) (size 15 to 20)
#    0.000    1.333    6.667    0.000    4.667    0.000 
#   18.000    0.000    0.000    0.000    0.000    0.000 
#    0.000    0.000    0.000    0.000    0.000    0.000 
#
# Total GULP energy -297400.552724 kJ/mol
# GULP energy per Si atom -12391.689697 kJ/mol
# Density = 2.460303 g / cm^3
# Si number density = 24.659153 Si / 1000 Ang^3
#
#
#
# Elastic Constant Matrix: (Units=GPa)
#
#
# Indices 1 2 3 4 5 6 
#
# 1 116.3539 -1.1862 12.2926 0.0000 0.0000 0.0000
# 2 -1.1862 43.3127 12.6425 0.0000 0.0000 0.0000
# 3 12.2926 12.6425 50.8526 0.0000 0.0000 0.0000
# 4 0.0000 0.0000 0.0000 32.4134 0.0000 0.0000
# 5 0.0000 0.0000 0.0000 0.0000 47.1106 0.0000
# 6 0.0000 0.0000 0.0000 0.0000 0.0000 55.2798
#
#
#
# Elastic Compliance Matrix: (Units=1/GPa)
#
#
# Indices 1 2 3 4 5 6 
#
# 1 0.008855 0.000935 -0.002373 0.000000 0.000000 0.000000
# 2 0.000935 0.024993 -0.006440 0.000000 0.000000 0.000000
# 3 -0.002373 -0.006440 0.021839 0.000000 0.000000 0.000000
# 4 0.000000 0.000000 0.000000 0.030851 0.000000 0.000000
# 5 0.000000 0.000000 0.000000 0.000000 0.021227 0.000000
# 6 0.000000 0.000000 0.000000 0.000000 0.000000 0.018090
#
#
# Mechanical properties :
#
#
# Convention : Reuss Voigt Hill
#
# Bulk Modulus (GPa) = 25.04239 28.66857 26.85548
# Shear Modulus (GPa) = 32.27459 39.41212 35.84336
#
# Velocity S-wave (km/s) = 3.62170 4.00218 3.81668
# Velocity P-wave (km/s) = 5.25988 5.74524 5.50791
#
# Compressibility (1/GPa) = 0.03993229
#
# Stress axis : x y z
#
# Youngs Moduli (GPa) = 112.93442 40.01086 45.78914
#
# Poissons Ratio (x) = -0.03742 0.10865
# Poissons Ratio (y) = -0.10561 0.29487
# Poissons Ratio (z) = 0.26799 0.25766
#
# Static dielectric constant tensor:
#      x y z
#    x 4.871920 0.000000 0.000000 
#    y 0.000000 4.519420 0.000000 
#    z 0.000000 0.000000 4.254450 
# 
# 
# High freq. dielectric constant tensor:
#      x y z
#    x 1.991800 0.000000 0.000000 
#    y 0.000000 1.977710 0.000000 
#    z 0.000000 0.000000 1.947730 
# 
# From -- ./inp_files/5839.got.cif
#   From: 2010.03.12/outbox.cif.g09.slc.cpg/sg19_3_cif.got.tgz:5839.got - 2010.04.10 18:59:41.
