data_PCOD8157821
_publ_section_title
;
Structure prediction by ZEFSAII (Michael W. Deem and Ramdas Pophale) SiO2 
 PCOD8157821
Probable space group: P 21 21 21
;
_chemical_formula_sum "Si O2"
_cell_formula_units_Z 20
_cell_length_a 4.983978
_cell_length_b 13.100625
_cell_length_c 12.163661
_cell_angle_alpha 90.000000
_cell_angle_beta 90.000000
_cell_angle_gamma 90.000000
_cell_volume 794.204676
_symmetry_space_group_name_H-M "P 21 21 21"
_symmetry_group_IT_number 19
_symmetry_cell_setting 'orthorhombic'
loop_
_space_group_symop_operation_xyz
x,y,z
1/2-x,-y,1/2+z
1/2+x,1/2-y,-z
-x,1/2+y,1/2-z
loop_
_atom_site_type_symbol
_atom_site_label
_atom_site_fract_x
_atom_site_fract_y
_atom_site_fract_z
Si Si1 0.395902 0.959494 0.413003
Si Si2 0.061826 0.373119 0.738507
Si Si3 0.094577 0.473264 0.362627
Si Si4 0.570314 0.351363 0.298538
Si Si5 0.452063 0.184946 0.026305
O O1 0.508688 0.872175 0.329612
O O2 0.106100 0.916447 0.452706
O O3 0.373600 0.067415 0.348956
O O4 0.587989 0.971661 0.518954
O O5 0.316877 0.443362 0.770938
O O6 0.152699 0.266242 0.683248
O O7 0.892070 0.348751 0.848114
O O8 0.312742 0.381881 0.371172
O O9 0.810034 0.426761 0.330577
O O10 0.753229 0.223242 0.008053
#
# Coordination Sequence:
#
# PCOD8157821 Si02
#       5
#     4   4   4   4   4
#     4  11  25  47  76 107 152 193 251 311 368 450
#     4  11  27  50  78 114 152 204 250 315 381 447
#     4  11  27  48  70 115 148 197 257 307 375 453
#     4  11  27  46  76 108 152 199 252 308 382 447
#     4  12  26  47  78 112 148 199 254 311 370 445
#
# _framework density 25.182424999999999
#
# number of rings (size 3 to 8) (size 9 to 14) (size 15 to 20)
#    0.000    0.800    2.000    3.600    2.800    9.600 
#    0.000    0.000    0.000    0.000    0.000    0.000 
#    0.000    0.000    0.000    0.000    0.000    0.000 
#
# Total GULP energy -247938.824748 kJ/mol
# GULP energy per Si atom -12396.941237 kJ/mol
# Density = 2.512511 g / cm^3
# Si number density = 25.182425 Si / 1000 Ang^3
#
#
#
# Elastic Constant Matrix: (Units=GPa)
#
#
# Indices 1 2 3 4 5 6 
#
# 1 68.5314 11.4520 32.2396 0.0000 0.0000 0.0000
# 2 11.4520 166.0497 41.9422 0.0000 0.0000 0.0000
# 3 32.2396 41.9422 92.4696 0.0000 0.0000 0.0000
# 4 0.0000 0.0000 0.0000 44.5779 0.0000 0.0000
# 5 0.0000 0.0000 0.0000 0.0000 31.0216 0.0000
# 6 0.0000 0.0000 0.0000 0.0000 0.0000 36.2197
#
#
#
# Elastic Compliance Matrix: (Units=1/GPa)
#
#
# Indices 1 2 3 4 5 6 
#
# 1 0.017476 0.000377 -0.006264 0.000000 0.000000 0.000000
# 2 0.000377 0.006810 -0.003220 0.000000 0.000000 0.000000
# 3 -0.006264 -0.003220 0.014459 0.000000 0.000000 0.000000
# 4 0.000000 0.000000 0.000000 0.022433 0.000000 0.000000
# 5 0.000000 0.000000 0.000000 0.000000 0.032236 0.000000
# 6 0.000000 0.000000 0.000000 0.000000 0.000000 0.027609
#
#
# Mechanical properties :
#
#
# Convention : Reuss Voigt Hill
#
# Bulk Modulus (GPa) = 48.70922 55.36871 52.03897
# Shear Modulus (GPa) = 34.22805 38.45831 36.34318
#
# Velocity S-wave (km/s) = 3.69074 3.91217 3.80306
# Velocity P-wave (km/s) = 6.12753 6.51471 6.32408
#
# Compressibility (1/GPa) = 0.02052999
#
# Stress axis : x y z
#
# Youngs Moduli (GPa) = 57.22264 146.85013 69.16185
#
# Poissons Ratio (x) = -0.05535 0.43322
# Poissons Ratio (y) = -0.02157 0.22271
# Poissons Ratio (z) = 0.35843 0.47288
#
# Static dielectric constant tensor:
#      x y z
#    x 4.059060 0.000000 0.000000 
#    y 0.000000 4.885190 0.000000 
#    z 0.000000 0.000000 4.827780 
# 
# 
# High freq. dielectric constant tensor:
#      x y z
#    x 1.984360 0.000000 0.000000 
#    y 0.000000 2.025750 0.000000 
#    z 0.000000 0.000000 1.999750 
# 
# From -- ./inp_files/4410.got.cif
#   From: 2010.03.12/outbox.cif.g09.slc.cpg/sg19_3_cif.got.tgz:4410.got - 2010.04.10 18:59:41.
