data_PCOD8157372
_publ_section_title
;
Structure prediction by ZEFSAII (Michael W. Deem and Ramdas Pophale) SiO2 
 PCOD8157372
Probable space group: P 21 21 21
;
_chemical_formula_sum "Si O2"
_cell_formula_units_Z 24
_cell_length_a 8.986413
_cell_length_b 8.498107
_cell_length_c 13.802960
_cell_angle_alpha 90.000000
_cell_angle_beta 90.000000
_cell_angle_gamma 90.000000
_cell_volume 1054.097537
_symmetry_space_group_name_H-M "P 21 21 21"
_symmetry_group_IT_number 19
_symmetry_cell_setting 'orthorhombic'
loop_
_space_group_symop_operation_xyz
x,y,z
1/2-x,-y,1/2+z
1/2+x,1/2-y,-z
-x,1/2+y,1/2-z
loop_
_atom_site_type_symbol
_atom_site_label
_atom_site_fract_x
_atom_site_fract_y
_atom_site_fract_z
Si Si1 0.371243 0.216718 0.448215
Si Si2 0.533236 0.377934 0.286767
Si Si3 0.058344 0.217320 0.374500
Si Si4 0.001321 0.813458 0.607210
Si Si5 0.816594 0.622001 0.470329
Si Si6 0.124850 0.971536 0.220677
O O1 0.486436 0.237393 0.359627
O O2 0.209467 0.287695 0.421270
O O3 0.434517 0.307814 0.542270
O O4 0.353217 0.032467 0.467678
O O5 0.470892 0.332661 0.180671
O O6 0.454469 0.536430 0.327225
O O7 0.711248 0.394834 0.283469
O O8 0.095464 0.051269 0.324025
O O9 0.997967 0.337250 0.293740
O O10 0.142151 0.854618 0.542151
O O11 0.874863 0.772631 0.529128
O O12 0.890588 0.602205 0.364290
#
# Coordination Sequence:
#
# PCOD8157372 Si02
#       6
#     4   4   4   4   4   4
#     4  11  23  44  69  97 134 177 225 275 331 403
#     4  11  24  44  69  96 132 178 226 274 333 402
#     4  11  23  43  68  97 133 173 223 279 338 402
#     4  11  23  43  68  97 133 175 222 279 336 400
#     4  10  23  43  65  95 135 173 222 279 333 398
#     4  10  24  43  65  96 133 176 224 282 337 397
#
# _framework density 22.768291999999999
#
# number of rings (size 3 to 8) (size 9 to 14) (size 15 to 20)
#    0.000    1.333    0.000    7.000    0.000    8.000 
#    0.000   20.000    0.000    0.000    0.000    0.000 
#    0.000    0.000    0.000    0.000    0.000    0.000 
#
# Total GULP energy -297594.910563 kJ/mol
# GULP energy per Si atom -12399.787940 kJ/mol
# Density = 2.271647 g / cm^3
# Si number density = 22.768292 Si / 1000 Ang^3
#
#
#
# Elastic Constant Matrix: (Units=GPa)
#
#
# Indices 1 2 3 4 5 6 
#
# 1 119.0176 62.6960 54.7736 0.0000 0.0000 0.0000
# 2 62.6960 65.7711 43.9817 0.0000 0.0000 0.0000
# 3 54.7736 43.9817 110.3964 0.0000 0.0000 0.0000
# 4 0.0000 0.0000 0.0000 53.4362 0.0000 0.0000
# 5 0.0000 0.0000 0.0000 0.0000 41.1482 0.0000
# 6 0.0000 0.0000 0.0000 0.0000 0.0000 39.1349
#
#
#
# Elastic Compliance Matrix: (Units=1/GPa)
#
#
# Indices 1 2 3 4 5 6 
#
# 1 0.017478 -0.014807 -0.002773 0.000000 0.000000 0.000000
# 2 -0.014807 0.033269 -0.005908 0.000000 0.000000 0.000000
# 3 -0.002773 -0.005908 0.012788 0.000000 0.000000 0.000000
# 4 0.000000 0.000000 0.000000 0.018714 0.000000 0.000000
# 5 0.000000 0.000000 0.000000 0.000000 0.024302 0.000000
# 6 0.000000 0.000000 0.000000 0.000000 0.000000 0.025553
#
#
# Mechanical properties :
#
#
# Convention : Reuss Voigt Hill
#
# Bulk Modulus (GPa) = 60.38627 68.67642 64.53135
# Shear Modulus (GPa) = 27.08569 35.65943 31.37256
#
# Velocity S-wave (km/s) = 3.45283 3.96180 3.71604
# Velocity P-wave (km/s) = 6.51734 7.15238 6.84223
#
# Compressibility (1/GPa) = 0.01656006
#
# Stress axis : x y z
#
# Youngs Moduli (GPa) = 57.21468 30.05770 78.19949
#
# Poissons Ratio (x) = 0.44505 0.21684
# Poissons Ratio (y) = 0.84715 0.46201
# Poissons Ratio (z) = 0.15865 0.17758
#
# Static dielectric constant tensor:
#      x y z
#    x 4.016340 0.000000 0.000000 
#    y 0.000000 4.031210 0.000000 
#    z 0.000000 0.000000 4.378650 
# 
# 
# High freq. dielectric constant tensor:
#      x y z
#    x 1.889630 0.000000 0.000000 
#    y 0.000000 1.883000 0.000000 
#    z 0.000000 0.000000 1.920070 
# 
# From -- ./inp_files/2811.got.cif
#   From: 2010.03.12/outbox.cif.g09.slc.cpg/sg19_2_cif.got.tgz:2811.got - 2010.04.10 18:59:41.
