data_PCOD8157781
_publ_section_title
;
Structure prediction by ZEFSAII (Michael W. Deem and Ramdas Pophale) SiO2 
 PCOD8157781
Probable space group: P 21 21 21
;
_chemical_formula_sum "Si O2"
_cell_formula_units_Z 32
_cell_length_a 8.595766
_cell_length_b 9.399658
_cell_length_c 18.351524
_cell_angle_alpha 90.000000
_cell_angle_beta 90.000000
_cell_angle_gamma 90.000000
_cell_volume 1482.752868
_symmetry_space_group_name_H-M "P 21 21 21"
_symmetry_group_IT_number 19
_symmetry_cell_setting 'orthorhombic'
loop_
_space_group_symop_operation_xyz
x,y,z
1/2-x,-y,1/2+z
1/2+x,1/2-y,-z
-x,1/2+y,1/2-z
loop_
_atom_site_type_symbol
_atom_site_label
_atom_site_fract_x
_atom_site_fract_y
_atom_site_fract_z
Si Si1 0.804529 0.655035 0.049151
Si Si2 0.100163 0.574695 0.961515
Si Si3 0.413916 0.804493 0.793003
Si Si4 0.031715 0.974777 0.686443
Si Si5 0.138774 0.668341 0.708015
Si Si6 0.612096 0.542797 0.820941
Si Si7 0.779078 0.153240 0.951819
Si Si8 0.595763 0.432038 0.975843
O O1 0.739594 0.813370 0.040818
O O2 0.866880 0.625454 0.130222
O O3 0.667252 0.543813 0.032674
O O4 0.942364 0.643823 0.990942
O O5 0.075989 0.516473 0.880753
O O6 0.148860 0.446086 0.013448
O O7 0.272471 0.709360 0.764512
O O8 0.563444 0.702892 0.800654
O O9 0.456461 0.930799 0.737391
O O10 0.202944 0.037339 0.675625
O O11 0.963431 0.040818 0.760238
O O12 0.029741 0.804838 0.693488
O O13 0.211994 0.612270 0.632990
O O14 0.543783 0.507368 0.900732
O O15 0.728482 0.316821 0.958439
O O16 0.945606 0.140520 0.989710
#
# Coordination Sequence:
#
# PCOD8157781 Si02
#       8
#     4   4   4   4   4   4   4   4
#     4  12  25  44  69 105 139 185 233 285 345 413
#     4  12  25  45  72 103 145 181 237 286 348 414
#     4  11  25  44  69 100 138 180 232 283 349 410
#     4  11  24  48  69 102 142 181 231 291 341 421
#     4  11  25  46  69  99 140 178 237 284 349 414
#     4  11  25  48  66 104 140 183 228 292 339 418
#     4  12  26  46  73 105 136 188 230 293 351 414
#     4  12  25  47  71 102 146 176 240 286 348 416
#
# _framework density 21.581479999999999
#
# number of rings (size 3 to 8) (size 9 to 14) (size 15 to 20)
#    0.000    0.500    5.000    3.750    5.250    3.000 
#    0.000    0.000    0.000    0.000    0.000    0.000 
#    0.000    0.000    0.000    0.000    0.000    0.000 
#
# Total GULP energy -397089.018337 kJ/mol
# GULP energy per Si atom -12409.031823 kJ/mol
# Density = 2.153236 g / cm^3
# Si number density = 21.581480 Si / 1000 Ang^3
#
#
#
# Elastic Constant Matrix: (Units=GPa)
#
#
# Indices 1 2 3 4 5 6 
#
# 1 56.6140 31.7157 22.0027 0.0000 0.0000 0.0000
# 2 31.7157 98.7437 52.8796 0.0000 0.0000 0.0000
# 3 22.0027 52.8796 120.9021 0.0000 0.0000 0.0000
# 4 0.0000 0.0000 0.0000 42.0401 0.0000 0.0000
# 5 0.0000 0.0000 0.0000 0.0000 34.2238 0.0000
# 6 0.0000 0.0000 0.0000 0.0000 0.0000 45.7666
#
#
#
# Elastic Compliance Matrix: (Units=1/GPa)
#
#
# Indices 1 2 3 4 5 6 
#
# 1 0.021666 -0.006330 -0.001174 0.000000 0.000000 0.000000
# 2 -0.006330 0.015074 -0.005441 0.000000 0.000000 0.000000
# 3 -0.001174 -0.005441 0.010865 0.000000 0.000000 0.000000
# 4 0.000000 0.000000 0.000000 0.023787 0.000000 0.000000
# 5 0.000000 0.000000 0.000000 0.000000 0.029219 0.000000
# 6 0.000000 0.000000 0.000000 0.000000 0.000000 0.021850
#
#
# Mechanical properties :
#
#
# Convention : Reuss Voigt Hill
#
# Bulk Modulus (GPa) = 46.05340 54.38396 50.21868
# Shear Modulus (GPa) = 32.13572 35.71691 33.92631
#
# Velocity S-wave (km/s) = 3.86300 4.07256 3.96916
# Velocity P-wave (km/s) = 6.42516 6.88247 6.65774
#
# Compressibility (1/GPa) = 0.02171392
#
# Stress axis : x y z
#
# Youngs Moduli (GPa) = 46.15521 66.33840 92.04142
#
# Poissons Ratio (x) = 0.41993 0.10809
# Poissons Ratio (y) = 0.29217 0.50081
# Poissons Ratio (z) = 0.05420 0.36095
#
# Static dielectric constant tensor:
#      x y z
#    x 3.793220 0.000000 0.000000 
#    y 0.000000 3.919520 0.000000 
#    z 0.000000 0.000000 4.074670 
# 
# 
# High freq. dielectric constant tensor:
#      x y z
#    x 1.849210 0.000000 0.000000 
#    y 0.000000 1.851750 0.000000 
#    z 0.000000 0.000000 1.864100 
# 
# From -- ./inp_files/6621.got.cif
#   From: 2010.03.12/outbox.cif.g09.slc.cpg/sg19_4_cif.got.tgz:6621.got - 2010.04.10 18:59:41.
