data_PCOD8157674
_publ_section_title
;
Structure prediction by ZEFSAII (Michael W. Deem and Ramdas Pophale) SiO2 
 PCOD8157674
Probable space group: P 21 21 21
;
_chemical_formula_sum "Si O2"
_cell_formula_units_Z 24
_cell_length_a 9.055017
_cell_length_b 9.756216
_cell_length_c 12.877776
_cell_angle_alpha 90.000000
_cell_angle_beta 90.000000
_cell_angle_gamma 90.000000
_cell_volume 1137.657524
_symmetry_space_group_name_H-M "P 21 21 21"
_symmetry_group_IT_number 19
_symmetry_cell_setting 'orthorhombic'
loop_
_space_group_symop_operation_xyz
x,y,z
1/2-x,-y,1/2+z
1/2+x,1/2-y,-z
-x,1/2+y,1/2-z
loop_
_atom_site_type_symbol
_atom_site_label
_atom_site_fract_x
_atom_site_fract_y
_atom_site_fract_z
Si Si1 0.892747 0.364747 0.494939
Si Si2 0.726019 0.201506 0.171095
Si Si3 0.299858 0.635733 0.098652
Si Si4 0.888929 0.886829 0.459494
Si Si5 0.053370 0.115462 0.150733
Si Si6 0.828677 0.500363 0.139636
O O1 0.833721 0.237736 0.428470
O O2 0.890359 0.497945 0.424223
O O3 0.787652 0.393914 0.592189
O O4 0.055145 0.325005 0.534027
O O5 0.662180 0.145131 0.279358
O O6 0.744263 0.365127 0.179416
O O7 0.878034 0.126450 0.143985
O O8 0.613226 0.161639 0.079291
O O9 0.248720 0.483264 0.069097
O O10 0.870979 0.757216 0.383300
O O11 0.046276 0.960144 0.443913
O O12 0.095119 0.081943 0.267805
#
# Coordination Sequence:
#
# PCOD8157674 Si02
#       6
#     4   4   4   4   4   4
#     4  12  26  46  68 103 140 181 237 289 351 421
#     4  11  23  44  71 104 137 183 235 290 350 416
#     4  12  26  45  69 105 140 182 236 289 352 418
#     4  11  24  44  75 100 136 183 239 289 346 421
#     4  11  23  44  73  99 142 187 228 280 364 412
#     4  11  24  45  72 101 139 190 229 289 355 416
#
# _framework density 21.095980000000001
#
# number of rings (size 3 to 8) (size 9 to 14) (size 15 to 20)
#    0.000    0.667    6.667    1.000    0.000    2.667 
#    6.000    0.000    0.000    0.000    0.000    0.000 
#    0.000    0.000    0.000    0.000    0.000    0.000 
#
# Total GULP energy -297783.213139 kJ/mol
# GULP energy per Si atom -12407.633881 kJ/mol
# Density = 2.104796 g / cm^3
# Si number density = 21.095980 Si / 1000 Ang^3
#
#
#
# Elastic Constant Matrix: (Units=GPa)
#
#
# Indices 1 2 3 4 5 6 
#
# 1 85.0263 33.9751 36.0933 0.0000 0.0000 0.0000
# 2 33.9751 100.4980 36.8943 0.0000 0.0000 0.0000
# 3 36.0933 36.8943 105.0949 0.0000 0.0000 0.0000
# 4 0.0000 0.0000 0.0000 35.9652 0.0000 0.0000
# 5 0.0000 0.0000 0.0000 0.0000 41.2477 0.0000
# 6 0.0000 0.0000 0.0000 0.0000 0.0000 33.3278
#
#
#
# Elastic Compliance Matrix: (Units=1/GPa)
#
#
# Indices 1 2 3 4 5 6 
#
# 1 0.014827 -0.003608 -0.003825 0.000000 0.000000 0.000000
# 2 -0.003608 0.012301 -0.003079 0.000000 0.000000 0.000000
# 3 -0.003825 -0.003079 0.011910 0.000000 0.000000 0.000000
# 4 0.000000 0.000000 0.000000 0.027805 0.000000 0.000000
# 5 0.000000 0.000000 0.000000 0.000000 0.024244 0.000000
# 6 0.000000 0.000000 0.000000 0.000000 0.000000 0.030005
#
#
# Mechanical properties :
#
#
# Convention : Reuss Voigt Hill
#
# Bulk Modulus (GPa) = 55.51807 56.06050 55.78929
# Shear Modulus (GPa) = 33.75653 34.35192 34.05423
#
# Velocity S-wave (km/s) = 4.00452 4.03968 4.02213
# Velocity P-wave (km/s) = 6.91054 6.95632 6.93347
#
# Compressibility (1/GPa) = 0.01801215
#
# Stress axis : x y z
#
# Youngs Moduli (GPa) = 67.44627 81.29695 83.96370
#
# Poissons Ratio (x) = 0.29332 0.32119
# Poissons Ratio (y) = 0.24335 0.25853
# Poissons Ratio (z) = 0.25801 0.25032
#
# Static dielectric constant tensor:
#      x y z
#    x 3.683100 0.000000 0.000000 
#    y 0.000000 3.932490 0.000000 
#    z 0.000000 0.000000 3.889310 
# 
# 
# High freq. dielectric constant tensor:
#      x y z
#    x 1.820450 0.000000 0.000000 
#    y 0.000000 1.837910 0.000000 
#    z 0.000000 0.000000 1.834760 
# 
# From -- ./inp_files/2673.got.cif
#   From: 2010.03.12/outbox.cif.g09.slc.cpg/sg19_2_cif.got.tgz:2673.got - 2010.04.10 18:59:41.
