data_PCOD8157960
_publ_section_title
;
Structure prediction by ZEFSAII (Michael W. Deem and Ramdas Pophale) SiO2 
 PCOD8157960
Probable space group: C 2 2 21
;
_chemical_formula_sum "Si O2"
_cell_formula_units_Z 44
_cell_length_a 17.658909
_cell_length_b 12.385452
_cell_length_c 11.070063
_cell_angle_alpha 90.000000
_cell_angle_beta 90.000000
_cell_angle_gamma 90.000000
_cell_volume 2421.172997
_symmetry_space_group_name_H-M "C 2 2 21"
_symmetry_group_IT_number 20
_symmetry_cell_setting 'orthorhombic'
loop_
_space_group_symop_operation_xyz
x,y,z
-x,-y,1/2+z
x,-y,-z
-x,y,1/2-z
1/2+x,1/2+y,z
1/2-x,1/2-y,1/2+z
1/2+x,1/2-y,-z
1/2-x,1/2+y,1/2-z
loop_
_atom_site_type_symbol
_atom_site_label
_atom_site_fract_x
_atom_site_fract_y
_atom_site_fract_z
Si Si1 0.531850 0.615765 0.060323
Si Si2 0.377464 0.097455 0.718739
Si Si3 0.500000 0.059540 0.250000
Si Si4 0.764861 0.443903 0.621947
Si Si5 0.612537 0.664580 0.303296
Si Si6 0.087921 0.671200 0.044101
O O1 0.575338 0.611249 0.186569
O O2 0.443959 0.648663 0.083230
O O3 0.536022 0.500000 0.000000
O O4 0.573559 0.701409 0.973191
O O5 0.371355 0.208866 0.788732
O O6 0.415407 0.110843 0.585304
O O7 0.431246 0.017022 0.792955
O O8 0.295878 0.039951 0.708056
O O9 0.522775 0.131141 0.134604
O O10 0.737500 0.500000 0.500000
O O11 0.692881 0.390616 0.681967
O O12 0.829374 0.352528 0.600988
#
# Coordination Sequence:
#
# PCOD8157960 Si02
#       6
#     8   8   4   8   8   8
#     4  10  21  36  53  76 108 140 173 218 264 311
#     4   9  18  33  53  76 105 136 166 213 263 304
#     4  10  16  30  56  76  96 132 172 208 252 302
#     4   9  18  34  55  76 101 136 175 216 258 307
#     4  10  20  35  55  75 102 143 178 207 265 327
#     4   9  19  34  53  78 105 134 171 214 259 306
#
# _framework density 18.173010000000001
#
# number of rings (size 3 to 8) (size 9 to 14) (size 15 to 20)
#    0.000    2.545    0.000    4.364    0.000    2.909 
#    0.000   12.727    0.000    8.727    0.000    0.000 
#    0.000    0.000    0.000    0.000    0.000    0.000 
#
# Total GULP energy -272720.305854 kJ/mol
# GULP energy per Si atom -12396.377539 kJ/mol
# Density = 1.813165 g / cm^3
# Si number density = 18.173010 Si / 1000 Ang^3
#
#
#
# Elastic Constant Matrix: (Units=GPa)
#
#
# Indices 1 2 3 4 5 6 
#
# 1 114.0655 64.4632 41.2919 0.0000 0.0000 0.0000
# 2 64.4632 145.4701 49.4774 0.0000 0.0000 0.0000
# 3 41.2919 49.4774 44.1443 0.0000 0.0000 0.0000
# 4 0.0000 0.0000 0.0000 24.6558 0.0000 0.0000
# 5 0.0000 0.0000 0.0000 0.0000 19.0565 0.0000
# 6 0.0000 0.0000 0.0000 0.0000 0.0000 30.2508
#
#
#
# Elastic Compliance Matrix: (Units=1/GPa)
#
#
# Indices 1 2 3 4 5 6 
#
# 1 0.013934 -0.002815 -0.009879 0.000000 0.000000 0.000000
# 2 -0.002815 0.011678 -0.010456 0.000000 0.000000 0.000000
# 3 -0.009879 -0.010456 0.043612 0.000000 0.000000 0.000000
# 4 0.000000 0.000000 0.000000 0.040558 0.000000 0.000000
# 5 0.000000 0.000000 0.000000 0.000000 0.052476 0.000000
# 6 0.000000 0.000000 0.000000 0.000000 0.000000 0.033057
#
#
# Mechanical properties :
#
#
# Convention : Reuss Voigt Hill
#
# Bulk Modulus (GPa) = 43.61949 68.23831 55.92890
# Shear Modulus (GPa) = 20.05978 24.68909 22.37444
#
# Velocity S-wave (km/s) = 3.32599 3.68986 3.51264
# Velocity P-wave (km/s) = 6.22929 7.46888 6.87707
#
# Compressibility (1/GPa) = 0.02292553
#
# Stress axis : x y z
#
# Youngs Moduli (GPa) = 71.76878 85.63294 22.92927
#
# Poissons Ratio (x) = 0.24102 0.22651
# Poissons Ratio (y) = 0.20200 0.23974
# Poissons Ratio (z) = 0.70898 0.89536
#
# Static dielectric constant tensor:
#      x y z
#    x 3.321270 0.000000 0.000000 
#    y 0.000000 3.439740 0.000000 
#    z 0.000000 0.000000 3.213400 
# 
# 
# High freq. dielectric constant tensor:
#      x y z
#    x 1.702000 0.000000 0.000000 
#    y 0.000000 1.710830 0.000000 
#    z 0.000000 0.000000 1.684620 
# 
# From -- ./inp_files/14033.got.cif
#   From: 2010.03.12/outbox.cif.g09.slc.cpg/sg20_8_cif.got.tgz:14033.got - 2010.04.14 01:38:04.
