data_PCOD8157336
_publ_section_title
;
Structure prediction by ZEFSAII (Michael W. Deem and Ramdas Pophale) SiO2 
 PCOD8157336
Probable space group: P 21 21 21
;
_chemical_formula_sum "Si O2"
_cell_formula_units_Z 32
_cell_length_a 9.785127
_cell_length_b 10.483613
_cell_length_c 14.598095
_cell_angle_alpha 90.000000
_cell_angle_beta 90.000000
_cell_angle_gamma 90.000000
_cell_volume 1497.523454
_symmetry_space_group_name_H-M "P 21 21 21"
_symmetry_group_IT_number 19
_symmetry_cell_setting 'orthorhombic'
loop_
_space_group_symop_operation_xyz
x,y,z
1/2-x,-y,1/2+z
1/2+x,1/2-y,-z
-x,1/2+y,1/2-z
loop_
_atom_site_type_symbol
_atom_site_label
_atom_site_fract_x
_atom_site_fract_y
_atom_site_fract_z
Si Si1 0.380749 0.037558 0.263906
Si Si2 0.390890 0.780331 0.943946
Si Si3 0.903744 0.477045 0.179945
Si Si4 0.343455 0.415672 0.261326
Si Si5 0.087327 0.492753 0.349864
Si Si6 0.999998 0.745021 0.441573
Si Si7 0.308016 0.232955 0.106944
Si Si8 0.898824 0.276570 0.588693
O O1 0.258355 0.953238 0.306348
O O2 0.317231 0.126708 0.185462
O O3 0.453987 0.104326 0.352293
O O4 0.501524 0.956931 0.219901
O O5 0.434770 0.891020 0.873450
O O6 0.419431 0.637938 0.907328
O O7 0.233430 0.806233 0.975827
O O8 0.482252 0.795281 0.035082
O O9 0.969481 0.354741 0.131947
O O10 0.962463 0.492068 0.280672
O O11 0.226934 0.516181 0.291119
O O12 0.319247 0.370193 0.157076
O O13 0.320708 0.303170 0.333212
O O14 0.072639 0.612090 0.417263
O O15 0.064341 0.786790 0.538577
O O16 0.836002 0.725483 0.447481
#
# Coordination Sequence:
#
# PCOD8157336 Si02
#       8
#     4   4   4   4   4   4   4   4
#     4  10  23  43  67  91 139 175 223 269 341 399
#     4  10  23  40  66  93 130 163 219 268 319 388
#     4  11  23  44  68  95 132 180 218 271 338 398
#     4  10  23  43  67  91 139 175 223 269 341 399
#     4  11  23  44  68  95 132 180 218 271 338 398
#     4  12  27  41  73 100 137 174 238 279 345 404
#     4  11  26  45  63 103 142 176 221 298 334 406
#     4   9  22  40  62  94 125 167 214 271 320 384
#
# _framework density 21.368614000000001
#
# number of rings (size 3 to 8) (size 9 to 14) (size 15 to 20)
#    0.000    1.500    2.500    1.500    7.000    5.000 
#    0.000    0.000    0.000    0.000    0.000    0.000 
#    0.000    0.000    0.000    0.000    0.000    0.000 
#
# Total GULP energy -396601.562714 kJ/mol
# GULP energy per Si atom -12393.798835 kJ/mol
# Density = 2.131998 g / cm^3
# Si number density = 21.368614 Si / 1000 Ang^3
#
#
#
# Elastic Constant Matrix: (Units=GPa)
#
#
# Indices 1 2 3 4 5 6 
#
# 1 113.9751 5.2123 31.7520 0.0000 0.0000 0.0000
# 2 5.2123 77.2012 1.9861 0.0000 0.0000 0.0000
# 3 31.7520 1.9861 74.3767 0.0000 0.0000 0.0000
# 4 0.0000 0.0000 0.0000 22.2824 0.0000 0.0000
# 5 0.0000 0.0000 0.0000 0.0000 44.0840 0.0000
# 6 0.0000 0.0000 0.0000 0.0000 0.0000 28.0933
#
#
#
# Elastic Compliance Matrix: (Units=1/GPa)
#
#
# Indices 1 2 3 4 5 6 
#
# 1 0.009983 -0.000565 -0.004247 0.000000 0.000000 0.000000
# 2 -0.000565 0.012994 -0.000106 0.000000 0.000000 0.000000
# 3 -0.004247 -0.000106 0.015261 0.000000 0.000000 0.000000
# 4 0.000000 0.000000 0.000000 0.044878 0.000000 0.000000
# 5 0.000000 0.000000 0.000000 0.000000 0.022684 0.000000
# 6 0.000000 0.000000 0.000000 0.000000 0.000000 0.035596
#
#
# Mechanical properties :
#
#
# Convention : Reuss Voigt Hill
#
# Bulk Modulus (GPa) = 35.20749 38.16153 36.68451
# Shear Modulus (GPa) = 31.11430 33.99878 32.55654
#
# Velocity S-wave (km/s) = 3.81999 3.99314 3.90753
# Velocity P-wave (km/s) = 5.99737 6.25761 6.12887
#
# Compressibility (1/GPa) = 0.02840305
#
# Stress axis : x y z
#
# Youngs Moduli (GPa) = 100.17302 76.95850 65.52735
#
# Poissons Ratio (x) = 0.04346 0.27827
# Poissons Ratio (y) = 0.05657 0.00694
# Poissons Ratio (z) = 0.42540 0.00815
#
# Static dielectric constant tensor:
#      x y z
#    x 3.952040 0.000000 0.000000 
#    y 0.000000 3.795290 0.000000 
#    z 0.000000 0.000000 3.815450 
# 
# 
# High freq. dielectric constant tensor:
#      x y z
#    x 1.850580 0.000000 0.000000 
#    y 0.000000 1.826780 0.000000 
#    z 0.000000 0.000000 1.837920 
# 
# From -- ./inp_files/5940.got.cif
#   From: 2010.03.12/outbox.cif.g09.slc.cpg/sg19_3_cif.got.tgz:5940.got - 2010.04.10 18:59:41.
