data_PCOD8157911
_publ_section_title
;
Structure prediction by ZEFSAII (Michael W. Deem and Ramdas Pophale) SiO2 
 PCOD8157911
Probable space group: P 21 21 21
;
_chemical_formula_sum "Si O2"
_cell_formula_units_Z 24
_cell_length_a 16.527537
_cell_length_b 9.547380
_cell_length_c 6.873520
_cell_angle_alpha 90.000000
_cell_angle_beta 90.000000
_cell_angle_gamma 90.000000
_cell_volume 1084.604863
_symmetry_space_group_name_H-M "P 21 21 21"
_symmetry_group_IT_number 19
_symmetry_cell_setting 'orthorhombic'
loop_
_space_group_symop_operation_xyz
x,y,z
1/2-x,-y,1/2+z
1/2+x,1/2-y,-z
-x,1/2+y,1/2-z
loop_
_atom_site_type_symbol
_atom_site_label
_atom_site_fract_x
_atom_site_fract_y
_atom_site_fract_z
Si Si1 0.499522 0.980347 0.080134
Si Si2 0.861256 0.102461 0.313121
Si Si3 0.351477 0.093650 0.858657
Si Si4 0.288512 0.639413 0.924670
Si Si5 0.409880 0.727137 0.248632
Si Si6 0.192198 0.149171 0.087318
O O1 0.478367 0.837285 0.189257
O O2 0.548490 0.076476 0.230986
O O3 0.552007 0.947672 0.888985
O O4 0.418540 0.060538 0.018935
O O5 0.870622 0.257090 0.231760
O O6 0.798057 0.096383 0.490701
O O7 0.833086 0.002257 0.138861
O O8 0.353981 0.979323 0.687707
O O9 0.264438 0.087562 0.959626
O O10 0.273342 0.741728 0.744013
O O11 0.340503 0.721216 0.085686
O O12 0.371880 0.769902 0.454366
#
# Coordination Sequence:
#
# PCOD8157911 Si02
#       6
#     4   4   4   4   4   4
#     4  12  30  46  74 114 148 190 240 316 374 428
#     4  12  27  46  79 109 147 195 243 304 371 439
#     4  12  27  46  79 109 147 195 243 304 371 439
#     4  12  25  53  76 109 148 196 256 296 364 452
#     4  12  28  52  74 112 148 196 246 308 370 442
#     4  12  25  53  76 109 148 196 256 296 364 452
#
# _framework density 22.127875
#
# number of rings (size 3 to 8) (size 9 to 14) (size 15 to 20)
#    0.000    0.000    5.000    4.000   11.667    0.000 
#    0.000    0.000    0.000    0.000    0.000    0.000 
#    0.000    0.000    0.000    0.000    0.000    0.000 
#
# Total GULP energy -297876.903449 kJ/mol
# GULP energy per Si atom -12411.537644 kJ/mol
# Density = 2.207751 g / cm^3
# Si number density = 22.127875 Si / 1000 Ang^3
#
#
#
# Elastic Constant Matrix: (Units=GPa)
#
#
# Indices 1 2 3 4 5 6 
#
# 1 65.1472 19.6290 3.3315 0.0000 0.0000 0.0000
# 2 19.6290 116.8369 34.6725 0.0000 0.0000 0.0000
# 3 3.3315 34.6725 81.3851 0.0000 0.0000 0.0000
# 4 0.0000 0.0000 0.0000 50.8575 0.0000 0.0000
# 5 0.0000 0.0000 0.0000 0.0000 14.2713 0.0000
# 6 0.0000 0.0000 0.0000 0.0000 0.0000 40.5831
#
#
#
# Elastic Compliance Matrix: (Units=1/GPa)
#
#
# Indices 1 2 3 4 5 6 
#
# 1 0.016191 -0.002889 0.000568 0.000000 0.000000 0.000000
# 2 -0.002889 0.010313 -0.004275 0.000000 0.000000 0.000000
# 3 0.000568 -0.004275 0.014085 0.000000 0.000000 0.000000
# 4 0.000000 0.000000 0.000000 0.019663 0.000000 0.000000
# 5 0.000000 0.000000 0.000000 0.000000 0.070071 0.000000
# 6 0.000000 0.000000 0.000000 0.000000 0.000000 0.024641
#
#
# Mechanical properties :
#
#
# Convention : Reuss Voigt Hill
#
# Bulk Modulus (GPa) = 36.50004 42.07058 39.28531
# Shear Modulus (GPa) = 28.20256 34.85812 31.53034
#
# Velocity S-wave (km/s) = 3.57392 3.97332 3.77890
# Velocity P-wave (km/s) = 5.79322 6.33272 6.06897
#
# Compressibility (1/GPa) = 0.02739723
#
# Stress axis : x y z
#
# Youngs Moduli (GPa) = 61.76195 96.96475 70.99516
#
# Poissons Ratio (x) = 0.28010 -0.04032
# Poissons Ratio (y) = 0.17841 0.30353
# Poissons Ratio (z) = -0.03507 0.41456
#
# Static dielectric constant tensor:
#      x y z
#    x 3.970090 0.000000 0.000000 
#    y 0.000000 4.180520 0.000000 
#    z 0.000000 0.000000 4.066190 
# 
# 
# High freq. dielectric constant tensor:
#      x y z
#    x 1.874960 0.000000 0.000000 
#    y 0.000000 1.893230 0.000000 
#    z 0.000000 0.000000 1.878110 
# 
# From -- ./inp_files/404.got.cif
#   From: 2010.03.12/outbox.cif.g09.slc.cpg/sg19_1_cif.got.tgz:404.got - 2010.04.10 18:59:41.
