data_PCOD8157613
_publ_section_title
;
Structure prediction by ZEFSAII (Michael W. Deem and Ramdas Pophale) SiO2 
 PCOD8157613
Probable space group: P 21 21 21
;
_chemical_formula_sum "Si O2"
_cell_formula_units_Z 28
_cell_length_a 8.356361
_cell_length_b 24.228084
_cell_length_c 6.466082
_cell_angle_alpha 90.000000
_cell_angle_beta 90.000000
_cell_angle_gamma 90.000000
_cell_volume 1309.114014
_symmetry_space_group_name_H-M "P 21 21 21"
_symmetry_group_IT_number 19
_symmetry_cell_setting 'orthorhombic'
loop_
_space_group_symop_operation_xyz
x,y,z
1/2-x,-y,1/2+z
1/2+x,1/2-y,-z
-x,1/2+y,1/2-z
loop_
_atom_site_type_symbol
_atom_site_label
_atom_site_fract_x
_atom_site_fract_y
_atom_site_fract_z
Si Si1 0.104787 0.746173 0.275099
Si Si2 0.968203 0.643299 0.487821
Si Si3 0.174388 0.628579 0.855082
Si Si4 0.120511 0.551771 0.239699
Si Si5 0.598625 0.213036 0.419201
Si Si6 0.607182 0.061675 0.950488
Si Si7 0.899678 0.342174 0.923729
O O1 0.085913 0.686507 0.377767
O O2 0.296331 0.751723 0.234124
O O3 0.040138 0.795953 0.415366
O O4 0.004287 0.747302 0.063693
O O5 0.010194 0.645713 0.733451
O O6 0.000790 0.581867 0.398282
O O7 0.790560 0.660307 0.425297
O O8 0.285528 0.602089 0.682751
O O9 0.130486 0.585462 0.029691
O O10 0.267391 0.679920 0.952184
O O11 0.052429 0.491390 0.181807
O O12 0.295353 0.544045 0.343655
O O13 0.476677 0.172483 0.298347
O O14 0.450178 0.096092 0.013272
#
# Coordination Sequence:
#
# PCOD8157613 Si02
#       7
#     4   4   4   4   4   4   4
#     4  12  26  41  71 100 136 181 230 289 344 425
#     4  11  27  42  64 101 142 177 230 281 352 410
#     4  11  22  44  68  96 128 174 228 281 332 410
#     4  11  22  43  71  96 130 178 230 288 338 417
#     4  12  25  43  71  99 135 182 231 279 353 408
#     4  11  22  43  71  98 127 177 235 282 344 410
#     4  12  26  44  64 102 140 181 226 292 345 418
#
# _framework density 21.388511000000001
#
# number of rings (size 3 to 8) (size 9 to 14) (size 15 to 20)
#    0.000    0.571    5.714    2.571    6.000    1.143 
#    2.571    0.000    0.000    0.000    0.000    0.000 
#    0.000    0.000    0.000    0.000    0.000    0.000 
#
# Total GULP energy -347240.279307 kJ/mol
# GULP energy per Si atom -12401.438547 kJ/mol
# Density = 2.133983 g / cm^3
# Si number density = 21.388511 Si / 1000 Ang^3
#
#
#
# Elastic Constant Matrix: (Units=GPa)
#
#
# Indices 1 2 3 4 5 6 
#
# 1 87.1156 18.3392 36.3426 0.0000 0.0000 0.0000
# 2 18.3392 102.4054 32.9129 0.0000 0.0000 0.0000
# 3 36.3426 32.9129 102.6470 0.0000 0.0000 0.0000
# 4 0.0000 0.0000 0.0000 40.5377 0.0000 0.0000
# 5 0.0000 0.0000 0.0000 0.0000 33.3598 0.0000
# 6 0.0000 0.0000 0.0000 0.0000 0.0000 30.8568
#
#
#
# Elastic Compliance Matrix: (Units=1/GPa)
#
#
# Indices 1 2 3 4 5 6 
#
# 1 0.013557 -0.000987 -0.004484 0.000000 0.000000 0.000000
# 2 -0.000987 0.010959 -0.003164 0.000000 0.000000 0.000000
# 3 -0.004484 -0.003164 0.012344 0.000000 0.000000 0.000000
# 4 0.000000 0.000000 0.000000 0.024668 0.000000 0.000000
# 5 0.000000 0.000000 0.000000 0.000000 0.029976 0.000000
# 6 0.000000 0.000000 0.000000 0.000000 0.000000 0.032408
#
#
# Mechanical properties :
#
#
# Convention : Reuss Voigt Hill
#
# Bulk Modulus (GPa) = 51.04517 51.92863 51.48690
# Shear Modulus (GPa) = 33.84950 34.58906 34.21928
#
# Velocity S-wave (km/s) = 3.98251 4.02578 4.00420
# Velocity P-wave (km/s) = 6.71302 6.77795 6.74557
#
# Compressibility (1/GPa) = 0.01959049
#
# Stress axis : x y z
#
# Youngs Moduli (GPa) = 73.76162 91.25005 81.00967
#
# Poissons Ratio (x) = 0.09005 0.36321
# Poissons Ratio (y) = 0.07279 0.25635
# Poissons Ratio (z) = 0.33071 0.28876
#
# Static dielectric constant tensor:
#      x y z
#    x 3.671730 0.000000 0.000000 
#    y 0.000000 3.852120 0.000000 
#    z 0.000000 0.000000 4.178490 
# 
# 
# High freq. dielectric constant tensor:
#      x y z
#    x 1.823660 0.000000 0.000000 
#    y 0.000000 1.842300 0.000000 
#    z 0.000000 0.000000 1.854180 
# 
# From -- ./inp_files/545.got.cif
#   From: 2010.03.12/outbox.cif.g09.slc.cpg/sg19_1_cif.got.tgz:545.got - 2010.04.10 18:59:41.
