data_PCOD8157481
_publ_section_title
;
Structure prediction by ZEFSAII (Michael W. Deem and Ramdas Pophale) SiO2 
 PCOD8157481
Probable space group: P 21 21 21
;
_chemical_formula_sum "Si O2"
_cell_formula_units_Z 32
_cell_length_a 17.968781
_cell_length_b 5.180988
_cell_length_c 14.801734
_cell_angle_alpha 90.000000
_cell_angle_beta 90.000000
_cell_angle_gamma 90.000000
_cell_volume 1377.982802
_symmetry_space_group_name_H-M "P 21 21 21"
_symmetry_group_IT_number 19
_symmetry_cell_setting 'orthorhombic'
loop_
_space_group_symop_operation_xyz
x,y,z
1/2-x,-y,1/2+z
1/2+x,1/2-y,-z
-x,1/2+y,1/2-z
loop_
_atom_site_type_symbol
_atom_site_label
_atom_site_fract_x
_atom_site_fract_y
_atom_site_fract_z
Si Si1 0.839379 0.093348 0.154252
Si Si2 0.272226 0.358157 0.655577
Si Si3 0.988163 0.367253 0.803259
Si Si4 0.420466 0.240012 0.568715
Si Si5 0.410939 0.754289 0.461116
Si Si6 0.363539 0.913874 0.077097
Si Si7 0.245648 0.271827 0.001275
Si Si8 0.425337 0.881327 0.888771
O O1 0.782576 0.117192 0.237762
O O2 0.893408 0.340624 0.140578
O O3 0.886748 0.837287 0.171683
O O4 0.788957 0.032703 0.065678
O O5 0.342162 0.184187 0.620741
O O6 0.279849 0.621246 0.598733
O O7 0.185843 0.277912 0.638350
O O8 0.909949 0.403157 0.855369
O O9 0.020022 0.648015 0.773779
O O10 0.047963 0.229205 0.866635
O O11 0.410009 0.457777 0.492567
O O12 0.486292 0.353603 0.632889
O O13 0.447962 0.964678 0.528406
O O14 0.325387 0.842287 0.448253
O O15 0.301787 0.043940 0.016035
O O16 0.418334 0.811271 0.997547
#
# Coordination Sequence:
#
# PCOD8157481 Si02
#       8
#     4   4   4   4   4   4   4   4
#     4  11  26  41  69 106 138 185 242 292 359 428
#     4  11  25  44  71 105 144 188 240 301 361 427
#     4  12  29  45  70 109 145 191 243 303 365 436
#     4  11  23  43  72  97 133 187 229 293 353 427
#     4  11  23  43  68 100 137 183 245 282 360 427
#     4  11  24  47  71  98 147 191 241 288 375 422
#     4  10  24  44  70  99 143 190 234 299 360 421
#     4  11  24  45  69 100 137 187 238 292 357 440
#
# _framework density 23.222351
#
# number of rings (size 3 to 8) (size 9 to 14) (size 15 to 20)
#    0.000    1.000    3.750    1.500    7.000    1.000 
#    0.000    0.000    0.000    0.000    0.000    0.000 
#    0.000    0.000    0.000    0.000    0.000    0.000 
#
# Total GULP energy -396442.273412 kJ/mol
# GULP energy per Si atom -12388.821044 kJ/mol
# Density = 2.316950 g / cm^3
# Si number density = 23.222351 Si / 1000 Ang^3
#
#
#
# Elastic Constant Matrix: (Units=GPa)
#
#
# Indices 1 2 3 4 5 6 
#
# 1 110.6092 18.2810 7.2250 0.0000 0.0000 0.0000
# 2 18.2810 101.5456 19.4049 0.0000 0.0000 0.0000
# 3 7.2250 19.4049 47.3314 0.0000 0.0000 0.0000
# 4 0.0000 0.0000 0.0000 30.5584 0.0000 0.0000
# 5 0.0000 0.0000 0.0000 0.0000 26.9202 0.0000
# 6 0.0000 0.0000 0.0000 0.0000 0.0000 30.4479
#
#
#
# Elastic Compliance Matrix: (Units=1/GPa)
#
#
# Indices 1 2 3 4 5 6 
#
# 1 0.009346 -0.001530 -0.000799 0.000000 0.000000 0.000000
# 2 -0.001530 0.010935 -0.004250 0.000000 0.000000 0.000000
# 3 -0.000799 -0.004250 0.022992 0.000000 0.000000 0.000000
# 4 0.000000 0.000000 0.000000 0.032724 0.000000 0.000000
# 5 0.000000 0.000000 0.000000 0.000000 0.037147 0.000000
# 6 0.000000 0.000000 0.000000 0.000000 0.000000 0.032843
#
#
# Mechanical properties :
#
#
# Convention : Reuss Voigt Hill
#
# Bulk Modulus (GPa) = 33.20576 38.81201 36.00889
# Shear Modulus (GPa) = 29.55373 31.89033 30.72203
#
# Velocity S-wave (km/s) = 3.57128 3.70977 3.64119
# Velocity P-wave (km/s) = 5.59781 5.92447 5.76346
#
# Compressibility (1/GPa) = 0.03011525
#
# Stress axis : x y z
#
# Youngs Moduli (GPa) = 106.99888 91.44699 43.49349
#
# Poissons Ratio (x) = 0.13989 0.03477
# Poissons Ratio (y) = 0.16368 0.18484
# Poissons Ratio (z) = 0.08554 0.38862
#
# Static dielectric constant tensor:
#      x y z
#    x 5.228270 0.000000 0.000000 
#    y 0.000000 3.894840 0.000000 
#    z 0.000000 0.000000 4.127150 
# 
# 
# High freq. dielectric constant tensor:
#      x y z
#    x 1.937920 0.000000 0.000000 
#    y 0.000000 1.908410 0.000000 
#    z 0.000000 0.000000 1.900570 
# 
# From -- ./inp_files/5749.got.cif
#   From: 2010.03.12/outbox.cif.g09.slc.cpg/sg19_3_cif.got.tgz:5749.got - 2010.04.10 18:59:41.
