data_PCOD8157575
_publ_section_title
;
Structure prediction by ZEFSAII (Michael W. Deem and Ramdas Pophale) SiO2 
 PCOD8157575
Probable space group: P 21 21 21
;
_chemical_formula_sum "Si O2"
_cell_formula_units_Z 24
_cell_length_a 10.969932
_cell_length_b 16.195703
_cell_length_c 5.392944
_cell_angle_alpha 90.000000
_cell_angle_beta 90.000000
_cell_angle_gamma 90.000000
_cell_volume 958.141498
_symmetry_space_group_name_H-M "P 21 21 21"
_symmetry_group_IT_number 19
_symmetry_cell_setting 'orthorhombic'
loop_
_space_group_symop_operation_xyz
x,y,z
1/2-x,-y,1/2+z
1/2+x,1/2-y,-z
-x,1/2+y,1/2-z
loop_
_atom_site_type_symbol
_atom_site_label
_atom_site_fract_x
_atom_site_fract_y
_atom_site_fract_z
Si Si1 0.161451 0.393115 0.899797
Si Si2 0.030474 0.946087 0.935819
Si Si3 0.192121 0.812697 0.154678
Si Si4 0.668466 0.784435 0.355032
Si Si5 0.889619 0.047979 0.313513
Si Si6 0.052515 0.111528 0.693297
O O1 0.285157 0.383945 0.735273
O O2 0.035209 0.378214 0.748956
O O3 0.195031 0.326931 0.115305
O O4 0.159119 0.489591 0.966815
O O5 0.096828 0.022148 0.796750
O O6 0.126270 0.900577 0.112652
O O7 0.921569 0.985751 0.093221
O O8 0.142439 0.776890 0.414006
O O9 0.336500 0.824926 0.188929
O O10 0.166784 0.759170 0.910506
O O11 0.559446 0.852612 0.359813
O O12 0.007421 0.098298 0.410540
#
# Coordination Sequence:
#
# PCOD8157575 Si02
#       6
#     4   4   4   4   4   4
#     4  11  22  44  76 111 150 198 260 332 376 470
#     4  11  27  47  81 114 154 211 274 321 397 464
#     4  12  33  50  80 115 164 211 259 330 407 482
#     4  12  29  52  75 119 158 213 259 327 407 465
#     4  11  21  42  79 113 144 198 266 325 384 450
#     4  11  28  51  79 112 160 207 266 327 389 481
#
# _framework density 25.048492
#
# number of rings (size 3 to 8) (size 9 to 14) (size 15 to 20)
#    0.000    0.667    3.333    2.000   14.000    0.000 
#    0.000    0.000    0.000    0.000    0.000    0.000 
#    0.000    0.000    0.000    0.000    0.000    0.000 
#
# Total GULP energy -297465.021894 kJ/mol
# GULP energy per Si atom -12394.375912 kJ/mol
# Density = 2.499148 g / cm^3
# Si number density = 25.048492 Si / 1000 Ang^3
#
#
#
# Elastic Constant Matrix: (Units=GPa)
#
#
# Indices 1 2 3 4 5 6 
#
# 1 85.6967 24.7068 22.1032 0.0000 0.0000 0.0000
# 2 24.7068 77.3969 31.5124 0.0000 0.0000 0.0000
# 3 22.1032 31.5124 112.6819 0.0000 0.0000 0.0000
# 4 0.0000 0.0000 0.0000 38.6223 0.0000 0.0000
# 5 0.0000 0.0000 0.0000 0.0000 37.4438 0.0000
# 6 0.0000 0.0000 0.0000 0.0000 0.0000 38.3580
#
#
#
# Elastic Compliance Matrix: (Units=1/GPa)
#
#
# Indices 1 2 3 4 5 6 
#
# 1 0.013096 -0.003537 -0.001580 0.000000 0.000000 0.000000
# 2 -0.003537 0.015536 -0.003651 0.000000 0.000000 0.000000
# 3 -0.001580 -0.003651 0.010205 0.000000 0.000000 0.000000
# 4 0.000000 0.000000 0.000000 0.025892 0.000000 0.000000
# 5 0.000000 0.000000 0.000000 0.000000 0.026707 0.000000
# 6 0.000000 0.000000 0.000000 0.000000 0.000000 0.026070
#
#
# Mechanical properties :
#
#
# Convention : Reuss Voigt Hill
#
# Bulk Modulus (GPa) = 46.94432 48.04670 47.49551
# Shear Modulus (GPa) = 35.17577 36.04834 35.61206
#
# Velocity S-wave (km/s) = 3.75147 3.79772 3.77467
# Velocity P-wave (km/s) = 6.12754 6.20108 6.16442
#
# Compressibility (1/GPa) = 0.02130183
#
# Stress axis : x y z
#
# Youngs Moduli (GPa) = 76.35707 64.36603 97.98733
#
# Poissons Ratio (x) = 0.22769 0.15479
# Poissons Ratio (y) = 0.27011 0.35774
# Poissons Ratio (z) = 0.12062 0.23499
#
# Static dielectric constant tensor:
#      x y z
#    x 4.203520 0.000000 0.000000 
#    y 0.000000 4.523790 0.000000 
#    z 0.000000 0.000000 4.600740 
# 
# 
# High freq. dielectric constant tensor:
#      x y z
#    x 1.981410 0.000000 0.000000 
#    y 0.000000 2.001140 0.000000 
#    z 0.000000 0.000000 2.007300 
# 
# From -- ./inp_files/429.got.cif
#   From: 2010.03.12/outbox.cif.g09.slc.cpg/sg19_1_cif.got.tgz:429.got - 2010.04.10 18:59:41.
