data_PCOD8157723
_publ_section_title
;
Structure prediction by ZEFSAII (Michael W. Deem and Ramdas Pophale) SiO2 
 PCOD8157723
Probable space group: P 21 21 21
;
_chemical_formula_sum "Si O2"
_cell_formula_units_Z 32
_cell_length_a 13.651552
_cell_length_b 19.278111
_cell_length_c 5.085802
_cell_angle_alpha 90.000000
_cell_angle_beta 90.000000
_cell_angle_gamma 90.000000
_cell_volume 1338.461713
_symmetry_space_group_name_H-M "P 21 21 21"
_symmetry_group_IT_number 19
_symmetry_cell_setting 'orthorhombic'
loop_
_space_group_symop_operation_xyz
x,y,z
1/2-x,-y,1/2+z
1/2+x,1/2-y,-z
-x,1/2+y,1/2-z
loop_
_atom_site_type_symbol
_atom_site_label
_atom_site_fract_x
_atom_site_fract_y
_atom_site_fract_z
Si Si1 0.649445 0.341336 0.985649
Si Si2 0.005567 0.951721 0.430759
Si Si3 0.723083 0.843147 0.730339
Si Si4 0.578685 0.114655 0.434431
Si Si5 0.274919 0.044057 0.827394
Si Si6 0.010987 0.241254 0.684376
Si Si7 0.517827 0.894445 0.841497
Si Si8 0.206576 0.745068 0.762414
O O1 0.568545 0.393991 0.871824
O O2 0.726273 0.313504 0.766519
O O3 0.710030 0.385873 0.200651
O O4 0.594130 0.273574 0.098666
O O5 0.111741 0.934987 0.310426
O O6 0.992957 0.913099 0.706886
O O7 0.989320 0.032918 0.493611
O O8 0.929477 0.926874 0.206501
O O9 0.810706 0.892782 0.826438
O O10 0.624494 0.888565 0.709373
O O11 0.744951 0.813348 0.440771
O O12 0.711851 0.779800 0.936805
O O13 0.551341 0.195356 0.491707
O O14 0.244484 0.989436 0.610019
O O15 0.998968 0.170079 0.530116
O O16 0.906609 0.262172 0.812316
#
# Coordination Sequence:
#
# PCOD8157723 Si02
#       8
#     4   4   4   4   4   4   4   4
#     4  12  24  43  75 101 144 191 242 303 368 428
#     4  12  28  48  72 107 151 194 240 306 375 437
#     4  11  24  45  70 102 139 183 244 300 357 440
#     4  12  27  47  72 105 151 187 242 310 371 430
#     4  12  26  45  70 104 147 188 241 297 364 445
#     4  11  25  45  75 104 146 192 247 304 365 443
#     4  11  26  46  75 103 144 194 250 295 368 442
#     4  11  24  41  69 106 138 181 240 303 366 427
#
# _framework density 23.908041999999998
#
# number of rings (size 3 to 8) (size 9 to 14) (size 15 to 20)
#    0.000    0.500    3.750    3.750    3.500    3.000 
#    0.000    0.000    0.000    0.000    0.000    0.000 
#    0.000    0.000    0.000    0.000    0.000    0.000 
#
# Total GULP energy -396928.077859 kJ/mol
# GULP energy per Si atom -12404.002433 kJ/mol
# Density = 2.385363 g / cm^3
# Si number density = 23.908042 Si / 1000 Ang^3
#
#
#
# Elastic Constant Matrix: (Units=GPa)
#
#
# Indices 1 2 3 4 5 6 
#
# 1 133.1153 34.5364 -4.5106 0.0000 0.0000 0.0000
# 2 34.5364 111.7608 22.1199 0.0000 0.0000 0.0000
# 3 -4.5106 22.1199 67.1590 0.0000 0.0000 0.0000
# 4 0.0000 0.0000 0.0000 37.7980 0.0000 0.0000
# 5 0.0000 0.0000 0.0000 0.0000 31.0041 0.0000
# 6 0.0000 0.0000 0.0000 0.0000 0.0000 25.4854
#
#
#
# Elastic Compliance Matrix: (Units=1/GPa)
#
#
# Indices 1 2 3 4 5 6 
#
# 1 0.008306 -0.002864 0.001501 0.000000 0.000000 0.000000
# 2 -0.002864 0.010559 -0.003670 0.000000 0.000000 0.000000
# 3 0.001501 -0.003670 0.016200 0.000000 0.000000 0.000000
# 4 0.000000 0.000000 0.000000 0.026456 0.000000 0.000000
# 5 0.000000 0.000000 0.000000 0.000000 0.032254 0.000000
# 6 0.000000 0.000000 0.000000 0.000000 0.000000 0.039238
#
#
# Mechanical properties :
#
#
# Convention : Reuss Voigt Hill
#
# Bulk Modulus (GPa) = 40.00140 46.25850 43.12995
# Shear Modulus (GPa) = 33.02244 36.18346 34.60295
#
# Velocity S-wave (km/s) = 3.72052 3.89452 3.80851
# Velocity P-wave (km/s) = 5.93498 6.29393 6.11709
#
# Compressibility (1/GPa) = 0.02499913
#
# Stress axis : x y z
#
# Youngs Moduli (GPa) = 120.39231 94.70517 61.72965
#
# Poissons Ratio (x) = 0.27122 -0.09266
# Poissons Ratio (y) = 0.34479 0.22656
# Poissons Ratio (z) = -0.18072 0.34758
#
# Static dielectric constant tensor:
#      x y z
#    x 4.886080 0.000000 0.000000 
#    y 0.000000 4.203440 0.000000 
#    z 0.000000 0.000000 4.033520 
# 
# 
# High freq. dielectric constant tensor:
#      x y z
#    x 1.974240 0.000000 0.000000 
#    y 0.000000 1.938920 0.000000 
#    z 0.000000 0.000000 1.934170 
# 
# From -- ./inp_files/1594.got.cif
#   From: 2010.03.12/outbox.cif.g09.slc.cpg/sg19_1_cif.got.tgz:1594.got - 2010.04.10 18:59:41.
