data_PCOD8157334
_publ_section_title
;
Structure prediction by ZEFSAII (Michael W. Deem and Ramdas Pophale) SiO2 
 PCOD8157334
Probable space group: P 21 21 21
;
_chemical_formula_sum "Si O2"
_cell_formula_units_Z 28
_cell_length_a 13.428627
_cell_length_b 8.284206
_cell_length_c 11.767216
_cell_angle_alpha 90.000000
_cell_angle_beta 90.000000
_cell_angle_gamma 90.000000
_cell_volume 1309.049973
_symmetry_space_group_name_H-M "P 21 21 21"
_symmetry_group_IT_number 19
_symmetry_cell_setting 'orthorhombic'
loop_
_space_group_symop_operation_xyz
x,y,z
1/2-x,-y,1/2+z
1/2+x,1/2-y,-z
-x,1/2+y,1/2-z
loop_
_atom_site_type_symbol
_atom_site_label
_atom_site_fract_x
_atom_site_fract_y
_atom_site_fract_z
Si Si1 0.208292 0.146364 0.587845
Si Si2 0.931429 0.416468 0.039900
Si Si3 0.638809 0.446637 0.774400
Si Si4 0.078119 0.535072 0.872953
Si Si5 0.041559 0.557306 0.440122
Si Si6 0.968520 0.855500 0.843780
Si Si7 0.282931 0.665931 0.865298
O O1 0.141074 0.278317 0.650942
O O2 0.251642 0.230952 0.475151
O O3 0.144291 0.992064 0.550750
O O4 0.292448 0.088935 0.675562
O O5 0.919269 0.494372 0.163104
O O6 0.904809 0.228493 0.044573
O O7 0.043563 0.458900 0.994182
O O8 0.556953 0.405716 0.868146
O O9 0.702612 0.286342 0.742314
O O10 0.018314 0.434664 0.778702
O O11 0.196883 0.531017 0.849356
O O12 0.052348 0.723252 0.864606
O O13 0.012116 0.494026 0.563806
O O14 0.112656 0.426551 0.380559
#
# Coordination Sequence:
#
# PCOD8157334 Si02
#       7
#     4   4   4   4   4   4   4
#     4   9  22  43  62  97 131 174 219 272 329 399
#     4  10  24  42  64  95 130 169 223 273 333 397
#     4  11  23  43  69  93 135 178 216 279 334 394
#     4  11  23  43  65  95 132 174 223 275 332 395
#     4  11  23  43  63 100 131 170 222 273 334 400
#     4  10  23  39  67  93 132 173 218 273 332 394
#     4  10  24  41  66  99 131 178 221 273 336 397
#
# _framework density 21.389558999999998
#
# number of rings (size 3 to 8) (size 9 to 14) (size 15 to 20)
#    0.000    1.714    0.000    3.429    8.000    2.286 
#    7.714    0.000    0.000    0.000    0.000    0.000 
#    0.000    0.000    0.000    0.000    0.000    0.000 
#
# Total GULP energy -347222.411162 kJ/mol
# GULP energy per Si atom -12400.800399 kJ/mol
# Density = 2.134088 g / cm^3
# Si number density = 21.389559 Si / 1000 Ang^3
#
#
#
# Elastic Constant Matrix: (Units=GPa)
#
#
# Indices 1 2 3 4 5 6 
#
# 1 77.6302 11.1253 42.1118 0.0000 0.0000 0.0000
# 2 11.1253 99.3222 35.0163 0.0000 0.0000 0.0000
# 3 42.1118 35.0163 109.6016 0.0000 0.0000 0.0000
# 4 0.0000 0.0000 0.0000 31.1102 0.0000 0.0000
# 5 0.0000 0.0000 0.0000 0.0000 30.3329 0.0000
# 6 0.0000 0.0000 0.0000 0.0000 0.0000 32.0756
#
#
#
# Elastic Compliance Matrix: (Units=1/GPa)
#
#
# Indices 1 2 3 4 5 6 
#
# 1 0.016290 0.000430 -0.006396 0.000000 0.000000 0.000000
# 2 0.000430 0.011358 -0.003794 0.000000 0.000000 0.000000
# 3 -0.006396 -0.003794 0.012794 0.000000 0.000000 0.000000
# 4 0.000000 0.000000 0.000000 0.032144 0.000000 0.000000
# 5 0.000000 0.000000 0.000000 0.000000 0.032968 0.000000
# 6 0.000000 0.000000 0.000000 0.000000 0.000000 0.031176
#
#
# Mechanical properties :
#
#
# Convention : Reuss Voigt Hill
#
# Bulk Modulus (GPa) = 47.79864 51.45121 49.62493
# Shear Modulus (GPa) = 30.63300 31.92377 31.27839
#
# Velocity S-wave (km/s) = 3.78848 3.86747 3.82818
# Velocity P-wave (km/s) = 6.44453 6.63699 6.54147
#
# Compressibility (1/GPa) = 0.02092110
#
# Stress axis : x y z
#
# Youngs Moduli (GPa) = 61.38817 88.04666 78.16293
#
# Poissons Ratio (x) = -0.03790 0.49997
# Poissons Ratio (y) = -0.02642 0.29655
# Poissons Ratio (z) = 0.39267 0.33405
#
# Static dielectric constant tensor:
#      x y z
#    x 3.698820 0.000000 0.000000 
#    y 0.000000 3.881520 0.000000 
#    z 0.000000 0.000000 3.847220 
# 
# 
# High freq. dielectric constant tensor:
#      x y z
#    x 1.829080 0.000000 0.000000 
#    y 0.000000 1.846140 0.000000 
#    z 0.000000 0.000000 1.842540 
# 
# From -- ./inp_files/4946.got.cif
#   From: 2010.03.12/outbox.cif.g09.slc.cpg/sg19_3_cif.got.tgz:4946.got - 2010.04.10 18:59:41.
