data_PCOD8157785
_publ_section_title
;
Structure prediction by ZEFSAII (Michael W. Deem and Ramdas Pophale) SiO2 
 PCOD8157785
Probable space group: P 21 21 21
;
_chemical_formula_sum "Si O2"
_cell_formula_units_Z 28
_cell_length_a 5.076280
_cell_length_b 26.813483
_cell_length_c 8.264543
_cell_angle_alpha 90.000000
_cell_angle_beta 90.000000
_cell_angle_gamma 90.000000
_cell_volume 1124.909654
_symmetry_space_group_name_H-M "P 21 21 21"
_symmetry_group_IT_number 19
_symmetry_cell_setting 'orthorhombic'
loop_
_space_group_symop_operation_xyz
x,y,z
1/2-x,-y,1/2+z
1/2+x,1/2-y,-z
-x,1/2+y,1/2-z
loop_
_atom_site_type_symbol
_atom_site_label
_atom_site_fract_x
_atom_site_fract_y
_atom_site_fract_z
Si Si1 0.519340 0.350351 0.276880
Si Si2 0.670781 0.183050 0.463337
Si Si3 0.136409 0.858819 0.694392
Si Si4 0.014787 0.965249 0.567601
Si Si5 0.859128 0.189175 0.047904
Si Si6 0.499913 0.458785 0.148896
Si Si7 0.425866 0.233428 0.730887
O O1 0.364338 0.356571 0.447702
O O2 0.588875 0.403724 0.204423
O O3 0.787393 0.319593 0.298298
O O4 0.354825 0.316806 0.147154
O O5 0.416013 0.154648 0.386580
O O6 0.655462 0.227468 0.599631
O O7 0.786072 0.213613 0.313656
O O8 0.084608 0.917208 0.673558
O O9 0.938226 0.826975 0.585581
O O10 0.433831 0.848152 0.637115
O O11 0.765178 0.955132 0.454235
O O12 0.262381 0.981401 0.456762
O O13 0.946830 0.009113 0.691639
O O14 0.964430 0.247661 0.083670
#
# Coordination Sequence:
#
# PCOD8157785 Si02
#       7
#     4   4   4   4   4   4   4
#     4  12  27  45  71 111 149 196 258 309 374 457
#     4  11  25  42  68 105 145 200 247 304 369 454
#     4  11  24  48  74 102 149 192 245 309 378 447
#     4  12  26  54  78 114 152 197 256 322 389 466
#     4  11  26  45  74 103 147 199 245 311 370 445
#     4  12  29  51  81 114 152 200 255 321 394 462
#     4  11  25  43  68 101 152 196 252 302 372 449
#
# _framework density 24.890885999999998
#
# number of rings (size 3 to 8) (size 9 to 14) (size 15 to 20)
#    0.000    0.571    4.286    1.714   12.000    1.143 
#    0.000    0.000    0.000    0.000    0.000    0.000 
#    0.000    0.000    0.000    0.000    0.000    0.000 
#
# Total GULP energy -346941.424288 kJ/mol
# GULP energy per Si atom -12390.765153 kJ/mol
# Density = 2.483423 g / cm^3
# Si number density = 24.890886 Si / 1000 Ang^3
#
#
#
# Elastic Constant Matrix: (Units=GPa)
#
#
# Indices 1 2 3 4 5 6 
#
# 1 77.8910 8.8490 16.0456 0.0000 0.0000 0.0000
# 2 8.8490 106.4419 43.7325 0.0000 0.0000 0.0000
# 3 16.0456 43.7325 101.1064 0.0000 0.0000 0.0000
# 4 0.0000 0.0000 0.0000 38.5686 0.0000 0.0000
# 5 0.0000 0.0000 0.0000 0.0000 22.7563 0.0000
# 6 0.0000 0.0000 0.0000 0.0000 0.0000 25.0056
#
#
#
# Elastic Compliance Matrix: (Units=1/GPa)
#
#
# Indices 1 2 3 4 5 6 
#
# 1 0.013280 -0.000290 -0.001982 0.000000 0.000000 0.000000
# 2 -0.000290 0.011432 -0.004899 0.000000 0.000000 0.000000
# 3 -0.001982 -0.004899 0.012324 0.000000 0.000000 0.000000
# 4 0.000000 0.000000 0.000000 0.025928 0.000000 0.000000
# 5 0.000000 0.000000 0.000000 0.000000 0.043944 0.000000
# 6 0.000000 0.000000 0.000000 0.000000 0.000000 0.039991
#
#
# Mechanical properties :
#
#
# Convention : Reuss Voigt Hill
#
# Bulk Modulus (GPa) = 44.06387 46.96594 45.51491
# Shear Modulus (GPa) = 29.62021 31.72024 30.67022
#
# Velocity S-wave (km/s) = 3.45338 3.57371 3.51406
# Velocity P-wave (km/s) = 5.80021 5.99485 5.89833
#
# Compressibility (1/GPa) = 0.02269433
#
# Stress axis : x y z
#
# Youngs Moduli (GPa) = 75.30291 87.47755 81.14250
#
# Poissons Ratio (x) = 0.02533 0.16084
# Poissons Ratio (y) = 0.02181 0.39749
# Poissons Ratio (z) = 0.14927 0.42852
#
# Static dielectric constant tensor:
#      x y z
#    x 4.414030 0.000000 0.000000 
#    y 0.000000 4.307070 0.000000 
#    z 0.000000 0.000000 4.969900 
# 
# 
# High freq. dielectric constant tensor:
#      x y z
#    x 1.990910 0.000000 0.000000 
#    y 0.000000 1.978320 0.000000 
#    z 0.000000 0.000000 2.026100 
# 
# From -- ./inp_files/2418.got.cif
#   From: 2010.03.12/outbox.cif.g09.slc.cpg/sg19_2_cif.got.tgz:2418.got - 2010.04.10 18:59:41.
