data_PCOD8157425
_publ_section_title
;
Structure prediction by ZEFSAII (Michael W. Deem and Ramdas Pophale) SiO2 
 PCOD8157425
Probable space group: P 21 21 21
;
_chemical_formula_sum "Si O2"
_cell_formula_units_Z 24
_cell_length_a 12.359255
_cell_length_b 8.880405
_cell_length_c 8.060391
_cell_angle_alpha 90.000000
_cell_angle_beta 90.000000
_cell_angle_gamma 90.000000
_cell_volume 884.669745
_symmetry_space_group_name_H-M "P 21 21 21"
_symmetry_group_IT_number 19
_symmetry_cell_setting 'orthorhombic'
loop_
_space_group_symop_operation_xyz
x,y,z
1/2-x,-y,1/2+z
1/2+x,1/2-y,-z
-x,1/2+y,1/2-z
loop_
_atom_site_type_symbol
_atom_site_label
_atom_site_fract_x
_atom_site_fract_y
_atom_site_fract_z
Si Si1 0.125728 0.970998 0.335826
Si Si2 0.733902 0.962655 0.491018
Si Si3 0.553016 0.854624 0.700445
Si Si4 0.377002 0.042767 0.210179
Si Si5 0.602211 0.883803 0.186298
Si Si6 0.341369 0.857683 0.522858
O O1 0.312045 0.946392 0.351003
O O2 0.092472 0.812401 0.252915
O O3 0.015197 0.071856 0.351961
O O4 0.201036 0.061660 0.199013
O O5 0.652307 0.961895 0.649263
O O6 0.664863 0.984015 0.324649
O O7 0.795814 0.806691 0.484541
O O8 0.823513 0.094356 0.518623
O O9 0.472242 0.848849 0.538241
O O10 0.405342 0.207835 0.275300
O O11 0.323269 0.054705 0.021063
O O12 0.484655 0.952116 0.166800
#
# Coordination Sequence:
#
# PCOD8157425 Si02
#       6
#     4   4   4   4   4   4
#     4  10  23  45  76 106 153 202 251 315 387 463
#     4  12  26  50  73 116 155 197 265 318 388 474
#     4  10  23  48  72 105 152 198 249 315 381 456
#     4  12  24  53  77 113 151 211 258 322 399 456
#     4  12  28  47  81 110 156 200 263 327 386 477
#     4  10  26  47  77 112 159 200 256 321 389 458
#
# _framework density 27.128768999999998
#
# number of rings (size 3 to 8) (size 9 to 14) (size 15 to 20)
#    1.000    0.000    3.333    2.000    7.000    1.333 
#    9.000    0.000    0.000    0.000    0.000    0.000 
#    0.000    0.000    0.000    0.000    0.000    0.000 
#
# Total GULP energy -297666.285932 kJ/mol
# GULP energy per Si atom -12402.761914 kJ/mol
# Density = 2.706702 g / cm^3
# Si number density = 27.128769 Si / 1000 Ang^3
#
#
#
# Elastic Constant Matrix: (Units=GPa)
#
#
# Indices 1 2 3 4 5 6 
#
# 1 110.4962 34.7124 28.1528 0.0000 0.0000 0.0000
# 2 34.7124 108.8825 29.8867 0.0000 0.0000 0.0000
# 3 28.1528 29.8867 81.1182 0.0000 0.0000 0.0000
# 4 0.0000 0.0000 0.0000 41.4195 0.0000 0.0000
# 5 0.0000 0.0000 0.0000 0.0000 53.4218 0.0000
# 6 0.0000 0.0000 0.0000 0.0000 0.0000 49.9054
#
#
#
# Elastic Compliance Matrix: (Units=1/GPa)
#
#
# Indices 1 2 3 4 5 6 
#
# 1 0.010563 -0.002627 -0.002698 0.000000 0.000000 0.000000
# 2 -0.002627 0.010871 -0.003093 0.000000 0.000000 0.000000
# 3 -0.002698 -0.003093 0.014404 0.000000 0.000000 0.000000
# 4 0.000000 0.000000 0.000000 0.024143 0.000000 0.000000
# 5 0.000000 0.000000 0.000000 0.000000 0.018719 0.000000
# 6 0.000000 0.000000 0.000000 0.000000 0.000000 0.020038
#
#
# Mechanical properties :
#
#
# Convention : Reuss Voigt Hill
#
# Bulk Modulus (GPa) = 52.63020 54.00008 53.31514
# Shear Modulus (GPa) = 41.01461 42.79902 41.90681
#
# Velocity S-wave (km/s) = 3.89247 3.97624 3.93458
# Velocity P-wave (km/s) = 6.29635 6.40539 6.35110
#
# Compressibility (1/GPa) = 0.01900050
#
# Stress axis : x y z
#
# Youngs Moduli (GPa) = 94.67232 91.98960 69.42608
#
# Poissons Ratio (x) = 0.24165 0.18732
# Poissons Ratio (y) = 0.24869 0.21477
# Poissons Ratio (z) = 0.25543 0.28457
#
# Static dielectric constant tensor:
#      x y z
#    x 5.819660 0.000000 0.000000 
#    y 0.000000 4.442660 0.000000 
#    z 0.000000 0.000000 5.155790 
# 
# 
# High freq. dielectric constant tensor:
#      x y z
#    x 2.170370 0.000000 0.000000 
#    y 0.000000 2.067730 0.000000 
#    z 0.000000 0.000000 2.115430 
# 
# From -- ./inp_files/4555.got.cif
#   From: 2010.03.12/outbox.cif.g09.slc.cpg/sg19_3_cif.got.tgz:4555.got - 2010.04.10 18:59:41.
