data_PCOD8157401
_publ_section_title
;
Structure prediction by ZEFSAII (Michael W. Deem and Ramdas Pophale) SiO2 
 PCOD8157401
Probable space group: P 21 21 21
;
_chemical_formula_sum "Si O2"
_cell_formula_units_Z 32
_cell_length_a 12.089890
_cell_length_b 8.977898
_cell_length_c 13.758121
_cell_angle_alpha 90.000000
_cell_angle_beta 90.000000
_cell_angle_gamma 90.000000
_cell_volume 1493.331208
_symmetry_space_group_name_H-M "P 21 21 21"
_symmetry_group_IT_number 19
_symmetry_cell_setting 'orthorhombic'
loop_
_space_group_symop_operation_xyz
x,y,z
1/2-x,-y,1/2+z
1/2+x,1/2-y,-z
-x,1/2+y,1/2-z
loop_
_atom_site_type_symbol
_atom_site_label
_atom_site_fract_x
_atom_site_fract_y
_atom_site_fract_z
Si Si1 0.803793 0.418652 0.510703
Si Si2 0.201262 0.589865 0.626370
Si Si3 0.412502 0.905634 0.895481
Si Si4 0.608851 0.721416 0.662278
Si Si5 0.738523 0.812039 0.159700
Si Si6 0.305321 0.636493 0.428505
Si Si7 0.641656 0.820776 0.867419
Si Si8 0.984576 0.666866 0.525366
O O1 0.671896 0.457581 0.517954
O O2 0.836325 0.309057 0.601691
O O3 0.818458 0.335873 0.408474
O O4 0.879250 0.561959 0.511583
O O5 0.208634 0.680255 0.727009
O O6 0.270605 0.666688 0.540722
O O7 0.250881 0.425092 0.639868
O O8 0.072967 0.585682 0.594775
O O9 0.365473 0.750215 0.848716
O O10 0.539080 0.884215 0.932895
O O11 0.413080 0.046145 0.821938
O O12 0.737936 0.749555 0.639192
O O13 0.583108 0.803530 0.763090
O O14 0.534367 0.795607 0.579213
O O15 0.721706 0.968449 0.104342
O O16 0.435300 0.682654 0.423472
#
# Coordination Sequence:
#
# PCOD8157401 Si02
#       8
#     4   4   4   4   4   4   4   4
#     4  10  25  44  65  97 139 182 226 286 352 417
#     4  11  24  42  70 101 133 185 229 285 358 410
#     4  10  25  44  65 103 136 179 227 292 347 415
#     4  11  25  41  68 102 135 177 234 287 346 419
#     4  10  23  44  67  96 141 170 235 280 344 424
#     4  11  21  45  66  98 138 180 226 287 349 412
#     4  12  25  40  73 101 139 181 237 294 349 415
#     4  11  26  44  70  98 143 184 230 289 353 422
#
# _framework density 21.428602999999999
#
# number of rings (size 3 to 8) (size 9 to 14) (size 15 to 20)
#    0.750    0.500    3.750    0.750   10.500    1.000 
#    0.000    0.000    0.000    0.000    0.000    0.000 
#    0.000    0.000    0.000    0.000    0.000    0.000 
#
# Total GULP energy -396471.774980 kJ/mol
# GULP energy per Si atom -12389.742968 kJ/mol
# Density = 2.137983 g / cm^3
# Si number density = 21.428603 Si / 1000 Ang^3
#
#
#
# Elastic Constant Matrix: (Units=GPa)
#
#
# Indices 1 2 3 4 5 6 
#
# 1 116.6075 38.9071 31.7390 0.0000 0.0000 0.0000
# 2 38.9071 103.1067 25.3912 0.0000 0.0000 0.0000
# 3 31.7390 25.3912 97.7739 0.0000 0.0000 0.0000
# 4 0.0000 0.0000 0.0000 29.4950 0.0000 0.0000
# 5 0.0000 0.0000 0.0000 0.0000 15.0824 0.0000
# 6 0.0000 0.0000 0.0000 0.0000 0.0000 34.4753
#
#
#
# Elastic Compliance Matrix: (Units=1/GPa)
#
#
# Indices 1 2 3 4 5 6 
#
# 1 0.010356 -0.003290 -0.002507 0.000000 0.000000 0.000000
# 2 -0.003290 0.011407 -0.001894 0.000000 0.000000 0.000000
# 3 -0.002507 -0.001894 0.011533 0.000000 0.000000 0.000000
# 4 0.000000 0.000000 0.000000 0.033904 0.000000 0.000000
# 5 0.000000 0.000000 0.000000 0.000000 0.066302 0.000000
# 6 0.000000 0.000000 0.000000 0.000000 0.000000 0.029006
#
#
# Mechanical properties :
#
#
# Convention : Reuss Voigt Hill
#
# Bulk Modulus (GPa) = 55.82624 56.61807 56.22216
# Shear Modulus (GPa) = 27.19408 30.57394 28.88401
#
# Velocity S-wave (km/s) = 3.56625 3.78137 3.67538
# Velocity P-wave (km/s) = 6.56249 6.74864 6.65621
#
# Compressibility (1/GPa) = 0.01791272
#
# Stress axis : x y z
#
# Youngs Moduli (GPa) = 96.56147 87.66728 86.70423
#
# Poissons Ratio (x) = 0.28846 0.21739
# Poissons Ratio (y) = 0.31773 0.16423
# Poissons Ratio (z) = 0.24210 0.16605
#
# Static dielectric constant tensor:
#      x y z
#    x 3.932570 0.000000 0.000000 
#    y 0.000000 3.831080 0.000000 
#    z 0.000000 0.000000 3.794830 
# 
# 
# High freq. dielectric constant tensor:
#      x y z
#    x 1.838980 0.000000 0.000000 
#    y 0.000000 1.847230 0.000000 
#    z 0.000000 0.000000 1.824670 
# 
# From -- ./inp_files/6114.got.cif
#   From: 2010.03.12/outbox.cif.g09.slc.cpg/sg19_4_cif.got.tgz:6114.got - 2010.04.10 18:59:41.
