data_PCOD8157722
_publ_section_title
;
Structure prediction by ZEFSAII (Michael W. Deem and Ramdas Pophale) SiO2 
 PCOD8157722
Probable space group: P 21 21 21
;
_chemical_formula_sum "Si O2"
_cell_formula_units_Z 20
_cell_length_a 21.948181
_cell_length_b 5.480485
_cell_length_c 7.413012
_cell_angle_alpha 90.000000
_cell_angle_beta 90.000000
_cell_angle_gamma 90.000000
_cell_volume 891.686578
_symmetry_space_group_name_H-M "P 21 21 21"
_symmetry_group_IT_number 19
_symmetry_cell_setting 'orthorhombic'
loop_
_space_group_symop_operation_xyz
x,y,z
1/2-x,-y,1/2+z
1/2+x,1/2-y,-z
-x,1/2+y,1/2-z
loop_
_atom_site_type_symbol
_atom_site_label
_atom_site_fract_x
_atom_site_fract_y
_atom_site_fract_z
Si Si1 0.087929 0.219264 0.135611
Si Si2 0.718295 0.272751 0.962748
Si Si3 0.695097 0.786615 0.153288
Si Si4 0.936010 0.355619 0.665906
Si Si5 0.479197 0.968971 0.964461
O O1 0.158574 0.292466 0.159658
O O2 0.071848 0.056435 0.310591
O O3 0.039719 0.437435 0.137388
O O4 0.082817 0.102481 0.935484
O O5 0.780439 0.271485 0.851294
O O6 0.713320 0.548404 0.036947
O O7 0.724676 0.046998 0.101142
O O8 0.621872 0.826322 0.151223
O O9 0.997798 0.273875 0.565289
O O10 0.950058 0.367205 0.878620
#
# Coordination Sequence:
#
# PCOD8157722 Si02
#       5
#     4   4   4   4   4
#     4  11  24  41  67  98 135 173 227 278 336 407
#     4  11  25  47  70  99 136 177 230 282 336 403
#     4  11  25  47  70  99 136 177 230 282 336 403
#     4  11  24  41  67  98 135 173 227 278 336 407
#     4  12  22  42  66  98 130 180 216 280 346 400
#
# _framework density 22.429407000000001
#
# number of rings (size 3 to 8) (size 9 to 14) (size 15 to 20)
#    0.000    0.800    6.000    1.200    2.800    0.000 
#    7.200    0.000    0.000    0.000    0.000    0.000 
#    0.000    0.000    0.000    0.000    0.000    0.000 
#
# Total GULP energy -247794.194224 kJ/mol
# GULP energy per Si atom -12389.709711 kJ/mol
# Density = 2.237836 g / cm^3
# Si number density = 22.429407 Si / 1000 Ang^3
#
#
#
# Elastic Constant Matrix: (Units=GPa)
#
#
# Indices 1 2 3 4 5 6 
#
# 1 57.0543 -0.1961 13.6974 0.0000 0.0000 0.0000
# 2 -0.1961 74.0420 7.6933 0.0000 0.0000 0.0000
# 3 13.6974 7.6933 96.4184 0.0000 0.0000 0.0000
# 4 0.0000 0.0000 0.0000 36.0686 0.0000 0.0000
# 5 0.0000 0.0000 0.0000 0.0000 40.1532 0.0000
# 6 0.0000 0.0000 0.0000 0.0000 0.0000 28.0580
#
#
#
# Elastic Compliance Matrix: (Units=1/GPa)
#
#
# Indices 1 2 3 4 5 6 
#
# 1 0.018154 0.000319 -0.002604 0.000000 0.000000 0.000000
# 2 0.000319 0.013624 -0.001132 0.000000 0.000000 0.000000
# 3 -0.002604 -0.001132 0.010832 0.000000 0.000000 0.000000
# 4 0.000000 0.000000 0.000000 0.027725 0.000000 0.000000
# 5 0.000000 0.000000 0.000000 0.000000 0.024905 0.000000
# 6 0.000000 0.000000 0.000000 0.000000 0.000000 0.035640
#
#
# Mechanical properties :
#
#
# Convention : Reuss Voigt Hill
#
# Bulk Modulus (GPa) = 27.95358 29.98931 28.97145
# Shear Modulus (GPa) = 33.41346 34.61063 34.01205
#
# Velocity S-wave (km/s) = 3.86387 3.93248 3.89833
# Velocity P-wave (km/s) = 5.69175 5.83256 5.76258
#
# Compressibility (1/GPa) = 0.03577359
#
# Stress axis : x y z
#
# Youngs Moduli (GPa) = 55.08578 73.39795 92.32083
#
# Poissons Ratio (x) = -0.02339 0.24044
# Poissons Ratio (y) = -0.01755 0.10454
# Poissons Ratio (z) = 0.14346 0.08311
#
# Static dielectric constant tensor:
#      x y z
#    x 4.341730 0.000000 0.000000 
#    y 0.000000 3.870840 0.000000 
#    z 0.000000 0.000000 4.058710 
# 
# 
# High freq. dielectric constant tensor:
#      x y z
#    x 1.890910 0.000000 0.000000 
#    y 0.000000 1.875950 0.000000 
#    z 0.000000 0.000000 1.878670 
# 
# From -- ./inp_files/128.got.cif
#   From: 2010.03.12/outbox.cif.g09.slc.cpg/sg19_1_cif.got.tgz:128.got - 2010.04.10 18:59:41.
