data_PCOD8157310
_publ_section_title
;
Structure prediction by ZEFSAII (Michael W. Deem and Ramdas Pophale) SiO2 
 PCOD8157310
Probable space group: P 21 21 21
;
_chemical_formula_sum "Si O2"
_cell_formula_units_Z 28
_cell_length_a 6.041027
_cell_length_b 11.788476
_cell_length_c 17.255824
_cell_angle_alpha 90.000000
_cell_angle_beta 90.000000
_cell_angle_gamma 90.000000
_cell_volume 1228.864909
_symmetry_space_group_name_H-M "P 21 21 21"
_symmetry_group_IT_number 19
_symmetry_cell_setting 'orthorhombic'
loop_
_space_group_symop_operation_xyz
x,y,z
1/2-x,-y,1/2+z
1/2+x,1/2-y,-z
-x,1/2+y,1/2-z
loop_
_atom_site_type_symbol
_atom_site_label
_atom_site_fract_x
_atom_site_fract_y
_atom_site_fract_z
Si Si1 0.594125 0.204107 0.170156
Si Si2 0.040273 0.558831 0.622080
Si Si3 0.989546 0.132574 0.573466
Si Si4 0.227498 0.147442 0.412876
Si Si5 0.606226 0.916875 0.788715
Si Si6 0.166243 0.567873 0.454394
Si Si7 0.283829 0.966331 0.660193
O O1 0.568288 0.338739 0.169258
O O2 0.764400 0.175671 0.238325
O O3 0.687558 0.162530 0.087543
O O4 0.359307 0.143469 0.184101
O O5 0.227291 0.507392 0.676235
O O6 0.148760 0.606061 0.543294
O O7 0.850551 0.470382 0.600488
O O8 0.149048 0.157606 0.501201
O O9 0.895124 0.250414 0.606473
O O10 0.125870 0.073787 0.643281
O O11 0.783985 0.054585 0.548467
O O12 0.017751 0.152933 0.355857
O O13 0.441570 0.989571 0.733683
O O14 0.923810 0.559009 0.416961
#
# Coordination Sequence:
#
# PCOD8157310 Si02
#       7
#     4   4   4   4   4   4   4
#     4  10  26  48  72 109 145 189 247 307 375 437
#     4  12  25  47  76 110 145 191 252 301 368 452
#     4  11  24  46  75 108 144 192 246 308 361 440
#     4  12  26  46  74 111 146 192 252 304 363 439
#     4  11  26  52  69 110 147 198 245 301 382 435
#     4  10  22  44  77 107 139 189 240 303 372 432
#     4  10  23  51  71 103 146 191 246 304 371 435
#
# _framework density 22.785256
#
# number of rings (size 3 to 8) (size 9 to 14) (size 15 to 20)
#    0.000    1.143    2.857    1.714    2.000    2.286 
#   33.429    0.000    0.000    0.000    0.000    0.000 
#    0.000    0.000    0.000    0.000    0.000    0.000 
#
# Total GULP energy -347420.111002 kJ/mol
# GULP energy per Si atom -12407.861107 kJ/mol
# Density = 2.273340 g / cm^3
# Si number density = 22.785256 Si / 1000 Ang^3
#
#
#
# Elastic Constant Matrix: (Units=GPa)
#
#
# Indices 1 2 3 4 5 6 
#
# 1 112.8752 63.3554 37.5273 0.0000 0.0000 0.0000
# 2 63.3554 147.4996 47.2550 0.0000 0.0000 0.0000
# 3 37.5273 47.2550 112.2535 0.0000 0.0000 0.0000
# 4 0.0000 0.0000 0.0000 19.5495 0.0000 0.0000
# 5 0.0000 0.0000 0.0000 0.0000 47.3313 0.0000
# 6 0.0000 0.0000 0.0000 0.0000 0.0000 32.9263
#
#
#
# Elastic Compliance Matrix: (Units=1/GPa)
#
#
# Indices 1 2 3 4 5 6 
#
# 1 0.012106 -0.004512 -0.002148 0.000000 0.000000 0.000000
# 2 -0.004512 0.009518 -0.002498 0.000000 0.000000 0.000000
# 3 -0.002148 -0.002498 0.010678 0.000000 0.000000 0.000000
# 4 0.000000 0.000000 0.000000 0.051152 0.000000 0.000000
# 5 0.000000 0.000000 0.000000 0.000000 0.021128 0.000000
# 6 0.000000 0.000000 0.000000 0.000000 0.000000 0.030371
#
#
# Mechanical properties :
#
#
# Convention : Reuss Voigt Hill
#
# Bulk Modulus (GPa) = 71.49961 74.32264 72.91113
# Shear Modulus (GPa) = 31.65944 34.92746 33.29345
#
# Velocity S-wave (km/s) = 3.73160 3.91947 3.82669
# Velocity P-wave (km/s) = 7.07209 7.29195 7.18286
#
# Compressibility (1/GPa) = 0.01398609
#
# Stress axis : x y z
#
# Youngs Moduli (GPa) = 82.60529 105.06374 93.64866
#
# Poissons Ratio (x) = 0.47401 0.20114
# Poissons Ratio (y) = 0.37269 0.23398
# Poissons Ratio (z) = 0.17742 0.26250
#
# Static dielectric constant tensor:
#      x y z
#    x 4.341110 0.000000 0.000000 
#    y 0.000000 3.827430 0.000000 
#    z 0.000000 0.000000 4.267020 
# 
# 
# High freq. dielectric constant tensor:
#      x y z
#    x 1.916590 0.000000 0.000000 
#    y 0.000000 1.884890 0.000000 
#    z 0.000000 0.000000 1.911410 
# 
# From -- ./inp_files/6432.got.cif
#   From: 2010.03.12/outbox.cif.g09.slc.cpg/sg19_4_cif.got.tgz:6432.got - 2010.04.10 18:59:41.
