data_PCOD8157780
_publ_section_title
;
Structure prediction by ZEFSAII (Michael W. Deem and Ramdas Pophale) SiO2 
 PCOD8157780
Probable space group: P 21 21 21
;
_chemical_formula_sum "Si O2"
_cell_formula_units_Z 24
_cell_length_a 5.322310
_cell_length_b 14.495229
_cell_length_c 13.523234
_cell_angle_alpha 90.000000
_cell_angle_beta 90.000000
_cell_angle_gamma 90.000000
_cell_volume 1043.291840
_symmetry_space_group_name_H-M "P 21 21 21"
_symmetry_group_IT_number 19
_symmetry_cell_setting 'orthorhombic'
loop_
_space_group_symop_operation_xyz
x,y,z
1/2-x,-y,1/2+z
1/2+x,1/2-y,-z
-x,1/2+y,1/2-z
loop_
_atom_site_type_symbol
_atom_site_label
_atom_site_fract_x
_atom_site_fract_y
_atom_site_fract_z
Si Si1 0.930440 0.839713 0.423883
Si Si2 0.569290 0.776216 0.943243
Si Si3 0.314843 0.010605 0.242574
Si Si4 0.691449 0.969213 0.862436
Si Si5 0.081967 0.811943 0.640487
Si Si6 0.253274 0.188597 0.745428
O O1 0.806265 0.760098 0.358255
O O2 0.949002 0.802953 0.534601
O O3 0.177032 0.849724 0.355789
O O4 0.788272 0.937476 0.427629
O O5 0.627459 0.884239 0.933190
O O6 0.547837 0.724663 0.836370
O O7 0.301002 0.767301 0.995965
O O8 0.532903 0.043918 0.316519
O O9 0.325622 0.083108 0.151910
O O10 0.030451 0.019717 0.282306
O O11 0.372307 0.906289 0.202761
O O12 0.916115 0.778692 0.734197
#
# Coordination Sequence:
#
# PCOD8157780 Si02
#       6
#     4   4   4   4   4   4
#     4  11  25  43  73 103 143 180 241 296 356 422
#     4  12  28  47  72 102 139 191 236 287 347 427
#     4  11  25  43  74 100 141 187 227 292 356 414
#     4  11  24  48  68 102 142 182 233 294 344 420
#     4  12  23  44  71 106 139 188 233 294 359 421
#     4  11  25  47  68 103 142 186 236 293 354 420
#
# _framework density 23.004107000000001
#
# number of rings (size 3 to 8) (size 9 to 14) (size 15 to 20)
#    0.000    0.667    5.000    2.000    4.667    0.000 
#    3.000    0.000    0.000    0.000    0.000    0.000 
#    0.000    0.000    0.000    0.000    0.000    0.000 
#
# Total GULP energy -297349.673919 kJ/mol
# GULP energy per Si atom -12389.569747 kJ/mol
# Density = 2.295175 g / cm^3
# Si number density = 23.004107 Si / 1000 Ang^3
#
#
#
# Elastic Constant Matrix: (Units=GPa)
#
#
# Indices 1 2 3 4 5 6 
#
# 1 59.8321 -8.6573 6.7987 0.0000 0.0000 0.0000
# 2 -8.6573 159.9535 33.7346 0.0000 0.0000 0.0000
# 3 6.7987 33.7346 75.0613 0.0000 0.0000 0.0000
# 4 0.0000 0.0000 0.0000 36.3664 0.0000 0.0000
# 5 0.0000 0.0000 0.0000 0.0000 31.8944 0.0000
# 6 0.0000 0.0000 0.0000 0.0000 0.0000 29.0973
#
#
#
# Elastic Compliance Matrix: (Units=1/GPa)
#
#
# Indices 1 2 3 4 5 6 
#
# 1 0.017162 0.001388 -0.002178 0.000000 0.000000 0.000000
# 2 0.001388 0.007019 -0.003280 0.000000 0.000000 0.000000
# 3 -0.002178 -0.003280 0.014994 0.000000 0.000000 0.000000
# 4 0.000000 0.000000 0.000000 0.027498 0.000000 0.000000
# 5 0.000000 0.000000 0.000000 0.000000 0.031353 0.000000
# 6 0.000000 0.000000 0.000000 0.000000 0.000000 0.034367
#
#
# Mechanical properties :
#
#
# Convention : Reuss Voigt Hill
#
# Bulk Modulus (GPa) = 32.22266 39.84430 36.03348
# Shear Modulus (GPa) = 33.13925 37.00302 35.07113
#
# Velocity S-wave (km/s) = 3.79961 4.01501 3.90880
# Velocity P-wave (km/s) = 5.76950 6.23313 6.00579
#
# Compressibility (1/GPa) = 0.03103406
#
# Stress axis : x y z
#
# Youngs Moduli (GPa) = 58.26879 142.47545 66.69357
#
# Poissons Ratio (x) = -0.19780 0.14528
# Poissons Ratio (y) = -0.08089 0.21877
# Poissons Ratio (z) = 0.12693 0.46734
#
# Static dielectric constant tensor:
#      x y z
#    x 3.953020 0.000000 0.000000 
#    y 0.000000 4.689500 0.000000 
#    z 0.000000 0.000000 3.877720 
# 
# 
# High freq. dielectric constant tensor:
#      x y z
#    x 1.893720 0.000000 0.000000 
#    y 0.000000 1.942910 0.000000 
#    z 0.000000 0.000000 1.893190 
# 
# From -- ./inp_files/887.got.cif
#   From: 2010.03.12/outbox.cif.g09.slc.cpg/sg19_1_cif.got.tgz:887.got - 2010.04.10 18:59:41.
