data_PCOD8157611
_publ_section_title
;
Structure prediction by ZEFSAII (Michael W. Deem and Ramdas Pophale) SiO2 
 PCOD8157611
Probable space group: P 21 21 21
;
_chemical_formula_sum "Si O2"
_cell_formula_units_Z 20
_cell_length_a 8.590480
_cell_length_b 11.413514
_cell_length_c 8.551863
_cell_angle_alpha 90.000000
_cell_angle_beta 90.000000
_cell_angle_gamma 90.000000
_cell_volume 838.489333
_symmetry_space_group_name_H-M "P 21 21 21"
_symmetry_group_IT_number 19
_symmetry_cell_setting 'orthorhombic'
loop_
_space_group_symop_operation_xyz
x,y,z
1/2-x,-y,1/2+z
1/2+x,1/2-y,-z
-x,1/2+y,1/2-z
loop_
_atom_site_type_symbol
_atom_site_label
_atom_site_fract_x
_atom_site_fract_y
_atom_site_fract_z
Si Si1 0.435853 0.762114 0.650114
Si Si2 0.329002 0.399960 0.032041
Si Si3 0.385650 0.594844 0.268690
Si Si4 0.291623 0.058959 0.070775
Si Si5 0.272305 0.169092 0.727954
O O1 0.321557 0.654672 0.615572
O O2 0.544154 0.797744 0.499158
O O3 0.329932 0.875584 0.688556
O O4 0.553718 0.725056 0.789464
O O5 0.406977 0.506902 0.123963
O O6 0.266561 0.447976 0.865344
O O7 0.534345 0.587660 0.379315
O O8 0.357306 0.728877 0.213690
O O9 0.258005 0.920268 0.086273
O O10 0.260297 0.102129 0.894525
#
# Coordination Sequence:
#
# PCOD8157611 Si02
#       5
#     4   4   4   4   4
#     4  11  22  43  70  98 135 189 221 294 344 423
#     4  11  23  45  73 102 142 183 239 284 362 411
#     4  11  25  45  72 104 141 186 235 295 348 429
#     4  12  23  45  71  98 146 188 231 300 355 412
#     4  11  25  44  66 104 138 186 240 285 357 417
#
# _framework density 23.852423000000002
#
# number of rings (size 3 to 8) (size 9 to 14) (size 15 to 20)
#    0.000    0.800    6.000    1.200    8.400    0.000 
#    3.600    2.000    0.000    0.000    0.000    0.000 
#    0.000    0.000    0.000    0.000    0.000    0.000 
#
# Total GULP energy -247853.664844 kJ/mol
# GULP energy per Si atom -12392.683242 kJ/mol
# Density = 2.379813 g / cm^3
# Si number density = 23.852423 Si / 1000 Ang^3
#
#
#
# Elastic Constant Matrix: (Units=GPa)
#
#
# Indices 1 2 3 4 5 6 
#
# 1 99.9528 20.3268 -7.5651 0.0000 0.0000 0.0000
# 2 20.3268 117.3955 25.5609 0.0000 0.0000 0.0000
# 3 -7.5651 25.5609 30.6311 0.0000 0.0000 0.0000
# 4 0.0000 0.0000 0.0000 43.7675 0.0000 0.0000
# 5 0.0000 0.0000 0.0000 0.0000 16.8353 0.0000
# 6 0.0000 0.0000 0.0000 0.0000 0.0000 36.8484
#
#
#
# Elastic Compliance Matrix: (Units=1/GPa)
#
#
# Indices 1 2 3 4 5 6 
#
# 1 0.011026 -0.003058 0.005274 0.000000 0.000000 0.000000
# 2 -0.003058 0.011257 -0.010149 0.000000 0.000000 0.000000
# 3 0.005274 -0.010149 0.042418 0.000000 0.000000 0.000000
# 4 0.000000 0.000000 0.000000 0.022848 0.000000 0.000000
# 5 0.000000 0.000000 0.000000 0.000000 0.059399 0.000000
# 6 0.000000 0.000000 0.000000 0.000000 0.000000 0.027138
#
#
# Mechanical properties :
#
#
# Convention : Reuss Voigt Hill
#
# Bulk Modulus (GPa) = 20.47621 36.06939 28.27280
# Shear Modulus (GPa) = 24.24477 33.46737 28.85607
#
# Velocity S-wave (km/s) = 3.19164 3.74986 3.48196
# Velocity P-wave (km/s) = 4.71012 5.82266 5.29569
#
# Compressibility (1/GPa) = 0.04883717
#
# Stress axis : x y z
#
# Youngs Moduli (GPa) = 90.69708 88.83026 23.57468
#
# Poissons Ratio (x) = 0.27160 -0.12434
# Poissons Ratio (y) = 0.27731 0.23926
# Poissons Ratio (z) = -0.47838 0.90155
#
# Static dielectric constant tensor:
#      x y z
#    x 4.720510 0.000000 0.000000 
#    y 0.000000 4.447900 0.000000 
#    z 0.000000 0.000000 3.795630 
# 
# 
# High freq. dielectric constant tensor:
#      x y z
#    x 1.971530 0.000000 0.000000 
#    y 0.000000 1.955120 0.000000 
#    z 0.000000 0.000000 1.888910 
# 
# From -- ./inp_files/2626.got.cif
#   From: 2010.03.12/outbox.cif.g09.slc.cpg/sg19_2_cif.got.tgz:2626.got - 2010.04.10 18:59:41.
