data_PCOD8157305
_publ_section_title
;
Structure prediction by ZEFSAII (Michael W. Deem and Ramdas Pophale) SiO2 
 PCOD8157305
Probable space group: P 21 21 21
;
_chemical_formula_sum "Si O2"
_cell_formula_units_Z 28
_cell_length_a 9.289379
_cell_length_b 10.662772
_cell_length_c 11.557996
_cell_angle_alpha 90.000000
_cell_angle_beta 90.000000
_cell_angle_gamma 90.000000
_cell_volume 1144.825633
_symmetry_space_group_name_H-M "P 21 21 21"
_symmetry_group_IT_number 19
_symmetry_cell_setting 'orthorhombic'
loop_
_space_group_symop_operation_xyz
x,y,z
1/2-x,-y,1/2+z
1/2+x,1/2-y,-z
-x,1/2+y,1/2-z
loop_
_atom_site_type_symbol
_atom_site_label
_atom_site_fract_x
_atom_site_fract_y
_atom_site_fract_z
Si Si1 0.130660 0.340021 0.948634
Si Si2 0.114996 0.988964 0.457445
Si Si3 0.200576 0.233333 0.560392
Si Si4 0.249528 0.426325 0.372004
Si Si5 0.791529 0.652940 0.370060
Si Si6 0.535954 0.761214 0.247130
Si Si7 0.064722 0.922751 0.204706
O O1 0.259417 0.421519 0.889510
O O2 0.060793 0.233632 0.864599
O O3 0.167031 0.287646 0.076002
O O4 0.024021 0.457622 0.965991
O O5 0.249482 0.924938 0.517383
O O6 0.104707 0.914423 0.338092
O O7 0.139486 0.138812 0.461267
O O8 0.266202 0.353268 0.494869
O O9 0.324586 0.165716 0.635437
O O10 0.068563 0.279562 0.642143
O O11 0.382028 0.390919 0.285165
O O12 0.098668 0.380178 0.316834
O O13 0.666030 0.662324 0.272066
O O14 0.923202 0.572667 0.320135
#
# Coordination Sequence:
#
# PCOD8157305 Si02
#       7
#     4   4   4   4   4   4   4
#     4  11  25  46  70 104 145 189 252 297 362 451
#     4  10  22  44  69  97 145 184 240 298 364 441
#     4  11  24  48  72 109 148 192 247 310 370 444
#     4  12  26  46  72 111 141 194 248 307 371 442
#     4  10  24  45  70 105 143 195 244 301 367 440
#     4  11  24  47  74 101 149 195 244 301 374 435
#     4  11  25  44  75 107 149 191 241 312 376 427
#
# _framework density 24.457872999999999
#
# number of rings (size 3 to 8) (size 9 to 14) (size 15 to 20)
#    0.000    1.143    1.429    3.429    4.000    3.429 
#    7.714    0.000    0.000    0.000    0.000    0.000 
#    0.000    0.000    0.000    0.000    0.000    0.000 
#
# Total GULP energy -346869.844120 kJ/mol
# GULP energy per Si atom -12388.208719 kJ/mol
# Density = 2.440221 g / cm^3
# Si number density = 24.457873 Si / 1000 Ang^3
#
#
#
# Elastic Constant Matrix: (Units=GPa)
#
#
# Indices 1 2 3 4 5 6 
#
# 1 104.5131 29.5578 34.9535 0.0000 0.0000 0.0000
# 2 29.5578 88.8425 34.7770 0.0000 0.0000 0.0000
# 3 34.9535 34.7770 100.1865 0.0000 0.0000 0.0000
# 4 0.0000 0.0000 0.0000 38.5536 0.0000 0.0000
# 5 0.0000 0.0000 0.0000 0.0000 42.7271 0.0000
# 6 0.0000 0.0000 0.0000 0.0000 0.0000 36.5757
#
#
#
# Elastic Compliance Matrix: (Units=1/GPa)
#
#
# Indices 1 2 3 4 5 6 
#
# 1 0.011317 -0.002569 -0.003057 0.000000 0.000000 0.000000
# 2 -0.002569 0.013609 -0.003828 0.000000 0.000000 0.000000
# 3 -0.003057 -0.003828 0.012377 0.000000 0.000000 0.000000
# 4 0.000000 0.000000 0.000000 0.025938 0.000000 0.000000
# 5 0.000000 0.000000 0.000000 0.000000 0.023404 0.000000
# 6 0.000000 0.000000 0.000000 0.000000 0.000000 0.027341
#
#
# Mechanical properties :
#
#
# Convention : Reuss Voigt Hill
#
# Bulk Modulus (GPa) = 54.35927 54.67985 54.51956
# Shear Modulus (GPa) = 35.96524 36.52155 36.24339
#
# Velocity S-wave (km/s) = 3.83887 3.86844 3.85368
# Velocity P-wave (km/s) = 6.47481 6.50833 6.49159
#
# Compressibility (1/GPa) = 0.01839613
#
# Stress axis : x y z
#
# Youngs Moduli (GPa) = 88.36352 73.48176 80.79820
#
# Poissons Ratio (x) = 0.18875 0.24697
# Poissons Ratio (y) = 0.22697 0.30928
# Poissons Ratio (z) = 0.27010 0.28127
#
# Static dielectric constant tensor:
#      x y z
#    x 4.501200 0.000000 0.000000 
#    y 0.000000 4.540400 0.000000 
#    z 0.000000 0.000000 4.467260 
# 
# 
# High freq. dielectric constant tensor:
#      x y z
#    x 1.976590 0.000000 0.000000 
#    y 0.000000 1.956500 0.000000 
#    z 0.000000 0.000000 1.975390 
# 
# From -- ./inp_files/4585.got.cif
#   From: 2010.03.12/outbox.cif.g09.slc.cpg/sg19_3_cif.got.tgz:4585.got - 2010.04.10 18:59:41.
