data_PCOD8157881
_publ_section_title
;
Structure prediction by ZEFSAII (Michael W. Deem and Ramdas Pophale) SiO2 
 PCOD8157881
Probable space group: P 21 21 21
;
_chemical_formula_sum "Si O2"
_cell_formula_units_Z 24
_cell_length_a 13.384937
_cell_length_b 9.555509
_cell_length_c 8.274481
_cell_angle_alpha 90.000000
_cell_angle_beta 90.000000
_cell_angle_gamma 90.000000
_cell_volume 1058.305176
_symmetry_space_group_name_H-M "P 21 21 21"
_symmetry_group_IT_number 19
_symmetry_cell_setting 'orthorhombic'
loop_
_space_group_symop_operation_xyz
x,y,z
1/2-x,-y,1/2+z
1/2+x,1/2-y,-z
-x,1/2+y,1/2-z
loop_
_atom_site_type_symbol
_atom_site_label
_atom_site_fract_x
_atom_site_fract_y
_atom_site_fract_z
Si Si1 0.990213 0.630792 0.092468
Si Si2 0.252680 0.214558 0.960487
Si Si3 0.947492 0.384701 0.595734
Si Si4 0.453923 0.357661 0.938941
Si Si5 0.559350 0.126212 0.084699
Si Si6 0.773067 0.566050 0.198029
O O1 0.869761 0.620321 0.099962
O O2 0.042903 0.581580 0.258234
O O3 0.020364 0.789122 0.054088
O O4 0.038997 0.536315 0.951312
O O5 0.221189 0.120834 0.117040
O O6 0.344088 0.317499 0.000754
O O7 0.173687 0.328755 0.897780
O O8 0.274729 0.104411 0.814661
O O9 0.828051 0.380714 0.613748
O O10 0.990752 0.539152 0.563307
O O11 0.999018 0.327026 0.756901
O O12 0.516171 0.213571 0.933814
#
# Coordination Sequence:
#
# PCOD8157881 Si02
#       6
#     4   4   4   4   4   4
#     4  12  27  46  76 106 148 188 243 303 366 430
#     4  12  28  45  79 104 150 190 248 294 372 435
#     4  12  27  46  76 106 148 188 243 303 366 430
#     4  12  25  47  71 109 143 186 242 303 354 433
#     4  12  25  47  71 109 143 186 242 303 354 433
#     4  12  24  45  75 104 140 194 238 286 372 431
#
# _framework density 22.677769999999999
#
# number of rings (size 3 to 8) (size 9 to 14) (size 15 to 20)
#    0.000    0.000    6.667    2.000    4.667    2.667 
#    0.000    0.000    0.000    0.000    0.000    0.000 
#    0.000    0.000    0.000    0.000    0.000    0.000 
#
# Total GULP energy -297583.481112 kJ/mol
# GULP energy per Si atom -12399.311713 kJ/mol
# Density = 2.262615 g / cm^3
# Si number density = 22.677770 Si / 1000 Ang^3
#
#
#
# Elastic Constant Matrix: (Units=GPa)
#
#
# Indices 1 2 3 4 5 6 
#
# 1 136.7219 47.7515 26.6213 0.0000 0.0000 0.0000
# 2 47.7515 85.5498 30.1269 0.0000 0.0000 0.0000
# 3 26.6213 30.1269 82.4884 0.0000 0.0000 0.0000
# 4 0.0000 0.0000 0.0000 34.2790 0.0000 0.0000
# 5 0.0000 0.0000 0.0000 0.0000 26.2212 0.0000
# 6 0.0000 0.0000 0.0000 0.0000 0.0000 42.1901
#
#
#
# Elastic Compliance Matrix: (Units=1/GPa)
#
#
# Indices 1 2 3 4 5 6 
#
# 1 0.009197 -0.004692 -0.001255 0.000000 0.000000 0.000000
# 2 -0.004692 0.015808 -0.004259 0.000000 0.000000 0.000000
# 3 -0.001255 -0.004259 0.014083 0.000000 0.000000 0.000000
# 4 0.000000 0.000000 0.000000 0.029172 0.000000 0.000000
# 5 0.000000 0.000000 0.000000 0.000000 0.038137 0.000000
# 6 0.000000 0.000000 0.000000 0.000000 0.000000 0.023702
#
#
# Mechanical properties :
#
#
# Convention : Reuss Voigt Hill
#
# Bulk Modulus (GPa) = 53.54157 57.08438 55.31297
# Shear Modulus (GPa) = 31.90062 33.88876 32.89469
#
# Velocity S-wave (km/s) = 3.75466 3.86989 3.81271
# Velocity P-wave (km/s) = 6.51595 6.72270 6.62013
#
# Compressibility (1/GPa) = 0.01867708
#
# Stress axis : x y z
#
# Youngs Moduli (GPa) = 108.73072 63.25992 71.00555
#
# Poissons Ratio (x) = 0.29680 0.08908
# Poissons Ratio (y) = 0.51013 0.30243
# Poissons Ratio (z) = 0.13642 0.26944
#
# Static dielectric constant tensor:
#      x y z
#    x 4.202010 0.000000 0.000000 
#    y 0.000000 3.943760 0.000000 
#    z 0.000000 0.000000 3.864390 
# 
# 
# High freq. dielectric constant tensor:
#      x y z
#    x 1.906870 0.000000 0.000000 
#    y 0.000000 1.894000 0.000000 
#    z 0.000000 0.000000 1.892520 
# 
# From -- ./inp_files/3321.got.cif
#   From: 2010.03.12/outbox.cif.g09.slc.cpg/sg19_2_cif.got.tgz:3321.got - 2010.04.10 18:59:41.
