data_PCOD8157271
_publ_section_title
;
Structure prediction by ZEFSAII (Michael W. Deem and Ramdas Pophale) SiO2 
 PCOD8157271
Probable space group: P 21 21 21
;
_chemical_formula_sum "Si O2"
_cell_formula_units_Z 32
_cell_length_a 18.953706
_cell_length_b 7.002947
_cell_length_c 10.751915
_cell_angle_alpha 90.000000
_cell_angle_beta 90.000000
_cell_angle_gamma 90.000000
_cell_volume 1427.121016
_symmetry_space_group_name_H-M "P 21 21 21"
_symmetry_group_IT_number 19
_symmetry_cell_setting 'orthorhombic'
loop_
_space_group_symop_operation_xyz
x,y,z
1/2-x,-y,1/2+z
1/2+x,1/2-y,-z
-x,1/2+y,1/2-z
loop_
_atom_site_type_symbol
_atom_site_label
_atom_site_fract_x
_atom_site_fract_y
_atom_site_fract_z
Si Si1 0.357135 0.214819 0.641278
Si Si2 0.863180 0.375590 0.632716
Si Si3 0.548037 0.061427 0.876846
Si Si4 0.051797 0.236780 0.875606
Si Si5 0.912475 0.622322 0.195730
Si Si6 0.418593 0.453055 0.189737
Si Si7 0.725975 0.180332 0.657655
Si Si8 0.767843 0.954148 0.896154
O O1 0.397142 0.409567 0.680716
O O2 0.272414 0.256079 0.638342
O O3 0.388792 0.159236 0.507824
O O4 0.370771 0.043280 0.733546
O O5 0.887990 0.587941 0.667394
O O6 0.895778 0.213756 0.718764
O O7 0.778599 0.360105 0.643412
O O8 0.542076 0.240438 0.784548
O O9 0.469896 0.970757 0.896763
O O10 0.577496 0.141077 0.006767
O O11 0.040782 0.380095 0.761726
O O12 0.977009 0.131729 0.905239
O O13 0.852578 0.744943 0.126427
O O14 0.351731 0.546922 0.121630
O O15 0.744314 0.021854 0.547798
O O16 0.732870 0.108259 0.801197
#
# Coordination Sequence:
#
# PCOD8157271 Si02
#       8
#     4   4   4   4   4   4   4   4
#     4  11  22  43  67  97 135 183 230 285 343 422
#     4  10  22  43  65  98 133 179 233 275 348 419
#     4  12  25  42  68 101 136 185 229 288 351 416
#     4  12  24  41  67  97 138 183 224 287 354 417
#     4  12  25  42  68 102 139 179 234 285 354 413
#     4  11  24  41  66 101 137 178 227 287 350 414
#     4  10  24  46  71 105 141 186 231 294 348 420
#     4  10  24  44  72  99 145 179 234 291 344 409
#
# _framework density 22.422767
#
# number of rings (size 3 to 8) (size 9 to 14) (size 15 to 20)
#    0.000    1.000    6.250    0.000    1.750    4.000 
#    0.000    2.500    0.000    0.000    0.000    0.000 
#    0.000    0.000    0.000    0.000    0.000    0.000 
#
# Total GULP energy -396527.282798 kJ/mol
# GULP energy per Si atom -12391.477587 kJ/mol
# Density = 2.237173 g / cm^3
# Si number density = 22.422767 Si / 1000 Ang^3
#
#
#
# Elastic Constant Matrix: (Units=GPa)
#
#
# Indices 1 2 3 4 5 6 
#
# 1 123.4354 31.4935 16.5281 0.0000 0.0000 0.0000
# 2 31.4935 96.7504 32.8192 0.0000 0.0000 0.0000
# 3 16.5281 32.8192 77.1262 0.0000 0.0000 0.0000
# 4 0.0000 0.0000 0.0000 28.9900 0.0000 0.0000
# 5 0.0000 0.0000 0.0000 0.0000 26.0033 0.0000
# 6 0.0000 0.0000 0.0000 0.0000 0.0000 41.3133
#
#
#
# Elastic Compliance Matrix: (Units=1/GPa)
#
#
# Indices 1 2 3 4 5 6 
#
# 1 0.008876 -0.002623 -0.000786 0.000000 0.000000 0.000000
# 2 -0.002623 0.012854 -0.004908 0.000000 0.000000 0.000000
# 3 -0.000786 -0.004908 0.015223 0.000000 0.000000 0.000000
# 4 0.000000 0.000000 0.000000 0.034495 0.000000 0.000000
# 5 0.000000 0.000000 0.000000 0.000000 0.038457 0.000000
# 6 0.000000 0.000000 0.000000 0.000000 0.000000 0.024205
#
#
# Mechanical properties :
#
#
# Convention : Reuss Voigt Hill
#
# Bulk Modulus (GPa) = 49.21312 50.99930 50.10621
# Shear Modulus (GPa) = 31.74287 33.69272 32.71780
#
# Velocity S-wave (km/s) = 3.76660 3.88056 3.82400
# Velocity P-wave (km/s) = 6.39624 6.54768 6.47240
#
# Compressibility (1/GPa) = 0.02031978
#
# Stress axis : x y z
#
# Youngs Moduli (GPa) = 112.66610 77.79459 65.69154
#
# Poissons Ratio (x) = 0.20402 0.05164
# Poissons Ratio (y) = 0.29547 0.32241
# Poissons Ratio (z) = 0.08857 0.38181
#
# Static dielectric constant tensor:
#      x y z
#    x 4.163480 0.000000 0.000000 
#    y 0.000000 3.989630 0.000000 
#    z 0.000000 0.000000 3.861960 
# 
# 
# High freq. dielectric constant tensor:
#      x y z
#    x 1.896200 0.000000 0.000000 
#    y 0.000000 1.877110 0.000000 
#    z 0.000000 0.000000 1.864790 
# 
# From -- ./inp_files/5496.got.cif
#   From: 2010.03.12/outbox.cif.g09.slc.cpg/sg19_3_cif.got.tgz:5496.got - 2010.04.10 18:59:41.
