data_PCOD8157008
_publ_section_title
;
Structure prediction by ZEFSAII (Michael W. Deem and Ramdas Pophale) SiO2 
 PCOD8157008
Probable space group: P 21 21 21
;
_chemical_formula_sum "Si O2"
_cell_formula_units_Z 32
_cell_length_a 5.104028
_cell_length_b 12.520862
_cell_length_c 24.818349
_cell_angle_alpha 90.000000
_cell_angle_beta 90.000000
_cell_angle_gamma 90.000000
_cell_volume 1586.062016
_symmetry_space_group_name_H-M "P 21 21 21"
_symmetry_group_IT_number 19
_symmetry_cell_setting 'orthorhombic'
loop_
_space_group_symop_operation_xyz
x,y,z
1/2-x,-y,1/2+z
1/2+x,1/2-y,-z
-x,1/2+y,1/2-z
loop_
_atom_site_type_symbol
_atom_site_label
_atom_site_fract_x
_atom_site_fract_y
_atom_site_fract_z
Si Si1 0.244741 0.246728 0.035699
Si Si2 0.695372 0.099805 0.182192
Si Si3 0.317398 0.944009 0.614743
Si Si4 0.881982 0.338326 0.200008
Si Si5 0.232274 0.625136 0.031494
Si Si6 0.308851 0.561388 0.612609
Si Si7 0.737437 0.632070 0.961967
Si Si8 0.881239 0.058733 0.775611
O O1 0.153566 0.141030 0.066839
O O2 0.308341 0.343754 0.076057
O O3 0.509495 0.219058 0.003715
O O4 0.414060 0.094959 0.153809
O O5 0.792198 0.219085 0.190605
O O6 0.910652 0.042470 0.145909
O O7 0.678409 0.044484 0.240215
O O8 0.274886 0.061738 0.591542
O O9 0.666637 0.395323 0.237832
O O10 0.922219 0.395970 0.141286
O O11 0.156765 0.349412 0.232763
O O12 0.150542 0.544774 0.078447
O O13 0.210159 0.744488 0.055400
O O14 0.517814 0.600961 0.006408
O O15 0.023892 0.609461 0.984550
O O16 0.109663 0.529288 0.660732
#
# Coordination Sequence:
#
# PCOD8157008 Si02
#       8
#     4   4   4   4   4   4   4   4
#     4  12  24  36  63 100 127 168 210 257 334 397
#     4  12  23  44  65  91 128 168 208 269 334 373
#     4  12  23  40  64  93 133 164 211 271 319 389
#     4  10  22  42  64  87 128 157 206 265 322 365
#     4  10  21  39  63  84 127 171 207 257 313 370
#     4  10  23  40  64  90 130 158 217 260 314 384
#     4  10  22  40  59  90 125 169 208 256 312 377
#     4  10  24  41  64  91 118 171 209 253 324 371
#
# _framework density 20.175757000000001
#
# number of rings (size 3 to 8) (size 9 to 14) (size 15 to 20)
#    0.750    0.500    1.250    5.250    3.500    0.000 
#    4.500    0.000    0.000    0.000    0.000    0.000 
#    0.000    0.000    0.000    0.000    0.000    0.000 
#
# Total GULP energy -396694.542336 kJ/mol
# GULP energy per Si atom -12396.704448 kJ/mol
# Density = 2.012984 g / cm^3
# Si number density = 20.175757 Si / 1000 Ang^3
#
#
#
# Elastic Constant Matrix: (Units=GPa)
#
#
# Indices 1 2 3 4 5 6 
#
# 1 80.0237 6.9671 10.5181 0.0000 0.0000 0.0000
# 2 6.9671 100.2491 37.3968 0.0000 0.0000 0.0000
# 3 10.5181 37.3968 75.1087 0.0000 0.0000 0.0000
# 4 0.0000 0.0000 0.0000 39.4418 0.0000 0.0000
# 5 0.0000 0.0000 0.0000 0.0000 21.9811 0.0000
# 6 0.0000 0.0000 0.0000 0.0000 0.0000 24.0528
#
#
#
# Elastic Compliance Matrix: (Units=1/GPa)
#
#
# Indices 1 2 3 4 5 6 
#
# 1 0.012737 -0.000270 -0.001649 0.000000 0.000000 0.000000
# 2 -0.000270 0.012256 -0.006065 0.000000 0.000000 0.000000
# 3 -0.001649 -0.006065 0.016565 0.000000 0.000000 0.000000
# 4 0.000000 0.000000 0.000000 0.025354 0.000000 0.000000
# 5 0.000000 0.000000 0.000000 0.000000 0.045494 0.000000
# 6 0.000000 0.000000 0.000000 0.000000 0.000000 0.041575
#
#
# Mechanical properties :
#
#
# Convention : Reuss Voigt Hill
#
# Bulk Modulus (GPa) = 39.07796 40.57172 39.82484
# Shear Modulus (GPa) = 28.01473 30.46177 29.23825
#
# Velocity S-wave (km/s) = 3.73035 3.88986 3.81094
# Velocity P-wave (km/s) = 6.16156 6.35039 6.25669
#
# Compressibility (1/GPa) = 0.02558987
#
# Stress axis : x y z
#
# Youngs Moduli (GPa) = 78.51406 81.59098 60.36978
#
# Poissons Ratio (x) = 0.02202 0.09956
# Poissons Ratio (y) = 0.02119 0.36612
# Poissons Ratio (z) = 0.12949 0.49482
#
# Static dielectric constant tensor:
#      x y z
#    x 3.920570 0.000000 0.000000 
#    y 0.000000 3.647250 0.000000 
#    z 0.000000 0.000000 3.552430 
# 
# 
# High freq. dielectric constant tensor:
#      x y z
#    x 1.802580 0.000000 0.000000 
#    y 0.000000 1.787320 0.000000 
#    z 0.000000 0.000000 1.773060 
# 
# From -- ./inp_files/7303.got.cif
#   From: 2010.03.12/outbox.cif.g09.slc.cpg/sg19_4_cif.got.tgz:7303.got - 2010.04.10 18:59:41.
