data_PCOD8157720
_publ_section_title
;
Structure prediction by ZEFSAII (Michael W. Deem and Ramdas Pophale) SiO2 
 PCOD8157720
Probable space group: P 21 21 21
;
_chemical_formula_sum "Si O2"
_cell_formula_units_Z 32
_cell_length_a 12.379677
_cell_length_b 9.295182
_cell_length_c 14.190527
_cell_angle_alpha 90.000000
_cell_angle_beta 90.000000
_cell_angle_gamma 90.000000
_cell_volume 1632.923111
_symmetry_space_group_name_H-M "P 21 21 21"
_symmetry_group_IT_number 19
_symmetry_cell_setting 'orthorhombic'
loop_
_space_group_symop_operation_xyz
x,y,z
1/2-x,-y,1/2+z
1/2+x,1/2-y,-z
-x,1/2+y,1/2-z
loop_
_atom_site_type_symbol
_atom_site_label
_atom_site_fract_x
_atom_site_fract_y
_atom_site_fract_z
Si Si1 0.021580 0.164309 0.538598
Si Si2 0.474955 0.164552 0.039023
Si Si3 0.549601 0.168504 0.836230
Si Si4 0.083884 0.833982 0.814939
Si Si5 0.079360 0.163454 0.814529
Si Si6 0.946397 0.163903 0.335894
Si Si7 0.763532 0.339214 0.846417
Si Si8 0.232729 0.166772 0.653339
O O1 0.922993 0.259651 0.582197
O O2 0.023858 0.184765 0.426268
O O3 0.136885 0.211861 0.581626
O O4 0.998832 0.999520 0.566738
O O5 0.572026 0.262066 0.082767
O O6 0.359054 0.208416 0.082336
O O7 0.471854 0.185570 0.926743
O O8 0.496606 0.250944 0.750251
O O9 0.665113 0.232984 0.863535
O O10 0.563607 0.002603 0.807950
O O11 0.200450 0.826749 0.763871
O O12 0.004193 0.745533 0.750120
O O13 0.045180 0.997851 0.824382
O O14 0.195406 0.176919 0.763245
O O15 0.828979 0.222864 0.362749
O O16 0.728902 0.503674 0.867936
#
# Coordination Sequence:
#
# PCOD8157720 Si02
#       8
#     4   4   4   4   4   4   4   4
#     4   9  20  38  58  82 112 146 189 236 278 328
#     4   9  20  38  58  82 112 146 189 236 278 328
#     4  11  24  40  57  81 114 149 187 230 276 331
#     4   9  17  31  55  84 112 143 181 226 275 327
#     4   9  17  31  55  84 112 143 181 226 275 327
#     4  11  24  40  57  81 114 149 187 230 276 331
#     4   9  19  37  58  81 112 148 183 226 282 334
#     4   9  19  37  58  81 112 148 183 226 282 334
#
# _framework density 19.596757
#
# number of rings (size 3 to 8) (size 9 to 14) (size 15 to 20)
#    0.000    2.500    0.000    3.000    0.000    9.000 
#    0.000    7.500    0.000    0.000    0.000    0.000 
#    0.000    0.000    0.000    0.000    0.000    0.000 
#
# Total GULP energy -396672.797036 kJ/mol
# GULP energy per Si atom -12396.024907 kJ/mol
# Density = 1.955215 g / cm^3
# Si number density = 19.596757 Si / 1000 Ang^3
#
#
#
# Elastic Constant Matrix: (Units=GPa)
#
#
# Indices 1 2 3 4 5 6 
#
# 1 75.0003 32.8047 38.3729 0.0000 0.0000 0.0000
# 2 32.8047 88.8891 45.0601 0.0000 0.0000 0.0000
# 3 38.3729 45.0601 108.4792 0.0000 0.0000 0.0000
# 4 0.0000 0.0000 0.0000 34.1485 0.0000 0.0000
# 5 0.0000 0.0000 0.0000 0.0000 24.2372 0.0000
# 6 0.0000 0.0000 0.0000 0.0000 0.0000 32.7065
#
#
#
# Elastic Compliance Matrix: (Units=1/GPa)
#
#
# Indices 1 2 3 4 5 6 
#
# 1 0.017430 -0.004189 -0.004425 0.000000 0.000000 0.000000
# 2 -0.004189 0.015258 -0.004856 0.000000 0.000000 0.000000
# 3 -0.004425 -0.004856 0.012801 0.000000 0.000000 0.000000
# 4 0.000000 0.000000 0.000000 0.029284 0.000000 0.000000
# 5 0.000000 0.000000 0.000000 0.000000 0.041259 0.000000
# 6 0.000000 0.000000 0.000000 0.000000 0.000000 0.030575
#
#
# Mechanical properties :
#
#
# Convention : Reuss Voigt Hill
#
# Bulk Modulus (GPa) = 53.91616 56.09378 55.00497
# Shear Modulus (GPa) = 27.81965 28.62717 28.22341
#
# Velocity S-wave (km/s) = 3.77185 3.82620 3.79912
# Velocity P-wave (km/s) = 6.82215 6.94305 6.88286
#
# Compressibility (1/GPa) = 0.01854731
#
# Stress axis : x y z
#
# Youngs Moduli (GPa) = 57.37299 65.54139 78.12008
#
# Poissons Ratio (x) = 0.27456 0.34572
# Poissons Ratio (y) = 0.24034 0.37934
# Poissons Ratio (z) = 0.25390 0.31826
#
# Static dielectric constant tensor:
#      x y z
#    x 3.446360 0.000000 0.000000 
#    y 0.000000 3.844880 0.000000 
#    z 0.000000 0.000000 4.069660 
# 
# 
# High freq. dielectric constant tensor:
#      x y z
#    x 1.738400 0.000000 0.000000 
#    y 0.000000 1.772380 0.000000 
#    z 0.000000 0.000000 1.767030 
# 
# From -- ./inp_files/5919.got.cif
#   From: 2010.03.12/outbox.cif.g09.slc.cpg/sg19_3_cif.got.tgz:5919.got - 2010.04.10 18:59:41.
