data_PCOD8157554
_publ_section_title
;
Structure prediction by ZEFSAII (Michael W. Deem and Ramdas Pophale) SiO2 
 PCOD8157554
Probable space group: P 21 21 21
;
_chemical_formula_sum "Si O2"
_cell_formula_units_Z 32
_cell_length_a 12.236608
_cell_length_b 5.605529
_cell_length_c 21.159739
_cell_angle_alpha 90.000000
_cell_angle_beta 90.000000
_cell_angle_gamma 90.000000
_cell_volume 1451.402804
_symmetry_space_group_name_H-M "P 21 21 21"
_symmetry_group_IT_number 19
_symmetry_cell_setting 'orthorhombic'
loop_
_space_group_symop_operation_xyz
x,y,z
1/2-x,-y,1/2+z
1/2+x,1/2-y,-z
-x,1/2+y,1/2-z
loop_
_atom_site_type_symbol
_atom_site_label
_atom_site_fract_x
_atom_site_fract_y
_atom_site_fract_z
Si Si1 0.391318 0.885398 0.933916
Si Si2 0.123132 0.061421 0.174945
Si Si3 0.165031 0.033735 0.932535
Si Si4 0.921251 0.778153 0.194638
Si Si5 0.439662 0.234730 0.320249
Si Si6 0.658992 0.423255 0.282198
Si Si7 0.490499 0.871391 0.547119
Si Si8 0.235532 0.370149 0.832323
O O1 0.398601 0.929024 0.857105
O O2 0.449899 0.632827 0.952384
O O3 0.263007 0.852946 0.953265
O O4 0.439640 0.128518 0.965579
O O5 0.251390 0.001529 0.165584
O O6 0.050243 0.832473 0.193951
O O7 0.117542 0.239350 0.234358
O O8 0.077655 0.175927 0.111060
O O9 0.233712 0.247248 0.900659
O O10 0.083148 0.937947 0.878845
O O11 0.096625 0.121753 0.991254
O O12 0.851373 0.999612 0.168150
O O13 0.570504 0.265636 0.319167
O O14 0.373902 0.474691 0.330161
O O15 0.405289 0.138531 0.251297
O O16 0.731015 0.301647 0.227764
#
# Coordination Sequence:
#
# PCOD8157554 Si02
#       8
#     4   4   4   4   4   4   4   4
#     4  11  24  46  71  97 138 183 230 294 333 419
#     4  11  22  38  64 103 136 174 218 295 347 405
#     4  11  25  45  69  98 131 194 234 276 343 428
#     4  11  20  40  70 103 134 177 233 275 360 415
#     4  11  22  39  67  93 135 178 229 277 341 425
#     4  11  22  39  61 104 137 170 223 297 354 397
#     4  11  28  45  68 104 140 180 235 285 348 405
#     4  11  21  40  72  98 133 180 230 281 338 424
#
# _framework density 22.047636000000001
#
# number of rings (size 3 to 8) (size 9 to 14) (size 15 to 20)
#    0.000    1.000    3.750    3.750    1.750    2.000 
#    0.000    1.250    0.000    0.000    0.000    0.000 
#    0.000    0.000    0.000    0.000    0.000    0.000 
#
# Total GULP energy -396568.124334 kJ/mol
# GULP energy per Si atom -12392.753885 kJ/mol
# Density = 2.199745 g / cm^3
# Si number density = 22.047636 Si / 1000 Ang^3
#
#
#
# Elastic Constant Matrix: (Units=GPa)
#
#
# Indices 1 2 3 4 5 6 
#
# 1 142.2123 24.3626 27.8082 0.0000 0.0000 0.0000
# 2 24.3626 83.3943 18.8798 0.0000 0.0000 0.0000
# 3 27.8082 18.8798 78.9658 0.0000 0.0000 0.0000
# 4 0.0000 0.0000 0.0000 21.5706 0.0000 0.0000
# 5 0.0000 0.0000 0.0000 0.0000 37.1920 0.0000
# 6 0.0000 0.0000 0.0000 0.0000 0.0000 35.0163
#
#
#
# Elastic Compliance Matrix: (Units=1/GPa)
#
#
# Indices 1 2 3 4 5 6 
#
# 1 0.007786 -0.001748 -0.002324 0.000000 0.000000 0.000000
# 2 -0.001748 0.013070 -0.002509 0.000000 0.000000 0.000000
# 3 -0.002324 -0.002509 0.014082 0.000000 0.000000 0.000000
# 4 0.000000 0.000000 0.000000 0.046359 0.000000 0.000000
# 5 0.000000 0.000000 0.000000 0.000000 0.026888 0.000000
# 6 0.000000 0.000000 0.000000 0.000000 0.000000 0.028558
#
#
# Mechanical properties :
#
#
# Convention : Reuss Voigt Hill
#
# Bulk Modulus (GPa) = 45.92425 49.63041 47.77733
# Shear Modulus (GPa) = 31.81396 34.32389 33.06892
#
# Velocity S-wave (km/s) = 3.80276 3.94992 3.87704
# Velocity P-wave (km/s) = 6.33688 6.58497 6.46212
#
# Compressibility (1/GPa) = 0.02177499
#
# Stress axis : x y z
#
# Youngs Moduli (GPa) = 128.44156 76.51071 71.01298
#
# Poissons Ratio (x) = 0.13377 0.16501
# Poissons Ratio (y) = 0.22457 0.17819
# Poissons Ratio (z) = 0.29846 0.19198
#
# Static dielectric constant tensor:
#      x y z
#    x 4.265870 0.000000 0.000000 
#    y 0.000000 3.995990 0.000000 
#    z 0.000000 0.000000 3.909370 
# 
# 
# High freq. dielectric constant tensor:
#      x y z
#    x 1.884830 0.000000 0.000000 
#    y 0.000000 1.861750 0.000000 
#    z 0.000000 0.000000 1.847370 
# 
# From -- ./inp_files/1193.got.cif
#   From: 2010.03.12/outbox.cif.g09.slc.cpg/sg19_1_cif.got.tgz:1193.got - 2010.04.10 18:59:41.
