data_PCOD8157211
_publ_section_title
;
Structure prediction by ZEFSAII (Michael W. Deem and Ramdas Pophale) SiO2 
 PCOD8157211
Probable space group: P 21 21 21
;
_chemical_formula_sum "Si O2"
_cell_formula_units_Z 28
_cell_length_a 5.256804
_cell_length_b 29.259043
_cell_length_c 7.311535
_cell_angle_alpha 90.000000
_cell_angle_beta 90.000000
_cell_angle_gamma 90.000000
_cell_volume 1124.580284
_symmetry_space_group_name_H-M "P 21 21 21"
_symmetry_group_IT_number 19
_symmetry_cell_setting 'orthorhombic'
loop_
_space_group_symop_operation_xyz
x,y,z
1/2-x,-y,1/2+z
1/2+x,1/2-y,-z
-x,1/2+y,1/2-z
loop_
_atom_site_type_symbol
_atom_site_label
_atom_site_fract_x
_atom_site_fract_y
_atom_site_fract_z
Si Si1 0.829140 0.261350 0.736585
Si Si2 0.235857 0.404069 0.689400
Si Si3 0.819315 0.388741 0.207090
Si Si4 0.816788 0.955218 0.465398
Si Si5 0.333039 0.212740 0.685312
Si Si6 0.217166 0.139454 0.177987
Si Si7 0.469360 0.457018 0.381191
O O1 0.083457 0.232915 0.787720
O O2 0.829429 0.272548 0.523352
O O3 0.808370 0.308376 0.849307
O O4 0.582515 0.231456 0.787973
O O5 0.455745 0.364579 0.704375
O O6 0.255536 0.426879 0.488762
O O7 0.948963 0.386866 0.720834
O O8 0.312267 0.441835 0.842112
O O9 0.077810 0.409059 0.126197
O O10 0.854530 0.341896 0.315539
O O11 0.714091 0.425499 0.352462
O O12 0.650282 0.379962 0.024464
O O13 0.614815 0.973748 0.319944
O O14 0.021660 0.996260 0.504258
#
# Coordination Sequence:
#
# PCOD8157211 Si02
#       7
#     4   4   4   4   4   4   4
#     4  10  22  41  67 101 146 187 242 289 357 435
#     4  11  25  44  71 102 148 190 245 300 364 436
#     4  11  27  43  73 103 146 189 249 305 365 439
#     4  11  26  46  68 108 143 190 252 305 371 444
#     4  10  23  41  67 104 140 191 239 292 357 435
#     4  11  24  45  69 108 146 190 243 299 362 433
#     4  12  25  46  73 100 147 195 244 308 374 436
#
# _framework density 24.898175999999999
#
# number of rings (size 3 to 8) (size 9 to 14) (size 15 to 20)
#    0.000    1.143    2.857    1.714    6.000    5.714 
#    0.000    0.000    0.000    0.000    0.000    0.000 
#    0.000    0.000    0.000    0.000    0.000    0.000 
#
# Total GULP energy -347048.999276 kJ/mol
# GULP energy per Si atom -12394.607117 kJ/mol
# Density = 2.484151 g / cm^3
# Si number density = 24.898176 Si / 1000 Ang^3
#
#
#
# Elastic Constant Matrix: (Units=GPa)
#
#
# Indices 1 2 3 4 5 6 
#
# 1 107.7426 20.8307 10.0668 0.0000 0.0000 0.0000
# 2 20.8307 110.4853 1.7452 0.0000 0.0000 0.0000
# 3 10.0668 1.7452 57.8701 0.0000 0.0000 0.0000
# 4 0.0000 0.0000 0.0000 41.2089 0.0000 0.0000
# 5 0.0000 0.0000 0.0000 0.0000 25.1174 0.0000
# 6 0.0000 0.0000 0.0000 0.0000 0.0000 36.8100
#
#
#
# Elastic Compliance Matrix: (Units=1/GPa)
#
#
# Indices 1 2 3 4 5 6 
#
# 1 0.009787 -0.001819 -0.001648 0.000000 0.000000 0.000000
# 2 -0.001819 0.009393 0.000033 0.000000 0.000000 0.000000
# 3 -0.001648 0.000033 0.017566 0.000000 0.000000 0.000000
# 4 0.000000 0.000000 0.000000 0.024267 0.000000 0.000000
# 5 0.000000 0.000000 0.000000 0.000000 0.039813 0.000000
# 6 0.000000 0.000000 0.000000 0.000000 0.000000 0.027167
#
#
# Mechanical properties :
#
#
# Convention : Reuss Voigt Hill
#
# Bulk Modulus (GPa) = 33.46850 37.93149 35.69999
# Shear Modulus (GPa) = 34.52578 36.85761 35.69169
#
# Velocity S-wave (km/s) = 3.72785 3.85168 3.79027
# Velocity P-wave (km/s) = 5.65690 5.92016 5.79003
#
# Compressibility (1/GPa) = 0.02987885
#
# Stress axis : x y z
#
# Youngs Moduli (GPa) = 102.17589 106.45724 56.92916
#
# Poissons Ratio (x) = 0.19367 0.09380
# Poissons Ratio (y) = 0.18588 -0.00189
# Poissons Ratio (z) = 0.16835 -0.00353
#
# Static dielectric constant tensor:
#      x y z
#    x 4.204240 0.000000 0.000000 
#    y 0.000000 4.562130 0.000000 
#    z 0.000000 0.000000 4.645140 
# 
# 
# High freq. dielectric constant tensor:
#      x y z
#    x 1.968450 0.000000 0.000000 
#    y 0.000000 1.996370 0.000000 
#    z 0.000000 0.000000 2.003300 
# 
# From -- ./inp_files/2468.got.cif
#   From: 2010.03.12/outbox.cif.g09.slc.cpg/sg19_2_cif.got.tgz:2468.got - 2010.04.10 18:59:41.
