data_PCOD8157793
_publ_section_title
;
Structure prediction by ZEFSAII (Michael W. Deem and Ramdas Pophale) SiO2 
 PCOD8157793
Probable space group: P 21 21 21
;
_chemical_formula_sum "Si O2"
_cell_formula_units_Z 24
_cell_length_a 8.570060
_cell_length_b 13.887558
_cell_length_c 8.495847
_cell_angle_alpha 90.000000
_cell_angle_beta 90.000000
_cell_angle_gamma 90.000000
_cell_volume 1011.151967
_symmetry_space_group_name_H-M "P 21 21 21"
_symmetry_group_IT_number 19
_symmetry_cell_setting 'orthorhombic'
loop_
_space_group_symop_operation_xyz
x,y,z
1/2-x,-y,1/2+z
1/2+x,1/2-y,-z
-x,1/2+y,1/2-z
loop_
_atom_site_type_symbol
_atom_site_label
_atom_site_fract_x
_atom_site_fract_y
_atom_site_fract_z
Si Si1 0.119072 0.488241 0.601264
Si Si2 0.401332 0.167658 0.142414
Si Si3 0.569993 0.462418 0.414600
Si Si4 0.369582 0.136438 0.506056
Si Si5 0.250166 0.328381 0.956494
Si Si6 0.621127 0.842383 0.854296
O O1 0.241458 0.564076 0.529069
O O2 0.204435 0.387794 0.642344
O O3 0.039304 0.535161 0.758059
O O4 0.995347 0.450342 0.469727
O O5 0.348760 0.142756 0.318638
O O6 0.582627 0.196403 0.119073
O O7 0.372941 0.070017 0.042380
O O8 0.285111 0.251094 0.090622
O O9 0.718558 0.392878 0.391913
O O10 0.487513 0.423127 0.571230
O O11 0.416368 0.243164 0.557836
O O12 0.394431 0.320664 0.831690
#
# Coordination Sequence:
#
# PCOD8157793 Si02
#       6
#     4   4   4   4   4   4
#     4  11  24  50  72 104 150 188 243 307 371 439
#     4  11  27  49  68 111 144 193 247 302 372 433
#     4  11  25  46  74 104 146 192 246 303 365 446
#     4  11  26  45  77 103 149 189 247 302 364 453
#     4  12  27  44  76 103 149 191 242 311 365 439
#     4  12  23  46  71 109 142 197 241 297 375 436
#
# _framework density 23.735306999999999
#
# number of rings (size 3 to 8) (size 9 to 14) (size 15 to 20)
#    0.000    0.667    5.000    2.000    7.000    4.000 
#    3.000    0.000    0.000    0.000    0.000    0.000 
#    0.000    0.000    0.000    0.000    0.000    0.000 
#
# Total GULP energy -297333.284547 kJ/mol
# GULP energy per Si atom -12388.886856 kJ/mol
# Density = 2.368128 g / cm^3
# Si number density = 23.735307 Si / 1000 Ang^3
#
#
#
# Elastic Constant Matrix: (Units=GPa)
#
#
# Indices 1 2 3 4 5 6 
#
# 1 49.8150 13.8415 7.9494 0.0000 0.0000 0.0000
# 2 13.8415 127.8878 17.1368 0.0000 0.0000 0.0000
# 3 7.9494 17.1368 38.7459 0.0000 0.0000 0.0000
# 4 0.0000 0.0000 0.0000 35.3520 0.0000 0.0000
# 5 0.0000 0.0000 0.0000 0.0000 31.1020 0.0000
# 6 0.0000 0.0000 0.0000 0.0000 0.0000 29.3291
#
#
#
# Elastic Compliance Matrix: (Units=1/GPa)
#
#
# Indices 1 2 3 4 5 6 
#
# 1 0.021143 -0.001815 -0.003535 0.000000 0.000000 0.000000
# 2 -0.001815 0.008468 -0.003373 0.000000 0.000000 0.000000
# 3 -0.003535 -0.003373 0.028026 0.000000 0.000000 0.000000
# 4 0.000000 0.000000 0.000000 0.028287 0.000000 0.000000
# 5 0.000000 0.000000 0.000000 0.000000 0.032152 0.000000
# 6 0.000000 0.000000 0.000000 0.000000 0.000000 0.034096
#
#
# Mechanical properties :
#
#
# Convention : Reuss Voigt Hill
#
# Bulk Modulus (GPa) = 24.88102 32.70046 28.79074
# Shear Modulus (GPa) = 27.32030 30.99134 29.15582
#
# Velocity S-wave (km/s) = 3.39638 3.61738 3.50862
# Velocity P-wave (km/s) = 5.08783 5.59055 5.34510
#
# Compressibility (1/GPa) = 0.04019127
#
# Stress axis : x y z
#
# Youngs Moduli (GPa) = 47.29780 118.09568 35.68083
#
# Poissons Ratio (x) = 0.21430 0.12614
# Poissons Ratio (y) = 0.08583 0.12035
# Poissons Ratio (z) = 0.16721 0.39832
#
# Static dielectric constant tensor:
#      x y z
#    x 4.340380 0.000000 0.000000 
#    y 0.000000 4.458100 0.000000 
#    z 0.000000 0.000000 4.185830 
# 
# 
# High freq. dielectric constant tensor:
#      x y z
#    x 1.932580 0.000000 0.000000 
#    y 0.000000 1.958920 0.000000 
#    z 0.000000 0.000000 1.930770 
# 
# From -- ./inp_files/2834.got.cif
#   From: 2010.03.12/outbox.cif.g09.slc.cpg/sg19_2_cif.got.tgz:2834.got - 2010.04.10 18:59:41.
