data_PCOD8157191
_publ_section_title
;
Structure prediction by ZEFSAII (Michael W. Deem and Ramdas Pophale) SiO2 
 PCOD8157191
Probable space group: P 21 21 21
;
_chemical_formula_sum "Si O2"
_cell_formula_units_Z 32
_cell_length_a 10.684889
_cell_length_b 15.298897
_cell_length_c 9.192510
_cell_angle_alpha 90.000000
_cell_angle_beta 90.000000
_cell_angle_gamma 90.000000
_cell_volume 1502.672182
_symmetry_space_group_name_H-M "P 21 21 21"
_symmetry_group_IT_number 19
_symmetry_cell_setting 'orthorhombic'
loop_
_space_group_symop_operation_xyz
x,y,z
1/2-x,-y,1/2+z
1/2+x,1/2-y,-z
-x,1/2+y,1/2-z
loop_
_atom_site_type_symbol
_atom_site_label
_atom_site_fract_x
_atom_site_fract_y
_atom_site_fract_z
Si Si1 0.344043 0.614870 0.508770
Si Si2 0.057464 0.173885 0.702613
Si Si3 0.702894 0.765461 0.311353
Si Si4 0.404492 0.187187 0.912089
Si Si5 0.177471 0.091280 0.248384
Si Si6 0.292451 0.944457 0.413596
Si Si7 0.228171 0.690515 0.224787
Si Si8 0.948013 0.075277 0.438557
O O1 0.263085 0.638749 0.654275
O O2 0.458248 0.684002 0.520271
O O3 0.275007 0.627494 0.355201
O O4 0.395345 0.517995 0.515757
O O5 0.099340 0.113972 0.838389
O O6 0.160650 0.247598 0.667158
O O7 0.927853 0.223369 0.731417
O O8 0.037261 0.111981 0.564692
O O9 0.691664 0.725013 0.471018
O O10 0.790835 0.694660 0.230063
O O11 0.346798 0.092426 0.874630
O O12 0.391988 0.251271 0.774007
O O13 0.034943 0.072658 0.296248
O O14 0.283428 0.041519 0.345564
O O15 0.183580 0.053339 0.085164
O O16 0.176524 0.632946 0.091376
#
# Coordination Sequence:
#
# PCOD8157191 Si02
#       8
#     4   4   4   4   4   4   4   4
#     4  11  22  43  68  95 136 178 229 276 347 419
#     4  11  25  44  66  97 137 180 231 283 349 407
#     4  10  23  39  68  94 129 178 226 272 342 414
#     4   9  18  41  67  91 125 179 221 269 334 422
#     4  11  23  44  69 102 135 182 232 281 343 410
#     4  10  22  40  69  99 133 177 230 280 339 411
#     4  10  24  43  68  97 137 181 226 283 348 411
#     4  12  27  42  69 101 142 173 233 294 346 408
#
# _framework density 21.295394999999999
#
# number of rings (size 3 to 8) (size 9 to 14) (size 15 to 20)
#    0.000    1.500    2.500    2.250    8.750    0.000 
#    0.000    0.000    0.000    0.000    0.000    0.000 
#    0.000    0.000    0.000    0.000    0.000    0.000 
#
# Total GULP energy -396661.611225 kJ/mol
# GULP energy per Si atom -12395.675351 kJ/mol
# Density = 2.124693 g / cm^3
# Si number density = 21.295395 Si / 1000 Ang^3
#
#
#
# Elastic Constant Matrix: (Units=GPa)
#
#
# Indices 1 2 3 4 5 6 
#
# 1 89.8976 36.2191 34.0983 0.0000 0.0000 0.0000
# 2 36.2191 105.1596 41.9948 0.0000 0.0000 0.0000
# 3 34.0983 41.9948 95.3395 0.0000 0.0000 0.0000
# 4 0.0000 0.0000 0.0000 28.5405 0.0000 0.0000
# 5 0.0000 0.0000 0.0000 0.0000 33.1205 0.0000
# 6 0.0000 0.0000 0.0000 0.0000 0.0000 33.6516
#
#
#
# Elastic Compliance Matrix: (Units=1/GPa)
#
#
# Indices 1 2 3 4 5 6 
#
# 1 0.013790 -0.003373 -0.003446 0.000000 0.000000 0.000000
# 2 -0.003373 0.012364 -0.004240 0.000000 0.000000 0.000000
# 3 -0.003446 -0.004240 0.013589 0.000000 0.000000 0.000000
# 4 0.000000 0.000000 0.000000 0.035038 0.000000 0.000000
# 5 0.000000 0.000000 0.000000 0.000000 0.030193 0.000000
# 6 0.000000 0.000000 0.000000 0.000000 0.000000 0.029716
#
#
# Mechanical properties :
#
#
# Convention : Reuss Voigt Hill
#
# Bulk Modulus (GPa) = 56.73838 57.22458 56.98148
# Shear Modulus (GPa) = 30.73452 30.93480 30.83466
#
# Velocity S-wave (km/s) = 3.80313 3.81550 3.80932
# Velocity P-wave (km/s) = 6.78133 6.80741 6.79438
#
# Compressibility (1/GPa) = 0.01762475
#
# Stress axis : x y z
#
# Youngs Moduli (GPa) = 72.51631 80.87789 73.58976
#
# Poissons Ratio (x) = 0.27283 0.25360
# Poissons Ratio (y) = 0.24462 0.31200
# Poissons Ratio (z) = 0.24990 0.34290
#
# Static dielectric constant tensor:
#      x y z
#    x 3.771640 0.000000 0.000000 
#    y 0.000000 3.945270 0.000000 
#    z 0.000000 0.000000 3.687820 
# 
# 
# High freq. dielectric constant tensor:
#      x y z
#    x 1.836160 0.000000 0.000000 
#    y 0.000000 1.840130 0.000000 
#    z 0.000000 0.000000 1.820400 
# 
# From -- ./inp_files/3582.got.cif
#   From: 2010.03.12/outbox.cif.g09.slc.cpg/sg19_2_cif.got.tgz:3582.got - 2010.04.10 18:59:41.
