data_PCOD8157765
_publ_section_title
;
Structure prediction by ZEFSAII (Michael W. Deem and Ramdas Pophale) SiO2 
 PCOD8157765
Probable space group: P 21 21 21
;
_chemical_formula_sum "Si O2"
_cell_formula_units_Z 16
_cell_length_a 4.817382
_cell_length_b 14.113618
_cell_length_c 7.872074
_cell_angle_alpha 90.000000
_cell_angle_beta 90.000000
_cell_angle_gamma 90.000000
_cell_volume 535.227738
_symmetry_space_group_name_H-M "P 21 21 21"
_symmetry_group_IT_number 19
_symmetry_cell_setting 'orthorhombic'
loop_
_space_group_symop_operation_xyz
x,y,z
1/2-x,-y,1/2+z
1/2+x,1/2-y,-z
-x,1/2+y,1/2-z
loop_
_atom_site_type_symbol
_atom_site_label
_atom_site_fract_x
_atom_site_fract_y
_atom_site_fract_z
Si Si1 0.203682 0.788089 0.729661
Si Si2 0.460926 0.358507 0.476444
Si Si3 0.648291 0.108462 0.981875
Si Si4 0.962165 0.470578 0.360423
O O1 0.314631 0.712606 0.594409
O O2 0.991228 0.735451 0.859890
O O3 0.062838 0.878329 0.639011
O O4 0.460225 0.835251 0.830637
O O5 0.140650 0.388683 0.456583
O O6 0.641565 0.445702 0.397258
O O7 0.525955 0.034256 0.842359
O O8 0.942047 0.070380 0.055825
#
# Coordination Sequence:
#
# PCOD8157765 Si02
#       4
#     4   4   4   4
#     4  11  24  46  74 108 142 188 240 295 353 424
#     4  11  25  47  72 101 143 188 235 291 356 421
#     4  11  25  43  72 107 144 186 238 293 354 421
#     4  11  26  46  70 104 145 188 233 293 357 422
#
# _framework density 29.893820000000002
#
# number of rings (size 3 to 8) (size 9 to 14) (size 15 to 20)
#    0.000    1.000    0.000    6.000    0.000   12.000 
#    0.000    0.000    0.000    0.000    0.000    0.000 
#    0.000    0.000    0.000    0.000    0.000    0.000 
#
# Total GULP energy -198534.730794 kJ/mol
# GULP energy per Si atom -12408.420675 kJ/mol
# Density = 2.982578 g / cm^3
# Si number density = 29.893820 Si / 1000 Ang^3
#
#
#
# Elastic Constant Matrix: (Units=GPa)
#
#
# Indices 1 2 3 4 5 6 
#
# 1 41.8132 -10.7148 1.4390 0.0000 0.0000 0.0000
# 2 -10.7148 96.3772 40.2150 0.0000 0.0000 0.0000
# 3 1.4390 40.2150 143.4766 0.0000 0.0000 0.0000
# 4 0.0000 0.0000 0.0000 72.1888 0.0000 0.0000
# 5 0.0000 0.0000 0.0000 0.0000 61.9733 0.0000
# 6 0.0000 0.0000 0.0000 0.0000 0.0000 44.1421
#
#
#
# Elastic Compliance Matrix: (Units=1/GPa)
#
#
# Indices 1 2 3 4 5 6 
#
# 1 0.024785 0.003238 -0.001156 0.000000 0.000000 0.000000
# 2 0.003238 0.012173 -0.003444 0.000000 0.000000 0.000000
# 3 -0.001156 -0.003444 0.007947 0.000000 0.000000 0.000000
# 4 0.000000 0.000000 0.000000 0.013853 0.000000 0.000000
# 5 0.000000 0.000000 0.000000 0.000000 0.016136 0.000000
# 6 0.000000 0.000000 0.000000 0.000000 0.000000 0.022654
#
#
# Mechanical properties :
#
#
# Convention : Reuss Voigt Hill
#
# Bulk Modulus (GPa) = 23.70790 38.17170 30.93980
# Shear Modulus (GPa) = 43.73176 52.37602 48.05389
#
# Velocity S-wave (km/s) = 3.82894 4.19031 4.01370
# Velocity P-wave (km/s) = 5.24363 6.01735 5.64376
#
# Compressibility (1/GPa) = 0.04218004
#
# Stress axis : x y z
#
# Youngs Moduli (GPa) = 40.34633 82.14807 125.83647
#
# Poissons Ratio (x) = -0.26599 0.14549
# Poissons Ratio (y) = -0.13064 0.43344
# Poissons Ratio (z) = 0.04665 0.28296
#
# Static dielectric constant tensor:
#      x y z
#    x 5.038540 0.000000 0.000000 
#    y 0.000000 5.589590 0.000000 
#    z 0.000000 0.000000 5.739030 
# 
# 
# High freq. dielectric constant tensor:
#      x y z
#    x 2.204840 0.000000 0.000000 
#    y 0.000000 2.254160 0.000000 
#    z 0.000000 0.000000 2.236840 
# 
# From -- ./inp_files/2364.got.cif
#   From: 2010.03.12/outbox.cif.g09.slc.cpg/sg19_2_cif.got.tgz:2364.got - 2010.04.10 18:59:41.
