data_PCOD8157885
_publ_section_title
;
Structure prediction by ZEFSAII (Michael W. Deem and Ramdas Pophale) SiO2 
 PCOD8157885
Probable space group: P 21 21 21
;
_chemical_formula_sum "Si O2"
_cell_formula_units_Z 28
_cell_length_a 11.388737
_cell_length_b 6.916266
_cell_length_c 15.845360
_cell_angle_alpha 90.000000
_cell_angle_beta 90.000000
_cell_angle_gamma 90.000000
_cell_volume 1248.099940
_symmetry_space_group_name_H-M "P 21 21 21"
_symmetry_group_IT_number 19
_symmetry_cell_setting 'orthorhombic'
loop_
_space_group_symop_operation_xyz
x,y,z
1/2-x,-y,1/2+z
1/2+x,1/2-y,-z
-x,1/2+y,1/2-z
loop_
_atom_site_type_symbol
_atom_site_label
_atom_site_fract_x
_atom_site_fract_y
_atom_site_fract_z
Si Si1 0.229618 0.924647 0.068799
Si Si2 0.335062 0.720943 0.913323
Si Si3 0.673910 0.833460 0.779495
Si Si4 0.574389 0.678774 0.358303
Si Si5 0.029687 0.938846 0.337740
Si Si6 0.491762 0.378672 0.974227
Si Si7 0.868565 0.073390 0.699001
O O1 0.187954 0.749668 0.127125
O O2 0.299796 0.083920 0.122356
O O3 0.118521 0.023099 0.024608
O O4 0.314862 0.838750 0.998616
O O5 0.394632 0.514908 0.931242
O O6 0.212192 0.688835 0.866523
O O7 0.421427 0.848254 0.856582
O O8 0.623314 0.669651 0.719228
O O9 0.589676 0.022508 0.784718
O O10 0.798543 0.899402 0.743519
O O11 0.543299 0.835344 0.429787
O O12 0.580418 0.781578 0.268248
O O13 0.475372 0.513946 0.354670
O O14 0.002449 0.820349 0.422221
#
# Coordination Sequence:
#
# PCOD8157885 Si02
#       7
#     4   4   4   4   4   4   4
#     4  12  27  46  79 107 152 197 248 306 372 452
#     4  12  27  48  76 114 150 200 251 313 373 446
#     4  12  24  46  77 107 149 193 248 306 375 445
#     4  12  29  49  76 110 156 200 252 309 387 451
#     4  12  24  48  74 114 148 191 253 311 373 440
#     4  12  27  49  77 113 150 197 251 311 373 448
#     4  12  28  48  77 109 157 198 251 312 381 456
#
# _framework density 22.434100999999998
#
# number of rings (size 3 to 8) (size 9 to 14) (size 15 to 20)
#    0.000    0.000    4.286    5.143   10.000    0.000 
#    0.000    0.000    0.000    0.000    0.000    0.000 
#    0.000    0.000    0.000    0.000    0.000    0.000 
#
# Total GULP energy -347506.752113 kJ/mol
# GULP energy per Si atom -12410.955433 kJ/mol
# Density = 2.238304 g / cm^3
# Si number density = 22.434101 Si / 1000 Ang^3
#
#
#
# Elastic Constant Matrix: (Units=GPa)
#
#
# Indices 1 2 3 4 5 6 
#
# 1 92.1740 20.4591 18.7087 0.0000 0.0000 0.0000
# 2 20.4591 87.4199 28.9776 0.0000 0.0000 0.0000
# 3 18.7087 28.9776 79.5702 0.0000 0.0000 0.0000
# 4 0.0000 0.0000 0.0000 55.4558 0.0000 0.0000
# 5 0.0000 0.0000 0.0000 0.0000 37.2698 0.0000
# 6 0.0000 0.0000 0.0000 0.0000 0.0000 43.7307
#
#
#
# Elastic Compliance Matrix: (Units=1/GPa)
#
#
# Indices 1 2 3 4 5 6 
#
# 1 0.011716 -0.002080 -0.001997 0.000000 0.000000 0.000000
# 2 -0.002080 0.013379 -0.004383 0.000000 0.000000 0.000000
# 3 -0.001997 -0.004383 0.014633 0.000000 0.000000 0.000000
# 4 0.000000 0.000000 0.000000 0.018032 0.000000 0.000000
# 5 0.000000 0.000000 0.000000 0.000000 0.026831 0.000000
# 6 0.000000 0.000000 0.000000 0.000000 0.000000 0.022867
#
#
# Mechanical properties :
#
#
# Convention : Reuss Voigt Hill
#
# Bulk Modulus (GPa) = 43.84526 43.93945 43.89235
# Shear Modulus (GPa) = 37.88384 40.02584 38.95484
#
# Velocity S-wave (km/s) = 4.11380 4.22850 4.17155
# Velocity P-wave (km/s) = 6.49238 6.59309 6.54293
#
# Compressibility (1/GPa) = 0.02280748
#
# Stress axis : x y z
#
# Youngs Moduli (GPa) = 85.35271 74.74549 68.33696
#
# Poissons Ratio (x) = 0.15546 0.13649
# Poissons Ratio (y) = 0.17752 0.29953
# Poissons Ratio (z) = 0.17047 0.32762
#
# Static dielectric constant tensor:
#      x y z
#    x 4.076260 0.000000 0.000000 
#    y 0.000000 4.039580 0.000000 
#    z 0.000000 0.000000 4.064930 
# 
# 
# High freq. dielectric constant tensor:
#      x y z
#    x 1.896130 0.000000 0.000000 
#    y 0.000000 1.893070 0.000000 
#    z 0.000000 0.000000 1.896120 
# 
# From -- ./inp_files/1082.got.cif
#   From: 2010.03.12/outbox.cif.g09.slc.cpg/sg19_1_cif.got.tgz:1082.got - 2010.04.10 18:59:41.
