data_PCOD8157836
_publ_section_title
;
Structure prediction by ZEFSAII (Michael W. Deem and Ramdas Pophale) SiO2 
 PCOD8157836
Probable space group: P 21 21 21
;
_chemical_formula_sum "Si O2"
_cell_formula_units_Z 32
_cell_length_a 18.255697
_cell_length_b 4.944776
_cell_length_c 13.781920
_cell_angle_alpha 90.000000
_cell_angle_beta 90.000000
_cell_angle_gamma 90.000000
_cell_volume 1244.098499
_symmetry_space_group_name_H-M "P 21 21 21"
_symmetry_group_IT_number 19
_symmetry_cell_setting 'orthorhombic'
loop_
_space_group_symop_operation_xyz
x,y,z
1/2-x,-y,1/2+z
1/2+x,1/2-y,-z
-x,1/2+y,1/2-z
loop_
_atom_site_type_symbol
_atom_site_label
_atom_site_fract_x
_atom_site_fract_y
_atom_site_fract_z
Si Si1 0.682112 0.137048 0.157018
Si Si2 0.747436 0.350363 0.747281
Si Si3 0.007490 0.416367 0.001349
Si Si4 0.631543 0.518761 0.610994
Si Si5 0.239821 0.144917 0.025872
Si Si6 0.517377 0.277184 0.192210
Si Si7 0.905749 0.383435 0.452182
Si Si8 0.550048 0.841689 0.752474
O O1 0.729783 0.342850 0.223373
O O2 0.600132 0.248299 0.155491
O O3 0.689919 0.844729 0.205120
O O4 0.713095 0.116771 0.046764
O O5 0.668827 0.314929 0.690619
O O6 0.742629 0.276688 0.860984
O O7 0.969487 0.307449 0.902050
O O8 0.048565 0.164278 0.053350
O O9 0.947933 0.571263 0.069714
O O10 0.061903 0.662867 0.972217
O O11 0.682350 0.547736 0.515804
O O12 0.609186 0.800862 0.664973
O O13 0.178006 0.915686 0.014877
O O14 0.500401 0.586049 0.217217
O O15 0.905754 0.233767 0.349062
O O16 0.478401 0.647492 0.742992
#
# Coordination Sequence:
#
# PCOD8157836 Si02
#       8
#     4   4   4   4   4   4   4   4
#     4  11  27  49  73 106 148 196 253 302 374 464
#     4  11  27  49  74 107 152 202 246 314 381 445
#     4  12  27  46  75 110 144 191 255 312 370 451
#     4  11  26  45  74 113 148 189 258 307 369 456
#     4  11  27  49  76 108 153 200 247 310 386 445
#     4  12  27  48  75 104 145 197 251 308 376 444
#     4  12  24  47  74 104 144 194 239 300 382 447
#     4  12  23  45  71 106 146 187 239 309 374 442
#
# _framework density 25.721436000000001
#
# number of rings (size 3 to 8) (size 9 to 14) (size 15 to 20)
#    0.000    0.500    5.000    1.500    7.000    7.000 
#    0.000    0.000    0.000    0.000    0.000    0.000 
#    0.000    0.000    0.000    0.000    0.000    0.000 
#
# Total GULP energy -396536.273129 kJ/mol
# GULP energy per Si atom -12391.758535 kJ/mol
# Density = 2.566289 g / cm^3
# Si number density = 25.721436 Si / 1000 Ang^3
#
#
#
# Elastic Constant Matrix: (Units=GPa)
#
#
# Indices 1 2 3 4 5 6 
#
# 1 74.2869 0.8813 14.7232 0.0000 0.0000 0.0000
# 2 0.8813 68.4323 8.6015 0.0000 0.0000 0.0000
# 3 14.7232 8.6015 164.4615 0.0000 0.0000 0.0000
# 4 0.0000 0.0000 0.0000 30.8308 0.0000 0.0000
# 5 0.0000 0.0000 0.0000 0.0000 52.1030 0.0000
# 6 0.0000 0.0000 0.0000 0.0000 0.0000 29.7113
#
#
#
# Elastic Compliance Matrix: (Units=1/GPa)
#
#
# Indices 1 2 3 4 5 6 
#
# 1 0.013705 -0.000022 -0.001226 0.000000 0.000000 0.000000
# 2 -0.000022 0.014710 -0.000767 0.000000 0.000000 0.000000
# 3 -0.001226 -0.000767 0.006230 0.000000 0.000000 0.000000
# 4 0.000000 0.000000 0.000000 0.032435 0.000000 0.000000
# 5 0.000000 0.000000 0.000000 0.000000 0.019193 0.000000
# 6 0.000000 0.000000 0.000000 0.000000 0.000000 0.033657
#
#
# Mechanical properties :
#
#
# Convention : Reuss Voigt Hill
#
# Bulk Modulus (GPa) = 32.66517 39.51029 36.08773
# Shear Modulus (GPa) = 37.26753 41.39401 39.33077
#
# Velocity S-wave (km/s) = 3.81056 4.01598 3.91462
# Velocity P-wave (km/s) = 5.66459 6.07440 5.87307
#
# Compressibility (1/GPa) = 0.03061365
#
# Stress axis : x y z
#
# Youngs Moduli (GPa) = 72.96862 67.98223 160.50566
#
# Poissons Ratio (x) = 0.00152 0.19673
# Poissons Ratio (y) = 0.00164 0.12316
# Poissons Ratio (z) = 0.08944 0.05216
#
# Static dielectric constant tensor:
#      x y z
#    x 4.711500 0.000000 0.000000 
#    y 0.000000 4.442230 0.000000 
#    z 0.000000 0.000000 5.000410 
# 
# 
# High freq. dielectric constant tensor:
#      x y z
#    x 2.028830 0.000000 0.000000 
#    y 0.000000 2.012160 0.000000 
#    z 0.000000 0.000000 2.046860 
# 
# From -- ./inp_files/6310.got.cif
#   From: 2010.03.12/outbox.cif.g09.slc.cpg/sg19_4_cif.got.tgz:6310.got - 2010.04.10 18:59:41.
