data_PCOD8157103
_publ_section_title
;
Structure prediction by ZEFSAII (Michael W. Deem and Ramdas Pophale) SiO2 
 PCOD8157103
Probable space group: P 21 21 21
;
_chemical_formula_sum "Si O2"
_cell_formula_units_Z 32
_cell_length_a 8.499221
_cell_length_b 14.235939
_cell_length_c 12.396883
_cell_angle_alpha 90.000000
_cell_angle_beta 90.000000
_cell_angle_gamma 90.000000
_cell_volume 1499.953318
_symmetry_space_group_name_H-M "P 21 21 21"
_symmetry_group_IT_number 19
_symmetry_cell_setting 'orthorhombic'
loop_
_space_group_symop_operation_xyz
x,y,z
1/2-x,-y,1/2+z
1/2+x,1/2-y,-z
-x,1/2+y,1/2-z
loop_
_atom_site_type_symbol
_atom_site_label
_atom_site_fract_x
_atom_site_fract_y
_atom_site_fract_z
Si Si1 0.096528 0.291069 0.695536
Si Si2 0.966908 0.734052 0.034914
Si Si3 0.300557 0.228860 0.894318
Si Si4 0.784342 0.072684 0.429569
Si Si5 0.239756 0.223242 0.260318
Si Si6 0.518761 0.061455 0.585234
Si Si7 0.572600 0.099594 0.819827
Si Si8 0.575083 0.361214 0.931829
O O1 0.211544 0.245046 0.782149
O O2 0.159280 0.394843 0.662517
O O3 0.094876 0.226243 0.587698
O O4 0.923327 0.300570 0.745182
O O5 0.088087 0.653528 0.060756
O O6 0.819906 0.722299 0.116318
O O7 0.052148 0.836225 0.053198
O O8 0.424218 0.145901 0.877716
O O9 0.395650 0.322062 0.931100
O O10 0.177409 0.199645 0.985436
O O11 0.698511 0.060985 0.543687
O O12 0.859409 0.973744 0.403688
O O13 0.207223 0.325211 0.208841
O O14 0.147513 0.147050 0.188270
O O15 0.517207 0.045745 0.712980
O O16 0.426084 0.971737 0.534972
#
# Coordination Sequence:
#
# PCOD8157103 Si02
#       8
#     4   4   4   4   4   4   4   4
#     4  11  21  40  67  99 126 176 221 276 337 390
#     4  10  21  43  68  97 130 174 220 277 332 393
#     4  11  25  42  71  93 137 178 221 276 338 401
#     4  11  23  42  66  97 132 177 220 272 340 396
#     4  10  22  40  70  95 137 171 223 278 332 404
#     4  10  22  40  67  92 132 169 220 273 326 399
#     4  10  22  44  62  97 130 181 217 273 332 396
#     4  11  24  45  65  98 132 178 222 277 339 409
#
# _framework density 21.333998000000001
#
# number of rings (size 3 to 8) (size 9 to 14) (size 15 to 20)
#    0.000    1.500    0.000    6.750    5.250    1.000 
#   18.000    1.250    0.000    0.000    0.000    0.000 
#    0.000    0.000    0.000    0.000    0.000    0.000 
#
# Total GULP energy -396778.070825 kJ/mol
# GULP energy per Si atom -12399.314713 kJ/mol
# Density = 2.128544 g / cm^3
# Si number density = 21.333998 Si / 1000 Ang^3
#
#
#
# Elastic Constant Matrix: (Units=GPa)
#
#
# Indices 1 2 3 4 5 6 
#
# 1 103.1280 49.3492 22.3237 0.0000 0.0000 0.0000
# 2 49.3492 110.2417 22.3912 0.0000 0.0000 0.0000
# 3 22.3237 22.3912 84.4849 0.0000 0.0000 0.0000
# 4 0.0000 0.0000 0.0000 22.4841 0.0000 0.0000
# 5 0.0000 0.0000 0.0000 0.0000 38.7248 0.0000
# 6 0.0000 0.0000 0.0000 0.0000 0.0000 26.9888
#
#
#
# Elastic Compliance Matrix: (Units=1/GPa)
#
#
# Indices 1 2 3 4 5 6 
#
# 1 0.012635 -0.005261 -0.001944 0.000000 0.000000 0.000000
# 2 -0.005261 0.011778 -0.001731 0.000000 0.000000 0.000000
# 3 -0.001944 -0.001731 0.012809 0.000000 0.000000 0.000000
# 4 0.000000 0.000000 0.000000 0.044476 0.000000 0.000000
# 5 0.000000 0.000000 0.000000 0.000000 0.025823 0.000000
# 6 0.000000 0.000000 0.000000 0.000000 0.000000 0.037052
#
#
# Mechanical properties :
#
#
# Convention : Reuss Voigt Hill
#
# Bulk Modulus (GPa) = 51.68366 53.99811 52.84088
# Shear Modulus (GPa) = 29.60394 31.22556 30.41475
#
# Velocity S-wave (km/s) = 3.72915 3.82992 3.77987
# Velocity P-wave (km/s) = 6.54375 6.70250 6.62360
#
# Compressibility (1/GPa) = 0.01934847
#
# Stress axis : x y z
#
# Youngs Moduli (GPa) = 79.14440 84.90585 78.06994
#
# Poissons Ratio (x) = 0.44670 0.15179
# Poissons Ratio (y) = 0.41639 0.13516
# Poissons Ratio (z) = 0.15388 0.14700
#
# Static dielectric constant tensor:
#      x y z
#    x 3.831330 0.000000 0.000000 
#    y 0.000000 3.836180 0.000000 
#    z 0.000000 0.000000 4.005730 
# 
# 
# High freq. dielectric constant tensor:
#      x y z
#    x 1.833260 0.000000 0.000000 
#    y 0.000000 1.831240 0.000000 
#    z 0.000000 0.000000 1.845650 
# 
# From -- ./inp_files/4748.got.cif
#   From: 2010.03.12/outbox.cif.g09.slc.cpg/sg19_3_cif.got.tgz:4748.got - 2010.04.10 18:59:41.
