data_PCOD8157787
_publ_section_title
;
Structure prediction by ZEFSAII (Michael W. Deem and Ramdas Pophale) SiO2 
 PCOD8157787
Probable space group: P 21 21 21
;
_chemical_formula_sum "Si O2"
_cell_formula_units_Z 28
_cell_length_a 9.617224
_cell_length_b 11.378898
_cell_length_c 11.147310
_cell_angle_alpha 90.000000
_cell_angle_beta 90.000000
_cell_angle_gamma 90.000000
_cell_volume 1219.888156
_symmetry_space_group_name_H-M "P 21 21 21"
_symmetry_group_IT_number 19
_symmetry_cell_setting 'orthorhombic'
loop_
_space_group_symop_operation_xyz
x,y,z
1/2-x,-y,1/2+z
1/2+x,1/2-y,-z
-x,1/2+y,1/2-z
loop_
_atom_site_type_symbol
_atom_site_label
_atom_site_fract_x
_atom_site_fract_y
_atom_site_fract_z
Si Si1 0.166974 0.424813 0.107091
Si Si2 0.877702 0.440693 0.678739
Si Si3 0.094485 0.634855 0.257878
Si Si4 0.214771 0.187802 0.891280
Si Si5 0.593728 0.017401 0.529195
Si Si6 0.048600 0.843633 0.567836
Si Si7 0.166393 0.261886 0.324944
O O1 0.182369 0.546018 0.177567
O O2 0.195010 0.315046 0.193829
O O3 0.285922 0.425315 0.006820
O O4 0.018333 0.418363 0.041041
O O5 0.788605 0.560041 0.671585
O O6 0.939813 0.422055 0.812038
O O7 0.787528 0.328154 0.641456
O O8 0.997186 0.451194 0.580813
O O9 0.204495 0.731232 0.298309
O O10 0.019767 0.557054 0.363867
O O11 0.979424 0.695247 0.176480
O O12 0.055350 0.232048 0.912214
O O13 0.297007 0.188583 0.019151
O O14 0.662305 0.137636 0.575222
#
# Coordination Sequence:
#
# PCOD8157787 Si02
#       7
#     4   4   4   4   4   4   4
#     4  11  24  48  77 108 147 200 247 309 379 447
#     4  12  30  46  76 118 148 202 254 316 368 460
#     4  11  24  48  77 108 147 200 247 309 379 447
#     4  12  26  49  80 111 154 202 251 310 375 459
#     4  11  27  47  75 107 151 197 250 310 378 444
#     4  12  26  49  80 111 154 202 251 310 375 459
#     4  11  27  47  75 107 151 197 250 310 378 444
#
# _framework density 22.952922000000001
#
# number of rings (size 3 to 8) (size 9 to 14) (size 15 to 20)
#    0.000    0.571    2.857    3.429   10.000    0.000 
#    5.143    0.000    0.000    0.000    0.000    0.000 
#    0.000    0.000    0.000    0.000    0.000    0.000 
#
# Total GULP energy -347225.262963 kJ/mol
# GULP energy per Si atom -12400.902249 kJ/mol
# Density = 2.290068 g / cm^3
# Si number density = 22.952922 Si / 1000 Ang^3
#
#
#
# Elastic Constant Matrix: (Units=GPa)
#
#
# Indices 1 2 3 4 5 6 
#
# 1 75.3441 33.9807 17.4409 0.0000 0.0000 0.0000
# 2 33.9807 127.1634 35.0397 0.0000 0.0000 0.0000
# 3 17.4409 35.0397 91.0379 0.0000 0.0000 0.0000
# 4 0.0000 0.0000 0.0000 44.5102 0.0000 0.0000
# 5 0.0000 0.0000 0.0000 0.0000 25.9689 0.0000
# 6 0.0000 0.0000 0.0000 0.0000 0.0000 43.4623
#
#
#
# Elastic Compliance Matrix: (Units=1/GPa)
#
#
# Indices 1 2 3 4 5 6 
#
# 1 0.015276 -0.003664 -0.001516 0.000000 0.000000 0.000000
# 2 -0.003664 0.009676 -0.003022 0.000000 0.000000 0.000000
# 3 -0.001516 -0.003022 0.012438 0.000000 0.000000 0.000000
# 4 0.000000 0.000000 0.000000 0.022467 0.000000 0.000000
# 5 0.000000 0.000000 0.000000 0.000000 0.038508 0.000000
# 6 0.000000 0.000000 0.000000 0.000000 0.000000 0.023008
#
#
# Mechanical properties :
#
#
# Convention : Reuss Voigt Hill
#
# Bulk Modulus (GPa) = 47.65379 51.82978 49.74178
# Shear Modulus (GPa) = 34.53684 36.59389 35.56536
#
# Velocity S-wave (km/s) = 3.88323 3.99720 3.94063
# Velocity P-wave (km/s) = 6.39629 6.62823 6.51329
#
# Compressibility (1/GPa) = 0.02098469
#
# Stress axis : x y z
#
# Youngs Moduli (GPa) = 65.46202 103.35039 80.39809
#
# Poissons Ratio (x) = 0.37871 0.12190
# Poissons Ratio (y) = 0.23987 0.24297
# Poissons Ratio (z) = 0.09925 0.31234
#
# Static dielectric constant tensor:
#      x y z
#    x 4.023350 0.000000 0.000000 
#    y 0.000000 4.368820 0.000000 
#    z 0.000000 0.000000 4.191220 
# 
# 
# High freq. dielectric constant tensor:
#      x y z
#    x 1.902700 0.000000 0.000000 
#    y 0.000000 1.926490 0.000000 
#    z 0.000000 0.000000 1.911600 
# 
# From -- ./inp_files/4593.got.cif
#   From: 2010.03.12/outbox.cif.g09.slc.cpg/sg19_3_cif.got.tgz:4593.got - 2010.04.10 18:59:41.
