data_PCOD8157242
_publ_section_title
;
Structure prediction by ZEFSAII (Michael W. Deem and Ramdas Pophale) SiO2 
 PCOD8157242
Probable space group: P 21 21 21
;
_chemical_formula_sum "Si O2"
_cell_formula_units_Z 20
_cell_length_a 7.792781
_cell_length_b 11.688538
_cell_length_c 11.286802
_cell_angle_alpha 90.000000
_cell_angle_beta 90.000000
_cell_angle_gamma 90.000000
_cell_volume 1028.072094
_symmetry_space_group_name_H-M "P 21 21 21"
_symmetry_group_IT_number 19
_symmetry_cell_setting 'orthorhombic'
loop_
_space_group_symop_operation_xyz
x,y,z
1/2-x,-y,1/2+z
1/2+x,1/2-y,-z
-x,1/2+y,1/2-z
loop_
_atom_site_type_symbol
_atom_site_label
_atom_site_fract_x
_atom_site_fract_y
_atom_site_fract_z
Si Si1 0.207352 0.139153 0.294366
Si Si2 0.554900 0.534954 0.876110
Si Si3 0.870648 0.684755 0.931508
Si Si4 0.796701 0.118988 0.711836
Si Si5 0.955948 0.943709 0.877156
O O1 0.138223 0.158078 0.428212
O O2 0.250531 0.258974 0.230003
O O3 0.386255 0.071717 0.287822
O O4 0.073861 0.069006 0.215328
O O5 0.704453 0.631192 0.865441
O O6 0.368971 0.588000 0.862034
O O7 0.542776 0.491169 0.011030
O O8 0.870802 0.821208 0.909956
O O9 0.042973 0.628672 0.878514
O O10 0.820435 0.027083 0.815792
#
# Coordination Sequence:
#
# PCOD8157242 Si02
#       5
#     4   4   4   4   4
#     4  10  22  42  65  91 128 162 215 256 314 369
#     4  11  23  38  66  94 124 165 211 259 309 373
#     4  10  22  44  64  92 120 170 212 264 302 380
#     4  11  23  38  66  94 124 165 211 259 309 373
#     4  10  22  42  65  91 128 162 215 256 314 369
#
# _framework density 19.453887999999999
#
# number of rings (size 3 to 8) (size 9 to 14) (size 15 to 20)
#    0.000    1.600    4.000    0.000    5.600    0.000 
#    0.000    8.000    0.000    0.000    0.000    0.000 
#    0.000    0.000    0.000    0.000    0.000    0.000 
#
# Total GULP energy -247812.292864 kJ/mol
# GULP energy per Si atom -12390.614643 kJ/mol
# Density = 1.940961 g / cm^3
# Si number density = 19.453888 Si / 1000 Ang^3
#
#
#
# Elastic Constant Matrix: (Units=GPa)
#
#
# Indices 1 2 3 4 5 6 
#
# 1 122.7102 58.5791 39.0845 0.0000 0.0000 0.0000
# 2 58.5791 117.1753 80.7208 0.0000 0.0000 0.0000
# 3 39.0845 80.7208 69.8967 0.0000 0.0000 0.0000
# 4 0.0000 0.0000 0.0000 37.7511 0.0000 0.0000
# 5 0.0000 0.0000 0.0000 0.0000 28.5197 0.0000
# 6 0.0000 0.0000 0.0000 0.0000 0.0000 29.0827
#
#
#
# Elastic Compliance Matrix: (Units=1/GPa)
#
#
# Indices 1 2 3 4 5 6 
#
# 1 0.010717 -0.006014 0.000952 0.000000 0.000000 0.000000
# 2 -0.006014 0.045121 -0.048746 0.000000 0.000000 0.000000
# 3 0.000952 -0.048746 0.070069 0.000000 0.000000 0.000000
# 4 0.000000 0.000000 0.000000 0.026489 0.000000 0.000000
# 5 0.000000 0.000000 0.000000 0.000000 0.035064 0.000000
# 6 0.000000 0.000000 0.000000 0.000000 0.000000 0.034385
#
#
# Mechanical properties :
#
#
# Convention : Reuss Voigt Hill
#
# Bulk Modulus (GPa) = 54.66726 74.06123 64.36425
# Shear Modulus (GPa) = 14.90067 27.83054 21.36561
#
# Velocity S-wave (km/s) = 2.77058 3.78642 3.31761
# Velocity P-wave (km/s) = 6.19651 7.56761 6.91612
#
# Compressibility (1/GPa) = 0.01829248
#
# Stress axis : x y z
#
# Youngs Moduli (GPa) = 93.31210 22.16262 14.27173
#
# Poissons Ratio (x) = 0.13328 -0.01359
# Poissons Ratio (y) = 0.56115 0.69568
# Poissons Ratio (z) = -0.08888 1.08033
#
# Static dielectric constant tensor:
#      x y z
#    x 3.719560 0.000000 0.000000 
#    y 0.000000 3.613940 0.000000 
#    z 0.000000 0.000000 3.370870 
# 
# 
# High freq. dielectric constant tensor:
#      x y z
#    x 1.774340 0.000000 0.000000 
#    y 0.000000 1.752440 0.000000 
#    z 0.000000 0.000000 1.742150 
# 
# From -- ./inp_files/2583.got.cif
#   From: 2010.03.12/outbox.cif.g09.slc.cpg/sg19_2_cif.got.tgz:2583.got - 2010.04.10 18:59:41.
