data_PCOD8157782
_publ_section_title
;
Structure prediction by ZEFSAII (Michael W. Deem and Ramdas Pophale) SiO2 
 PCOD8157782
Probable space group: P 21 21 21
;
_chemical_formula_sum "Si O2"
_cell_formula_units_Z 24
_cell_length_a 13.504921
_cell_length_b 9.441871
_cell_length_c 8.634959
_cell_angle_alpha 90.000000
_cell_angle_beta 90.000000
_cell_angle_gamma 90.000000
_cell_volume 1101.058491
_symmetry_space_group_name_H-M "P 21 21 21"
_symmetry_group_IT_number 19
_symmetry_cell_setting 'orthorhombic'
loop_
_space_group_symop_operation_xyz
x,y,z
1/2-x,-y,1/2+z
1/2+x,1/2-y,-z
-x,1/2+y,1/2-z
loop_
_atom_site_type_symbol
_atom_site_label
_atom_site_fract_x
_atom_site_fract_y
_atom_site_fract_z
Si Si1 0.581460 0.020986 0.844679
Si Si2 0.584765 0.701988 0.800927
Si Si3 0.220247 0.672450 0.679925
Si Si4 0.082994 0.442561 0.798728
Si Si5 0.883918 0.401513 0.630154
Si Si6 0.780635 0.692048 0.637255
O O1 0.487110 0.117711 0.812557
O O2 0.677742 0.096045 0.770741
O O3 0.567340 0.867857 0.768013
O O4 0.593885 0.999713 0.027601
O O5 0.697508 0.658822 0.764486
O O6 0.563847 0.662858 0.978664
O O7 0.132106 0.557089 0.683563
O O8 0.199432 0.796852 0.802502
O O9 0.227593 0.734720 0.508276
O O10 0.137874 0.292383 0.783408
O O11 0.968259 0.423501 0.758619
O O12 0.833068 0.548582 0.584064
#
# Coordination Sequence:
#
# PCOD8157782 Si02
#       6
#     4   4   4   4   4   4
#     4  11  27  45  70 102 141 183 234 287 352 411
#     4  12  27  44  70 105 138 182 233 290 349 414
#     4  11  24  49  71  97 142 184 231 287 351 420
#     4  11  24  48  71  99 140 189 231 281 351 422
#     4  12  26  44  73 106 137 182 232 289 351 421
#     4  11  26  44  71 103 142 180 233 292 346 414
#
# _framework density 21.797207
#
# number of rings (size 3 to 8) (size 9 to 14) (size 15 to 20)
#    0.000    0.667    3.333    3.000    9.333    1.333 
#    0.000    0.000    0.000    0.000    0.000    0.000 
#    0.000    0.000    0.000    0.000    0.000    0.000 
#
# Total GULP energy -297821.136711 kJ/mol
# GULP energy per Si atom -12409.214030 kJ/mol
# Density = 2.174760 g / cm^3
# Si number density = 21.797207 Si / 1000 Ang^3
#
#
#
# Elastic Constant Matrix: (Units=GPa)
#
#
# Indices 1 2 3 4 5 6 
#
# 1 112.8007 64.3304 30.4153 0.0000 0.0000 0.0000
# 2 64.3304 160.5303 35.7574 0.0000 0.0000 0.0000
# 3 30.4153 35.7574 70.1300 0.0000 0.0000 0.0000
# 4 0.0000 0.0000 0.0000 34.5216 0.0000 0.0000
# 5 0.0000 0.0000 0.0000 0.0000 37.9039 0.0000
# 6 0.0000 0.0000 0.0000 0.0000 0.0000 46.6303
#
#
#
# Elastic Compliance Matrix: (Units=1/GPa)
#
#
# Indices 1 2 3 4 5 6 
#
# 1 0.012069 -0.004141 -0.003123 0.000000 0.000000 0.000000
# 2 -0.004141 0.008448 -0.002512 0.000000 0.000000 0.000000
# 3 -0.003123 -0.002512 0.016894 0.000000 0.000000 0.000000
# 4 0.000000 0.000000 0.000000 0.028967 0.000000 0.000000
# 5 0.000000 0.000000 0.000000 0.000000 0.026383 0.000000
# 6 0.000000 0.000000 0.000000 0.000000 0.000000 0.021445
#
#
# Mechanical properties :
#
#
# Convention : Reuss Voigt Hill
#
# Bulk Modulus (GPa) = 55.98955 67.16301 61.57628
# Shear Modulus (GPa) = 35.78827 38.00834 36.89831
#
# Velocity S-wave (km/s) = 4.05640 4.18032 4.11883
# Velocity P-wave (km/s) = 6.90518 7.36069 7.13657
#
# Compressibility (1/GPa) = 0.01786048
#
# Stress axis : x y z
#
# Youngs Moduli (GPa) = 82.85868 118.36889 59.19170
#
# Poissons Ratio (x) = 0.49014 0.18485
# Poissons Ratio (y) = 0.34310 0.14867
# Poissons Ratio (z) = 0.25876 0.29730
#
# Static dielectric constant tensor:
#      x y z
#    x 3.879380 0.000000 0.000000 
#    y 0.000000 4.082660 0.000000 
#    z 0.000000 0.000000 3.706710 
# 
# 
# High freq. dielectric constant tensor:
#      x y z
#    x 1.860430 0.000000 0.000000 
#    y 0.000000 1.876010 0.000000 
#    z 0.000000 0.000000 1.850870 
# 
# From -- ./inp_files/2670.got.cif
#   From: 2010.03.12/outbox.cif.g09.slc.cpg/sg19_2_cif.got.tgz:2670.got - 2010.04.10 18:59:41.
