data_PCOD8157729
_publ_section_title
;
Structure prediction by ZEFSAII (Michael W. Deem and Ramdas Pophale) SiO2 
 PCOD8157729
Probable space group: P 21 21 21
;
_chemical_formula_sum "Si O2"
_cell_formula_units_Z 32
_cell_length_a 6.512945
_cell_length_b 8.522033
_cell_length_c 25.847683
_cell_angle_alpha 90.000000
_cell_angle_beta 90.000000
_cell_angle_gamma 90.000000
_cell_volume 1434.637706
_symmetry_space_group_name_H-M "P 21 21 21"
_symmetry_group_IT_number 19
_symmetry_cell_setting 'orthorhombic'
loop_
_space_group_symop_operation_xyz
x,y,z
1/2-x,-y,1/2+z
1/2+x,1/2-y,-z
-x,1/2+y,1/2-z
loop_
_atom_site_type_symbol
_atom_site_label
_atom_site_fract_x
_atom_site_fract_y
_atom_site_fract_z
Si Si1 0.214114 0.013824 0.764870
Si Si2 0.151625 0.809801 0.358219
Si Si3 0.336117 0.808912 0.109128
Si Si4 0.486227 0.986935 0.420664
Si Si5 0.791062 0.487496 0.987292
Si Si6 0.889612 0.182392 0.701515
Si Si7 0.501637 0.520122 0.827805
Si Si8 0.372443 0.678192 0.549115
O O1 0.368162 0.112379 0.801699
O O2 0.023561 0.124317 0.749752
O O3 0.119612 0.869832 0.796337
O O4 0.334182 0.954931 0.713779
O O5 0.123420 0.621667 0.354582
O O6 0.970481 0.867571 0.395645
O O7 0.371879 0.866948 0.381132
O O8 0.379681 0.622483 0.107103
O O9 0.510134 0.876330 0.147509
O O10 0.355927 0.873946 0.051161
O O11 0.113132 0.860871 0.131652
O O12 0.321196 0.057952 0.461642
O O13 0.642463 0.883915 0.453714
O O14 0.638671 0.365933 0.958494
O O15 0.999201 0.399195 0.003063
O O16 0.659545 0.120517 0.704854
#
# Coordination Sequence:
#
# PCOD8157729 Si02
#       8
#     4   4   4   4   4   4   4   4
#     4  11  24  45  67 104 137 181 236 287 351 419
#     4  11  24  45  68 103 135 183 236 286 353 423
#     4  11  26  45  65 105 139 181 230 288 356 419
#     4  11  26  43  69  99 140 183 229 290 350 413
#     4  11  24  44  69 102 137 179 235 282 347 418
#     4  11  25  45  69  97 141 181 228 294 347 419
#     4  11  25  42  74 100 137 185 231 284 356 419
#     4  11  24  43  71  98 134 185 231 285 346 418
#
# _framework density 22.305281999999998
#
# number of rings (size 3 to 8) (size 9 to 14) (size 15 to 20)
#    0.000    1.000    3.750    1.500    5.250    4.000 
#    0.000    0.000    0.000    0.000    0.000    0.000 
#    0.000    0.000    0.000    0.000    0.000    0.000 
#
# Total GULP energy -396706.468654 kJ/mol
# GULP energy per Si atom -12397.077145 kJ/mol
# Density = 2.225451 g / cm^3
# Si number density = 22.305282 Si / 1000 Ang^3
#
#
#
# Elastic Constant Matrix: (Units=GPa)
#
#
# Indices 1 2 3 4 5 6 
#
# 1 97.3346 54.2206 36.2054 0.0000 0.0000 0.0000
# 2 54.2206 116.6286 38.1034 0.0000 0.0000 0.0000
# 3 36.2054 38.1034 98.9445 0.0000 0.0000 0.0000
# 4 0.0000 0.0000 0.0000 37.4848 0.0000 0.0000
# 5 0.0000 0.0000 0.0000 0.0000 30.7274 0.0000
# 6 0.0000 0.0000 0.0000 0.0000 0.0000 44.4368
#
#
#
# Elastic Compliance Matrix: (Units=1/GPa)
#
#
# Indices 1 2 3 4 5 6 
#
# 1 0.014668 -0.005795 -0.003136 0.000000 0.000000 0.000000
# 2 -0.005795 0.012098 -0.002538 0.000000 0.000000 0.000000
# 3 -0.003136 -0.002538 0.012232 0.000000 0.000000 0.000000
# 4 0.000000 0.000000 0.000000 0.026677 0.000000 0.000000
# 5 0.000000 0.000000 0.000000 0.000000 0.032544 0.000000
# 6 0.000000 0.000000 0.000000 0.000000 0.000000 0.022504
#
#
# Mechanical properties :
#
#
# Convention : Reuss Voigt Hill
#
# Bulk Modulus (GPa) = 62.26811 63.32960 62.79886
# Shear Modulus (GPa) = 33.55389 34.82168 34.18779
#
# Velocity S-wave (km/s) = 3.88274 3.95541 3.91925
# Velocity P-wave (km/s) = 6.93382 7.02241 6.97825
#
# Compressibility (1/GPa) = 0.01605958
#
# Stress axis : x y z
#
# Youngs Moduli (GPa) = 68.17451 82.66167 81.75527
#
# Poissons Ratio (x) = 0.47901 0.25637
# Poissons Ratio (y) = 0.39506 0.20752
# Poissons Ratio (z) = 0.21378 0.20982
#
# Static dielectric constant tensor:
#      x y z
#    x 3.933250 0.000000 0.000000 
#    y 0.000000 3.792520 0.000000 
#    z 0.000000 0.000000 3.997970 
# 
# 
# High freq. dielectric constant tensor:
#      x y z
#    x 1.879700 0.000000 0.000000 
#    y 0.000000 1.867260 0.000000 
#    z 0.000000 0.000000 1.886560 
# 
# From -- ./inp_files/7534.got.cif
#   From: 2010.03.12/outbox.cif.g09.slc.cpg/sg19_4_cif.got.tgz:7534.got - 2010.04.10 18:59:41.
