data_PCOD8157212
_publ_section_title
;
Structure prediction by ZEFSAII (Michael W. Deem and Ramdas Pophale) SiO2 
 PCOD8157212
Probable space group: P 21 21 21
;
_chemical_formula_sum "Si O2"
_cell_formula_units_Z 32
_cell_length_a 14.511195
_cell_length_b 8.788807
_cell_length_c 11.846076
_cell_angle_alpha 90.000000
_cell_angle_beta 90.000000
_cell_angle_gamma 90.000000
_cell_volume 1510.802241
_symmetry_space_group_name_H-M "P 21 21 21"
_symmetry_group_IT_number 19
_symmetry_cell_setting 'orthorhombic'
loop_
_space_group_symop_operation_xyz
x,y,z
1/2-x,-y,1/2+z
1/2+x,1/2-y,-z
-x,1/2+y,1/2-z
loop_
_atom_site_type_symbol
_atom_site_label
_atom_site_fract_x
_atom_site_fract_y
_atom_site_fract_z
Si Si1 0.438023 0.839593 0.796965
Si Si2 0.008922 0.909789 0.454596
Si Si3 0.062604 0.499640 0.363962
Si Si4 0.688539 0.749304 0.648493
Si Si5 0.647514 0.312317 0.993453
Si Si6 0.513655 0.966167 0.385876
Si Si7 0.232900 0.029762 0.213114
Si Si8 0.436032 0.149605 0.196899
O O1 0.495764 0.926052 0.894479
O O2 0.454098 0.661315 0.805516
O O3 0.474844 0.898152 0.674583
O O4 0.329262 0.877402 0.804670
O O5 0.096855 0.816288 0.410817
O O6 0.021873 0.935141 0.588034
O O7 0.913176 0.818889 0.431753
O O8 0.156470 0.579346 0.316973
O O9 0.065949 0.483657 0.499803
O O10 0.770198 0.768980 0.559975
O O11 0.720330 0.649681 0.756796
O O12 0.587252 0.403676 0.083847
O O13 0.694899 0.434761 0.910849
O O14 0.569356 0.830918 0.322818
O O15 0.503455 0.109449 0.302048
O O16 0.336541 0.083486 0.226486
#
# Coordination Sequence:
#
# PCOD8157212 Si02
#       8
#     4   4   4   4   4   4   4   4
#     4  11  24  40  69  96 130 166 225 269 339 379
#     4  10  22  41  67  94 129 177 215 272 325 391
#     4  12  23  43  66  98 129 171 215 279 323 390
#     4  11  21  38  67  97 128 168 214 270 329 385
#     4  11  19  40  68  93 131 170 218 267 329 388
#     4  11  24  42  65  91 131 175 216 260 329 388
#     4  11  20  38  66  96 126 167 214 271 327 392
#     4  11  23  42  66  93 132 174 219 264 323 397
#
# _framework density 21.180800000000001
#
# number of rings (size 3 to 8) (size 9 to 14) (size 15 to 20)
#    0.000    1.000    6.250    2.250    1.750    0.000 
#    4.500    0.000    5.500    0.000    0.000    0.000 
#    0.000    0.000    0.000    0.000    0.000    0.000 
#
# Total GULP energy -396678.171650 kJ/mol
# GULP energy per Si atom -12396.192864 kJ/mol
# Density = 2.113259 g / cm^3
# Si number density = 21.180800 Si / 1000 Ang^3
#
#
#
# Elastic Constant Matrix: (Units=GPa)
#
#
# Indices 1 2 3 4 5 6 
#
# 1 77.4421 23.0693 15.2028 0.0000 0.0000 0.0000
# 2 23.0693 111.4122 40.2983 0.0000 0.0000 0.0000
# 3 15.2028 40.2983 92.6813 0.0000 0.0000 0.0000
# 4 0.0000 0.0000 0.0000 40.7156 0.0000 0.0000
# 5 0.0000 0.0000 0.0000 0.0000 33.0840 0.0000
# 6 0.0000 0.0000 0.0000 0.0000 0.0000 23.8399
#
#
#
# Elastic Compliance Matrix: (Units=1/GPa)
#
#
# Indices 1 2 3 4 5 6 
#
# 1 0.013877 -0.002433 -0.001219 0.000000 0.000000 0.000000
# 2 -0.002433 0.011077 -0.004417 0.000000 0.000000 0.000000
# 3 -0.001219 -0.004417 0.012910 0.000000 0.000000 0.000000
# 4 0.000000 0.000000 0.000000 0.024561 0.000000 0.000000
# 5 0.000000 0.000000 0.000000 0.000000 0.030226 0.000000
# 6 0.000000 0.000000 0.000000 0.000000 0.000000 0.041946
#
#
# Mechanical properties :
#
#
# Convention : Reuss Voigt Hill
#
# Bulk Modulus (GPa) = 46.02545 48.74181 47.38363
# Shear Modulus (GPa) = 31.65024 33.05893 32.35458
#
# Velocity S-wave (km/s) = 3.86980 3.95498 3.91262
# Velocity P-wave (km/s) = 6.46097 6.62707 6.54454
#
# Compressibility (1/GPa) = 0.02172711
#
# Stress axis : x y z
#
# Youngs Moduli (GPa) = 72.06305 90.27584 77.45794
#
# Poissons Ratio (x) = 0.21960 0.09439
# Poissons Ratio (y) = 0.17530 0.34216
# Poissons Ratio (z) = 0.08781 0.39878
#
# Static dielectric constant tensor:
#      x y z
#    x 3.907580 0.000000 0.000000 
#    y 0.000000 3.805160 0.000000 
#    z 0.000000 0.000000 3.870340 
# 
# 
# High freq. dielectric constant tensor:
#      x y z
#    x 1.826750 0.000000 0.000000 
#    y 0.000000 1.814010 0.000000 
#    z 0.000000 0.000000 1.832940 
# 
# From -- ./inp_files/5270.got.cif
#   From: 2010.03.12/outbox.cif.g09.slc.cpg/sg19_3_cif.got.tgz:5270.got - 2010.04.10 18:59:41.
