data_PCOD8157550
_publ_section_title
;
Structure prediction by ZEFSAII (Michael W. Deem and Ramdas Pophale) SiO2 
 PCOD8157550
Probable space group: P 21 21 21
;
_chemical_formula_sum "Si O2"
_cell_formula_units_Z 32
_cell_length_a 8.264145
_cell_length_b 6.550631
_cell_length_c 29.352288
_cell_angle_alpha 90.000000
_cell_angle_beta 90.000000
_cell_angle_gamma 90.000000
_cell_volume 1588.996808
_symmetry_space_group_name_H-M "P 21 21 21"
_symmetry_group_IT_number 19
_symmetry_cell_setting 'orthorhombic'
loop_
_space_group_symop_operation_xyz
x,y,z
1/2-x,-y,1/2+z
1/2+x,1/2-y,-z
-x,1/2+y,1/2-z
loop_
_atom_site_type_symbol
_atom_site_label
_atom_site_fract_x
_atom_site_fract_y
_atom_site_fract_z
Si Si1 0.075008 0.619021 0.146725
Si Si2 0.222444 0.746484 0.631547
Si Si3 0.853324 0.310649 0.198734
Si Si4 0.206776 0.936779 0.460649
Si Si5 0.852783 0.844447 0.075886
Si Si6 0.371625 0.999427 0.708455
Si Si7 0.352488 0.680393 0.380486
Si Si8 0.078728 0.173242 0.044568
O O1 0.242414 0.498620 0.133542
O O2 0.111668 0.781953 0.185216
O O3 0.958600 0.440542 0.163749
O O4 0.990942 0.731513 0.104877
O O5 0.342821 0.843404 0.594409
O O6 0.044122 0.803088 0.615289
O O7 0.250792 0.853931 0.680472
O O8 0.800073 0.450759 0.241477
O O9 0.695625 0.235288 0.171451
O O10 0.955254 0.111737 0.214474
O O11 0.280104 0.841462 0.415302
O O12 0.289332 0.853126 0.505895
O O13 0.014311 0.887675 0.463132
O O14 0.233642 0.179612 0.456663
O O15 0.717532 0.955287 0.107367
O O16 0.938512 0.003232 0.042043
#
# Coordination Sequence:
#
# PCOD8157550 Si02
#       8
#     4   4   4   4   4   4   4   4
#     4  11  19  41  66  86 120 167 210 255 316 374
#     4  11  24  41  60  90 133 166 205 266 328 377
#     4  11  21  38  66  90 121 163 215 263 313 382
#     4  11  23  42  65  93 126 167 208 264 322 382
#     4  11  21  42  68  88 122 167 216 258 318 384
#     4  11  21  38  64  92 117 166 216 257 313 388
#     4  11  24  42  61  94 130 165 210 270 323 384
#     4  11  23  40  64  91 125 163 210 261 315 389
#
# _framework density 20.138490999999998
#
# number of rings (size 3 to 8) (size 9 to 14) (size 15 to 20)
#    0.000    1.000    6.250    2.250    0.000    4.000 
#    4.500    0.000    0.000    0.000    0.000    0.000 
#    0.000    0.000    0.000    0.000    0.000    0.000 
#
# Total GULP energy -396775.832442 kJ/mol
# GULP energy per Si atom -12399.244764 kJ/mol
# Density = 2.009265 g / cm^3
# Si number density = 20.138491 Si / 1000 Ang^3
#
#
#
# Elastic Constant Matrix: (Units=GPa)
#
#
# Indices 1 2 3 4 5 6 
#
# 1 93.3293 32.1270 23.8703 0.0000 0.0000 0.0000
# 2 32.1270 101.6756 17.0857 0.0000 0.0000 0.0000
# 3 23.8703 17.0857 88.8714 0.0000 0.0000 0.0000
# 4 0.0000 0.0000 0.0000 26.1180 0.0000 0.0000
# 5 0.0000 0.0000 0.0000 0.0000 30.4124 0.0000
# 6 0.0000 0.0000 0.0000 0.0000 0.0000 19.4810
#
#
#
# Elastic Compliance Matrix: (Units=1/GPa)
#
#
# Indices 1 2 3 4 5 6 
#
# 1 0.012625 -0.003533 -0.002712 0.000000 0.000000 0.000000
# 2 -0.003533 0.011152 -0.001195 0.000000 0.000000 0.000000
# 3 -0.002712 -0.001195 0.012210 0.000000 0.000000 0.000000
# 4 0.000000 0.000000 0.000000 0.038288 0.000000 0.000000
# 5 0.000000 0.000000 0.000000 0.000000 0.032881 0.000000
# 6 0.000000 0.000000 0.000000 0.000000 0.000000 0.051332
#
#
# Mechanical properties :
#
#
# Convention : Reuss Voigt Hill
#
# Bulk Modulus (GPa) = 47.37695 47.78247 47.57971
# Shear Modulus (GPa) = 27.71551 29.25516 28.48534
#
# Velocity S-wave (km/s) = 3.71380 3.81556 3.76503
# Velocity P-wave (km/s) = 6.47815 6.57190 6.52519
#
# Compressibility (1/GPa) = 0.02110731
#
# Stress axis : x y z
#
# Youngs Moduli (GPa) = 79.21054 89.66607 81.89823
#
# Poissons Ratio (x) = 0.31683 0.22207
# Poissons Ratio (y) = 0.27988 0.09787
# Poissons Ratio (z) = 0.21479 0.10715
#
# Static dielectric constant tensor:
#      x y z
#    x 3.496420 0.000000 0.000000 
#    y 0.000000 3.992750 0.000000 
#    z 0.000000 0.000000 3.641940 
# 
# 
# High freq. dielectric constant tensor:
#      x y z
#    x 1.760080 0.000000 0.000000 
#    y 0.000000 1.799040 0.000000 
#    z 0.000000 0.000000 1.790720 
# 
# From -- ./inp_files/681.got.cif
#   From: 2010.03.12/outbox.cif.g09.slc.cpg/sg19_1_cif.got.tgz:681.got - 2010.04.10 18:59:41.
