data_PCOD8157089
_publ_section_title
;
Structure prediction by ZEFSAII (Michael W. Deem and Ramdas Pophale) SiO2 
 PCOD8157089
Probable space group: P 21 21 21
;
_chemical_formula_sum "Si O2"
_cell_formula_units_Z 32
_cell_length_a 8.469952
_cell_length_b 14.567305
_cell_length_c 12.171454
_cell_angle_alpha 90.000000
_cell_angle_beta 90.000000
_cell_angle_gamma 90.000000
_cell_volume 1501.767234
_symmetry_space_group_name_H-M "P 21 21 21"
_symmetry_group_IT_number 19
_symmetry_cell_setting 'orthorhombic'
loop_
_space_group_symop_operation_xyz
x,y,z
1/2-x,-y,1/2+z
1/2+x,1/2-y,-z
-x,1/2+y,1/2-z
loop_
_atom_site_type_symbol
_atom_site_label
_atom_site_fract_x
_atom_site_fract_y
_atom_site_fract_z
Si Si1 0.237968 0.572002 0.245295
Si Si2 0.993424 0.917249 0.248478
Si Si3 0.058312 0.732766 0.143350
Si Si4 0.593649 0.202135 0.114774
Si Si5 0.558987 0.619354 0.196086
Si Si6 0.339624 0.148654 0.950166
Si Si7 0.290343 0.837731 0.002442
Si Si8 0.741636 0.511521 0.373751
O O1 0.306393 0.606660 0.364616
O O2 0.387519 0.577166 0.160550
O O3 0.175842 0.467583 0.244559
O O4 0.095102 0.640586 0.211275
O O5 0.089905 0.923188 0.362411
O O6 0.973105 0.809633 0.219254
O O7 0.085629 0.973004 0.154222
O O8 0.943285 0.710859 0.043874
O O9 0.221704 0.771656 0.096304
O O10 0.476373 0.207348 0.222148
O O11 0.719338 0.284158 0.112410
O O12 0.490450 0.200526 0.004069
O O13 0.658532 0.647036 0.091011
O O14 0.649997 0.540187 0.264210
O O15 0.240763 0.097173 0.044013
O O16 0.348823 0.931470 0.059641
#
# Coordination Sequence:
#
# PCOD8157089 Si02
#       8
#     4   4   4   4   4   4   4   4
#     4  10  21  43  59  89 132 162 210 272 309 385
#     4  11  23  40  64  92 128 167 211 266 332 379
#     4  11  23  40  65  93 128 169 217 264 327 388
#     4   9  23  38  65  87 128 160 218 262 318 379
#     4   9  20  41  58  89 126 165 211 269 314 373
#     4  11  21  42  63  96 122 172 216 264 327 385
#     4  11  23  41  64  94 126 175 210 265 323 391
#     4  10  22  37  62  90 124 168 213 258 320 388
#
# _framework density 21.308229999999998
#
# number of rings (size 3 to 8) (size 9 to 14) (size 15 to 20)
#    0.750    1.000    1.250    3.000    1.750    3.000 
#    6.750    2.500    0.000    0.000    0.000    0.000 
#    0.000    0.000    0.000    0.000    0.000    0.000 
#
# Total GULP energy -396531.793082 kJ/mol
# GULP energy per Si atom -12391.618534 kJ/mol
# Density = 2.125973 g / cm^3
# Si number density = 21.308230 Si / 1000 Ang^3
#
#
#
# Elastic Constant Matrix: (Units=GPa)
#
#
# Indices 1 2 3 4 5 6 
#
# 1 41.2933 11.6463 -6.8787 0.0000 0.0000 0.0000
# 2 11.6463 53.0356 5.7567 0.0000 0.0000 0.0000
# 3 -6.8787 5.7567 54.0042 0.0000 0.0000 0.0000
# 4 0.0000 0.0000 0.0000 30.8158 0.0000 0.0000
# 5 0.0000 0.0000 0.0000 0.0000 34.3150 0.0000
# 6 0.0000 0.0000 0.0000 0.0000 0.0000 40.7074
#
#
#
# Elastic Compliance Matrix: (Units=1/GPa)
#
#
# Indices 1 2 3 4 5 6 
#
# 1 0.026671 -0.006298 0.004069 0.000000 0.000000 0.000000
# 2 -0.006298 0.020563 -0.002994 0.000000 0.000000 0.000000
# 3 0.004069 -0.002994 0.019354 0.000000 0.000000 0.000000
# 4 0.000000 0.000000 0.000000 0.032451 0.000000 0.000000
# 5 0.000000 0.000000 0.000000 0.000000 0.029142 0.000000
# 6 0.000000 0.000000 0.000000 0.000000 0.000000 0.024566
#
#
# Mechanical properties :
#
#
# Convention : Reuss Voigt Hill
#
# Bulk Modulus (GPa) = 17.81238 18.82021 18.31629
# Shear Modulus (GPa) = 27.48625 30.35489 28.92057
#
# Velocity S-wave (km/s) = 3.59546 3.77843 3.68808
# Velocity P-wave (km/s) = 5.06103 5.28081 5.17209
#
# Compressibility (1/GPa) = 0.05614073
#
# Stress axis : x y z
#
# Youngs Moduli (GPa) = 37.49367 48.63013 51.66763
#
# Poissons Ratio (x) = 0.30630 -0.21021
# Poissons Ratio (y) = 0.23615 0.15471
# Poissons Ratio (z) = -0.15255 0.14561
#
# Static dielectric constant tensor:
#      x y z
#    x 3.741820 0.000000 0.000000 
#    y 0.000000 3.710080 0.000000 
#    z 0.000000 0.000000 3.807710 
# 
# 
# High freq. dielectric constant tensor:
#      x y z
#    x 1.829680 0.000000 0.000000 
#    y 0.000000 1.823380 0.000000 
#    z 0.000000 0.000000 1.832760 
# 
# From -- ./inp_files/4663.got.cif
#   From: 2010.03.12/outbox.cif.g09.slc.cpg/sg19_3_cif.got.tgz:4663.got - 2010.04.10 18:59:41.
