data_PCOD8157508
_publ_section_title
;
Structure prediction by ZEFSAII (Michael W. Deem and Ramdas Pophale) SiO2 
 PCOD8157508
Probable space group: P 21 21 21
;
_chemical_formula_sum "Si O2"
_cell_formula_units_Z 24
_cell_length_a 9.207389
_cell_length_b 17.953562
_cell_length_c 5.785338
_cell_angle_alpha 90.000000
_cell_angle_beta 90.000000
_cell_angle_gamma 90.000000
_cell_volume 956.347782
_symmetry_space_group_name_H-M "P 21 21 21"
_symmetry_group_IT_number 19
_symmetry_cell_setting 'orthorhombic'
loop_
_space_group_symop_operation_xyz
x,y,z
1/2-x,-y,1/2+z
1/2+x,1/2-y,-z
-x,1/2+y,1/2-z
loop_
_atom_site_type_symbol
_atom_site_label
_atom_site_fract_x
_atom_site_fract_y
_atom_site_fract_z
Si Si1 0.455410 0.558234 0.393695
Si Si2 0.880920 0.708436 0.532346
Si Si3 0.001488 0.106469 0.590632
Si Si4 0.007984 0.330237 0.275849
Si Si5 0.242811 0.328596 0.647571
Si Si6 0.291695 0.127495 0.357286
O O1 0.414183 0.471124 0.392030
O O2 0.500323 0.589941 0.645650
O O3 0.315702 0.602853 0.301726
O O4 0.593346 0.565814 0.223172
O O5 0.785091 0.751114 0.723012
O O6 0.762149 0.675394 0.358975
O O7 0.977139 0.645033 0.659548
O O8 0.996145 0.763582 0.411596
O O9 0.913326 0.159941 0.412967
O O10 0.157066 0.087496 0.479483
O O11 0.875945 0.319973 0.457585
O O12 0.162033 0.325362 0.402741
#
# Coordination Sequence:
#
# PCOD8157508 Si02
#       6
#     4   4   4   4   4   4
#     4  10  26  48  72 103 154 198 244 311 366 444
#     4  11  26  47  76 114 149 197 252 309 368 447
#     4  12  28  44  79 111 147 199 255 301 381 440
#     4  10  24  48  74 103 155 195 243 308 372 434
#     4  10  26  49  74 108 150 196 247 307 374 439
#     4  11  26  44  73 109 151 193 251 304 375 434
#
# _framework density 25.095471
#
# number of rings (size 3 to 8) (size 9 to 14) (size 15 to 20)
#    0.000    1.333    0.000    2.000    7.000   21.333 
#    0.000    0.000    0.000    0.000    0.000    0.000 
#    0.000    0.000    0.000    0.000    0.000    0.000 
#
# Total GULP energy -297721.714909 kJ/mol
# GULP energy per Si atom -12405.071455 kJ/mol
# Density = 2.503835 g / cm^3
# Si number density = 25.095471 Si / 1000 Ang^3
#
#
#
# Elastic Constant Matrix: (Units=GPa)
#
#
# Indices 1 2 3 4 5 6 
#
# 1 94.4460 -3.4377 28.6202 0.0000 0.0000 0.0000
# 2 -3.4377 127.5823 52.8282 0.0000 0.0000 0.0000
# 3 28.6202 52.8282 143.6627 0.0000 0.0000 0.0000
# 4 0.0000 0.0000 0.0000 31.5996 0.0000 0.0000
# 5 0.0000 0.0000 0.0000 0.0000 59.2982 0.0000
# 6 0.0000 0.0000 0.0000 0.0000 0.0000 28.7974
#
#
#
# Elastic Compliance Matrix: (Units=1/GPa)
#
#
# Indices 1 2 3 4 5 6 
#
# 1 0.011502 0.001485 -0.002837 0.000000 0.000000 0.000000
# 2 0.001485 0.009438 -0.003766 0.000000 0.000000 0.000000
# 3 -0.002837 -0.003766 0.008911 0.000000 0.000000 0.000000
# 4 0.000000 0.000000 0.000000 0.031646 0.000000 0.000000
# 5 0.000000 0.000000 0.000000 0.000000 0.016864 0.000000
# 6 0.000000 0.000000 0.000000 0.000000 0.000000 0.034725
#
#
# Mechanical properties :
#
#
# Convention : Reuss Voigt Hill
#
# Bulk Modulus (GPa) = 50.98707 57.96805 54.47756
# Shear Modulus (GPa) = 38.50275 43.11774 40.81024
#
# Velocity S-wave (km/s) = 3.92120 4.14955 4.03699
# Velocity P-wave (km/s) = 6.39237 6.79025 6.59431
#
# Compressibility (1/GPa) = 0.01961282
#
# Stress axis : x y z
#
# Youngs Moduli (GPa) = 86.94198 105.95943 112.22161
#
# Poissons Ratio (x) = -0.15733 0.31842
# Poissons Ratio (y) = -0.12909 0.42265
# Poissons Ratio (z) = 0.24669 0.39907
#
# Static dielectric constant tensor:
#      x y z
#    x 4.391610 0.000000 0.000000 
#    y 0.000000 4.195330 0.000000 
#    z 0.000000 0.000000 4.817630 
# 
# 
# High freq. dielectric constant tensor:
#      x y z
#    x 2.007250 0.000000 0.000000 
#    y 0.000000 1.986420 0.000000 
#    z 0.000000 0.000000 2.016770 
# 
# From -- ./inp_files/416.got.cif
#   From: 2010.03.12/outbox.cif.g09.slc.cpg/sg19_1_cif.got.tgz:416.got - 2010.04.10 18:59:41.
