data_PCOD8157892
_publ_section_title
;
Structure prediction by ZEFSAII (Michael W. Deem and Ramdas Pophale) SiO2 
 PCOD8157892
Probable space group: P 21 21 21
;
_chemical_formula_sum "Si O2"
_cell_formula_units_Z 24
_cell_length_a 10.373138
_cell_length_b 5.370690
_cell_length_c 17.301324
_cell_angle_alpha 90.000000
_cell_angle_beta 90.000000
_cell_angle_gamma 90.000000
_cell_volume 963.872479
_symmetry_space_group_name_H-M "P 21 21 21"
_symmetry_group_IT_number 19
_symmetry_cell_setting 'orthorhombic'
loop_
_space_group_symop_operation_xyz
x,y,z
1/2-x,-y,1/2+z
1/2+x,1/2-y,-z
-x,1/2+y,1/2-z
loop_
_atom_site_type_symbol
_atom_site_label
_atom_site_fract_x
_atom_site_fract_y
_atom_site_fract_z
Si Si1 0.129612 0.451949 0.693883
Si Si2 0.877156 0.683435 0.659579
Si Si3 0.820398 0.670756 0.240756
Si Si4 0.793684 0.194036 0.025245
Si Si5 0.756388 0.312890 0.433116
Si Si6 0.511042 0.019415 0.633164
O O1 0.081245 0.401369 0.781320
O O2 0.234153 0.670906 0.699610
O O3 0.192886 0.211416 0.652146
O O4 0.003335 0.518728 0.643664
O O5 0.758266 0.552479 0.702805
O O6 0.834311 0.788920 0.577517
O O7 0.942786 0.593517 0.291667
O O8 0.871454 0.815723 0.165197
O O9 0.801811 0.439519 0.972087
O O10 0.922175 0.188033 0.078351
O O11 0.780105 0.939461 0.977559
O O12 0.910186 0.331380 0.420766
#
# Coordination Sequence:
#
# PCOD8157892 Si02
#       6
#     4   4   4   4   4   4
#     4  12  26  51  82 113 157 208 264 328 389 471
#     4  12  26  51  82 113 157 208 264 328 389 471
#     4  12  24  50  84 116 148 200 270 336 390 454
#     4  12  30  54  79 120 161 211 260 324 404 469
#     4  12  30  54  79 120 161 211 260 324 404 469
#     4  12  26  52  84 112 158 202 270 328 394 474
#
# _framework density 24.899557999999999
#
# number of rings (size 3 to 8) (size 9 to 14) (size 15 to 20)
#    0.000    0.000    5.000    4.000    2.333    4.000 
#    6.000    0.000    0.000    0.000    0.000    0.000 
#    0.000    0.000    0.000    0.000    0.000    0.000 
#
# Total GULP energy -297644.340696 kJ/mol
# GULP energy per Si atom -12401.847529 kJ/mol
# Density = 2.484289 g / cm^3
# Si number density = 24.899558 Si / 1000 Ang^3
#
#
#
# Elastic Constant Matrix: (Units=GPa)
#
#
# Indices 1 2 3 4 5 6 
#
# 1 105.6090 14.8991 20.8509 0.0000 0.0000 0.0000
# 2 14.8991 110.1279 30.2143 0.0000 0.0000 0.0000
# 3 20.8509 30.2143 69.0513 0.0000 0.0000 0.0000
# 4 0.0000 0.0000 0.0000 48.4045 0.0000 0.0000
# 5 0.0000 0.0000 0.0000 0.0000 10.5281 0.0000
# 6 0.0000 0.0000 0.0000 0.0000 0.0000 39.7292
#
#
#
# Elastic Compliance Matrix: (Units=1/GPa)
#
#
# Indices 1 2 3 4 5 6 
#
# 1 0.010104 -0.000602 -0.002788 0.000000 0.000000 0.000000
# 2 -0.000602 0.010355 -0.004349 0.000000 0.000000 0.000000
# 3 -0.002788 -0.004349 0.017227 0.000000 0.000000 0.000000
# 4 0.000000 0.000000 0.000000 0.020659 0.000000 0.000000
# 5 0.000000 0.000000 0.000000 0.000000 0.094983 0.000000
# 6 0.000000 0.000000 0.000000 0.000000 0.000000 0.025170
#
#
# Mechanical properties :
#
#
# Convention : Reuss Voigt Hill
#
# Bulk Modulus (GPa) = 45.02849 46.30183 45.66516
# Shear Modulus (GPa) = 24.82872 34.32063 29.57467
#
# Velocity S-wave (km/s) = 3.16120 3.71666 3.45013
# Velocity P-wave (km/s) = 5.60781 6.08719 5.85241
#
# Compressibility (1/GPa) = 0.02220816
#
# Stress axis : x y z
#
# Youngs Moduli (GPa) = 98.96862 96.57133 58.04923
#
# Poissons Ratio (x) = 0.05815 0.16182
# Poissons Ratio (y) = 0.05960 0.25246
# Poissons Ratio (z) = 0.27588 0.42000
#
# Static dielectric constant tensor:
#      x y z
#    x 4.561970 0.000000 0.000000 
#    y 0.000000 4.416860 0.000000 
#    z 0.000000 0.000000 4.791960 
# 
# 
# High freq. dielectric constant tensor:
#      x y z
#    x 2.004380 0.000000 0.000000 
#    y 0.000000 1.985410 0.000000 
#    z 0.000000 0.000000 2.007850 
# 
# From -- ./inp_files/6537.got.cif
#   From: 2010.03.12/outbox.cif.g09.slc.cpg/sg19_4_cif.got.tgz:6537.got - 2010.04.10 18:59:41.
