data_PCOD8157176
_publ_section_title
;
Structure prediction by ZEFSAII (Michael W. Deem and Ramdas Pophale) SiO2 
 PCOD8157176
Probable space group: P 21 21 21
;
_chemical_formula_sum "Si O2"
_cell_formula_units_Z 28
_cell_length_a 12.286432
_cell_length_b 8.740102
_cell_length_c 13.228824
_cell_angle_alpha 90.000000
_cell_angle_beta 90.000000
_cell_angle_gamma 90.000000
_cell_volume 1420.572885
_symmetry_space_group_name_H-M "P 21 21 21"
_symmetry_group_IT_number 19
_symmetry_cell_setting 'orthorhombic'
loop_
_space_group_symop_operation_xyz
x,y,z
1/2-x,-y,1/2+z
1/2+x,1/2-y,-z
-x,1/2+y,1/2-z
loop_
_atom_site_type_symbol
_atom_site_label
_atom_site_fract_x
_atom_site_fract_y
_atom_site_fract_z
Si Si1 0.547525 0.978871 0.873435
Si Si2 0.043432 0.135994 0.573764
Si Si3 0.773106 0.132745 0.894559
Si Si4 0.378410 0.584249 0.962295
Si Si5 0.316095 0.307700 0.321581
Si Si6 0.438522 0.136169 0.690588
Si Si7 0.720680 0.549543 0.319340
O O1 0.660213 0.046738 0.912260
O O2 0.490619 0.097443 0.798254
O O3 0.566824 0.818795 0.816345
O O4 0.470523 0.958179 0.970192
O O5 0.110964 0.288745 0.549674
O O6 0.927051 0.180701 0.618012
O O7 0.109203 0.036988 0.654717
O O8 0.820785 0.093602 0.782495
O O9 0.757467 0.316756 0.902851
O O10 0.854705 0.076261 0.982046
O O11 0.282258 0.630361 0.887547
O O12 0.489598 0.566323 0.900009
O O13 0.292847 0.129596 0.291046
O O14 0.318378 0.069571 0.680921
#
# Coordination Sequence:
#
# PCOD8157176 Si02
#       7
#     4   4   4   4   4   4   4
#     4  11  21  40  68  94 129 173 214 268 328 384
#     4  11  24  40  68  89 129 173 217 258 332 394
#     4  10  22  40  64  94 131 161 210 270 323 378
#     4  11  22  42  70  90 125 178 209 265 330 386
#     4  10  23  44  62  91 136 160 214 270 320 384
#     4  11  22  41  66  97 127 169 221 270 319 392
#     4  10  24  41  60  95 131 164 217 269 318 388
#
# _framework density 19.710356999999998
#
# number of rings (size 3 to 8) (size 9 to 14) (size 15 to 20)
#    0.857    0.571    2.857    3.429    4.000    2.286 
#    0.000    0.000    0.000    0.000    0.000    0.000 
#    0.000    0.000    0.000    0.000    0.000    0.000 
#
# Total GULP energy -347168.816767 kJ/mol
# GULP energy per Si atom -12398.886313 kJ/mol
# Density = 1.966550 g / cm^3
# Si number density = 19.710357 Si / 1000 Ang^3
#
#
#
# Elastic Constant Matrix: (Units=GPa)
#
#
# Indices 1 2 3 4 5 6 
#
# 1 82.3321 25.2841 21.3882 0.0000 0.0000 0.0000
# 2 25.2841 43.0228 10.5020 0.0000 0.0000 0.0000
# 3 21.3882 10.5020 62.0236 0.0000 0.0000 0.0000
# 4 0.0000 0.0000 0.0000 39.3506 0.0000 0.0000
# 5 0.0000 0.0000 0.0000 0.0000 23.0997 0.0000
# 6 0.0000 0.0000 0.0000 0.0000 0.0000 29.1367
#
#
#
# Elastic Compliance Matrix: (Units=1/GPa)
#
#
# Indices 1 2 3 4 5 6 
#
# 1 0.015728 -0.008261 -0.004025 0.000000 0.000000 0.000000
# 2 -0.008261 0.028584 -0.001991 0.000000 0.000000 0.000000
# 3 -0.004025 -0.001991 0.017848 0.000000 0.000000 0.000000
# 4 0.000000 0.000000 0.000000 0.025413 0.000000 0.000000
# 5 0.000000 0.000000 0.000000 0.000000 0.043291 0.000000
# 6 0.000000 0.000000 0.000000 0.000000 0.000000 0.034321
#
#
# Mechanical properties :
#
#
# Convention : Reuss Voigt Hill
#
# Bulk Modulus (GPa) = 29.75623 33.52524 31.64074
# Shear Modulus (GPa) = 24.39715 26.99767 25.69741
#
# Velocity S-wave (km/s) = 3.52203 3.70499 3.61467
# Velocity P-wave (km/s) = 5.62753 5.94546 5.78868
#
# Compressibility (1/GPa) = 0.03360641
#
# Stress axis : x y z
#
# Youngs Moduli (GPa) = 63.57888 34.98403 56.02852
#
# Poissons Ratio (x) = 0.28900 0.22552
# Poissons Ratio (y) = 0.52522 0.11157
# Poissons Ratio (z) = 0.25591 0.06966
#
# Static dielectric constant tensor:
#      x y z
#    x 3.574950 0.000000 0.000000 
#    y 0.000000 3.550780 0.000000 
#    z 0.000000 0.000000 3.599260 
# 
# 
# High freq. dielectric constant tensor:
#      x y z
#    x 1.774010 0.000000 0.000000 
#    y 0.000000 1.761750 0.000000 
#    z 0.000000 0.000000 1.766930 
# 
# From -- ./inp_files/6068.got.cif
#   From: 2010.03.12/outbox.cif.g09.slc.cpg/sg19_4_cif.got.tgz:6068.got - 2010.04.10 18:59:41.
