data_PCOD8157539
_publ_section_title
;
Structure prediction by ZEFSAII (Michael W. Deem and Ramdas Pophale) SiO2 
 PCOD8157539
Probable space group: P 21 21 21
;
_chemical_formula_sum "Si O2"
_cell_formula_units_Z 20
_cell_length_a 7.759195
_cell_length_b 9.791167
_cell_length_c 11.087476
_cell_angle_alpha 90.000000
_cell_angle_beta 90.000000
_cell_angle_gamma 90.000000
_cell_volume 842.333004
_symmetry_space_group_name_H-M "P 21 21 21"
_symmetry_group_IT_number 19
_symmetry_cell_setting 'orthorhombic'
loop_
_space_group_symop_operation_xyz
x,y,z
1/2-x,-y,1/2+z
1/2+x,1/2-y,-z
-x,1/2+y,1/2-z
loop_
_atom_site_type_symbol
_atom_site_label
_atom_site_fract_x
_atom_site_fract_y
_atom_site_fract_z
Si Si1 0.438839 0.673444 0.300821
Si Si2 0.061161 0.673443 0.199179
Si Si3 0.422255 0.000000 0.000000
Si Si4 0.589517 0.533064 0.871879
Si Si5 0.910483 0.533064 0.628121
O O1 0.250000 0.643984 0.250000
O O2 0.456545 0.612394 0.436590
O O3 0.572926 0.599652 0.211988
O O4 0.489580 0.832987 0.308378
O O5 0.927074 0.599652 0.288011
O O6 0.010420 0.832987 0.191622
O O7 0.043455 0.612394 0.063409
O O8 0.294106 0.934996 0.102743
O O9 0.294106 0.065004 0.897257
O O10 0.497123 0.500000 1.000000
#
# Coordination Sequence:
#
# PCOD8157539 Si02
#       5
#     4   4   4   4   4
#     4  12  26  45  75 109 138 195 240 293 352 429
#     4  12  26  45  75 109 138 195 240 293 352 429
#     4  10  26  46  74 100 154 186 232 300 358 412
#     4  10  28  46  73 104 149 190 233 298 358 419
#     4  10  28  46  73 104 149 190 233 298 358 419
#
# _framework density 23.743580000000001
#
# number of rings (size 3 to 8) (size 9 to 14) (size 15 to 20)
#    1.200    0.000    0.000    3.600   14.000    3.200 
#    0.000    0.000    0.000    0.000    0.000    0.000 
#    0.000    0.000    0.000    0.000    0.000    0.000 
#
# Total GULP energy -247867.528596 kJ/mol
# GULP energy per Si atom -12393.376430 kJ/mol
# Density = 2.368954 g / cm^3
# Si number density = 23.743580 Si / 1000 Ang^3
#
#
#
# Elastic Constant Matrix: (Units=GPa)
#
#
# Indices 1 2 3 4 5 6 
#
# 1 81.5007 40.3031 49.7615 0.0000 0.0000 0.0000
# 2 40.3031 190.0424 96.9780 0.0000 0.0000 0.0000
# 3 49.7615 96.9780 129.4319 0.0000 0.0000 0.0000
# 4 0.0000 0.0000 0.0000 56.5259 0.0000 0.0000
# 5 0.0000 0.0000 0.0000 0.0000 62.2110 0.0000
# 6 0.0000 0.0000 0.0000 0.0000 0.0000 19.0545
#
#
#
# Elastic Compliance Matrix: (Units=1/GPa)
#
#
# Indices 1 2 3 4 5 6 
#
# 1 0.016054 -0.000413 -0.005863 0.000000 0.000000 0.000000
# 2 -0.000413 0.008530 -0.006232 0.000000 0.000000 0.000000
# 3 -0.005863 -0.006232 0.014650 0.000000 0.000000 0.000000
# 4 0.000000 0.000000 0.000000 0.017691 0.000000 0.000000
# 5 0.000000 0.000000 0.000000 0.000000 0.016074 0.000000
# 6 0.000000 0.000000 0.000000 0.000000 0.000000 0.052481
#
#
# Mechanical properties :
#
#
# Convention : Reuss Voigt Hill
#
# Bulk Modulus (GPa) = 70.33637 86.11780 78.22709
# Shear Modulus (GPa) = 32.20940 41.82046 37.01493
#
# Velocity S-wave (km/s) = 3.68714 4.20138 3.95263
# Velocity P-wave (km/s) = 6.91479 7.73849 7.33820
#
# Compressibility (1/GPa) = 0.01421740
#
# Stress axis : x y z
#
# Youngs Moduli (GPa) = 62.29166 117.23469 68.26088
#
# Poissons Ratio (x) = 0.04840 0.40019
# Poissons Ratio (y) = 0.02572 0.42543
# Poissons Ratio (z) = 0.36519 0.73065
#
# Static dielectric constant tensor:
#      x y z
#    x 3.905710 0.000000 0.000000 
#    y 0.000000 4.009910 0.000000 
#    z 0.000000 0.000000 4.589830 
# 
# 
# High freq. dielectric constant tensor:
#      x y z
#    x 1.911060 0.000000 0.000000 
#    y 0.000000 1.928730 0.000000 
#    z 0.000000 0.000000 1.968440 
# 
# From -- ./inp_files/3315.got.cif
#   From: 2010.03.12/outbox.cif.g09.slc.cpg/sg19_2_cif.got.tgz:3315.got - 2010.04.10 18:59:41.
