data_PCOD8157080
_publ_section_title
;
Structure prediction by ZEFSAII (Michael W. Deem and Ramdas Pophale) SiO2 
 PCOD8157080
Probable space group: P 21 21 21
;
_chemical_formula_sum "Si O2"
_cell_formula_units_Z 20
_cell_length_a 18.176518
_cell_length_b 7.955335
_cell_length_c 6.480724
_cell_angle_alpha 90.000000
_cell_angle_beta 90.000000
_cell_angle_gamma 90.000000
_cell_volume 937.114569
_symmetry_space_group_name_H-M "P 21 21 21"
_symmetry_group_IT_number 19
_symmetry_cell_setting 'orthorhombic'
loop_
_space_group_symop_operation_xyz
x,y,z
1/2-x,-y,1/2+z
1/2+x,1/2-y,-z
-x,1/2+y,1/2-z
loop_
_atom_site_type_symbol
_atom_site_label
_atom_site_fract_x
_atom_site_fract_y
_atom_site_fract_z
Si Si1 0.585868 0.048229 0.140989
Si Si2 0.366019 0.305853 0.687013
Si Si3 0.302062 0.113280 0.302208
Si Si4 0.935983 0.272804 0.917794
Si Si5 0.231406 0.252085 0.927936
O O1 0.516485 0.170779 0.150057
O O2 0.657715 0.163226 0.153129
O O3 0.580943 0.913054 0.325411
O O4 0.591529 0.958387 0.919880
O O5 0.328155 0.186460 0.519522
O O6 0.299056 0.362229 0.836886
O O7 0.428591 0.223353 0.833135
O O8 0.376061 0.094363 0.165745
O O9 0.264099 0.934908 0.333834
O O10 0.243974 0.234167 0.176913
#
# Coordination Sequence:
#
# PCOD8157080 Si02
#       5
#     4   4   4   4   4
#     4  11  25  41  69  94 135 172 223 271 332 395
#     4  10  24  41  64  96 133 171 219 266 330 392
#     4  10  21  42  64  95 130 170 220 268 329 389
#     4  10  24  45  63  99 131 173 219 273 330 396
#     4  11  22  39  66  96 129 174 219 272 325 394
#
# _framework density 21.342108
#
# number of rings (size 3 to 8) (size 9 to 14) (size 15 to 20)
#    0.000    1.600    2.000    1.200    8.400    4.800 
#    0.000    0.000    0.000    0.000    0.000    0.000 
#    0.000    0.000    0.000    0.000    0.000    0.000 
#
# Total GULP energy -247812.614119 kJ/mol
# GULP energy per Si atom -12390.630706 kJ/mol
# Density = 2.129353 g / cm^3
# Si number density = 21.342108 Si / 1000 Ang^3
#
#
#
# Elastic Constant Matrix: (Units=GPa)
#
#
# Indices 1 2 3 4 5 6 
#
# 1 107.5871 31.0479 26.0975 0.0000 0.0000 0.0000
# 2 31.0479 67.6778 41.6112 0.0000 0.0000 0.0000
# 3 26.0975 41.6112 128.7985 0.0000 0.0000 0.0000
# 4 0.0000 0.0000 0.0000 30.1550 0.0000 0.0000
# 5 0.0000 0.0000 0.0000 0.0000 32.3943 0.0000
# 6 0.0000 0.0000 0.0000 0.0000 0.0000 41.1367
#
#
#
# Elastic Compliance Matrix: (Units=1/GPa)
#
#
# Indices 1 2 3 4 5 6 
#
# 1 0.010768 -0.004490 -0.000731 0.000000 0.000000 0.000000
# 2 -0.004490 0.020311 -0.005652 0.000000 0.000000 0.000000
# 3 -0.000731 -0.005652 0.009738 0.000000 0.000000 0.000000
# 4 0.000000 0.000000 0.000000 0.033162 0.000000 0.000000
# 5 0.000000 0.000000 0.000000 0.000000 0.030870 0.000000
# 6 0.000000 0.000000 0.000000 0.000000 0.000000 0.024309
#
#
# Mechanical properties :
#
#
# Convention : Reuss Voigt Hill
#
# Bulk Modulus (GPa) = 52.43817 55.73075 54.08446
# Shear Modulus (GPa) = 31.79407 34.42432 33.10919
#
# Velocity S-wave (km/s) = 3.86389 4.02054 3.94300
# Velocity P-wave (km/s) = 6.67307 6.90817 6.79164
#
# Compressibility (1/GPa) = 0.01907008
#
# Stress axis : x y z
#
# Youngs Moduli (GPa) = 92.86774 49.23429 102.68803
#
# Poissons Ratio (x) = 0.22108 0.07508
# Poissons Ratio (y) = 0.41701 0.58040
# Poissons Ratio (z) = 0.06790 0.27828
#
# Static dielectric constant tensor:
#      x y z
#    x 3.841030 0.000000 0.000000 
#    y 0.000000 3.726640 0.000000 
#    z 0.000000 0.000000 4.157000 
# 
# 
# High freq. dielectric constant tensor:
#      x y z
#    x 1.840420 0.000000 0.000000 
#    y 0.000000 1.815130 0.000000 
#    z 0.000000 0.000000 1.852300 
# 
# From -- ./inp_files/314.got.cif
#   From: 2010.03.12/outbox.cif.g09.slc.cpg/sg19_1_cif.got.tgz:314.got - 2010.04.10 18:59:41.
