data_PCOD8157301
_publ_section_title
;
Structure prediction by ZEFSAII (Michael W. Deem and Ramdas Pophale) SiO2 
 PCOD8157301
Probable space group: P 21 21 21
;
_chemical_formula_sum "Si O2"
_cell_formula_units_Z 32
_cell_length_a 8.559468
_cell_length_b 5.226932
_cell_length_c 31.042832
_cell_angle_alpha 90.000000
_cell_angle_beta 90.000000
_cell_angle_gamma 90.000000
_cell_volume 1388.848766
_symmetry_space_group_name_H-M "P 21 21 21"
_symmetry_group_IT_number 19
_symmetry_cell_setting 'orthorhombic'
loop_
_space_group_symop_operation_xyz
x,y,z
1/2-x,-y,1/2+z
1/2+x,1/2-y,-z
-x,1/2+y,1/2-z
loop_
_atom_site_type_symbol
_atom_site_label
_atom_site_fract_x
_atom_site_fract_y
_atom_site_fract_z
Si Si1 0.969708 0.866955 0.559941
Si Si2 0.427216 0.983165 0.232289
Si Si3 0.211034 0.482927 0.574218
Si Si4 0.914057 0.670550 0.366879
Si Si5 0.976132 0.165043 0.480192
Si Si6 0.603302 0.392168 0.363711
Si Si7 0.571396 0.355464 0.769154
Si Si8 0.880907 0.156711 0.056630
O O1 0.797793 0.751005 0.554140
O O2 0.110597 0.679318 0.544327
O O3 0.976298 0.132765 0.532244
O O4 0.001487 0.897318 0.611001
O O5 0.468980 0.740322 0.262227
O O6 0.459399 0.872226 0.184512
O O7 0.249938 0.067451 0.239924
O O8 0.335484 0.598539 0.607640
O O9 0.304119 0.289607 0.541522
O O10 0.083672 0.355253 0.606192
O O11 0.789634 0.441116 0.364010
O O12 0.960116 0.740068 0.317941
O O13 0.068576 0.594427 0.393915
O O14 0.093100 0.392181 0.469083
O O15 0.018019 0.882172 0.463293
O O16 0.532306 0.107872 0.740041
#
# Coordination Sequence:
#
# PCOD8157301 Si02
#       8
#     4   4   4   4   4   4   4   4
#     4  11  26  38  67 102 134 170 229 286 331 389
#     4  11  26  46  72 102 140 180 227 283 348 414
#     4  10  22  44  68  94 131 191 223 272 335 427
#     4   9  22  43  68  91 135 180 225 267 344 414
#     4  11  25  43  66  94 138 178 225 269 342 402
#     4  10  23  43  71  93 136 182 227 268 352 412
#     4  11  25  42  71 104 136 175 226 282 344 409
#     4  11  25  43  65  98 130 176 224 285 326 391
#
# _framework density 23.040664
#
# number of rings (size 3 to 8) (size 9 to 14) (size 15 to 20)
#    0.000    1.500    1.250    1.500   14.000    2.000 
#    0.000    0.000    0.000    0.000    0.000    0.000 
#    0.000    0.000    0.000    0.000    0.000    0.000 
#
# Total GULP energy -396532.868787 kJ/mol
# GULP energy per Si atom -12391.652150 kJ/mol
# Density = 2.298822 g / cm^3
# Si number density = 23.040664 Si / 1000 Ang^3
#
#
#
# Elastic Constant Matrix: (Units=GPa)
#
#
# Indices 1 2 3 4 5 6 
#
# 1 91.2233 15.8087 41.1459 0.0000 0.0000 0.0000
# 2 15.8087 95.0324 23.5955 0.0000 0.0000 0.0000
# 3 41.1459 23.5955 116.3162 0.0000 0.0000 0.0000
# 4 0.0000 0.0000 0.0000 29.8322 0.0000 0.0000
# 5 0.0000 0.0000 0.0000 0.0000 31.0284 0.0000
# 6 0.0000 0.0000 0.0000 0.0000 0.0000 20.4276
#
#
#
# Elastic Compliance Matrix: (Units=1/GPa)
#
#
# Indices 1 2 3 4 5 6 
#
# 1 0.013149 -0.001087 -0.004431 0.000000 0.000000 0.000000
# 2 -0.001087 0.011171 -0.001881 0.000000 0.000000 0.000000
# 3 -0.004431 -0.001881 0.010546 0.000000 0.000000 0.000000
# 4 0.000000 0.000000 0.000000 0.033521 0.000000 0.000000
# 5 0.000000 0.000000 0.000000 0.000000 0.032229 0.000000
# 6 0.000000 0.000000 0.000000 0.000000 0.000000 0.048953
#
#
# Mechanical properties :
#
#
# Convention : Reuss Voigt Hill
#
# Bulk Modulus (GPa) = 49.83292 51.51911 50.67601
# Shear Modulus (GPa) = 29.23005 31.05909 30.14457
#
# Velocity S-wave (km/s) = 3.56565 3.67551 3.62100
# Velocity P-wave (km/s) = 6.21506 6.35776 6.28682
#
# Compressibility (1/GPa) = 0.02006706
#
# Stress axis : x y z
#
# Youngs Moduli (GPa) = 76.05126 89.51970 94.82021
#
# Poissons Ratio (x) = 0.09733 0.42013
# Poissons Ratio (y) = 0.08269 0.17840
# Poissons Ratio (z) = 0.33697 0.16843
#
# Static dielectric constant tensor:
#      x y z
#    x 4.101620 0.000000 0.000000 
#    y 0.000000 3.991840 0.000000 
#    z 0.000000 0.000000 4.355210 
# 
# 
# High freq. dielectric constant tensor:
#      x y z
#    x 1.901790 0.000000 0.000000 
#    y 0.000000 1.904430 0.000000 
#    z 0.000000 0.000000 1.919520 
# 
# From -- ./inp_files/706.got.cif
#   From: 2010.03.12/outbox.cif.g09.slc.cpg/sg19_1_cif.got.tgz:706.got - 2010.04.10 18:59:41.
