data_PCOD8157020
_publ_section_title
;
Structure prediction by ZEFSAII (Michael W. Deem and Ramdas Pophale) SiO2 
 PCOD8157020
Probable space group: P 21 21 21
;
_chemical_formula_sum "Si O2"
_cell_formula_units_Z 32
_cell_length_a 8.902490
_cell_length_b 15.409340
_cell_length_c 11.195939
_cell_angle_alpha 90.000000
_cell_angle_beta 90.000000
_cell_angle_gamma 90.000000
_cell_volume 1535.875653
_symmetry_space_group_name_H-M "P 21 21 21"
_symmetry_group_IT_number 19
_symmetry_cell_setting 'orthorhombic'
loop_
_space_group_symop_operation_xyz
x,y,z
1/2-x,-y,1/2+z
1/2+x,1/2-y,-z
-x,1/2+y,1/2-z
loop_
_atom_site_type_symbol
_atom_site_label
_atom_site_fract_x
_atom_site_fract_y
_atom_site_fract_z
Si Si1 0.422385 0.119464 0.810928
Si Si2 0.971077 0.687019 0.324351
Si Si3 0.338423 0.464831 0.705424
Si Si4 0.537551 0.949926 0.227425
Si Si5 0.137404 0.088746 0.959981
Si Si6 0.749655 0.563622 0.907745
Si Si7 0.660191 0.851172 0.014656
Si Si8 0.869302 0.706806 0.078520
O O1 0.461161 0.217886 0.840656
O O2 0.334855 0.123869 0.686330
O O3 0.562861 0.053077 0.800282
O O4 0.308205 0.088620 0.913279
O O5 0.897022 0.668878 0.452707
O O6 0.844424 0.692899 0.220460
O O7 0.089364 0.611071 0.287024
O O8 0.172204 0.481108 0.758955
O O9 0.315025 0.435539 0.567780
O O10 0.487465 0.913056 0.356184
O O11 0.390259 0.986376 0.157303
O O12 0.599390 0.871633 0.146645
O O13 0.127555 0.003622 0.042703
O O14 0.803612 0.621972 0.016862
O O15 0.812322 0.798337 0.030757
O O16 0.546145 0.786826 0.947462
#
# Coordination Sequence:
#
# PCOD8157020 Si02
#       8
#     4   4   4   4   4   4   4   4
#     4  11  23  43  69  92 139 177 216 283 325 398
#     4  11  24  41  66  98 132 173 222 270 337 397
#     4  11  23  43  67  99 130 175 223 282 330 384
#     4  10  24  38  67  95 131 170 222 274 335 391
#     4  11  24  44  63  95 133 180 220 260 344 406
#     4  10  21  43  67  95 123 177 224 272 325 403
#     4  10  22  41  62  98 129 167 221 276 325 395
#     4  10  21  39  65  92 127 163 222 277 323 378
#
# _framework density 20.83502
#
# number of rings (size 3 to 8) (size 9 to 14) (size 15 to 20)
#    0.000    1.500    1.250    4.500    3.500    4.000 
#    2.250    0.000    0.000    0.000    0.000    0.000 
#    0.000    0.000    0.000    0.000    0.000    0.000 
#
# Total GULP energy -396625.820645 kJ/mol
# GULP energy per Si atom -12394.556895 kJ/mol
# Density = 2.078760 g / cm^3
# Si number density = 20.835020 Si / 1000 Ang^3
#
#
#
# Elastic Constant Matrix: (Units=GPa)
#
#
# Indices 1 2 3 4 5 6 
#
# 1 67.1178 29.4634 28.1965 0.0000 0.0000 0.0000
# 2 29.4634 97.5160 27.7833 0.0000 0.0000 0.0000
# 3 28.1965 27.7833 106.1954 0.0000 0.0000 0.0000
# 4 0.0000 0.0000 0.0000 29.2988 0.0000 0.0000
# 5 0.0000 0.0000 0.0000 0.0000 27.9588 0.0000
# 6 0.0000 0.0000 0.0000 0.0000 0.0000 39.9755
#
#
#
# Elastic Compliance Matrix: (Units=1/GPa)
#
#
# Indices 1 2 3 4 5 6 
#
# 1 0.018441 -0.004513 -0.003716 0.000000 0.000000 0.000000
# 2 -0.004513 0.012185 -0.001990 0.000000 0.000000 0.000000
# 3 -0.003716 -0.001990 0.010924 0.000000 0.000000 0.000000
# 4 0.000000 0.000000 0.000000 0.034131 0.000000 0.000000
# 5 0.000000 0.000000 0.000000 0.000000 0.035767 0.000000
# 6 0.000000 0.000000 0.000000 0.000000 0.000000 0.025015
#
#
# Mechanical properties :
#
#
# Convention : Reuss Voigt Hill
#
# Bulk Modulus (GPa) = 47.36370 49.07951 48.22161
# Shear Modulus (GPa) = 30.49923 31.80567 31.15245
#
# Velocity S-wave (km/s) = 3.83017 3.91135 3.87097
# Velocity P-wave (km/s) = 6.50710 6.63367 6.57069
#
# Compressibility (1/GPa) = 0.02111322
#
# Stress axis : x y z
#
# Youngs Moduli (GPa) = 54.22589 82.06665 91.54393
#
# Poissons Ratio (x) = 0.37039 0.34015
# Poissons Ratio (y) = 0.24473 0.18214
# Poissons Ratio (z) = 0.20149 0.16328
#
# Static dielectric constant tensor:
#      x y z
#    x 3.840090 0.000000 0.000000 
#    y 0.000000 3.548900 0.000000 
#    z 0.000000 0.000000 4.062010 
# 
# 
# High freq. dielectric constant tensor:
#      x y z
#    x 1.811430 0.000000 0.000000 
#    y 0.000000 1.802940 0.000000 
#    z 0.000000 0.000000 1.833660 
# 
# From -- ./inp_files/4712.got.cif
#   From: 2010.03.12/outbox.cif.g09.slc.cpg/sg19_3_cif.got.tgz:4712.got - 2010.04.10 18:59:41.
