data_PCOD8157441
_publ_section_title
;
Structure prediction by ZEFSAII (Michael W. Deem and Ramdas Pophale) SiO2 
 PCOD8157441
Probable space group: P 21 21 21
;
_chemical_formula_sum "Si O2"
_cell_formula_units_Z 28
_cell_length_a 8.517916
_cell_length_b 13.672076
_cell_length_c 10.845699
_cell_angle_alpha 90.000000
_cell_angle_beta 90.000000
_cell_angle_gamma 90.000000
_cell_volume 1263.064021
_symmetry_space_group_name_H-M "P 21 21 21"
_symmetry_group_IT_number 19
_symmetry_cell_setting 'orthorhombic'
loop_
_space_group_symop_operation_xyz
x,y,z
1/2-x,-y,1/2+z
1/2+x,1/2-y,-z
-x,1/2+y,1/2-z
loop_
_atom_site_type_symbol
_atom_site_label
_atom_site_fract_x
_atom_site_fract_y
_atom_site_fract_z
Si Si1 0.474109 0.064403 0.242688
Si Si2 0.646252 0.384662 0.377599
Si Si3 0.943347 0.156465 0.026811
Si Si4 0.040691 0.942943 0.018987
Si Si5 0.250195 0.224332 0.146049
Si Si6 0.440952 0.759751 0.894555
Si Si7 0.752679 0.203105 0.256286
O O1 0.398571 0.049999 0.377982
O O2 0.366705 0.133774 0.160155
O O3 0.650021 0.104687 0.260726
O O4 0.483177 0.961785 0.169138
O O5 0.815026 0.438975 0.384637
O O6 0.617764 0.342911 0.513478
O O7 0.643424 0.298280 0.275944
O O8 0.838639 0.211419 0.127170
O O9 0.120579 0.197288 0.041898
O O10 0.859697 0.185009 0.897864
O O11 0.938953 0.039705 0.047525
O O12 0.936596 0.845218 0.037092
O O13 0.170429 0.249852 0.276093
O O14 0.617182 0.794179 0.863985
#
# Coordination Sequence:
#
# PCOD8157441 Si02
#       7
#     4   4   4   4   4   4   4
#     4  12  24  40  73 103 137 187 234 287 363 424
#     4  11  23  45  74  99 143 192 233 295 360 435
#     4  11  25  46  67 104 143 181 241 300 359 422
#     4  11  24  43  70 104 138 181 241 286 358 435
#     4  11  24  45  72  98 144 189 230 302 359 418
#     4  10  23  48  73  98 146 188 238 298 357 429
#     4  10  25  45  67 108 141 182 243 294 352 429
#
# _framework density 22.168313999999999
#
# number of rings (size 3 to 8) (size 9 to 14) (size 15 to 20)
#    0.000    1.143    4.286    0.857    4.000    2.286 
#    0.000    2.857    0.000    0.000    0.000    0.000 
#    0.000    0.000    0.000    0.000    0.000    0.000 
#
# Total GULP energy -347208.297614 kJ/mol
# GULP energy per Si atom -12400.296343 kJ/mol
# Density = 2.211786 g / cm^3
# Si number density = 22.168314 Si / 1000 Ang^3
#
#
#
# Elastic Constant Matrix: (Units=GPa)
#
#
# Indices 1 2 3 4 5 6 
#
# 1 89.6360 55.8532 43.6372 0.0000 0.0000 0.0000
# 2 55.8532 150.6471 64.6062 0.0000 0.0000 0.0000
# 3 43.6372 64.6062 99.1367 0.0000 0.0000 0.0000
# 4 0.0000 0.0000 0.0000 36.1984 0.0000 0.0000
# 5 0.0000 0.0000 0.0000 0.0000 29.7957 0.0000
# 6 0.0000 0.0000 0.0000 0.0000 0.0000 37.7943
#
#
#
# Elastic Compliance Matrix: (Units=1/GPa)
#
#
# Indices 1 2 3 4 5 6 
#
# 1 0.015747 -0.003977 -0.004339 0.000000 0.000000 0.000000
# 2 -0.003977 0.010217 -0.004908 0.000000 0.000000 0.000000
# 3 -0.004339 -0.004908 0.015196 0.000000 0.000000 0.000000
# 4 0.000000 0.000000 0.000000 0.027625 0.000000 0.000000
# 5 0.000000 0.000000 0.000000 0.000000 0.033562 0.000000
# 6 0.000000 0.000000 0.000000 0.000000 0.000000 0.026459
#
#
# Mechanical properties :
#
#
# Convention : Reuss Voigt Hill
#
# Bulk Modulus (GPa) = 67.97713 74.17921 71.07817
# Shear Modulus (GPa) = 31.21889 32.44589 31.83239
#
# Velocity S-wave (km/s) = 3.75676 3.82987 3.79349
# Velocity P-wave (km/s) = 7.03906 7.28641 7.16380
#
# Compressibility (1/GPa) = 0.01471083
#
# Stress axis : x y z
#
# Youngs Moduli (GPa) = 63.50373 97.87211 65.80854
#
# Poissons Ratio (x) = 0.38927 0.28557
# Poissons Ratio (y) = 0.25257 0.32298
# Poissons Ratio (z) = 0.27557 0.48034
#
# Static dielectric constant tensor:
#      x y z
#    x 4.011620 0.000000 0.000000 
#    y 0.000000 3.949270 0.000000 
#    z 0.000000 0.000000 3.911150 
# 
# 
# High freq. dielectric constant tensor:
#      x y z
#    x 1.870150 0.000000 0.000000 
#    y 0.000000 1.870460 0.000000 
#    z 0.000000 0.000000 1.876550 
# 
# From -- ./inp_files/4654.got.cif
#   From: 2010.03.12/outbox.cif.g09.slc.cpg/sg19_3_cif.got.tgz:4654.got - 2010.04.10 18:59:41.
