data_PCOD8157676
_publ_section_title
;
Structure prediction by ZEFSAII (Michael W. Deem and Ramdas Pophale) SiO2 
 PCOD8157676
Probable space group: P 21 21 21
;
_chemical_formula_sum "Si O2"
_cell_formula_units_Z 32
_cell_length_a 10.917257
_cell_length_b 21.428882
_cell_length_c 5.969660
_cell_angle_alpha 90.000000
_cell_angle_beta 90.000000
_cell_angle_gamma 90.000000
_cell_volume 1396.569793
_symmetry_space_group_name_H-M "P 21 21 21"
_symmetry_group_IT_number 19
_symmetry_cell_setting 'orthorhombic'
loop_
_space_group_symop_operation_xyz
x,y,z
1/2-x,-y,1/2+z
1/2+x,1/2-y,-z
-x,1/2+y,1/2-z
loop_
_atom_site_type_symbol
_atom_site_label
_atom_site_fract_x
_atom_site_fract_y
_atom_site_fract_z
Si Si1 0.467406 0.653703 0.678587
Si Si2 0.239331 0.432241 0.308774
Si Si3 0.299237 0.976849 0.608892
Si Si4 0.698139 0.654270 0.410130
Si Si5 0.655363 0.242551 0.110088
Si Si6 0.923268 0.044526 0.052596
Si Si7 0.336027 0.346364 0.682702
Si Si8 0.557913 0.727950 0.063628
O O1 0.361785 0.602479 0.658454
O O2 0.570661 0.629146 0.508771
O O3 0.421919 0.723357 0.608956
O O4 0.527884 0.666130 0.918626
O O5 0.184317 0.500397 0.353670
O O6 0.253092 0.389609 0.525789
O O7 0.374296 0.438567 0.196582
O O8 0.275527 0.904924 0.667641
O O9 0.444047 0.988662 0.562294
O O10 0.238410 0.991701 0.355551
O O11 0.777022 0.691406 0.594246
O O12 0.670637 0.704671 0.216038
O O13 0.748172 0.184945 0.136082
O O14 0.565223 0.249021 0.316857
O O15 0.932868 0.108772 0.192684
O O16 0.402287 0.290287 0.558944
#
# Coordination Sequence:
#
# PCOD8157676 Si02
#       8
#     4   4   4   4   4   4   4   4
#     4  11  23  44  73 103 150 191 250 321 396 484
#     4  12  25  46  74 108 144 202 260 326 399 471
#     4  12  33  56  82 115 161 216 275 336 405 491
#     4  11  27  45  74 106 150 202 259 321 407 482
#     4  11  24  42  67 112 142 191 245 316 391 477
#     4  12  29  47  78 109 155 203 271 334 397 480
#     4  12  25  43  70 110 149 190 258 319 394 471
#     4  11  26  41  72 107 151 199 246 327 399 480
#
# _framework density 22.913283
#
# number of rings (size 3 to 8) (size 9 to 14) (size 15 to 20)
#    0.000    0.500    5.000    1.500    8.750    1.000 
#    0.000    0.000    0.000    0.000    0.000    0.000 
#    0.000    0.000    0.000    0.000    0.000    0.000 
#
# Total GULP energy -396468.603469 kJ/mol
# GULP energy per Si atom -12389.643858 kJ/mol
# Density = 2.286113 g / cm^3
# Si number density = 22.913283 Si / 1000 Ang^3
#
#
#
# Elastic Constant Matrix: (Units=GPa)
#
#
# Indices 1 2 3 4 5 6 
#
# 1 84.3595 18.6357 12.9893 0.0000 0.0000 0.0000
# 2 18.6357 104.5452 27.9440 0.0000 0.0000 0.0000
# 3 12.9893 27.9440 76.8760 0.0000 0.0000 0.0000
# 4 0.0000 0.0000 0.0000 39.0523 0.0000 0.0000
# 5 0.0000 0.0000 0.0000 0.0000 26.7231 0.0000
# 6 0.0000 0.0000 0.0000 0.0000 0.0000 38.4554
#
#
#
# Elastic Compliance Matrix: (Units=1/GPa)
#
#
# Indices 1 2 3 4 5 6 
#
# 1 0.012482 -0.001840 -0.001440 0.000000 0.000000 0.000000
# 2 -0.001840 0.010866 -0.003639 0.000000 0.000000 0.000000
# 3 -0.001440 -0.003639 0.014574 0.000000 0.000000 0.000000
# 4 0.000000 0.000000 0.000000 0.025607 0.000000 0.000000
# 5 0.000000 0.000000 0.000000 0.000000 0.037421 0.000000
# 6 0.000000 0.000000 0.000000 0.000000 0.000000 0.026004
#
#
# Mechanical properties :
#
#
# Convention : Reuss Voigt Hill
#
# Bulk Modulus (GPa) = 41.52133 42.76875 42.14504
# Shear Modulus (GPa) = 33.59767 34.59361 34.09564
#
# Velocity S-wave (km/s) = 3.83338 3.88978 3.86168
# Velocity P-wave (km/s) = 6.14439 6.23537 6.19005
#
# Compressibility (1/GPa) = 0.02408401
#
# Stress axis : x y z
#
# Youngs Moduli (GPa) = 80.11361 92.03144 68.61550
#
# Poissons Ratio (x) = 0.16934 0.09882
# Poissons Ratio (y) = 0.14741 0.24968
# Poissons Ratio (z) = 0.11538 0.33488
#
# Static dielectric constant tensor:
#      x y z
#    x 4.318520 0.000000 0.000000 
#    y 0.000000 4.055340 0.000000 
#    z 0.000000 0.000000 4.473600 
# 
# 
# High freq. dielectric constant tensor:
#      x y z
#    x 1.910650 0.000000 0.000000 
#    y 0.000000 1.909130 0.000000 
#    z 0.000000 0.000000 1.907870 
# 
# From -- ./inp_files/1225.got.cif
#   From: 2010.03.12/outbox.cif.g09.slc.cpg/sg19_1_cif.got.tgz:1225.got - 2010.04.10 18:59:41.
