data_PCOD8157424
_publ_section_title
;
Structure prediction by ZEFSAII (Michael W. Deem and Ramdas Pophale) SiO2 
 PCOD8157424
Probable space group: P 21 21 21
;
_chemical_formula_sum "Si O2"
_cell_formula_units_Z 28
_cell_length_a 9.263133
_cell_length_b 15.192685
_cell_length_c 8.730976
_cell_angle_alpha 90.000000
_cell_angle_beta 90.000000
_cell_angle_gamma 90.000000
_cell_volume 1228.726508
_symmetry_space_group_name_H-M "P 21 21 21"
_symmetry_group_IT_number 19
_symmetry_cell_setting 'orthorhombic'
loop_
_space_group_symop_operation_xyz
x,y,z
1/2-x,-y,1/2+z
1/2+x,1/2-y,-z
-x,1/2+y,1/2-z
loop_
_atom_site_type_symbol
_atom_site_label
_atom_site_fract_x
_atom_site_fract_y
_atom_site_fract_z
Si Si1 0.865908 0.642739 0.883734
Si Si2 0.331853 0.588201 0.748360
Si Si3 0.725215 0.790461 0.490958
Si Si4 0.090490 0.130177 0.960579
Si Si5 0.641126 0.159590 0.306620
Si Si6 0.068363 0.929986 0.013510
Si Si7 0.368332 0.441416 0.511453
O O1 0.889916 0.602748 0.715661
O O2 0.900822 0.745336 0.871656
O O3 0.713858 0.622759 0.961681
O O4 0.972477 0.595287 0.999489
O O5 0.273370 0.678682 0.677406
O O6 0.467182 0.608698 0.853573
O O7 0.373795 0.531324 0.602399
O O8 0.205818 0.540410 0.846141
O O9 0.553415 0.812235 0.503369
O O10 0.765521 0.686194 0.493597
O O11 0.819186 0.836756 0.626451
O O12 0.083957 0.035103 0.042771
O O13 0.506653 0.094029 0.348921
O O14 0.782536 0.132144 0.396876
#
# Coordination Sequence:
#
# PCOD8157424 Si02
#       7
#     4   4   4   4   4   4   4
#     4  11  25  43  67 103 142 176 236 291 354 412
#     4  11  24  41  71  97 135 188 230 294 347 435
#     4  11  24  46  72 102 140 191 242 290 361 417
#     4  11  26  46  69 106 144 187 238 297 351 429
#     4  10  23  45  72  96 139 182 236 290 348 432
#     4  11  26  47  69 109 143 182 243 292 357 421
#     4  11  22  42  68  97 131 182 235 282 356 414
#
# _framework density 22.787821999999998
#
# number of rings (size 3 to 8) (size 9 to 14) (size 15 to 20)
#    0.000    1.143    1.429    4.286    8.000    0.000 
#    7.714    0.000    0.000    0.000    0.000    0.000 
#    0.000    0.000    0.000    0.000    0.000    0.000 
#
# Total GULP energy -347079.576018 kJ/mol
# GULP energy per Si atom -12395.699144 kJ/mol
# Density = 2.273596 g / cm^3
# Si number density = 22.787822 Si / 1000 Ang^3
#
#
#
# Elastic Constant Matrix: (Units=GPa)
#
#
# Indices 1 2 3 4 5 6 
#
# 1 118.4854 10.6408 21.2954 0.0000 0.0000 0.0000
# 2 10.6408 68.7703 -0.1782 0.0000 0.0000 0.0000
# 3 21.2954 -0.1782 70.9405 0.0000 0.0000 0.0000
# 4 0.0000 0.0000 0.0000 -1.5889 0.0000 0.0000
# 5 0.0000 0.0000 0.0000 0.0000 25.4820 0.0000
# 6 0.0000 0.0000 0.0000 0.0000 0.0000 29.1360
#
#
#
# Elastic Compliance Matrix: (Units=1/GPa)
#
#
# Indices 1 2 3 4 5 6 
#
# 1 0.009056 -0.001408 -0.002722 0.000000 0.000000 0.000000
# 2 -0.001408 0.014760 0.000460 0.000000 0.000000 0.000000
# 3 -0.002722 0.000460 0.014915 0.000000 0.000000 0.000000
# 4 0.000000 0.000000 0.000000 -0.629355 0.000000 0.000000
# 5 0.000000 0.000000 0.000000 0.000000 0.039243 0.000000
# 6 0.000000 0.000000 0.000000 0.000000 0.000000 0.034322
#
#
# Mechanical properties :
#
#
# Convention : Reuss Voigt Hill
#
# Bulk Modulus (GPa) = 31.85753 35.74579 33.80166
# Shear Modulus (GPa) = -10.01492 25.70172 7.84340
#
# Velocity S-wave (km/s) = -2.09867 3.36202 1.85726
# Velocity P-wave (km/s) = 2.85270 5.54899 4.41187
#
# Compressibility (1/GPa) = 0.03138975
#
# Stress axis : x y z
#
# Youngs Moduli (GPa) = 110.42981 67.74958 67.04864
#
# Poissons Ratio (x) = 0.09541 0.18250
# Poissons Ratio (y) = 0.15551 -0.03083
# Poissons Ratio (z) = 0.30058 -0.03115
#
# Static dielectric constant tensor:
#      x y z
#    x 4.136740 0.000000 0.000000 
#    y 0.000000 4.041270 0.000000 
#    z 0.000000 0.000000 4.336080 
# 
# 
# High freq. dielectric constant tensor:
#      x y z
#    x 1.897130 0.000000 0.000000 
#    y 0.000000 1.898960 0.000000 
#    z 0.000000 0.000000 1.902710 
# 
# From -- ./inp_files/2932.got.cif
#   From: 2010.03.12/outbox.cif.g09.slc.cpg/sg19_2_cif.got.tgz:2932.got - 2010.04.10 18:59:41.
