data_PCOD8157652
_publ_section_title
;
Structure prediction by ZEFSAII (Michael W. Deem and Ramdas Pophale) SiO2 
 PCOD8157652
Probable space group: P 21 21 21
;
_chemical_formula_sum "Si O2"
_cell_formula_units_Z 20
_cell_length_a 9.965251
_cell_length_b 10.797980
_cell_length_c 7.020658
_cell_angle_alpha 90.000000
_cell_angle_beta 90.000000
_cell_angle_gamma 90.000000
_cell_volume 755.454962
_symmetry_space_group_name_H-M "P 21 21 21"
_symmetry_group_IT_number 19
_symmetry_cell_setting 'orthorhombic'
loop_
_space_group_symop_operation_xyz
x,y,z
1/2-x,-y,1/2+z
1/2+x,1/2-y,-z
-x,1/2+y,1/2-z
loop_
_atom_site_type_symbol
_atom_site_label
_atom_site_fract_x
_atom_site_fract_y
_atom_site_fract_z
Si Si1 0.472984 0.593107 0.086864
Si Si2 0.678268 0.868064 0.522691
Si Si3 0.671704 0.626094 0.764967
Si Si4 0.561291 0.471190 0.433789
Si Si5 0.214716 0.616144 0.889115
O O1 0.456444 0.446184 0.031568
O O2 0.594688 0.647511 0.963410
O O3 0.330335 0.664733 0.036182
O O4 0.515672 0.593222 0.309117
O O5 0.651629 0.750657 0.648777
O O6 0.773086 0.965179 0.636937
O O7 0.742508 0.825026 0.318905
O O8 0.608607 0.514407 0.641481
O O9 0.824504 0.597217 0.812725
O O10 0.439861 0.370185 0.461290
#
# Coordination Sequence:
#
# PCOD8157652 Si02
#       5
#     4   4   4   4   4
#     4   9  22  45  63  98 138 178 232 275 328 419
#     4   9  22  43  72  94 134 185 221 282 345 391
#     4  12  23  44  70  99 144 176 221 297 342 393
#     4  11  23  41  68 100 139 176 230 285 331 411
#     4   9  20  43  65  93 133 173 234 269 322 420
#
# _framework density 26.474112000000002
#
# number of rings (size 3 to 8) (size 9 to 14) (size 15 to 20)
#    1.200    0.800    2.000    1.200    0.000    6.400 
#    3.600    4.000    0.000    0.000    0.000    0.000 
#    0.000    0.000    0.000    0.000    0.000    0.000 
#
# Total GULP energy -247771.411735 kJ/mol
# GULP energy per Si atom -12388.570587 kJ/mol
# Density = 2.641386 g / cm^3
# Si number density = 26.474112 Si / 1000 Ang^3
#
#
#
# Elastic Constant Matrix: (Units=GPa)
#
#
# Indices 1 2 3 4 5 6 
#
# 1 168.9006 -9.5622 20.9179 0.0000 0.0000 0.0000
# 2 -9.5622 25.0107 12.6808 0.0000 0.0000 0.0000
# 3 20.9179 12.6808 88.5101 0.0000 0.0000 0.0000
# 4 0.0000 0.0000 0.0000 37.7442 0.0000 0.0000
# 5 0.0000 0.0000 0.0000 0.0000 29.0829 0.0000
# 6 0.0000 0.0000 0.0000 0.0000 0.0000 -25.4438
#
#
#
# Elastic Compliance Matrix: (Units=1/GPa)
#
#
# Indices 1 2 3 4 5 6 
#
# 1 0.006363 0.003445 -0.001997 0.000000 0.000000 0.000000
# 2 0.003445 0.044980 -0.007259 0.000000 0.000000 0.000000
# 3 -0.001997 -0.007259 0.012810 0.000000 0.000000 0.000000
# 4 0.000000 0.000000 0.000000 0.026494 0.000000 0.000000
# 5 0.000000 0.000000 0.000000 0.000000 0.034384 0.000000
# 6 0.000000 0.000000 0.000000 0.000000 0.000000 -0.039302
#
#
# Mechanical properties :
#
#
# Convention : Reuss Voigt Hill
#
# Bulk Modulus (GPa) = 19.03584 36.72160 27.87872
# Shear Modulus (GPa) = 43.53056 25.50232 34.51644
#
# Velocity S-wave (km/s) = 4.05936 3.10706 3.61471
# Velocity P-wave (km/s) = 5.40159 5.17423 5.28913
#
# Compressibility (1/GPa) = 0.05253249
#
# Stress axis : x y z
#
# Youngs Moduli (GPa) = 157.15643 22.23191 78.06306
#
# Poissons Ratio (x) = -0.07660 0.15593
# Poissons Ratio (y) = -0.54148 0.56663
# Poissons Ratio (z) = 0.31391 0.16137
#
# Static dielectric constant tensor:
#      x y z
#    x 4.850140 0.000000 0.000000 
#    y 0.000000 4.256850 0.000000 
#    z 0.000000 0.000000 4.998230 
# 
# 
# High freq. dielectric constant tensor:
#      x y z
#    x 2.064540 0.000000 0.000000 
#    y 0.000000 2.030810 0.000000 
#    z 0.000000 0.000000 2.074190 
# 
# From -- ./inp_files/2666.got.cif
#   From: 2010.03.12/outbox.cif.g09.slc.cpg/sg19_2_cif.got.tgz:2666.got - 2010.04.10 18:59:41.
