data_PCOD8157298
_publ_section_title
;
Structure prediction by ZEFSAII (Michael W. Deem and Ramdas Pophale) SiO2 
 PCOD8157298
Probable space group: P 21 21 21
;
_chemical_formula_sum "Si O2"
_cell_formula_units_Z 32
_cell_length_a 12.221224
_cell_length_b 8.690371
_cell_length_c 14.172364
_cell_angle_alpha 90.000000
_cell_angle_beta 90.000000
_cell_angle_gamma 90.000000
_cell_volume 1505.203847
_symmetry_space_group_name_H-M "P 21 21 21"
_symmetry_group_IT_number 19
_symmetry_cell_setting 'orthorhombic'
loop_
_space_group_symop_operation_xyz
x,y,z
1/2-x,-y,1/2+z
1/2+x,1/2-y,-z
-x,1/2+y,1/2-z
loop_
_atom_site_type_symbol
_atom_site_label
_atom_site_fract_x
_atom_site_fract_y
_atom_site_fract_z
Si Si1 0.050796 0.881941 0.212629
Si Si2 0.259492 0.626949 0.538022
Si Si3 0.255957 0.009212 0.318215
Si Si4 0.418782 0.798894 0.409096
Si Si5 0.442230 0.535328 0.978662
Si Si6 0.923254 0.045542 0.357383
Si Si7 0.875157 0.373651 0.852335
Si Si8 0.883794 0.618893 0.011198
O O1 0.155840 0.972798 0.249238
O O2 0.075469 0.702729 0.201529
O O3 0.012483 0.958105 0.115638
O O4 0.953868 0.903953 0.288315
O O5 0.367562 0.699201 0.492712
O O6 0.168982 0.564445 0.463917
O O7 0.302365 0.484485 0.601880
O O8 0.205319 0.750133 0.604825
O O9 0.316544 0.851317 0.345696
O O10 0.342436 0.106899 0.257046
O O11 0.215840 0.099501 0.412646
O O12 0.500446 0.687959 0.351809
O O13 0.482062 0.951724 0.444168
O O14 0.404856 0.703421 0.013714
O O15 0.008171 0.047080 0.443416
O O16 0.860247 0.529976 0.913654
#
# Coordination Sequence:
#
# PCOD8157298 Si02
#       8
#     4   4   4   4   4   4   4   4
#     4  10  24  41  68  98 131 175 223 281 322 401
#     4  11  23  42  68  96 131 179 221 272 339 399
#     4  11  25  43  69  98 134 176 225 272 344 395
#     4  11  24  45  66  95 134 179 218 273 338 409
#     4  10  25  41  68  99 133 176 223 279 327 397
#     4  10  23  39  65  99 132 166 231 275 328 394
#     4  11  24  43  68  92 136 178 218 279 337 401
#     4  10  22  44  66  99 129 175 227 277 325 400
#
# _framework density 21.259578000000001
#
# number of rings (size 3 to 8) (size 9 to 14) (size 15 to 20)
#    0.000    1.500    2.500    0.750   10.500    2.000 
#    4.500    0.000    0.000    0.000    0.000    0.000 
#    0.000    0.000    0.000    0.000    0.000    0.000 
#
# Total GULP energy -396768.114571 kJ/mol
# GULP energy per Si atom -12399.003580 kJ/mol
# Density = 2.121119 g / cm^3
# Si number density = 21.259578 Si / 1000 Ang^3
#
#
#
# Elastic Constant Matrix: (Units=GPa)
#
#
# Indices 1 2 3 4 5 6 
#
# 1 87.3982 33.3792 27.9133 0.0000 0.0000 0.0000
# 2 33.3792 104.2857 39.9291 0.0000 0.0000 0.0000
# 3 27.9133 39.9291 57.3870 0.0000 0.0000 0.0000
# 4 0.0000 0.0000 0.0000 35.4790 0.0000 0.0000
# 5 0.0000 0.0000 0.0000 0.0000 34.3980 0.0000
# 6 0.0000 0.0000 0.0000 0.0000 0.0000 34.3094
#
#
#
# Elastic Compliance Matrix: (Units=1/GPa)
#
#
# Indices 1 2 3 4 5 6 
#
# 1 0.014030 -0.002560 -0.005043 0.000000 0.000000 0.000000
# 2 -0.002560 0.013538 -0.008175 0.000000 0.000000 0.000000
# 3 -0.005043 -0.008175 0.025566 0.000000 0.000000 0.000000
# 4 0.000000 0.000000 0.000000 0.028186 0.000000 0.000000
# 5 0.000000 0.000000 0.000000 0.000000 0.029071 0.000000
# 6 0.000000 0.000000 0.000000 0.000000 0.000000 0.029147
#
#
# Mechanical properties :
#
#
# Convention : Reuss Voigt Hill
#
# Bulk Modulus (GPa) = 46.34028 50.16823 48.25426
# Shear Modulus (GPa) = 28.04461 30.69390 29.36925
#
# Velocity S-wave (km/s) = 3.63595 3.80382 3.72083
# Velocity P-wave (km/s) = 6.28264 6.55295 6.41922
#
# Compressibility (1/GPa) = 0.02157950
#
# Stress axis : x y z
#
# Youngs Moduli (GPa) = 71.27461 73.86465 39.11369
#
# Poissons Ratio (x) = 0.18907 0.19726
# Poissons Ratio (y) = 0.18244 0.31974
# Poissons Ratio (z) = 0.35946 0.60382
#
# Static dielectric constant tensor:
#      x y z
#    x 4.017210 0.000000 0.000000 
#    y 0.000000 3.878920 0.000000 
#    z 0.000000 0.000000 3.709480 
# 
# 
# High freq. dielectric constant tensor:
#      x y z
#    x 1.846170 0.000000 0.000000 
#    y 0.000000 1.836540 0.000000 
#    z 0.000000 0.000000 1.820240 
# 
# From -- ./inp_files/3969.got.cif
#   From: 2010.03.12/outbox.cif.g09.slc.cpg/sg19_2_cif.got.tgz:3969.got - 2010.04.10 18:59:41.
