data_PCOD8157899
_publ_section_title
;
Structure prediction by ZEFSAII (Michael W. Deem and Ramdas Pophale) SiO2 
 PCOD8157899
Probable space group: P 21 21 21
;
_chemical_formula_sum "Si O2"
_cell_formula_units_Z 24
_cell_length_a 6.442777
_cell_length_b 19.226152
_cell_length_c 8.455213
_cell_angle_alpha 90.000000
_cell_angle_beta 90.000000
_cell_angle_gamma 90.000000
_cell_volume 1047.345627
_symmetry_space_group_name_H-M "P 21 21 21"
_symmetry_group_IT_number 19
_symmetry_cell_setting 'orthorhombic'
loop_
_space_group_symop_operation_xyz
x,y,z
1/2-x,-y,1/2+z
1/2+x,1/2-y,-z
-x,1/2+y,1/2-z
loop_
_atom_site_type_symbol
_atom_site_label
_atom_site_fract_x
_atom_site_fract_y
_atom_site_fract_z
Si Si1 0.685010 0.135181 0.715597
Si Si2 0.068637 0.161460 0.915665
Si Si3 0.913380 0.244759 0.194322
Si Si4 0.987194 0.494749 0.144605
Si Si5 0.658335 0.568331 0.348278
Si Si6 0.213083 0.383435 0.652960
O O1 0.617299 0.215266 0.743209
O O2 0.519499 0.083062 0.792383
O O3 0.675445 0.119771 0.531667
O O4 0.907462 0.121763 0.800074
O O5 0.225843 0.200678 0.800275
O O6 0.183095 0.110195 0.038797
O O7 0.942643 0.218640 0.015750
O O8 0.866211 0.179775 0.306966
O O9 0.178632 0.543378 0.192222
O O10 0.775991 0.525758 0.214000
O O11 0.963374 0.488048 0.955193
O O12 0.496497 0.619869 0.258760
#
# Coordination Sequence:
#
# PCOD8157899 Si02
#       6
#     4   4   4   4   4   4
#     4  12  29  45  76 111 151 197 255 311 381 450
#     4  12  25  48  75 107 141 199 251 306 380 452
#     4  12  25  47  74 105 147 196 248 312 377 454
#     4  12  27  48  76 108 149 199 253 319 378 458
#     4  12  27  48  77 109 150 197 256 313 386 453
#     4  12  29  46  74 108 156 196 253 317 380 457
#
# _framework density 22.915071000000001
#
# number of rings (size 3 to 8) (size 9 to 14) (size 15 to 20)
#    0.000    0.000    5.000    4.000    9.333    1.333 
#    0.000    0.000    0.000    0.000    0.000    0.000 
#    0.000    0.000    0.000    0.000    0.000    0.000 
#
# Total GULP energy -297704.737614 kJ/mol
# GULP energy per Si atom -12404.364067 kJ/mol
# Density = 2.286292 g / cm^3
# Si number density = 22.915071 Si / 1000 Ang^3
#
#
#
# Elastic Constant Matrix: (Units=GPa)
#
#
# Indices 1 2 3 4 5 6 
#
# 1 103.4174 40.1086 49.8427 0.0000 0.0000 0.0000
# 2 40.1086 105.0561 31.2347 0.0000 0.0000 0.0000
# 3 49.8427 31.2347 134.4653 0.0000 0.0000 0.0000
# 4 0.0000 0.0000 0.0000 41.8417 0.0000 0.0000
# 5 0.0000 0.0000 0.0000 0.0000 41.7791 0.0000
# 6 0.0000 0.0000 0.0000 0.0000 0.0000 49.4034
#
#
#
# Elastic Compliance Matrix: (Units=1/GPa)
#
#
# Indices 1 2 3 4 5 6 
#
# 1 0.013052 -0.003807 -0.003953 0.000000 0.000000 0.000000
# 2 -0.003807 0.011336 -0.001222 0.000000 0.000000 0.000000
# 3 -0.003953 -0.001222 0.009186 0.000000 0.000000 0.000000
# 4 0.000000 0.000000 0.000000 0.023900 0.000000 0.000000
# 5 0.000000 0.000000 0.000000 0.000000 0.023935 0.000000
# 6 0.000000 0.000000 0.000000 0.000000 0.000000 0.020242
#
#
# Mechanical properties :
#
#
# Convention : Reuss Voigt Hill
#
# Bulk Modulus (GPa) = 64.07015 65.03453 64.55234
# Shear Modulus (GPa) = 40.05835 41.38835 40.72335
#
# Velocity S-wave (km/s) = 4.18559 4.25451 4.22019
# Velocity P-wave (km/s) = 7.16794 7.25098 7.20958
#
# Compressibility (1/GPa) = 0.01560789
#
# Stress axis : x y z
#
# Youngs Moduli (GPa) = 76.61898 88.21761 108.85993
#
# Poissons Ratio (x) = 0.33588 0.43037
# Poissons Ratio (y) = 0.29172 0.13301
# Poissons Ratio (z) = 0.30291 0.10779
#
# Static dielectric constant tensor:
#      x y z
#    x 4.264660 0.000000 0.000000 
#    y 0.000000 4.173550 0.000000 
#    z 0.000000 0.000000 4.059160 
# 
# 
# High freq. dielectric constant tensor:
#      x y z
#    x 1.912320 0.000000 0.000000 
#    y 0.000000 1.912630 0.000000 
#    z 0.000000 0.000000 1.907480 
# 
# From -- ./inp_files/409.got.cif
#   From: 2010.03.12/outbox.cif.g09.slc.cpg/sg19_1_cif.got.tgz:409.got - 2010.04.10 18:59:41.
