data_PCOD8157254
_publ_section_title
;
Structure prediction by ZEFSAII (Michael W. Deem and Ramdas Pophale) SiO2 
 PCOD8157254
Probable space group: P 21 21 21
;
_chemical_formula_sum "Si O2"
_cell_formula_units_Z 32
_cell_length_a 6.109190
_cell_length_b 26.972931
_cell_length_c 8.393537
_cell_angle_alpha 90.000000
_cell_angle_beta 90.000000
_cell_angle_gamma 90.000000
_cell_volume 1383.110196
_symmetry_space_group_name_H-M "P 21 21 21"
_symmetry_group_IT_number 19
_symmetry_cell_setting 'orthorhombic'
loop_
_space_group_symop_operation_xyz
x,y,z
1/2-x,-y,1/2+z
1/2+x,1/2-y,-z
-x,1/2+y,1/2-z
loop_
_atom_site_type_symbol
_atom_site_label
_atom_site_fract_x
_atom_site_fract_y
_atom_site_fract_z
Si Si1 0.643306 0.532957 0.074062
Si Si2 0.934285 0.613108 0.937680
Si Si3 0.127108 0.063580 0.105902
Si Si4 0.500170 0.746619 0.252425
Si Si5 0.042746 0.853145 0.581006
Si Si6 0.256803 0.659342 0.719988
Si Si7 0.742280 0.086806 0.301023
Si Si8 0.134511 0.793486 0.083985
O O1 0.748911 0.541057 0.244139
O O2 0.385267 0.546760 0.089537
O O3 0.663644 0.474985 0.036506
O O4 0.767667 0.566232 0.938381
O O5 0.102530 0.614498 0.787176
O O6 0.810329 0.664375 0.948530
O O7 0.072878 0.613701 0.098776
O O8 0.226761 0.117561 0.055662
O O9 0.867947 0.065121 0.145638
O O10 0.561875 0.705052 0.383035
O O11 0.603657 0.795312 0.333838
O O12 0.240026 0.756772 0.219628
O O13 0.605460 0.736090 0.079731
O O14 0.895625 0.862467 0.425565
O O15 0.934299 0.873717 0.741891
O O16 0.414159 0.680411 0.857841
#
# Coordination Sequence:
#
# PCOD8157254 Si02
#       8
#     4   4   4   4   4   4   4   4
#     4  10  22  42  68  99 131 177 224 276 340 414
#     4  10  22  42  67  96 132 170 231 277 330 405
#     4  10  24  44  68  98 136 178 223 286 346 408
#     4  11  23  40  65  92 129 176 229 279 335 412
#     4  11  26  43  63  97 141 176 222 283 353 405
#     4  11  25  41  64  98 130 183 222 282 346 405
#     4  10  22  42  69  96 131 176 219 284 340 400
#     4  11  22  40  64  94 124 176 230 273 330 401
#
# _framework density 23.136261000000001
#
# number of rings (size 3 to 8) (size 9 to 14) (size 15 to 20)
#    0.000    1.500    1.250    3.750    3.500   10.000 
#    0.000    1.250    0.000    0.000    0.000    0.000 
#    0.000    0.000    0.000    0.000    0.000    0.000 
#
# Total GULP energy -396667.825920 kJ/mol
# GULP energy per Si atom -12395.869560 kJ/mol
# Density = 2.308360 g / cm^3
# Si number density = 23.136261 Si / 1000 Ang^3
#
#
#
# Elastic Constant Matrix: (Units=GPa)
#
#
# Indices 1 2 3 4 5 6 
#
# 1 107.3198 26.6353 14.3239 0.0000 0.0000 0.0000
# 2 26.6353 77.1158 15.1310 0.0000 0.0000 0.0000
# 3 14.3239 15.1310 59.1064 0.0000 0.0000 0.0000
# 4 0.0000 0.0000 0.0000 38.6949 0.0000 0.0000
# 5 0.0000 0.0000 0.0000 0.0000 39.3384 0.0000
# 6 0.0000 0.0000 0.0000 0.0000 0.0000 20.3300
#
#
#
# Elastic Compliance Matrix: (Units=1/GPa)
#
#
# Indices 1 2 3 4 5 6 
#
# 1 0.010347 -0.003245 -0.001677 0.000000 0.000000 0.000000
# 2 -0.003245 0.014671 -0.002969 0.000000 0.000000 0.000000
# 3 -0.001677 -0.002969 0.018085 0.000000 0.000000 0.000000
# 4 0.000000 0.000000 0.000000 0.025843 0.000000 0.000000
# 5 0.000000 0.000000 0.000000 0.000000 0.025420 0.000000
# 6 0.000000 0.000000 0.000000 0.000000 0.000000 0.049188
#
#
# Mechanical properties :
#
#
# Convention : Reuss Voigt Hill
#
# Bulk Modulus (GPa) = 36.60174 39.52470 38.06322
# Shear Modulus (GPa) = 29.68345 32.16946 30.92645
#
# Velocity S-wave (km/s) = 3.58576 3.73290 3.66007
# Velocity P-wave (km/s) = 5.74439 5.97494 5.86080
#
# Compressibility (1/GPa) = 0.02732110
#
# Stress axis : x y z
#
# Youngs Moduli (GPa) = 96.64575 68.16236 55.29402
#
# Poissons Ratio (x) = 0.22117 0.09272
# Poissons Ratio (y) = 0.31360 0.16419
# Poissons Ratio (z) = 0.16206 0.20240
#
# Static dielectric constant tensor:
#      x y z
#    x 4.761360 0.000000 0.000000 
#    y 0.000000 4.139870 0.000000 
#    z 0.000000 0.000000 3.974550 
# 
# 
# High freq. dielectric constant tensor:
#      x y z
#    x 1.925570 0.000000 0.000000 
#    y 0.000000 1.903910 0.000000 
#    z 0.000000 0.000000 1.902590 
# 
# From -- ./inp_files/2498.got.cif
#   From: 2010.03.12/outbox.cif.g09.slc.cpg/sg19_2_cif.got.tgz:2498.got - 2010.04.10 18:59:41.
