data_PCOD8157540
_publ_section_title
;
Structure prediction by ZEFSAII (Michael W. Deem and Ramdas Pophale) SiO2 
 PCOD8157540
Probable space group: P 21 21 21
;
_chemical_formula_sum "Si O2"
_cell_formula_units_Z 32
_cell_length_a 26.359551
_cell_length_b 8.803703
_cell_length_c 4.927618
_cell_angle_alpha 90.000000
_cell_angle_beta 90.000000
_cell_angle_gamma 90.000000
_cell_volume 1143.511204
_symmetry_space_group_name_H-M "P 21 21 21"
_symmetry_group_IT_number 19
_symmetry_cell_setting 'orthorhombic'
loop_
_space_group_symop_operation_xyz
x,y,z
1/2-x,-y,1/2+z
1/2+x,1/2-y,-z
-x,1/2+y,1/2-z
loop_
_atom_site_type_symbol
_atom_site_label
_atom_site_fract_x
_atom_site_fract_y
_atom_site_fract_z
Si Si1 0.187202 0.904840 0.709097
Si Si2 0.434764 0.905071 0.090967
Si Si3 0.600331 0.589333 0.898987
Si Si4 0.446349 0.406930 0.469422
Si Si5 0.777526 0.952634 0.689114
Si Si6 0.136688 0.614401 0.596177
Si Si7 0.205350 0.190331 0.389604
Si Si8 0.112611 0.353242 0.267264
O O1 0.159622 0.777427 0.522426
O O2 0.176372 0.060134 0.556064
O O3 0.159206 0.901923 0.003547
O O4 0.247248 0.877176 0.727740
O O5 0.413505 0.735519 0.022828
O O6 0.427160 0.966266 0.397574
O O7 0.494048 0.900181 0.029236
O O8 0.406430 0.023987 0.898654
O O9 0.576878 0.759777 0.873227
O O10 0.423255 0.383155 0.168674
O O11 0.429909 0.579477 0.564872
O O12 0.776342 0.803337 0.873652
O O13 0.753670 0.925807 0.388673
O O14 0.832274 0.033663 0.652821
O O15 0.143802 0.503561 0.347270
O O16 0.161683 0.250676 0.171873
#
# Coordination Sequence:
#
# PCOD8157540 Si02
#       8
#     4   4   4   4   4   4   4   4
#     4  11  25  48  74 114 155 213 258 335 402 491
#     4  12  28  52  83 117 162 206 274 338 408 481
#     4  11  29  52  79 118 162 210 262 340 408 485
#     4  11  28  47  84 110 157 213 271 334 413 482
#     4  11  25  46  71 107 148 199 255 319 387 472
#     4  10  26  46  74 106 156 201 264 322 400 477
#     4  11  26  44  78 111 156 209 266 326 404 484
#     4  11  27  49  77 115 154 213 268 336 396 496
#
# _framework density 27.983984
#
# number of rings (size 3 to 8) (size 9 to 14) (size 15 to 20)
#    0.000    1.000    2.500    0.750   15.750    0.000 
#    0.000    0.000    0.000    0.000    0.000    0.000 
#    0.000    0.000    0.000    0.000    0.000    0.000 
#
# Total GULP energy -396418.183137 kJ/mol
# GULP energy per Si atom -12388.068223 kJ/mol
# Density = 2.792029 g / cm^3
# Si number density = 27.983984 Si / 1000 Ang^3
#
#
#
# Elastic Constant Matrix: (Units=GPa)
#
#
# Indices 1 2 3 4 5 6 
#
# 1 155.3140 16.4352 5.3170 0.0000 0.0000 0.0000
# 2 16.4352 112.2847 2.4231 0.0000 0.0000 0.0000
# 3 5.3170 2.4231 48.7953 0.0000 0.0000 0.0000
# 4 0.0000 0.0000 0.0000 33.3877 0.0000 0.0000
# 5 0.0000 0.0000 0.0000 0.0000 26.9320 0.0000
# 6 0.0000 0.0000 0.0000 0.0000 0.0000 32.6068
#
#
#
# Elastic Compliance Matrix: (Units=1/GPa)
#
#
# Indices 1 2 3 4 5 6 
#
# 1 0.006562 -0.000946 -0.000668 0.000000 0.000000 0.000000
# 2 -0.000946 0.009052 -0.000346 0.000000 0.000000 0.000000
# 3 -0.000668 -0.000346 0.020584 0.000000 0.000000 0.000000
# 4 0.000000 0.000000 0.000000 0.029951 0.000000 0.000000
# 5 0.000000 0.000000 0.000000 0.000000 0.037131 0.000000
# 6 0.000000 0.000000 0.000000 0.000000 0.000000 0.030668
#
#
# Mechanical properties :
#
#
# Convention : Reuss Voigt Hill
#
# Bulk Modulus (GPa) = 30.98246 40.52718 35.75482
# Shear Modulus (GPa) = 33.64128 38.06656 35.85392
#
# Velocity S-wave (km/s) = 3.47098 3.69222 3.58331
# Velocity P-wave (km/s) = 5.21144 5.71755 5.47035
#
# Compressibility (1/GPa) = 0.03227632
#
# Stress axis : x y z
#
# Youngs Moduli (GPa) = 152.40321 110.47438 48.58198
#
# Poissons Ratio (x) = 0.10451 0.03245
# Poissons Ratio (y) = 0.14417 0.01683
# Poissons Ratio (z) = 0.10181 0.03827
#
# Static dielectric constant tensor:
#      x y z
#    x 5.311060 0.000000 0.000000 
#    y 0.000000 5.901170 0.000000 
#    z 0.000000 0.000000 4.646290 
# 
# 
# High freq. dielectric constant tensor:
#      x y z
#    x 2.142320 0.000000 0.000000 
#    y 0.000000 2.163100 0.000000 
#    z 0.000000 0.000000 2.109270 
# 
# From -- ./inp_files/2316.got.cif
#   From: 2010.03.12/outbox.cif.g09.slc.cpg/sg19_2_cif.got.tgz:2316.got - 2010.04.10 18:59:41.
