data_PCOD8157986
_publ_section_title
;
Structure prediction by ZEFSAII (Michael W. Deem and Ramdas Pophale) SiO2 
 PCOD8157986
Probable space group: C 2 2 21
;
_chemical_formula_sum "Si O2"
_cell_formula_units_Z 40
_cell_length_a 5.229382
_cell_length_b 19.154111
_cell_length_c 19.844508
_cell_angle_alpha 90.000000
_cell_angle_beta 90.000000
_cell_angle_gamma 90.000000
_cell_volume 1987.708540
_symmetry_space_group_name_H-M "C 2 2 21"
_symmetry_group_IT_number 20
_symmetry_cell_setting 'orthorhombic'
loop_
_space_group_symop_operation_xyz
x,y,z
-x,-y,1/2+z
x,-y,-z
-x,y,1/2-z
1/2+x,1/2+y,z
1/2-x,1/2-y,1/2+z
1/2+x,1/2-y,-z
1/2-x,1/2+y,1/2-z
loop_
_atom_site_type_symbol
_atom_site_label
_atom_site_fract_x
_atom_site_fract_y
_atom_site_fract_z
Si Si1 0.464748 0.575926 0.467311
Si Si2 0.026832 0.587548 0.824304
Si Si3 0.534229 0.280935 0.466931
Si Si4 0.472792 0.323867 0.325541
Si Si5 0.035689 0.466004 0.927457
O O1 0.416756 0.500000 0.500000
O O2 0.507027 0.635631 0.522782
O O3 0.197635 0.589753 0.427856
O O4 0.699018 0.575457 0.413458
O O5 0.812690 0.646631 0.835405
O O6 0.973811 0.525078 0.874386
O O7 0.000000 0.555783 0.750000
O O8 0.311262 0.616999 0.834560
O O9 0.312643 0.241274 0.507168
O O10 0.513300 0.267700 0.386023
O O11 0.500000 0.290424 0.250000
O O12 0.091013 0.500000 0.000000
#
# Coordination Sequence:
#
# PCOD8157986 Si02
#       5
#     8   8   8   8   8
#     4  10  20  34  56  81 110 146 182 226 281 336
#     4  10  19  32  55  87 117 146 192 246 289 338
#     4  12  24  39  60  89 119 151 199 250 293 348
#     4  10  20  36  57  82 114 153 195 242 292 343
#     4  10  17  29  51  77 108 140 175 220 280 335
#
# _framework density 20.123674000000001
#
# number of rings (size 3 to 8) (size 9 to 14) (size 15 to 20)
#    0.000    1.600    0.000    8.400    0.000    0.000 
#    0.000    0.000    0.000    7.200    0.000    0.000 
#    0.000    0.000    0.000    0.000    0.000    0.000 
#
# Total GULP energy -247853.307595 kJ/mol
# GULP energy per Si atom -12392.665380 kJ/mol
# Density = 2.007787 g / cm^3
# Si number density = 20.123674 Si / 1000 Ang^3
#
#
#
# Elastic Constant Matrix: (Units=GPa)
#
#
# Indices 1 2 3 4 5 6 
#
# 1 134.0337 -3.4083 10.6956 0.0000 0.0000 0.0000
# 2 -3.4083 42.8346 16.3563 0.0000 0.0000 0.0000
# 3 10.6956 16.3563 131.6091 0.0000 0.0000 0.0000
# 4 0.0000 0.0000 0.0000 29.3657 0.0000 0.0000
# 5 0.0000 0.0000 0.0000 0.0000 -7.4382 0.0000
# 6 0.0000 0.0000 0.0000 0.0000 0.0000 26.5978
#
#
#
# Elastic Compliance Matrix: (Units=1/GPa)
#
#
# Indices 1 2 3 4 5 6 
#
# 1 0.007541 0.000876 -0.000722 0.000000 0.000000 0.000000
# 2 0.000876 0.024610 -0.003130 0.000000 0.000000 0.000000
# 3 -0.000722 -0.003130 0.008046 0.000000 0.000000 0.000000
# 4 0.000000 0.000000 0.000000 0.034053 0.000000 0.000000
# 5 0.000000 0.000000 0.000000 0.000000 -0.134441 0.000000
# 6 0.000000 0.000000 0.000000 0.000000 0.000000 0.037597
#
#
# Mechanical properties :
#
#
# Convention : Reuss Voigt Hill
#
# Bulk Modulus (GPa) = 29.20110 39.52941 34.36525
# Shear Modulus (GPa) = -956.48823 28.69400 -463.89711
#
# Velocity S-wave (km/s) = -21.82514 3.78018 -15.19946
# Velocity P-wave (km/s) = 24.91131 6.22406 17.05630
#
# Compressibility (1/GPa) = 0.03424529
#
# Stress axis : x y z
#
# Youngs Moduli (GPa) = 132.61446 40.63333 124.28753
#
# Poissons Ratio (x) = -0.03558 0.08969
# Poissons Ratio (y) = -0.11611 0.38898
# Poissons Ratio (z) = 0.09570 0.12717
#
# Static dielectric constant tensor:
#      x y z
#    x 4.610120 0.000000 0.000000 
#    y 0.000000 3.962760 0.000000 
#    z 0.000000 0.000000 3.742300 
# 
# 
# High freq. dielectric constant tensor:
#      x y z
#    x 1.830730 0.000000 0.000000 
#    y 0.000000 1.733950 0.000000 
#    z 0.000000 0.000000 1.770530 
# 
# From -- ./inp_files/22591.got.cif
#   From: 2010.03.12/outbox.cif.g09.slc.cpg/sg20_12_cif.got.tgz:22591.got - 2010.04.14 01:38:04.
