data_PCOD8157681
_publ_section_title
;
Structure prediction by ZEFSAII (Michael W. Deem and Ramdas Pophale) SiO2 
 PCOD8157681
Probable space group: P 21 21 21
;
_chemical_formula_sum "Si O2"
_cell_formula_units_Z 28
_cell_length_a 12.319503
_cell_length_b 8.845409
_cell_length_c 11.867569
_cell_angle_alpha 90.000000
_cell_angle_beta 90.000000
_cell_angle_gamma 90.000000
_cell_volume 1293.221368
_symmetry_space_group_name_H-M "P 21 21 21"
_symmetry_group_IT_number 19
_symmetry_cell_setting 'orthorhombic'
loop_
_space_group_symop_operation_xyz
x,y,z
1/2-x,-y,1/2+z
1/2+x,1/2-y,-z
-x,1/2+y,1/2-z
loop_
_atom_site_type_symbol
_atom_site_label
_atom_site_fract_x
_atom_site_fract_y
_atom_site_fract_z
Si Si1 0.451436 0.360234 0.372575
Si Si2 0.735538 0.072256 0.525443
Si Si3 0.748255 0.251380 0.093496
Si Si4 0.360855 0.045210 0.074043
Si Si5 0.801779 0.304106 0.339228
Si Si6 0.999152 0.404045 0.480070
Si Si7 0.995930 0.684532 0.629042
O O1 0.324709 0.401310 0.378236
O O2 0.528640 0.454559 0.460109
O O3 0.464418 0.185867 0.407374
O O4 0.494115 0.401379 0.248136
O O5 0.772754 0.154287 0.410736
O O6 0.619681 0.142344 0.562493
O O7 0.722045 0.890795 0.513263
O O8 0.813725 0.248450 0.211226
O O9 0.621146 0.238078 0.120633
O O10 0.785165 0.406444 0.031446
O O11 0.405280 0.195851 0.134307
O O12 0.289156 0.935462 0.153152
O O13 0.916070 0.375060 0.378667
O O14 0.004568 0.577215 0.520400
#
# Coordination Sequence:
#
# PCOD8157681 Si02
#       7
#     4   4   4   4   4   4   4
#     4  11  24  41  70 100 132 182 230 284 335 404
#     4  11  24  44  69 100 134 181 236 281 333 420
#     4  12  25  43  71 102 140 181 230 283 347 410
#     4  12  23  42  67 104 137 172 229 290 330 405
#     4  11  26  47  67 101 147 181 221 288 356 400
#     4  11  23  45  64  98 143 176 223 285 343 413
#     4  12  23  40  72 103 131 181 235 279 336 404
#
# _framework density 21.65136
#
# number of rings (size 3 to 8) (size 9 to 14) (size 15 to 20)
#    0.000    0.571    7.143    0.857    2.000    0.000 
#    5.143    1.429    0.000    0.000    0.000    0.000 
#    0.000    0.000    0.000    0.000    0.000    0.000 
#
# Total GULP energy -347056.805100 kJ/mol
# GULP energy per Si atom -12394.885896 kJ/mol
# Density = 2.160208 g / cm^3
# Si number density = 21.651360 Si / 1000 Ang^3
#
#
#
# Elastic Constant Matrix: (Units=GPa)
#
#
# Indices 1 2 3 4 5 6 
#
# 1 140.5879 21.1707 25.6871 0.0000 0.0000 0.0000
# 2 21.1707 98.7859 31.8667 0.0000 0.0000 0.0000
# 3 25.6871 31.8667 72.2485 0.0000 0.0000 0.0000
# 4 0.0000 0.0000 0.0000 24.4480 0.0000 0.0000
# 5 0.0000 0.0000 0.0000 0.0000 28.0022 0.0000
# 6 0.0000 0.0000 0.0000 0.0000 0.0000 40.7388
#
#
#
# Elastic Compliance Matrix: (Units=1/GPa)
#
#
# Indices 1 2 3 4 5 6 
#
# 1 0.007674 -0.000891 -0.002335 0.000000 0.000000 0.000000
# 2 -0.000891 0.011906 -0.004934 0.000000 0.000000 0.000000
# 3 -0.002335 -0.004934 0.016848 0.000000 0.000000 0.000000
# 4 0.000000 0.000000 0.000000 0.040903 0.000000 0.000000
# 5 0.000000 0.000000 0.000000 0.000000 0.035711 0.000000
# 6 0.000000 0.000000 0.000000 0.000000 0.000000 0.024547
#
#
# Mechanical properties :
#
#
# Convention : Reuss Voigt Hill
#
# Bulk Modulus (GPa) = 49.73744 52.11903 50.92823
# Shear Modulus (GPa) = 31.13090 34.16433 32.64762
#
# Velocity S-wave (km/s) = 3.79598 3.97663 3.88735
# Velocity P-wave (km/s) = 6.49881 6.72376 6.61224
#
# Compressibility (1/GPa) = 0.02010558
#
# Stress axis : x y z
#
# Youngs Moduli (GPa) = 130.31217 83.99378 59.35502
#
# Poissons Ratio (x) = 0.07486 0.13861
# Poissons Ratio (y) = 0.11614 0.29288
# Poissons Ratio (z) = 0.30431 0.41445
#
# Static dielectric constant tensor:
#      x y z
#    x 4.219150 0.000000 0.000000 
#    y 0.000000 4.003810 0.000000 
#    z 0.000000 0.000000 3.465160 
# 
# 
# High freq. dielectric constant tensor:
#      x y z
#    x 1.873540 0.000000 0.000000 
#    y 0.000000 1.861060 0.000000 
#    z 0.000000 0.000000 1.810170 
# 
# From -- ./inp_files/3420.got.cif
#   From: 2010.03.12/outbox.cif.g09.slc.cpg/sg19_2_cif.got.tgz:3420.got - 2010.04.10 18:59:41.
