data_PCOD8157759
_publ_section_title
;
Structure prediction by ZEFSAII (Michael W. Deem and Ramdas Pophale) SiO2 
 PCOD8157759
Probable space group: P 21 21 21
;
_chemical_formula_sum "Si O2"
_cell_formula_units_Z 24
_cell_length_a 8.702483
_cell_length_b 8.542513
_cell_length_c 14.063086
_cell_angle_alpha 90.000000
_cell_angle_beta 90.000000
_cell_angle_gamma 90.000000
_cell_volume 1045.464919
_symmetry_space_group_name_H-M "P 21 21 21"
_symmetry_group_IT_number 19
_symmetry_cell_setting 'orthorhombic'
loop_
_space_group_symop_operation_xyz
x,y,z
1/2-x,-y,1/2+z
1/2+x,1/2-y,-z
-x,1/2+y,1/2-z
loop_
_atom_site_type_symbol
_atom_site_label
_atom_site_fract_x
_atom_site_fract_y
_atom_site_fract_z
Si Si1 0.274565 0.682496 0.983495
Si Si2 0.350327 0.511747 0.166353
Si Si3 0.072898 0.463399 0.303115
Si Si4 0.541498 0.470869 0.487720
Si Si5 0.611645 0.701340 0.655301
Si Si6 0.458730 0.707366 0.327339
O O1 0.340594 0.646880 0.878677
O O2 0.092946 0.658304 0.992896
O O3 0.350027 0.561738 0.057180
O O4 0.304479 0.864792 0.010238
O O5 0.184314 0.506164 0.215329
O O6 0.454087 0.638657 0.221204
O O7 0.416052 0.339518 0.170576
O O8 0.026276 0.629611 0.350598
O O9 0.924151 0.376809 0.258656
O O10 0.541149 0.593605 0.573599
O O11 0.518943 0.565810 0.391633
O O12 0.793299 0.726310 0.639790
#
# Coordination Sequence:
#
# PCOD8157759 Si02
#       6
#     4   4   4   4   4   4
#     4  12  26  47  69 104 141 187 237 291 353 427
#     4  11  24  46  71 100 146 178 238 291 353 418
#     4  11  24  46  71 101 142 181 238 292 351 428
#     4  12  26  47  70 104 145 184 240 291 353 426
#     4  11  24  46  73 101 141 184 234 293 354 422
#     4  11  26  46  70 106 139 186 235 292 358 425
#
# _framework density 22.956294
#
# number of rings (size 3 to 8) (size 9 to 14) (size 15 to 20)
#    0.000    0.667    5.000    3.000    4.667    1.333 
#    3.000    0.000    0.000    0.000    0.000    0.000 
#    0.000    0.000    0.000    0.000    0.000    0.000 
#
# Total GULP energy -297650.540986 kJ/mol
# GULP energy per Si atom -12402.105874 kJ/mol
# Density = 2.290404 g / cm^3
# Si number density = 22.956294 Si / 1000 Ang^3
#
#
#
# Elastic Constant Matrix: (Units=GPa)
#
#
# Indices 1 2 3 4 5 6 
#
# 1 34.4452 38.9971 8.1282 0.0000 0.0000 0.0000
# 2 38.9971 106.4945 -0.3401 0.0000 0.0000 0.0000
# 3 8.1282 -0.3401 70.4374 0.0000 0.0000 0.0000
# 4 0.0000 0.0000 0.0000 42.0322 0.0000 0.0000
# 5 0.0000 0.0000 0.0000 0.0000 24.6701 0.0000
# 6 0.0000 0.0000 0.0000 0.0000 0.0000 49.7842
#
#
#
# Elastic Compliance Matrix: (Units=1/GPa)
#
#
# Indices 1 2 3 4 5 6 
#
# 1 0.052089 -0.019094 -0.006103 0.000000 0.000000 0.000000
# 2 -0.019094 0.016389 0.002282 0.000000 0.000000 0.000000
# 3 -0.006103 0.002282 0.014912 0.000000 0.000000 0.000000
# 4 0.000000 0.000000 0.000000 0.023791 0.000000 0.000000
# 5 0.000000 0.000000 0.000000 0.000000 0.040535 0.000000
# 6 0.000000 0.000000 0.000000 0.000000 0.000000 0.020087
#
#
# Mechanical properties :
#
#
# Convention : Reuss Voigt Hill
#
# Bulk Modulus (GPa) = 26.62286 33.88307 30.25297
# Shear Modulus (GPa) = 22.10897 34.27010 28.18953
#
# Velocity S-wave (km/s) = 3.10674 3.86792 3.50804
# Velocity P-wave (km/s) = 4.94888 5.89403 5.44202
#
# Compressibility (1/GPa) = 0.03756171
#
# Stress axis : x y z
#
# Youngs Moduli (GPa) = 19.19801 61.01514 67.05881
#
# Poissons Ratio (x) = 1.16501 0.40926
# Poissons Ratio (y) = 0.36656 -0.15306
# Poissons Ratio (z) = 0.11717 -0.13927
#
# Static dielectric constant tensor:
#      x y z
#    x 4.052760 0.000000 0.000000 
#    y 0.000000 4.333070 0.000000 
#    z 0.000000 0.000000 4.291710 
# 
# 
# High freq. dielectric constant tensor:
#      x y z
#    x 1.890430 0.000000 0.000000 
#    y 0.000000 1.923400 0.000000 
#    z 0.000000 0.000000 1.914770 
# 
# From -- ./inp_files/3837.got.cif
#   From: 2010.03.12/outbox.cif.g09.slc.cpg/sg19_2_cif.got.tgz:3837.got - 2010.04.10 18:59:41.
