data_PCOD8157533
_publ_section_title
;
Structure prediction by ZEFSAII (Michael W. Deem and Ramdas Pophale) SiO2 
 PCOD8157533
Probable space group: P 21 21 21
;
_chemical_formula_sum "Si O2"
_cell_formula_units_Z 20
_cell_length_a 4.897562
_cell_length_b 26.663054
_cell_length_c 5.889778
_cell_angle_alpha 90.000000
_cell_angle_beta 90.000000
_cell_angle_gamma 90.000000
_cell_volume 769.110535
_symmetry_space_group_name_H-M "P 21 21 21"
_symmetry_group_IT_number 19
_symmetry_cell_setting 'orthorhombic'
loop_
_space_group_symop_operation_xyz
x,y,z
1/2-x,-y,1/2+z
1/2+x,1/2-y,-z
-x,1/2+y,1/2-z
loop_
_atom_site_type_symbol
_atom_site_label
_atom_site_fract_x
_atom_site_fract_y
_atom_site_fract_z
Si Si1 0.977067 0.549657 0.163287
Si Si2 0.788412 0.624034 0.530826
Si Si3 0.381751 0.194998 0.337914
Si Si4 0.534799 0.055202 0.638098
Si Si5 0.885842 0.190727 0.641783
O O1 0.956234 0.583308 0.386817
O O2 0.097298 0.495080 0.221241
O O3 0.677409 0.543075 0.061218
O O4 0.182689 0.574353 0.977800
O O5 0.589151 0.659693 0.381703
O O6 0.579063 0.598564 0.703064
O O7 0.028011 0.654798 0.654233
O O8 0.582894 0.179998 0.545730
O O9 0.419584 0.252520 0.264200
O O10 0.078708 0.183644 0.424769
#
# Coordination Sequence:
#
# PCOD8157533 Si02
#       5
#     4   4   4   4   4
#     4  12  28  52  78 112 154 205 259 317 383 459
#     4  12  28  50  82 116 156 206 256 314 392 446
#     4  10  25  50  77 113 158 202 256 314 376 457
#     4  12  28  52  78 112 154 205 259 317 383 459
#     4  10  25  50  77 113 158 202 256 314 376 457
#
# _framework density 26.004068
#
# number of rings (size 3 to 8) (size 9 to 14) (size 15 to 20)
#    0.000    0.800    2.000    2.400    0.000   16.000 
#    0.000    4.000    0.000    0.000    0.000    0.000 
#    0.000    0.000    0.000    0.000    0.000    0.000 
#
# Total GULP energy -248184.973716 kJ/mol
# GULP energy per Si atom -12409.248686 kJ/mol
# Density = 2.594488 g / cm^3
# Si number density = 26.004068 Si / 1000 Ang^3
#
#
#
# Elastic Constant Matrix: (Units=GPa)
#
#
# Indices 1 2 3 4 5 6 
#
# 1 102.5889 30.7894 17.5144 0.0000 0.0000 0.0000
# 2 30.7894 123.4998 62.2809 0.0000 0.0000 0.0000
# 3 17.5144 62.2809 95.8805 0.0000 0.0000 0.0000
# 4 0.0000 0.0000 0.0000 51.4978 0.0000 0.0000
# 5 0.0000 0.0000 0.0000 0.0000 53.7766 0.0000
# 6 0.0000 0.0000 0.0000 0.0000 0.0000 37.3419
#
#
#
# Elastic Compliance Matrix: (Units=1/GPa)
#
#
# Indices 1 2 3 4 5 6 
#
# 1 0.010543 -0.002465 -0.000325 0.000000 0.000000 0.000000
# 2 -0.002465 0.012618 -0.007746 0.000000 0.000000 0.000000
# 3 -0.000325 -0.007746 0.015521 0.000000 0.000000 0.000000
# 4 0.000000 0.000000 0.000000 0.019418 0.000000 0.000000
# 5 0.000000 0.000000 0.000000 0.000000 0.018595 0.000000
# 6 0.000000 0.000000 0.000000 0.000000 0.000000 0.026780
#
#
# Mechanical properties :
#
#
# Convention : Reuss Voigt Hill
#
# Bulk Modulus (GPa) = 56.78498 60.34874 58.56686
# Shear Modulus (GPa) = 38.33897 42.61555 40.47726
#
# Velocity S-wave (km/s) = 3.84389 4.05261 3.94962
# Velocity P-wave (km/s) = 6.44864 6.71982 6.58563
#
# Compressibility (1/GPa) = 0.01761029
#
# Stress axis : x y z
#
# Youngs Moduli (GPa) = 94.85156 79.25255 64.43069
#
# Poissons Ratio (x) = 0.19532 0.02094
# Poissons Ratio (y) = 0.23376 0.49908
# Poissons Ratio (z) = 0.03082 0.61389
#
# Static dielectric constant tensor:
#      x y z
#    x 4.583230 0.000000 0.000000 
#    y 0.000000 4.972600 0.000000 
#    z 0.000000 0.000000 4.630160 
# 
# 
# High freq. dielectric constant tensor:
#      x y z
#    x 2.045340 0.000000 0.000000 
#    y 0.000000 2.063320 0.000000 
#    z 0.000000 0.000000 2.042360 
# 
# From -- ./inp_files/165.got.cif
#   From: 2010.03.12/outbox.cif.g09.slc.cpg/sg19_1_cif.got.tgz:165.got - 2010.04.10 18:59:41.
