data_PCOD8157686
_publ_section_title
;
Structure prediction by ZEFSAII (Michael W. Deem and Ramdas Pophale) SiO2 
 PCOD8157686
Probable space group: P 21 21 21
;
_chemical_formula_sum "Si O2"
_cell_formula_units_Z 32
_cell_length_a 9.106484
_cell_length_b 18.024362
_cell_length_c 8.556200
_cell_angle_alpha 90.000000
_cell_angle_beta 90.000000
_cell_angle_gamma 90.000000
_cell_volume 1404.402383
_symmetry_space_group_name_H-M "P 21 21 21"
_symmetry_group_IT_number 19
_symmetry_cell_setting 'orthorhombic'
loop_
_space_group_symop_operation_xyz
x,y,z
1/2-x,-y,1/2+z
1/2+x,1/2-y,-z
-x,1/2+y,1/2-z
loop_
_atom_site_type_symbol
_atom_site_label
_atom_site_fract_x
_atom_site_fract_y
_atom_site_fract_z
Si Si1 0.171751 0.054473 0.988576
Si Si2 0.374425 0.789615 0.047788
Si Si3 0.127920 0.063261 0.356829
Si Si4 0.614527 0.038323 0.998322
Si Si5 0.397134 0.709402 0.566613
Si Si6 0.807219 0.193387 0.659717
Si Si7 0.784384 0.304318 0.147479
Si Si8 0.884120 0.041910 0.800736
O O1 0.289840 0.117722 0.945289
O O2 0.031063 0.071260 0.881418
O O3 0.232394 0.973500 0.943548
O O4 0.140349 0.060510 0.170942
O O5 0.533559 0.771663 0.122054
O O6 0.255787 0.819385 0.172802
O O7 0.388781 0.852352 0.913894
O O8 0.308435 0.713192 0.977639
O O9 0.986145 0.016253 0.399543
O O10 0.582782 0.122991 0.962151
O O11 0.778737 0.019053 0.942177
O O12 0.591410 0.027184 0.184227
O O13 0.263361 0.728695 0.684181
O O14 0.556639 0.736189 0.631199
O O15 0.349874 0.752420 0.411288
O O16 0.819795 0.105240 0.684888
#
# Coordination Sequence:
#
# PCOD8157686 Si02
#       8
#     4   4   4   4   4   4   4   4
#     4  12  25  45  74 103 146 188 242 302 372 438
#     4  12  25  47  74 101 149 189 246 305 368 443
#     4  12  25  46  74 106 139 195 245 304 371 442
#     4  11  23  45  69 103 141 183 240 297 365 431
#     4  11  26  43  73 101 144 192 246 295 371 437
#     4  11  24  47  68 105 144 188 242 300 370 442
#     4  12  24  45  70 103 144 194 240 307 361 446
#     4  11  24  46  70 104 143 187 237 304 362 443
#
# _framework density 22.785494
#
# number of rings (size 3 to 8) (size 9 to 14) (size 15 to 20)
#    0.000    0.500    3.750    4.500    1.750    1.000 
#    4.500    0.000    0.000    0.000    0.000    0.000 
#    0.000    0.000    0.000    0.000    0.000    0.000 
#
# Total GULP energy -396814.219098 kJ/mol
# GULP energy per Si atom -12400.444347 kJ/mol
# Density = 2.273363 g / cm^3
# Si number density = 22.785494 Si / 1000 Ang^3
#
#
#
# Elastic Constant Matrix: (Units=GPa)
#
#
# Indices 1 2 3 4 5 6 
#
# 1 132.1334 44.7030 53.9207 0.0000 0.0000 0.0000
# 2 44.7030 65.8639 29.9678 0.0000 0.0000 0.0000
# 3 53.9207 29.9678 126.9583 0.0000 0.0000 0.0000
# 4 0.0000 0.0000 0.0000 25.8029 0.0000 0.0000
# 5 0.0000 0.0000 0.0000 0.0000 43.9625 0.0000
# 6 0.0000 0.0000 0.0000 0.0000 0.0000 30.1608
#
#
#
# Elastic Compliance Matrix: (Units=1/GPa)
#
#
# Indices 1 2 3 4 5 6 
#
# 1 0.010888 -0.005922 -0.003227 0.000000 0.000000 0.000000
# 2 -0.005922 0.020231 -0.002260 0.000000 0.000000 0.000000
# 3 -0.003227 -0.002260 0.009780 0.000000 0.000000 0.000000
# 4 0.000000 0.000000 0.000000 0.038755 0.000000 0.000000
# 5 0.000000 0.000000 0.000000 0.000000 0.022747 0.000000
# 6 0.000000 0.000000 0.000000 0.000000 0.000000 0.033156
#
#
# Mechanical properties :
#
#
# Convention : Reuss Voigt Hill
#
# Bulk Modulus (GPa) = 55.30396 64.68207 59.99301
# Shear Modulus (GPa) = 30.41333 33.07619 31.74476
#
# Velocity S-wave (km/s) = 3.65741 3.81416 3.73661
# Velocity P-wave (km/s) = 6.49306 6.91709 6.70843
#
# Compressibility (1/GPa) = 0.01808189
#
# Stress axis : x y z
#
# Youngs Moduli (GPa) = 91.84165 49.43019 102.24483
#
# Poissons Ratio (x) = 0.29273 0.32990
# Poissons Ratio (y) = 0.54389 0.23109
# Poissons Ratio (z) = 0.29633 0.11172
#
# Static dielectric constant tensor:
#      x y z
#    x 4.261950 0.000000 0.000000 
#    y 0.000000 3.918050 0.000000 
#    z 0.000000 0.000000 4.157640 
# 
# 
# High freq. dielectric constant tensor:
#      x y z
#    x 1.912780 0.000000 0.000000 
#    y 0.000000 1.886820 0.000000 
#    z 0.000000 0.000000 1.906730 
# 
# From -- ./inp_files/3178.got.cif
#   From: 2010.03.12/outbox.cif.g09.slc.cpg/sg19_2_cif.got.tgz:3178.got - 2010.04.10 18:59:41.
