data_PCOD8157450
_publ_section_title
;
Structure prediction by ZEFSAII (Michael W. Deem and Ramdas Pophale) SiO2 
 PCOD8157450
Probable space group: P 21 21 21
;
_chemical_formula_sum "Si O2"
_cell_formula_units_Z 24
_cell_length_a 5.014036
_cell_length_b 13.100016
_cell_length_c 15.791746
_cell_angle_alpha 90.000000
_cell_angle_beta 90.000000
_cell_angle_gamma 90.000000
_cell_volume 1037.264283
_symmetry_space_group_name_H-M "P 21 21 21"
_symmetry_group_IT_number 19
_symmetry_cell_setting 'orthorhombic'
loop_
_space_group_symop_operation_xyz
x,y,z
1/2-x,-y,1/2+z
1/2+x,1/2-y,-z
-x,1/2+y,1/2-z
loop_
_atom_site_type_symbol
_atom_site_label
_atom_site_fract_x
_atom_site_fract_y
_atom_site_fract_z
Si Si1 0.266525 0.081419 0.856702
Si Si2 0.740860 0.837630 0.269184
Si Si3 0.217183 0.477429 0.848285
Si Si4 0.589398 0.629406 0.205628
Si Si5 0.304193 0.983123 0.542596
Si Si6 0.473561 0.691020 0.023943
O O1 0.549650 0.134601 0.842346
O O2 0.050972 0.149066 0.808279
O O3 0.276414 0.967184 0.817205
O O4 0.204932 0.081055 0.956228
O O5 0.781361 0.910651 0.188583
O O6 0.775374 0.720748 0.239770
O O7 0.485144 0.432221 0.891972
O O8 0.133033 0.400625 0.774097
O O9 0.988214 0.486285 0.918497
O O10 0.430340 0.665124 0.122399
O O11 0.409207 0.096670 0.527524
O O12 0.683706 0.783200 0.013463
#
# Coordination Sequence:
#
# PCOD8157450 Si02
#       6
#     4   4   4   4   4   4
#     4  10  24  41  63  92 127 167 211 264 320 377
#     4  11  22  41  64  93 126 165 212 266 320 379
#     4  11  23  40  65  93 126 169 213 262 317 381
#     4  10  24  41  66  96 129 167 213 263 320 379
#     4  11  22  41  61  89 129 168 211 263 316 378
#     4  11  23  38  63  97 129 164 210 268 327 376
#
# _framework density 23.137785999999998
#
# number of rings (size 3 to 8) (size 9 to 14) (size 15 to 20)
#    0.000    1.333    0.000    6.000    0.000   13.333 
#    0.000    3.333    0.000    0.000    0.000    0.000 
#    0.000    0.000    0.000    0.000    0.000    0.000 
#
# Total GULP energy -297741.039902 kJ/mol
# GULP energy per Si atom -12405.876663 kJ/mol
# Density = 2.308512 g / cm^3
# Si number density = 23.137786 Si / 1000 Ang^3
#
#
#
# Elastic Constant Matrix: (Units=GPa)
#
#
# Indices 1 2 3 4 5 6 
#
# 1 85.2426 21.2753 17.1807 0.0000 0.0000 0.0000
# 2 21.2753 85.1087 31.6340 0.0000 0.0000 0.0000
# 3 17.1807 31.6340 101.5068 0.0000 0.0000 0.0000
# 4 0.0000 0.0000 0.0000 27.1171 0.0000 0.0000
# 5 0.0000 0.0000 0.0000 0.0000 45.8662 0.0000
# 6 0.0000 0.0000 0.0000 0.0000 0.0000 21.3507
#
#
#
# Elastic Compliance Matrix: (Units=1/GPa)
#
#
# Indices 1 2 3 4 5 6 
#
# 1 0.012664 -0.002679 -0.001308 0.000000 0.000000 0.000000
# 2 -0.002679 0.013856 -0.003865 0.000000 0.000000 0.000000
# 3 -0.001308 -0.003865 0.011277 0.000000 0.000000 0.000000
# 4 0.000000 0.000000 0.000000 0.036877 0.000000 0.000000
# 5 0.000000 0.000000 0.000000 0.000000 0.021803 0.000000
# 6 0.000000 0.000000 0.000000 0.000000 0.000000 0.046837
#
#
# Mechanical properties :
#
#
# Convention : Reuss Voigt Hill
#
# Bulk Modulus (GPa) = 45.26473 45.78202 45.52337
# Shear Modulus (GPa) = 30.05130 32.31801 31.18466
#
# Velocity S-wave (km/s) = 3.60779 3.74138 3.67520
# Velocity P-wave (km/s) = 6.07951 6.20432 6.14223
#
# Compressibility (1/GPa) = 0.02209225
#
# Stress axis : x y z
#
# Youngs Moduli (GPa) = 78.96613 72.17146 88.67291
#
# Poissons Ratio (x) = 0.19337 0.11602
# Poissons Ratio (y) = 0.21158 0.34269
# Poissons Ratio (z) = 0.10332 0.27892
#
# Static dielectric constant tensor:
#      x y z
#    x 4.062320 0.000000 0.000000 
#    y 0.000000 4.077500 0.000000 
#    z 0.000000 0.000000 4.327000 
# 
# 
# High freq. dielectric constant tensor:
#      x y z
#    x 1.913330 0.000000 0.000000 
#    y 0.000000 1.899540 0.000000 
#    z 0.000000 0.000000 1.931060 
# 
# From -- ./inp_files/4444.got.cif
#   From: 2010.03.12/outbox.cif.g09.slc.cpg/sg19_3_cif.got.tgz:4444.got - 2010.04.10 18:59:41.
