data_PCOD8157137
_publ_section_title
;
Structure prediction by ZEFSAII (Michael W. Deem and Ramdas Pophale) SiO2 
 PCOD8157137
Probable space group: P 21 21 21
;
_chemical_formula_sum "Si O2"
_cell_formula_units_Z 28
_cell_length_a 8.810128
_cell_length_b 13.884071
_cell_length_c 8.606614
_cell_angle_alpha 90.000000
_cell_angle_beta 90.000000
_cell_angle_gamma 90.000000
_cell_volume 1052.764834
_symmetry_space_group_name_H-M "P 21 21 21"
_symmetry_group_IT_number 19
_symmetry_cell_setting 'orthorhombic'
loop_
_space_group_symop_operation_xyz
x,y,z
1/2-x,-y,1/2+z
1/2+x,1/2-y,-z
-x,1/2+y,1/2-z
loop_
_atom_site_type_symbol
_atom_site_label
_atom_site_fract_x
_atom_site_fract_y
_atom_site_fract_z
Si Si1 0.815753 0.061342 0.812358
Si Si2 0.072170 0.092977 0.026316
Si Si3 0.755621 0.567885 0.139208
Si Si4 0.877465 0.780827 0.644407
Si Si5 0.452607 0.039000 0.082087
Si Si6 0.136273 0.729768 0.880376
Si Si7 0.389606 0.383213 0.687420
O O1 0.758780 0.157848 0.724104
O O2 0.682110 0.987673 0.852439
O O3 0.894378 0.092826 0.973668
O O4 0.943882 0.018197 0.700336
O O5 0.052263 0.103182 0.216592
O O6 0.136140 0.993972 0.959541
O O7 0.158549 0.185733 0.956345
O O8 0.710677 0.558925 0.326413
O O9 0.736088 0.676892 0.080716
O O10 0.919110 0.523313 0.074979
O O11 0.719168 0.820908 0.703711
O O12 0.964510 0.860700 0.537879
O O13 0.982345 0.758455 0.792091
O O14 0.079693 0.677833 0.035028
#
# Coordination Sequence:
#
# PCOD8157137 Si02
#       7
#     4   4   4   4   4   4   4
#     4   9  20  41  61  88 127 165 206 260 326 386
#     4  10  22  39  62  91 125 164 212 266 318 386
#     4  10  22  38  60  94 125 165 212 268 313 391
#     4   9  22  42  60  90 131 167 212 265 326 387
#     4   9  20  38  61  86 126 168 206 261 323 375
#     4  10  22  38  64  96 123 173 211 261 328 381
#     4  11  22  40  66  91 123 172 211 267 320 390
#
# _framework density 26.596634000000002
#
# number of rings (size 3 to 8) (size 9 to 14) (size 15 to 20)
#    0.000    2.286    0.000    1.714    8.000    1.143 
#    2.571    2.857    0.000    0.000    0.000    0.000 
#    0.000    0.000    0.000    0.000    0.000    0.000 
#
# Total GULP energy -347297.099020 kJ/mol
# GULP energy per Si atom -12403.467822 kJ/mol
# Density = 2.653610 g / cm^3
# Si number density = 26.596634 Si / 1000 Ang^3
#
#
#
# Elastic Constant Matrix: (Units=GPa)
#
#
# Indices 1 2 3 4 5 6 
#
# 1 85.5315 40.5636 26.2868 0.0000 0.0000 0.0000
# 2 40.5636 205.7078 67.9788 0.0000 0.0000 0.0000
# 3 26.2868 67.9788 128.1694 0.0000 0.0000 0.0000
# 4 0.0000 0.0000 0.0000 50.7084 0.0000 0.0000
# 5 0.0000 0.0000 0.0000 0.0000 24.2972 0.0000
# 6 0.0000 0.0000 0.0000 0.0000 0.0000 29.8002
#
#
#
# Elastic Compliance Matrix: (Units=1/GPa)
#
#
# Indices 1 2 3 4 5 6 
#
# 1 0.013164 -0.002066 -0.001604 0.000000 0.000000 0.000000
# 2 -0.002066 0.006219 -0.002875 0.000000 0.000000 0.000000
# 3 -0.001604 -0.002875 0.009656 0.000000 0.000000 0.000000
# 4 0.000000 0.000000 0.000000 0.019721 0.000000 0.000000
# 5 0.000000 0.000000 0.000000 0.000000 0.041157 0.000000
# 6 0.000000 0.000000 0.000000 0.000000 0.000000 0.033557
#
#
# Mechanical properties :
#
#
# Convention : Reuss Voigt Hill
#
# Bulk Modulus (GPa) = 62.69766 76.56303 69.63035
# Shear Modulus (GPa) = 35.24135 39.93312 37.58723
#
# Velocity S-wave (km/s) = 3.64405 3.87904 3.76338
# Velocity P-wave (km/s) = 6.42885 6.99370 6.71722
#
# Compressibility (1/GPa) = 0.01594956
#
# Stress axis : x y z
#
# Youngs Moduli (GPa) = 75.96279 160.80968 103.56453
#
# Poissons Ratio (x) = 0.33219 0.16615
# Poissons Ratio (y) = 0.15692 0.29770
# Poissons Ratio (z) = 0.12187 0.46225
#
# Static dielectric constant tensor:
#      x y z
#    x 5.111280 0.000000 0.000000 
#    y 0.000000 5.271770 0.000000 
#    z 0.000000 0.000000 5.181990 
# 
# 
# High freq. dielectric constant tensor:
#      x y z
#    x 2.095740 0.000000 0.000000 
#    y 0.000000 2.080810 0.000000 
#    z 0.000000 0.000000 2.093570 
# 
# From -- ./inp_files/3514.got.cif
#   From: 2010.03.12/outbox.cif.g09.slc.cpg/sg19_2_cif.got.tgz:3514.got - 2010.04.10 18:59:41.
