data_PCOD8157220
_publ_section_title
;
Structure prediction by ZEFSAII (Michael W. Deem and Ramdas Pophale) SiO2 
 PCOD8157220
Probable space group: P 21 21 21
;
_chemical_formula_sum "Si O2"
_cell_formula_units_Z 28
_cell_length_a 9.675708
_cell_length_b 10.598783
_cell_length_c 12.625174
_cell_angle_alpha 90.000000
_cell_angle_beta 90.000000
_cell_angle_gamma 90.000000
_cell_volume 1294.720803
_symmetry_space_group_name_H-M "P 21 21 21"
_symmetry_group_IT_number 19
_symmetry_cell_setting 'orthorhombic'
loop_
_space_group_symop_operation_xyz
x,y,z
1/2-x,-y,1/2+z
1/2+x,1/2-y,-z
-x,1/2+y,1/2-z
loop_
_atom_site_type_symbol
_atom_site_label
_atom_site_fract_x
_atom_site_fract_y
_atom_site_fract_z
Si Si1 0.437362 0.493573 0.690311
Si Si2 0.750112 0.534511 0.163251
Si Si3 0.245978 0.726044 0.715482
Si Si4 0.047240 0.152038 0.732671
Si Si5 0.198586 0.861392 0.510601
Si Si6 0.247848 0.661196 0.329981
Si Si7 0.559439 0.990127 0.048588
O O1 0.600670 0.514690 0.704455
O O2 0.364038 0.622631 0.724952
O O3 0.386201 0.379157 0.763642
O O4 0.398572 0.452328 0.570222
O O5 0.743671 0.685775 0.178829
O O6 0.627273 0.473471 0.230657
O O7 0.735531 0.490826 0.039697
O O8 0.281340 0.813591 0.613216
O O9 0.095436 0.662637 0.700877
O O10 0.140164 0.275864 0.750389
O O11 0.011067 0.129346 0.608458
O O12 0.199974 0.757178 0.419358
O O13 0.041235 0.888353 0.543276
O O14 0.309181 0.534881 0.383365
#
# Coordination Sequence:
#
# PCOD8157220 Si02
#       7
#     4   4   4   4   4   4   4
#     4  11  26  42  68 101 139 170 228 279 343 389
#     4  10  25  41  65 103 132 172 224 283 326 399
#     4  12  22  43  73  96 135 179 223 283 332 405
#     4  11  22  42  71  94 132 178 225 275 332 400
#     4  10  22  41  69  94 130 177 223 272 338 398
#     4  11  22  40  69  98 130 176 225 273 335 405
#     4  11  21  43  63  98 130 172 222 273 328 410
#
# _framework density 21.626283000000001
#
# number of rings (size 3 to 8) (size 9 to 14) (size 15 to 20)
#    0.000    1.143    5.714    0.000    6.000    0.000 
#    5.143    0.000    0.000    0.000    0.000    0.000 
#    0.000    0.000    0.000    0.000    0.000    0.000 
#
# Total GULP energy -347136.686548 kJ/mol
# GULP energy per Si atom -12397.738805 kJ/mol
# Density = 2.157706 g / cm^3
# Si number density = 21.626283 Si / 1000 Ang^3
#
#
#
# Elastic Constant Matrix: (Units=GPa)
#
#
# Indices 1 2 3 4 5 6 
#
# 1 92.4536 31.2435 13.0631 0.0000 0.0000 0.0000
# 2 31.2435 65.5628 42.4900 0.0000 0.0000 0.0000
# 3 13.0631 42.4900 98.9255 0.0000 0.0000 0.0000
# 4 0.0000 0.0000 0.0000 43.5130 0.0000 0.0000
# 5 0.0000 0.0000 0.0000 0.0000 32.1222 0.0000
# 6 0.0000 0.0000 0.0000 0.0000 0.0000 35.0164
#
#
#
# Elastic Compliance Matrix: (Units=1/GPa)
#
#
# Indices 1 2 3 4 5 6 
#
# 1 0.013014 -0.007050 0.001310 0.000000 0.000000 0.000000
# 2 -0.007050 0.024956 -0.009788 0.000000 0.000000 0.000000
# 3 0.001310 -0.009788 0.014140 0.000000 0.000000 0.000000
# 4 0.000000 0.000000 0.000000 0.022982 0.000000 0.000000
# 5 0.000000 0.000000 0.000000 0.000000 0.031131 0.000000
# 6 0.000000 0.000000 0.000000 0.000000 0.000000 0.028558
#
#
# Mechanical properties :
#
#
# Convention : Reuss Voigt Hill
#
# Bulk Modulus (GPa) = 47.50104 47.83721 47.66913
# Shear Modulus (GPa) = 28.92607 33.47335 31.19971
#
# Velocity S-wave (km/s) = 3.66121 3.93849 3.80238
# Velocity P-wave (km/s) = 6.31544 6.54601 6.43176
#
# Compressibility (1/GPa) = 0.02105217
#
# Stress axis : x y z
#
# Youngs Moduli (GPa) = 76.84161 40.07093 70.72291
#
# Poissons Ratio (x) = 0.28252 -0.09264
# Poissons Ratio (y) = 0.54177 0.69223
# Poissons Ratio (z) = -0.10065 0.39221
#
# Static dielectric constant tensor:
#      x y z
#    x 3.884190 0.000000 0.000000 
#    y 0.000000 3.844340 0.000000 
#    z 0.000000 0.000000 4.013720 
# 
# 
# High freq. dielectric constant tensor:
#      x y z
#    x 1.847710 0.000000 0.000000 
#    y 0.000000 1.840930 0.000000 
#    z 0.000000 0.000000 1.842450 
# 
# From -- ./inp_files/4578.got.cif
#   From: 2010.03.12/outbox.cif.g09.slc.cpg/sg19_3_cif.got.tgz:4578.got - 2010.04.10 18:59:41.
