data_PCOD8157524
_publ_section_title
;
Structure prediction by ZEFSAII (Michael W. Deem and Ramdas Pophale) SiO2 
 PCOD8157524
Probable space group: P 21 21 21
;
_chemical_formula_sum "Si O2"
_cell_formula_units_Z 32
_cell_length_a 8.780455
_cell_length_b 30.273944
_cell_length_c 5.311461
_cell_angle_alpha 90.000000
_cell_angle_beta 90.000000
_cell_angle_gamma 90.000000
_cell_volume 1411.887267
_symmetry_space_group_name_H-M "P 21 21 21"
_symmetry_group_IT_number 19
_symmetry_cell_setting 'orthorhombic'
loop_
_space_group_symop_operation_xyz
x,y,z
1/2-x,-y,1/2+z
1/2+x,1/2-y,-z
-x,1/2+y,1/2-z
loop_
_atom_site_type_symbol
_atom_site_label
_atom_site_fract_x
_atom_site_fract_y
_atom_site_fract_z
Si Si1 0.172122 0.879786 0.132494
Si Si2 0.699480 0.336060 0.873798
Si Si3 0.856242 0.256443 0.707162
Si Si4 0.321038 0.019135 0.537720
Si Si5 0.681469 0.119364 0.623365
Si Si6 0.829319 0.793580 0.836227
Si Si7 0.376946 0.328614 0.037503
Si Si8 0.677626 0.019728 0.522880
O O1 0.262570 0.862171 0.372444
O O2 0.215247 0.930560 0.100774
O O3 0.994213 0.875296 0.203237
O O4 0.221974 0.855701 0.875796
O O5 0.514922 0.339641 0.847712
O O6 0.753420 0.284959 0.904330
O O7 0.991051 0.289988 0.636479
O O8 0.749184 0.247992 0.468785
O O9 0.937476 0.209576 0.773344
O O10 0.499540 0.009422 0.506822
O O11 0.241997 0.009272 0.270523
O O12 0.724813 0.158466 0.435660
O O13 0.710028 0.071981 0.498393
O O14 0.801100 0.126529 0.854012
O O15 0.764583 0.797584 0.556242
O O16 0.761681 0.996390 0.292328
#
# Coordination Sequence:
#
# PCOD8157524 Si02
#       8
#     4   4   4   4   4   4   4   4
#     4  11  26  46  70 100 136 186 227 285 352 425
#     4  12  26  43  69 101 140 179 236 289 347 413
#     4  11  24  40  68  93 140 187 239 288 353 414
#     4  11  24  47  73 104 140 182 232 287 361 428
#     4  10  25  45  69  99 138 186 231 287 356 423
#     4  11  23  43  66  96 138 184 236 291 350 423
#     4  11  26  40  66 101 138 183 238 294 350 413
#     4  11  26  46  75 106 142 185 235 293 359 431
#
# _framework density 22.6647
#
# number of rings (size 3 to 8) (size 9 to 14) (size 15 to 20)
#    0.000    1.000    1.250    3.750    8.750    7.000 
#    0.000    0.000    0.000    0.000    0.000    0.000 
#    0.000    0.000    0.000    0.000    0.000    0.000 
#
# Total GULP energy -396547.682984 kJ/mol
# GULP energy per Si atom -12392.115093 kJ/mol
# Density = 2.261311 g / cm^3
# Si number density = 22.664700 Si / 1000 Ang^3
#
#
#
# Elastic Constant Matrix: (Units=GPa)
#
#
# Indices 1 2 3 4 5 6 
#
# 1 113.7950 39.6848 23.2973 0.0000 0.0000 0.0000
# 2 39.6848 93.4443 11.8246 0.0000 0.0000 0.0000
# 3 23.2973 11.8246 80.9809 0.0000 0.0000 0.0000
# 4 0.0000 0.0000 0.0000 33.9352 0.0000 0.0000
# 5 0.0000 0.0000 0.0000 0.0000 37.8662 0.0000
# 6 0.0000 0.0000 0.0000 0.0000 0.0000 34.2268
#
#
#
# Elastic Compliance Matrix: (Units=1/GPa)
#
#
# Indices 1 2 3 4 5 6 
#
# 1 0.010783 -0.004266 -0.002479 0.000000 0.000000 0.000000
# 2 -0.004266 0.012590 -0.000611 0.000000 0.000000 0.000000
# 3 -0.002479 -0.000611 0.013151 0.000000 0.000000 0.000000
# 4 0.000000 0.000000 0.000000 0.029468 0.000000 0.000000
# 5 0.000000 0.000000 0.000000 0.000000 0.026409 0.000000
# 6 0.000000 0.000000 0.000000 0.000000 0.000000 0.029217
#
#
# Mechanical properties :
#
#
# Convention : Reuss Voigt Hill
#
# Bulk Modulus (GPa) = 45.84598 48.64818 47.24708
# Shear Modulus (GPa) = 34.81867 35.43322 35.12595
#
# Velocity S-wave (km/s) = 3.92376 3.95823 3.94103
# Velocity P-wave (km/s) = 6.38746 6.51161 6.44983
#
# Compressibility (1/GPa) = 0.02181216
#
# Stress axis : x y z
#
# Youngs Moduli (GPa) = 92.73924 79.42504 76.03922
#
# Poissons Ratio (x) = 0.33880 0.18852
# Poissons Ratio (y) = 0.39559 0.04648
# Poissons Ratio (z) = 0.22993 0.04855
#
# Static dielectric constant tensor:
#      x y z
#    x 4.154230 0.000000 0.000000 
#    y 0.000000 4.197240 0.000000 
#    z 0.000000 0.000000 3.983900 
# 
# 
# High freq. dielectric constant tensor:
#      x y z
#    x 1.908060 0.000000 0.000000 
#    y 0.000000 1.907440 0.000000 
#    z 0.000000 0.000000 1.888110 
# 
# From -- ./inp_files/683.got.cif
#   From: 2010.03.12/outbox.cif.g09.slc.cpg/sg19_1_cif.got.tgz:683.got - 2010.04.10 18:59:41.
