data_PCOD8157621
_publ_section_title
;
Structure prediction by ZEFSAII (Michael W. Deem and Ramdas Pophale) SiO2 
 PCOD8157621
Probable space group: P 21 21 21
;
_chemical_formula_sum "Si O2"
_cell_formula_units_Z 28
_cell_length_a 23.834171
_cell_length_b 9.603486
_cell_length_c 5.284673
_cell_angle_alpha 90.000000
_cell_angle_beta 90.000000
_cell_angle_gamma 90.000000
_cell_volume 1209.614762
_symmetry_space_group_name_H-M "P 21 21 21"
_symmetry_group_IT_number 19
_symmetry_cell_setting 'orthorhombic'
loop_
_space_group_symop_operation_xyz
x,y,z
1/2-x,-y,1/2+z
1/2+x,1/2-y,-z
-x,1/2+y,1/2-z
loop_
_atom_site_type_symbol
_atom_site_label
_atom_site_fract_x
_atom_site_fract_y
_atom_site_fract_z
Si Si1 0.450562 0.143106 0.691128
Si Si2 0.109890 0.333652 0.836480
Si Si3 0.590956 0.859489 0.208832
Si Si4 0.664705 0.574040 0.653026
Si Si5 0.827746 0.753014 0.162316
Si Si6 0.015304 0.159228 0.017843
Si Si7 0.202138 0.785392 0.825712
O O1 0.431375 0.232670 0.455177
O O2 0.398150 0.137482 0.890122
O O3 0.461142 0.983547 0.622598
O O4 0.508679 0.213918 0.781574
O O5 0.084972 0.485587 0.902928
O O6 0.141418 0.332571 0.567136
O O7 0.059443 0.219667 0.814208
O O8 0.151471 0.301477 0.065186
O O9 0.549622 0.862918 0.447187
O O10 0.657026 0.832920 0.252775
O O11 0.660833 0.409619 0.650349
O O12 0.704456 0.611630 0.416200
O O13 0.688507 0.629809 0.919259
O O14 0.761897 0.788448 0.141071
#
# Coordination Sequence:
#
# PCOD8157621 Si02
#       7
#     4   4   4   4   4   4   4
#     4  11  25  43  74 104 147 191 248 297 370 444
#     4  12  29  44  73 104 149 187 240 300 369 437
#     4  11  27  44  70 103 144 197 241 297 373 433
#     4  11  22  44  73 108 141 190 245 299 366 432
#     4  12  26  46  71 108 145 191 244 303 365 430
#     4  12  25  46  72 107 145 196 238 310 360 451
#     4  11  24  45  75 104 145 192 246 304 361 437
#
# _framework density 23.147867000000002
#
# number of rings (size 3 to 8) (size 9 to 14) (size 15 to 20)
#    0.000    0.571    2.857    4.286    8.000    2.286 
#    0.000    0.000    0.000    0.000    0.000    0.000 
#    0.000    0.000    0.000    0.000    0.000    0.000 
#
# Total GULP energy -347018.558144 kJ/mol
# GULP energy per Si atom -12393.519934 kJ/mol
# Density = 2.309518 g / cm^3
# Si number density = 23.147867 Si / 1000 Ang^3
#
#
#
# Elastic Constant Matrix: (Units=GPa)
#
#
# Indices 1 2 3 4 5 6 
#
# 1 134.7993 41.6207 29.9592 0.0000 0.0000 0.0000
# 2 41.6207 115.1487 13.0740 0.0000 0.0000 0.0000
# 3 29.9592 13.0740 104.8810 0.0000 0.0000 0.0000
# 4 0.0000 0.0000 0.0000 18.9072 0.0000 0.0000
# 5 0.0000 0.0000 0.0000 0.0000 32.0894 0.0000
# 6 0.0000 0.0000 0.0000 0.0000 0.0000 35.3515
#
#
#
# Elastic Compliance Matrix: (Units=1/GPa)
#
#
# Indices 1 2 3 4 5 6 
#
# 1 0.008803 -0.002938 -0.002148 0.000000 0.000000 0.000000
# 2 -0.002938 0.009790 -0.000381 0.000000 0.000000 0.000000
# 3 -0.002148 -0.000381 0.010196 0.000000 0.000000 0.000000
# 4 0.000000 0.000000 0.000000 0.052890 0.000000 0.000000
# 5 0.000000 0.000000 0.000000 0.000000 0.031163 0.000000
# 6 0.000000 0.000000 0.000000 0.000000 0.000000 0.028287
#
#
# Mechanical properties :
#
#
# Convention : Reuss Voigt Hill
#
# Bulk Modulus (GPa) = 56.01098 58.23742 57.12420
# Shear Modulus (GPa) = 31.64265 35.28131 33.46198
#
# Velocity S-wave (km/s) = 3.70128 3.90830 3.80620
# Velocity P-wave (km/s) = 6.52039 6.75129 6.63684
#
# Compressibility (1/GPa) = 0.01785364
#
# Stress axis : x y z
#
# Youngs Moduli (GPa) = 113.59727 102.14903 98.07961
#
# Poissons Ratio (x) = 0.30011 0.21071
# Poissons Ratio (y) = 0.33374 0.03738
# Poissons Ratio (z) = 0.24405 0.03893
#
# Static dielectric constant tensor:
#      x y z
#    x 4.867920 0.000000 0.000000 
#    y 0.000000 4.382030 0.000000 
#    z 0.000000 0.000000 4.040130 
# 
# 
# High freq. dielectric constant tensor:
#      x y z
#    x 1.933040 0.000000 0.000000 
#    y 0.000000 1.924270 0.000000 
#    z 0.000000 0.000000 1.908490 
# 
# From -- ./inp_files/2126.got.cif
#   From: 2010.03.12/outbox.cif.g09.slc.cpg/sg19_2_cif.got.tgz:2126.got - 2010.04.10 18:59:41.
