data_PCOD8157349
_publ_section_title
;
Structure prediction by ZEFSAII (Michael W. Deem and Ramdas Pophale) SiO2 
 PCOD8157349
Probable space group: P 21 21 21
;
_chemical_formula_sum "Si O2"
_cell_formula_units_Z 28
_cell_length_a 11.486427
_cell_length_b 16.310983
_cell_length_c 6.904888
_cell_angle_alpha 90.000000
_cell_angle_beta 90.000000
_cell_angle_gamma 90.000000
_cell_volume 1293.664708
_symmetry_space_group_name_H-M "P 21 21 21"
_symmetry_group_IT_number 19
_symmetry_cell_setting 'orthorhombic'
loop_
_space_group_symop_operation_xyz
x,y,z
1/2-x,-y,1/2+z
1/2+x,1/2-y,-z
-x,1/2+y,1/2-z
loop_
_atom_site_type_symbol
_atom_site_label
_atom_site_fract_x
_atom_site_fract_y
_atom_site_fract_z
Si Si1 0.721675 0.230739 0.354460
Si Si2 0.734213 0.584266 0.929508
Si Si3 0.008402 0.481809 0.420806
Si Si4 0.681858 0.147302 0.749636
Si Si5 0.377107 0.352891 0.955134
Si Si6 0.478247 0.704497 0.430228
Si Si7 0.606985 0.555221 0.292124
O O1 0.737526 0.328504 0.334835
O O2 0.731811 0.202456 0.576239
O O3 0.823828 0.187505 0.236182
O O4 0.597346 0.204752 0.266540
O O5 0.616939 0.545221 0.830437
O O6 0.843582 0.523625 0.904056
O O7 0.709955 0.594170 0.159176
O O8 0.113556 0.429859 0.334062
O O9 0.037274 0.576377 0.378544
O O10 0.000797 0.472051 0.654601
O O11 0.781363 0.112497 0.893369
O O12 0.599383 0.206086 0.876757
O O13 0.446381 0.285726 0.076352
O O14 0.560509 0.624093 0.438512
#
# Coordination Sequence:
#
# PCOD8157349 Si02
#       7
#     4   4   4   4   4   4   4
#     4  11  23  47  68 102 134 186 230 285 341 421
#     4  10  23  41  70  98 141 173 236 281 342 405
#     4  10  24  44  62 102 136 181 224 287 341 408
#     4  11  25  42  70  93 139 181 230 284 346 410
#     4  11  26  40  71  95 139 180 234 275 352 415
#     4  11  24  45  69 101 138 180 227 292 346 411
#     4  10  23  41  70 101 139 177 225 286 342 408
#
# _framework density 21.643937999999999
#
# number of rings (size 3 to 8) (size 9 to 14) (size 15 to 20)
#    0.857    0.571    1.429    2.571    6.000    3.429 
#    0.000    0.000    0.000    0.000    0.000    0.000 
#    0.000    0.000    0.000    0.000    0.000    0.000 
#
# Total GULP energy -347147.424216 kJ/mol
# GULP energy per Si atom -12398.122293 kJ/mol
# Density = 2.159468 g / cm^3
# Si number density = 21.643938 Si / 1000 Ang^3
#
#
#
# Elastic Constant Matrix: (Units=GPa)
#
#
# Indices 1 2 3 4 5 6 
#
# 1 69.7300 50.8056 26.5490 0.0000 0.0000 0.0000
# 2 50.8056 154.1118 25.8451 0.0000 0.0000 0.0000
# 3 26.5490 25.8451 92.6260 0.0000 0.0000 0.0000
# 4 0.0000 0.0000 0.0000 29.3176 0.0000 0.0000
# 5 0.0000 0.0000 0.0000 0.0000 17.7429 0.0000
# 6 0.0000 0.0000 0.0000 0.0000 0.0000 44.7588
#
#
#
# Elastic Compliance Matrix: (Units=1/GPa)
#
#
# Indices 1 2 3 4 5 6 
#
# 1 0.020284 -0.005992 -0.004142 0.000000 0.000000 0.000000
# 2 -0.005992 0.008578 -0.000676 0.000000 0.000000 0.000000
# 3 -0.004142 -0.000676 0.012172 0.000000 0.000000 0.000000
# 4 0.000000 0.000000 0.000000 0.034109 0.000000 0.000000
# 5 0.000000 0.000000 0.000000 0.000000 0.056361 0.000000
# 6 0.000000 0.000000 0.000000 0.000000 0.000000 0.022342
#
#
# Mechanical properties :
#
#
# Convention : Reuss Voigt Hill
#
# Bulk Modulus (GPa) = 51.51093 58.09636 54.80364
# Shear Modulus (GPa) = 27.48208 32.58174 30.03191
#
# Velocity S-wave (km/s) = 3.56720 3.88410 3.72902
# Velocity P-wave (km/s) = 6.38886 6.85675 6.62693
#
# Compressibility (1/GPa) = 0.01941336
#
# Stress axis : x y z
#
# Youngs Moduli (GPa) = 49.29968 116.58241 82.15675
#
# Poissons Ratio (x) = 0.69861 0.34029
# Poissons Ratio (y) = 0.29542 0.05552
# Poissons Ratio (z) = 0.20420 0.07879
#
# Static dielectric constant tensor:
#      x y z
#    x 3.857610 0.000000 0.000000 
#    y 0.000000 3.682060 0.000000 
#    z 0.000000 0.000000 3.752560 
# 
# 
# High freq. dielectric constant tensor:
#      x y z
#    x 1.848030 0.000000 0.000000 
#    y 0.000000 1.848040 0.000000 
#    z 0.000000 0.000000 1.847360 
# 
# From -- ./inp_files/1035.got.cif
#   From: 2010.03.12/outbox.cif.g09.slc.cpg/sg19_1_cif.got.tgz:1035.got - 2010.04.10 18:59:41.
