data_PCOD8157980
_publ_section_title
;
Structure prediction by ZEFSAII (Michael W. Deem and Ramdas Pophale) SiO2 
 PCOD8157980
Probable space group: C 2 2 21
;
_chemical_formula_sum "Si O2"
_cell_formula_units_Z 60
_cell_length_a 5.500301
_cell_length_b 17.545188
_cell_length_c 29.549951
_cell_angle_alpha 90.000000
_cell_angle_beta 90.000000
_cell_angle_gamma 90.000000
_cell_volume 2851.683008
_symmetry_space_group_name_H-M "C 2 2 21"
_symmetry_group_IT_number 20
_symmetry_cell_setting 'orthorhombic'
loop_
_space_group_symop_operation_xyz
x,y,z
-x,-y,1/2+z
x,-y,-z
-x,y,1/2-z
1/2+x,1/2+y,z
1/2-x,1/2-y,1/2+z
1/2+x,1/2-y,-z
1/2-x,1/2+y,1/2-z
loop_
_atom_site_type_symbol
_atom_site_label
_atom_site_fract_x
_atom_site_fract_y
_atom_site_fract_z
Si Si1 0.003262 0.559177 0.667599
Si Si2 0.485673 0.270603 0.343324
Si Si3 0.866797 0.138975 0.494160
Si Si4 0.011161 0.732067 0.802345
Si Si5 0.337957 0.500000 0.000000
Si Si6 0.999855 0.063775 0.697504
Si Si7 0.351145 0.737314 0.939807
Si Si8 0.020713 0.598085 0.934076
O O1 0.986988 0.641587 0.691150
O O2 0.747317 0.518433 0.682536
O O3 0.037499 0.561468 0.613964
O O4 0.248256 0.517414 0.686767
O O5 0.737253 0.233659 0.323692
O O6 0.485951 0.360305 0.332868
O O7 0.467603 0.258207 0.397389
O O8 0.236778 0.232867 0.324187
O O9 0.008587 0.066003 0.474831
O O10 0.723918 0.175979 0.452128
O O11 0.036840 0.205465 0.513782
O O12 0.718145 0.107000 0.536490
O O13 0.000000 0.753693 0.750000
O O14 0.191579 0.539216 0.959960
O O15 0.000000 0.085830 0.750000
O O16 0.131703 0.681819 0.925347
#
# Coordination Sequence:
#
# PCOD8157980 Si02
#       8
#     8   8   8   8   4   8   8   8
#     4  10  18  28  49  72 108 152 193 231 284 367
#     4  10  18  28  44  75 109 151 188 236 284 365
#     4  11  22  39  59  83 116 158 207 261 301 373
#     4  10  17  28  45  72 114 161 184 226 300 373
#     4  10  26  40  58  80 118 166 208 258 314 368
#     4  10  17  28  44  74 114 157 181 227 302 371
#     4  11  21  33  58  85 113 155 206 248 311 352
#     4  11  21  39  54  84 113 162 205 248 308 364
#
# _framework density 21.040208
#
# number of rings (size 3 to 8) (size 9 to 14) (size 15 to 20)
#    0.000    1.600    4.000    6.000    1.867    0.000 
#    0.000    0.000    0.000    0.000    0.000    0.000 
#    0.000    1.067    2.667    0.800    0.000    0.000 
#
# Total GULP energy -371761.081037 kJ/mol
# GULP energy per Si atom -12392.036035 kJ/mol
# Density = 2.099232 g / cm^3
# Si number density = 21.040208 Si / 1000 Ang^3
#
#
#
# Elastic Constant Matrix: (Units=GPa)
#
#
# Indices 1 2 3 4 5 6 
#
# 1 162.9463 18.5449 18.8263 0.0000 0.0000 0.0000
# 2 18.5449 55.2752 23.6974 0.0000 0.0000 0.0000
# 3 18.8263 23.6974 92.3102 0.0000 0.0000 0.0000
# 4 0.0000 0.0000 0.0000 8.1948 0.0000 0.0000
# 5 0.0000 0.0000 0.0000 0.0000 46.4352 0.0000
# 6 0.0000 0.0000 0.0000 0.0000 0.0000 16.9922
#
#
#
# Elastic Compliance Matrix: (Units=1/GPa)
#
#
# Indices 1 2 3 4 5 6 
#
# 1 0.006440 -0.001795 -0.000853 0.000000 0.000000 0.000000
# 2 -0.001795 0.020829 -0.004981 0.000000 0.000000 0.000000
# 3 -0.000853 -0.004981 0.012286 0.000000 0.000000 0.000000
# 4 0.000000 0.000000 0.000000 0.122028 0.000000 0.000000
# 5 0.000000 0.000000 0.000000 0.000000 0.021535 0.000000
# 6 0.000000 0.000000 0.000000 0.000000 0.000000 0.058850
#
#
# Mechanical properties :
#
#
# Convention : Reuss Voigt Hill
#
# Bulk Modulus (GPa) = 41.15711 48.07433 44.61572
# Shear Modulus (GPa) = 18.84482 30.95532 24.90007
#
# Velocity S-wave (km/s) = 2.99600 3.83984 3.44387
# Velocity P-wave (km/s) = 5.61887 6.52362 6.08807
#
# Compressibility (1/GPa) = 0.02429714
#
# Stress axis : x y z
#
# Youngs Moduli (GPa) = 155.28460 48.01002 81.39601
#
# Poissons Ratio (x) = 0.08618 0.06939
# Poissons Ratio (y) = 0.27874 0.40544
# Poissons Ratio (z) = 0.13239 0.23914
#
# Static dielectric constant tensor:
#      x y z
#    x 5.130750 0.000000 0.000000 
#    y 0.000000 3.101710 0.000000 
#    z 0.000000 0.000000 3.773360 
# 
# 
# High freq. dielectric constant tensor:
#      x y z
#    x 1.855590 0.000000 0.000000 
#    y 0.000000 1.734150 0.000000 
#    z 0.000000 0.000000 1.831080 
# 
# From -- ./inp_files/30824.got.cif
#   From: 2010.03.12/outbox.cif.g09.slc.cpg/sg20_16_cif.got.tgz:30824.got - 2010.04.14 01:38:04.
