data_PCOD8157047
_publ_section_title
;
Structure prediction by ZEFSAII (Michael W. Deem and Ramdas Pophale) SiO2 
 PCOD8157047
Probable space group: P 21 21 21
;
_chemical_formula_sum "Si O2"
_cell_formula_units_Z 28
_cell_length_a 9.650190
_cell_length_b 5.444134
_cell_length_c 21.989424
_cell_angle_alpha 90.000000
_cell_angle_beta 90.000000
_cell_angle_gamma 90.000000
_cell_volume 1155.256774
_symmetry_space_group_name_H-M "P 21 21 21"
_symmetry_group_IT_number 19
_symmetry_cell_setting 'orthorhombic'
loop_
_space_group_symop_operation_xyz
x,y,z
1/2-x,-y,1/2+z
1/2+x,1/2-y,-z
-x,1/2+y,1/2-z
loop_
_atom_site_type_symbol
_atom_site_label
_atom_site_fract_x
_atom_site_fract_y
_atom_site_fract_z
Si Si1 0.564689 0.979943 0.773972
Si Si2 0.852749 0.960954 0.712602
Si Si3 0.376688 0.776203 0.082863
Si Si4 0.422195 0.281546 0.598602
Si Si5 0.381451 0.484726 0.967597
Si Si6 0.553580 0.539210 0.178540
Si Si7 0.578881 0.101759 0.022330
O O1 0.481002 0.751687 0.745409
O O2 0.722267 0.939453 0.756054
O O3 0.548409 0.968464 0.846744
O O4 0.860875 0.715636 0.669652
O O5 0.989757 0.967911 0.754083
O O6 0.848567 0.216431 0.674177
O O7 0.226214 0.857037 0.109771
O O8 0.438688 0.559177 0.125186
O O9 0.489312 0.995075 0.079091
O O10 0.343797 0.701615 0.013765
O O11 0.416849 0.424213 0.535439
O O12 0.550484 0.087477 0.595005
O O13 0.237179 0.340154 0.954846
O O14 0.504826 0.346764 0.001822
#
# Coordination Sequence:
#
# PCOD8157047 Si02
#       7
#     4   4   4   4   4   4   4
#     4  12  27  46  68  99 136 183 229 274 342 413
#     4  10  22  42  62  98 131 169 226 274 328 392
#     4  10  21  41  67  96 126 177 222 276 344 404
#     4  10  23  45  65  90 133 176 219 281 337 405
#     4  10  22  40  64 100 132 171 222 276 343 417
#     4  10  21  40  68  94 131 169 219 285 324 392
#     4  10  22  40  66  99 131 169 223 274 344 409
#
# _framework density 24.237034999999999
#
# number of rings (size 3 to 8) (size 9 to 14) (size 15 to 20)
#    0.000    1.714    1.429    1.714    4.000    3.429 
#    0.000    0.000    0.000    0.000    0.000    0.000 
#    0.000    0.000    0.000    0.000    0.000    0.000 
#
# Total GULP energy -346938.882279 kJ/mol
# GULP energy per Si atom -12390.674367 kJ/mol
# Density = 2.418187 g / cm^3
# Si number density = 24.237035 Si / 1000 Ang^3
#
#
#
# Elastic Constant Matrix: (Units=GPa)
#
#
# Indices 1 2 3 4 5 6 
#
# 1 116.1277 20.8430 5.3768 0.0000 0.0000 0.0000
# 2 20.8430 99.1786 3.4992 0.0000 0.0000 0.0000
# 3 5.3768 3.4992 41.7121 0.0000 0.0000 0.0000
# 4 0.0000 0.0000 0.0000 25.0311 0.0000 0.0000
# 5 0.0000 0.0000 0.0000 0.0000 32.0856 0.0000
# 6 0.0000 0.0000 0.0000 0.0000 0.0000 32.2686
#
#
#
# Elastic Compliance Matrix: (Units=1/GPa)
#
#
# Indices 1 2 3 4 5 6 
#
# 1 0.008990 -0.001854 -0.001003 0.000000 0.000000 0.000000
# 2 -0.001854 0.010495 -0.000641 0.000000 0.000000 0.000000
# 3 -0.001003 -0.000641 0.024157 0.000000 0.000000 0.000000
# 4 0.000000 0.000000 0.000000 0.039950 0.000000 0.000000
# 5 0.000000 0.000000 0.000000 0.000000 0.031167 0.000000
# 6 0.000000 0.000000 0.000000 0.000000 0.000000 0.030990
#
#
# Mechanical properties :
#
#
# Convention : Reuss Voigt Hill
#
# Bulk Modulus (GPa) = 27.28892 35.16182 31.22537
# Shear Modulus (GPa) = 30.31003 33.03035 31.67019
#
# Velocity S-wave (km/s) = 3.54017 3.69562 3.61873
# Velocity P-wave (km/s) = 5.29094 5.72269 5.51104
#
# Compressibility (1/GPa) = 0.03664491
#
# Stress axis : x y z
#
# Youngs Moduli (GPa) = 111.22939 95.28274 41.39590
#
# Poissons Ratio (x) = 0.17665 0.04154
# Poissons Ratio (y) = 0.20622 0.02655
# Poissons Ratio (z) = 0.11160 0.06112
#
# Static dielectric constant tensor:
#      x y z
#    x 4.820130 0.000000 0.000000 
#    y 0.000000 4.327990 0.000000 
#    z 0.000000 0.000000 4.184320 
# 
# 
# High freq. dielectric constant tensor:
#      x y z
#    x 1.969360 0.000000 0.000000 
#    y 0.000000 1.945850 0.000000 
#    z 0.000000 0.000000 1.955500 
# 
# From -- ./inp_files/518.got.cif
#   From: 2010.03.12/outbox.cif.g09.slc.cpg/sg19_1_cif.got.tgz:518.got - 2010.04.10 18:59:41.
