data_PCOD8157482
_publ_section_title
;
Structure prediction by ZEFSAII (Michael W. Deem and Ramdas Pophale) SiO2 
 PCOD8157482
Probable space group: P 21 21 21
;
_chemical_formula_sum "Si O2"
_cell_formula_units_Z 32
_cell_length_a 15.906412
_cell_length_b 4.999486
_cell_length_c 16.068228
_cell_angle_alpha 90.000000
_cell_angle_beta 90.000000
_cell_angle_gamma 90.000000
_cell_volume 1277.807901
_symmetry_space_group_name_H-M "P 21 21 21"
_symmetry_group_IT_number 19
_symmetry_cell_setting 'orthorhombic'
loop_
_space_group_symop_operation_xyz
x,y,z
1/2-x,-y,1/2+z
1/2+x,1/2-y,-z
-x,1/2+y,1/2-z
loop_
_atom_site_type_symbol
_atom_site_label
_atom_site_fract_x
_atom_site_fract_y
_atom_site_fract_z
Si Si1 0.613757 0.368933 0.435233
Si Si2 0.023313 0.631429 0.804407
Si Si3 0.342109 0.603099 0.903271
Si Si4 0.175239 0.238087 0.173945
Si Si5 0.192183 0.903420 0.852571
Si Si6 0.761817 0.713237 0.497448
Si Si7 0.957478 0.044547 0.235772
Si Si8 0.775500 0.773350 0.790869
O O1 0.526211 0.447579 0.390047
O O2 0.599083 0.217708 0.522773
O O3 0.673340 0.619119 0.456385
O O4 0.662749 0.185539 0.368686
O O5 0.120744 0.684812 0.829549
O O6 0.019089 0.390050 0.738784
O O7 0.292533 0.820407 0.845908
O O8 0.402211 0.419130 0.847197
O O9 0.262045 0.447911 0.939663
O O10 0.179729 0.317104 0.076550
O O11 0.081970 0.322729 0.199814
O O12 0.238272 0.432864 0.227738
O O13 0.199419 0.929160 0.185668
O O14 0.177380 0.152480 0.789590
O O15 0.184820 0.996260 0.949185
O O16 0.036339 0.837984 0.220728
#
# Coordination Sequence:
#
# PCOD8157482 Si02
#       8
#     4   4   4   4   4   4   4   4
#     4  10  24  44  72 106 144 189 233 298 372 424
#     4  12  29  45  71 109 153 192 239 302 376 437
#     4  11  24  47  77 100 146 193 249 298 364 432
#     4  11  23  44  73 100 138 182 246 290 353 427
#     4  11  25  43  72 109 141 194 247 293 364 442
#     4  10  24  44  76 106 138 194 244 306 357 432
#     4  12  28  46  70 105 142 191 238 295 361 424
#     4  11  21  41  73 103 134 187 234 292 347 434
#
# _framework density 25.04289
#
# number of rings (size 3 to 8) (size 9 to 14) (size 15 to 20)
#    0.000    1.000    3.750    1.500    8.750    1.000 
#    2.250    0.000    0.000    0.000    0.000    0.000 
#    0.000    0.000    0.000    0.000    0.000    0.000 
#
# Total GULP energy -396493.620431 kJ/mol
# GULP energy per Si atom -12390.425638 kJ/mol
# Density = 2.498589 g / cm^3
# Si number density = 25.042890 Si / 1000 Ang^3
#
#
#
# Elastic Constant Matrix: (Units=GPa)
#
#
# Indices 1 2 3 4 5 6 
#
# 1 54.8989 -19.5269 21.4471 0.0000 0.0000 0.0000
# 2 -19.5269 52.5377 1.6103 0.0000 0.0000 0.0000
# 3 21.4471 1.6103 116.4510 0.0000 0.0000 0.0000
# 4 0.0000 0.0000 0.0000 33.0032 0.0000 0.0000
# 5 0.0000 0.0000 0.0000 0.0000 48.1396 0.0000
# 6 0.0000 0.0000 0.0000 0.0000 0.0000 29.1533
#
#
#
# Elastic Compliance Matrix: (Units=1/GPa)
#
#
# Indices 1 2 3 4 5 6 
#
# 1 0.023007 0.008684 -0.004357 0.000000 0.000000 0.000000
# 2 0.008684 0.022320 -0.001908 0.000000 0.000000 0.000000
# 3 -0.004357 -0.001908 0.009416 0.000000 0.000000 0.000000
# 4 0.000000 0.000000 0.000000 0.030300 0.000000 0.000000
# 5 0.000000 0.000000 0.000000 0.000000 0.020773 0.000000
# 6 0.000000 0.000000 0.000000 0.000000 0.000000 0.034301
#
#
# Mechanical properties :
#
#
# Convention : Reuss Voigt Hill
#
# Bulk Modulus (GPa) = 16.78383 25.66095 21.22239
# Shear Modulus (GPa) = 32.22905 36.74969 34.48937
#
# Velocity S-wave (km/s) = 3.59131 3.83491 3.71511
# Velocity P-wave (km/s) = 4.89011 5.46606 5.18609
#
# Compressibility (1/GPa) = 0.05958115
#
# Stress axis : x y z
#
# Youngs Moduli (GPa) = 43.46595 44.80243 106.20026
#
# Poissons Ratio (x) = -0.38909 0.46274
# Poissons Ratio (y) = -0.37748 0.20264
# Poissons Ratio (z) = 0.18939 0.08549
#
# Static dielectric constant tensor:
#      x y z
#    x 4.313930 0.000000 0.000000 
#    y 0.000000 4.383850 0.000000 
#    z 0.000000 0.000000 4.791350 
# 
# 
# High freq. dielectric constant tensor:
#      x y z
#    x 1.978550 0.000000 0.000000 
#    y 0.000000 1.996230 0.000000 
#    z 0.000000 0.000000 2.012900 
# 
# From -- ./inp_files/5748.got.cif
#   From: 2010.03.12/outbox.cif.g09.slc.cpg/sg19_3_cif.got.tgz:5748.got - 2010.04.10 18:59:41.
