data_PCOD8157866
_publ_section_title
;
Structure prediction by ZEFSAII (Michael W. Deem and Ramdas Pophale) SiO2 
 PCOD8157866
Probable space group: P 21 21 21
;
_chemical_formula_sum "Si O2"
_cell_formula_units_Z 24
_cell_length_a 22.098509
_cell_length_b 4.965636
_cell_length_c 9.912942
_cell_angle_alpha 90.000000
_cell_angle_beta 90.000000
_cell_angle_gamma 90.000000
_cell_volume 1087.778370
_symmetry_space_group_name_H-M "P 21 21 21"
_symmetry_group_IT_number 19
_symmetry_cell_setting 'orthorhombic'
loop_
_space_group_symop_operation_xyz
x,y,z
1/2-x,-y,1/2+z
1/2+x,1/2-y,-z
-x,1/2+y,1/2-z
loop_
_atom_site_type_symbol
_atom_site_label
_atom_site_fract_x
_atom_site_fract_y
_atom_site_fract_z
Si Si1 0.116676 0.538319 0.220542
Si Si2 0.481150 0.549243 0.504282
Si Si3 0.062672 0.450870 0.503858
Si Si4 0.303484 0.046511 0.351321
Si Si5 0.620085 0.047083 0.211442
Si Si6 0.807049 0.536729 0.343756
O O1 0.053839 0.483535 0.144763
O O2 0.106728 0.503153 0.378841
O O3 0.136998 0.841590 0.189499
O O4 0.169297 0.340886 0.168917
O O5 0.538625 0.353275 0.499952
O O6 0.438335 0.482750 0.378479
O O7 0.505050 0.852894 0.495494
O O8 0.103954 0.497425 0.633693
O O9 0.325062 0.351017 0.328099
O O10 0.282764 0.009873 0.505467
O O11 0.359223 0.851441 0.315909
O O12 0.246956 0.976370 0.258120
#
# Coordination Sequence:
#
# PCOD8157866 Si02
#       6
#     4   4   4   4   4   4
#     4  12  25  45  69  99 138 171 220 276 327 391
#     4  12  22  46  65 100 137 176 222 264 332 384
#     4  12  26  40  71 102 133 178 220 266 324 402
#     4  12  26  46  71  97 131 175 221 276 333 389
#     4  12  25  45  69  99 138 171 220 276 327 391
#     4  12  26  46  71  97 131 175 221 276 333 389
#
# _framework density 22.063314999999999
#
# number of rings (size 3 to 8) (size 9 to 14) (size 15 to 20)
#    0.000    0.000    3.333    7.000    4.667    0.000 
#    0.000    0.000    0.000    0.000    0.000    0.000 
#    0.000    0.000    0.000    0.000    0.000    0.000 
#
# Total GULP energy -297906.894197 kJ/mol
# GULP energy per Si atom -12412.787258 kJ/mol
# Density = 2.201310 g / cm^3
# Si number density = 22.063315 Si / 1000 Ang^3
#
#
#
# Elastic Constant Matrix: (Units=GPa)
#
#
# Indices 1 2 3 4 5 6 
#
# 1 68.7259 13.5224 42.4963 0.0000 0.0000 0.0000
# 2 13.5224 79.2830 10.0528 0.0000 0.0000 0.0000
# 3 42.4963 10.0528 178.1113 0.0000 0.0000 0.0000
# 4 0.0000 0.0000 0.0000 29.3040 0.0000 0.0000
# 5 0.0000 0.0000 0.0000 0.0000 51.3074 0.0000
# 6 0.0000 0.0000 0.0000 0.0000 0.0000 15.7312
#
#
#
# Elastic Compliance Matrix: (Units=1/GPa)
#
#
# Indices 1 2 3 4 5 6 
#
# 1 0.017539 -0.002479 -0.004045 0.000000 0.000000 0.000000
# 2 -0.002479 0.013054 -0.000145 0.000000 0.000000 0.000000
# 3 -0.004045 -0.000145 0.006588 0.000000 0.000000 0.000000
# 4 0.000000 0.000000 0.000000 0.034125 0.000000 0.000000
# 5 0.000000 0.000000 0.000000 0.000000 0.019490 0.000000
# 6 0.000000 0.000000 0.000000 0.000000 0.000000 0.063568
#
#
# Mechanical properties :
#
#
# Convention : Reuss Voigt Hill
#
# Bulk Modulus (GPa) = 41.94010 50.91813 46.42912
# Shear Modulus (GPa) = 28.46565 36.60512 32.53539
#
# Velocity S-wave (km/s) = 3.59580 4.07762 3.84427
# Velocity P-wave (km/s) = 6.02412 6.73035 6.38700
#
# Compressibility (1/GPa) = 0.02384353
#
# Stress axis : x y z
#
# Youngs Moduli (GPa) = 57.01460 76.60355 151.79668
#
# Poissons Ratio (x) = 0.18987 0.61400
# Poissons Ratio (y) = 0.14132 0.02207
# Poissons Ratio (z) = 0.23062 0.01114
#
# Static dielectric constant tensor:
#      x y z
#    x 3.716410 0.000000 0.000000 
#    y 0.000000 4.111730 0.000000 
#    z 0.000000 0.000000 4.187400 
# 
# 
# High freq. dielectric constant tensor:
#      x y z
#    x 1.860780 0.000000 0.000000 
#    y 0.000000 1.883940 0.000000 
#    z 0.000000 0.000000 1.887990 
# 
# From -- ./inp_files/4095.got.cif
#   From: 2010.03.12/outbox.cif.g09.slc.cpg/sg19_3_cif.got.tgz:4095.got - 2010.04.10 18:59:41.
