data_PCOD8157471
_publ_section_title
;
Structure prediction by ZEFSAII (Michael W. Deem and Ramdas Pophale) SiO2 
 PCOD8157471
Probable space group: P 21 21 21
;
_chemical_formula_sum "Si O2"
_cell_formula_units_Z 28
_cell_length_a 11.003501
_cell_length_b 12.161890
_cell_length_c 8.891499
_cell_angle_alpha 90.000000
_cell_angle_beta 90.000000
_cell_angle_gamma 90.000000
_cell_volume 1189.890350
_symmetry_space_group_name_H-M "P 21 21 21"
_symmetry_group_IT_number 19
_symmetry_cell_setting 'orthorhombic'
loop_
_space_group_symop_operation_xyz
x,y,z
1/2-x,-y,1/2+z
1/2+x,1/2-y,-z
-x,1/2+y,1/2-z
loop_
_atom_site_type_symbol
_atom_site_label
_atom_site_fract_x
_atom_site_fract_y
_atom_site_fract_z
Si Si1 0.278835 0.460494 0.796325
Si Si2 0.102151 0.014855 0.713887
Si Si3 0.809790 0.638873 0.355421
Si Si4 0.903555 0.062092 0.499224
Si Si5 0.007543 0.765887 0.167310
Si Si6 0.248815 0.780842 0.325747
Si Si7 0.493036 0.509403 0.980784
O O1 0.344364 0.503836 0.642694
O O2 0.212253 0.342566 0.772696
O O3 0.188525 0.553728 0.859416
O O4 0.384503 0.433248 0.918702
O O5 0.169108 0.131593 0.735875
O O6 0.034360 0.013720 0.551639
O O7 0.192195 0.911056 0.727688
O O8 0.997496 0.997815 0.839296
O O9 0.770699 0.713015 0.495875
O O10 0.890482 0.708056 0.239942
O O11 0.879427 0.531074 0.414861
O O12 0.922333 0.187383 0.450220
O O13 0.106048 0.802464 0.292344
O O14 0.960086 0.868662 0.073565
#
# Coordination Sequence:
#
# PCOD8157471 Si02
#       7
#     4   4   4   4   4   4   4
#     4  11  25  48  74 106 149 194 243 306 367 434
#     4  11  26  45  73 106 149 189 249 302 364 448
#     4  11  24  42  78 105 145 198 238 307 371 432
#     4  11  26  46  74 105 149 193 242 303 369 428
#     4  11  25  46  72 110 142 197 243 304 366 442
#     4  10  24  43  71 103 149 185 249 293 372 432
#     4  11  24  46  70 107 149 188 248 295 367 440
#
# _framework density 23.531580000000002
#
# number of rings (size 3 to 8) (size 9 to 14) (size 15 to 20)
#    0.000    1.143    4.286    0.857    8.000    4.571 
#    2.571    0.000    0.000    0.000    0.000    0.000 
#    0.000    0.000    0.000    0.000    0.000    0.000 
#
# Total GULP energy -347170.213985 kJ/mol
# GULP energy per Si atom -12398.936214 kJ/mol
# Density = 2.347802 g / cm^3
# Si number density = 23.531580 Si / 1000 Ang^3
#
#
#
# Elastic Constant Matrix: (Units=GPa)
#
#
# Indices 1 2 3 4 5 6 
#
# 1 109.1083 47.6544 72.9757 0.0000 0.0000 0.0000
# 2 47.6544 102.0916 63.1366 0.0000 0.0000 0.0000
# 3 72.9757 63.1366 124.0604 0.0000 0.0000 0.0000
# 4 0.0000 0.0000 0.0000 27.6476 0.0000 0.0000
# 5 0.0000 0.0000 0.0000 0.0000 57.1496 0.0000
# 6 0.0000 0.0000 0.0000 0.0000 0.0000 37.4050
#
#
#
# Elastic Compliance Matrix: (Units=1/GPa)
#
#
# Indices 1 2 3 4 5 6 
#
# 1 0.015480 -0.002327 -0.007921 0.000000 0.000000 0.000000
# 2 -0.002327 0.014644 -0.006084 0.000000 0.000000 0.000000
# 3 -0.007921 -0.006084 0.015816 0.000000 0.000000 0.000000
# 4 0.000000 0.000000 0.000000 0.036169 0.000000 0.000000
# 5 0.000000 0.000000 0.000000 0.000000 0.017498 0.000000
# 6 0.000000 0.000000 0.000000 0.000000 0.000000 0.026734
#
#
# Mechanical properties :
#
#
# Convention : Reuss Voigt Hill
#
# Bulk Modulus (GPa) = 75.32550 78.08819 76.70684
# Shear Modulus (GPa) = 30.59414 34.54004 32.56709
#
# Velocity S-wave (km/s) = 3.60964 3.83537 3.72422
# Velocity P-wave (km/s) = 7.03225 7.27116 7.15271
#
# Compressibility (1/GPa) = 0.01327572
#
# Stress axis : x y z
#
# Youngs Moduli (GPa) = 64.60143 68.28939 63.22609
#
# Poissons Ratio (x) = 0.15889 0.50084
# Poissons Ratio (y) = 0.15031 0.38465
# Poissons Ratio (z) = 0.51173 0.41545
#
# Static dielectric constant tensor:
#      x y z
#    x 4.289480 0.000000 0.000000 
#    y 0.000000 3.978040 0.000000 
#    z 0.000000 0.000000 4.275030 
# 
# 
# High freq. dielectric constant tensor:
#      x y z
#    x 1.939390 0.000000 0.000000 
#    y 0.000000 1.918910 0.000000 
#    z 0.000000 0.000000 1.931790 
# 
# From -- ./inp_files/3418.got.cif
#   From: 2010.03.12/outbox.cif.g09.slc.cpg/sg19_2_cif.got.tgz:3418.got - 2010.04.10 18:59:41.
