data_PCOD8157323
_publ_section_title
;
Structure prediction by ZEFSAII (Michael W. Deem and Ramdas Pophale) SiO2 
 PCOD8157323
Probable space group: P 21 21 21
;
_chemical_formula_sum "Si O2"
_cell_formula_units_Z 24
_cell_length_a 11.995315
_cell_length_b 9.248992
_cell_length_c 9.200326
_cell_angle_alpha 90.000000
_cell_angle_beta 90.000000
_cell_angle_gamma 90.000000
_cell_volume 1020.726235
_symmetry_space_group_name_H-M "P 21 21 21"
_symmetry_group_IT_number 19
_symmetry_cell_setting 'orthorhombic'
loop_
_space_group_symop_operation_xyz
x,y,z
1/2-x,-y,1/2+z
1/2+x,1/2-y,-z
-x,1/2+y,1/2-z
loop_
_atom_site_type_symbol
_atom_site_label
_atom_site_fract_x
_atom_site_fract_y
_atom_site_fract_z
Si Si1 0.220181 0.541600 0.220850
Si Si2 0.433957 0.377866 0.197805
Si Si3 0.918259 0.221471 0.483023
Si Si4 0.069025 0.270489 0.227237
Si Si5 0.147521 0.789524 0.434109
Si Si6 0.640259 0.456788 0.008168
O O1 0.352517 0.517148 0.207464
O O2 0.173051 0.604697 0.069729
O O3 0.165248 0.386197 0.252785
O O4 0.194180 0.646561 0.354711
O O5 0.456766 0.311147 0.354923
O O6 0.550398 0.430690 0.133968
O O7 0.378806 0.252945 0.099733
O O8 0.858868 0.376238 0.465565
O O9 0.028497 0.212623 0.383321
O O10 0.964246 0.345441 0.144633
O O11 0.112747 0.135639 0.134644
O O12 0.238519 0.915980 0.429822
#
# Coordination Sequence:
#
# PCOD8157323 Si02
#       6
#     4   4   4   4   4   4
#     4  11  23  47  74 100 140 188 233 279 364 416
#     4  11  24  41  70 101 142 184 230 293 343 423
#     4  11  25  42  71 104 131 194 228 290 348 411
#     4  10  22  47  73 100 143 186 230 289 353 417
#     4  10  23  44  69 100 143 184 230 293 345 412
#     4  11  25  47  67 107 145 178 241 292 349 411
#
# _framework density 23.512671000000001
#
# number of rings (size 3 to 8) (size 9 to 14) (size 15 to 20)
#    0.000    1.333    1.667    4.000    2.333    4.000 
#   12.000    0.000    0.000    0.000    0.000    0.000 
#    0.000    0.000    0.000    0.000    0.000    0.000 
#
# Total GULP energy -297754.447435 kJ/mol
# GULP energy per Si atom -12406.435310 kJ/mol
# Density = 2.345916 g / cm^3
# Si number density = 23.512671 Si / 1000 Ang^3
#
#
#
# Elastic Constant Matrix: (Units=GPa)
#
#
# Indices 1 2 3 4 5 6 
#
# 1 73.6695 -10.4086 6.4853 0.0000 0.0000 0.0000
# 2 -10.4086 60.7647 3.0546 0.0000 0.0000 0.0000
# 3 6.4853 3.0546 133.5966 0.0000 0.0000 0.0000
# 4 0.0000 0.0000 0.0000 23.3103 0.0000 0.0000
# 5 0.0000 0.0000 0.0000 0.0000 15.2044 0.0000
# 6 0.0000 0.0000 0.0000 0.0000 0.0000 21.2199
#
#
#
# Elastic Compliance Matrix: (Units=1/GPa)
#
#
# Indices 1 2 3 4 5 6 
#
# 1 0.013982 0.002432 -0.000734 0.000000 0.000000 0.000000
# 2 0.002432 0.016899 -0.000504 0.000000 0.000000 0.000000
# 3 -0.000734 -0.000504 0.007532 0.000000 0.000000 0.000000
# 4 0.000000 0.000000 0.000000 0.042900 0.000000 0.000000
# 5 0.000000 0.000000 0.000000 0.000000 0.065770 0.000000
# 6 0.000000 0.000000 0.000000 0.000000 0.000000 0.047126
#
#
# Mechanical properties :
#
#
# Convention : Reuss Voigt Hill
#
# Bulk Modulus (GPa) = 24.50976 29.58815 27.04895
# Shear Modulus (GPa) = 24.34005 29.87355 27.10680
#
# Velocity S-wave (km/s) = 3.22093 3.56832 3.39906
# Velocity P-wave (km/s) = 4.92739 5.43952 5.18978
#
# Compressibility (1/GPa) = 0.04080008
#
# Stress axis : x y z
#
# Youngs Moduli (GPa) = 71.51848 59.17553 132.75973
#
# Poissons Ratio (x) = -0.14392 0.09749
# Poissons Ratio (y) = -0.17393 0.06697
# Poissons Ratio (z) = 0.05252 0.02985
#
# Static dielectric constant tensor:
#      x y z
#    x 4.333460 0.000000 0.000000 
#    y 0.000000 4.073240 0.000000 
#    z 0.000000 0.000000 4.356910 
# 
# 
# High freq. dielectric constant tensor:
#      x y z
#    x 1.931820 0.000000 0.000000 
#    y 0.000000 1.923480 0.000000 
#    z 0.000000 0.000000 1.942310 
# 
# From -- ./inp_files/2678.got.cif
#   From: 2010.03.12/outbox.cif.g09.slc.cpg/sg19_2_cif.got.tgz:2678.got - 2010.04.10 18:59:41.
