data_PCOD8157551
_publ_section_title
;
Structure prediction by ZEFSAII (Michael W. Deem and Ramdas Pophale) SiO2 
 PCOD8157551
Probable space group: P 21 21 21
;
_chemical_formula_sum "Si O2"
_cell_formula_units_Z 28
_cell_length_a 20.633294
_cell_length_b 5.738886
_cell_length_c 10.419476
_cell_angle_alpha 90.000000
_cell_angle_beta 90.000000
_cell_angle_gamma 90.000000
_cell_volume 1233.792264
_symmetry_space_group_name_H-M "P 21 21 21"
_symmetry_group_IT_number 19
_symmetry_cell_setting 'orthorhombic'
loop_
_space_group_symop_operation_xyz
x,y,z
1/2-x,-y,1/2+z
1/2+x,1/2-y,-z
-x,1/2+y,1/2-z
loop_
_atom_site_type_symbol
_atom_site_label
_atom_site_fract_x
_atom_site_fract_y
_atom_site_fract_z
Si Si1 0.656571 0.057865 0.163052
Si Si2 0.524987 0.238603 0.196440
Si Si3 0.901950 0.257400 0.470826
Si Si4 0.260230 0.771921 0.766639
Si Si5 0.502426 0.385037 0.917473
Si Si6 0.098433 0.408992 0.248100
Si Si7 0.788030 0.571478 0.497130
O O1 0.603736 0.237551 0.222723
O O2 0.700826 0.170814 0.051878
O O3 0.710591 0.944945 0.255706
O O4 0.609181 0.854635 0.110029
O O5 0.503589 0.497625 0.243922
O O6 0.506257 0.222413 0.044261
O O7 0.974411 0.352988 0.454946
O O8 0.858836 0.487224 0.456330
O O9 0.880196 0.074872 0.365860
O O10 0.334887 0.708483 0.791251
O O11 0.248162 0.920626 0.636538
O O12 0.243740 0.908903 0.896227
O O13 0.429953 0.431570 0.864482
O O14 0.544226 0.273971 0.801028
#
# Coordination Sequence:
#
# PCOD8157551 Si02
#       7
#     4   4   4   4   4   4   4
#     4  11  24  45  75 100 145 203 247 292 390 464
#     4  12  27  49  75 108 156 207 250 307 377 470
#     4  11  19  42  73  98 139 187 243 294 379 458
#     4  11  26  45  74 111 144 197 248 316 380 460
#     4  12  24  43  77 108 138 194 250 313 380 443
#     4  12  24  44  75 109 140 179 255 324 370 435
#     4  11  24  46  75  98 146 193 245 302 382 462
#
# _framework density 22.694258000000001
#
# number of rings (size 3 to 8) (size 9 to 14) (size 15 to 20)
#    0.000    0.571    7.143    0.857    4.000    0.000 
#    5.143    1.429    0.000    0.000    0.000    0.000 
#    0.000    0.000    0.000    0.000    0.000    0.000 
#
# Total GULP energy -346873.372360 kJ/mol
# GULP energy per Si atom -12388.334727 kJ/mol
# Density = 2.264260 g / cm^3
# Si number density = 22.694258 Si / 1000 Ang^3
#
#
#
# Elastic Constant Matrix: (Units=GPa)
#
#
# Indices 1 2 3 4 5 6 
#
# 1 114.0067 39.1779 62.2579 0.0000 0.0000 0.0000
# 2 39.1779 95.2482 30.5041 0.0000 0.0000 0.0000
# 3 62.2579 30.5041 94.0402 0.0000 0.0000 0.0000
# 4 0.0000 0.0000 0.0000 43.6604 0.0000 0.0000
# 5 0.0000 0.0000 0.0000 0.0000 33.6453 0.0000
# 6 0.0000 0.0000 0.0000 0.0000 0.0000 36.8193
#
#
#
# Elastic Compliance Matrix: (Units=1/GPa)
#
#
# Indices 1 2 3 4 5 6 
#
# 1 0.014584 -0.003244 -0.008603 0.000000 0.000000 0.000000
# 2 -0.003244 0.012437 -0.001887 0.000000 0.000000 0.000000
# 3 -0.008603 -0.001887 0.016941 0.000000 0.000000 0.000000
# 4 0.000000 0.000000 0.000000 0.022904 0.000000 0.000000
# 5 0.000000 0.000000 0.000000 0.000000 0.029722 0.000000
# 6 0.000000 0.000000 0.000000 0.000000 0.000000 0.027160
#
#
# Mechanical properties :
#
#
# Convention : Reuss Voigt Hill
#
# Bulk Modulus (GPa) = 60.62226 63.01943 61.82085
# Shear Modulus (GPa) = 31.90523 34.24868 33.07695
#
# Velocity S-wave (km/s) = 3.75356 3.88897 3.82187
# Velocity P-wave (km/s) = 6.74954 6.92782 6.83926
#
# Compressibility (1/GPa) = 0.01649559
#
# Stress axis : x y z
#
# Youngs Moduli (GPa) = 68.56788 80.40280 59.02716
#
# Poissons Ratio (x) = 0.26079 0.50781
# Poissons Ratio (y) = 0.22241 0.11138
# Poissons Ratio (z) = 0.58989 0.15172
#
# Static dielectric constant tensor:
#      x y z
#    x 4.113500 0.000000 0.000000 
#    y 0.000000 4.257430 0.000000 
#    z 0.000000 0.000000 4.116170 
# 
# 
# High freq. dielectric constant tensor:
#      x y z
#    x 1.887990 0.000000 0.000000 
#    y 0.000000 1.909420 0.000000 
#    z 0.000000 0.000000 1.884350 
# 
# From -- ./inp_files/5349.got.cif
#   From: 2010.03.12/outbox.cif.g09.slc.cpg/sg19_3_cif.got.tgz:5349.got - 2010.04.10 18:59:41.
