data_PCOD8157261
_publ_section_title
;
Structure prediction by ZEFSAII (Michael W. Deem and Ramdas Pophale) SiO2 
 PCOD8157261
Probable space group: P 21 21 21
;
_chemical_formula_sum "Si O2"
_cell_formula_units_Z 32
_cell_length_a 9.002817
_cell_length_b 11.093040
_cell_length_c 14.288310
_cell_angle_alpha 90.000000
_cell_angle_beta 90.000000
_cell_angle_gamma 90.000000
_cell_volume 1426.953646
_symmetry_space_group_name_H-M "P 21 21 21"
_symmetry_group_IT_number 19
_symmetry_cell_setting 'orthorhombic'
loop_
_space_group_symop_operation_xyz
x,y,z
1/2-x,-y,1/2+z
1/2+x,1/2-y,-z
-x,1/2+y,1/2-z
loop_
_atom_site_type_symbol
_atom_site_label
_atom_site_fract_x
_atom_site_fract_y
_atom_site_fract_z
Si Si1 0.152304 0.015334 0.413494
Si Si2 0.593976 0.426034 0.205781
Si Si3 0.222058 0.621199 0.994394
Si Si4 0.996132 0.322897 0.202585
Si Si5 0.000350 0.973744 0.603609
Si Si6 0.005567 0.269577 0.411841
Si Si7 0.266768 0.455500 0.163773
Si Si8 0.768114 0.824264 0.690989
O O1 0.113139 0.154666 0.407227
O O2 0.320830 0.992495 0.380175
O O3 0.053122 0.952595 0.334723
O O4 0.116259 0.961346 0.517306
O O5 0.589568 0.508901 0.299300
O O6 0.432273 0.405548 0.162629
O O7 0.668062 0.299274 0.236281
O O8 0.212656 0.508979 0.065254
O O9 0.152058 0.743693 0.038118
O O10 0.393775 0.633128 0.966138
O O11 0.110828 0.588410 0.909327
O O12 0.899607 0.213573 0.154485
O O13 0.961558 0.319068 0.311867
O O14 0.173330 0.332108 0.185814
O O15 0.885606 0.859862 0.609571
O O16 0.251926 0.565156 0.237776
#
# Coordination Sequence:
#
# PCOD8157261 Si02
#       8
#     4   4   4   4   4   4   4   4
#     4  10  23  43  65 103 136 174 240 287 336 435
#     4  10  24  41  70  96 140 183 230 283 361 419
#     4  11  24  40  65 101 134 175 239 289 348 419
#     4  11  20  42  66  92 136 179 228 285 353 408
#     4  10  22  45  69  95 148 177 234 296 339 419
#     4  11  23  38  68  96 130 184 223 293 354 411
#     4  11  22  43  63 101 144 170 234 301 335 429
#     4  10  22  42  70  96 130 192 222 286 364 412
#
# _framework density 22.425398000000001
#
# number of rings (size 3 to 8) (size 9 to 14) (size 15 to 20)
#    0.000    1.500    3.750    1.500    5.250    3.000 
#    4.500    2.500    0.000    0.000    0.000    0.000 
#    0.000    0.000    0.000    0.000    0.000    0.000 
#
# Total GULP energy -396432.727945 kJ/mol
# GULP energy per Si atom -12388.522748 kJ/mol
# Density = 2.237436 g / cm^3
# Si number density = 22.425398 Si / 1000 Ang^3
#
#
#
# Elastic Constant Matrix: (Units=GPa)
#
#
# Indices 1 2 3 4 5 6 
#
# 1 134.4160 26.6543 47.9472 0.0000 0.0000 0.0000
# 2 26.6543 62.7087 28.5538 0.0000 0.0000 0.0000
# 3 47.9472 28.5538 89.9959 0.0000 0.0000 0.0000
# 4 0.0000 0.0000 0.0000 34.2357 0.0000 0.0000
# 5 0.0000 0.0000 0.0000 0.0000 43.8565 0.0000
# 6 0.0000 0.0000 0.0000 0.0000 0.0000 41.5605
#
#
#
# Elastic Compliance Matrix: (Units=1/GPa)
#
#
# Indices 1 2 3 4 5 6 
#
# 1 0.009396 -0.002004 -0.004370 0.000000 0.000000 0.000000
# 2 -0.002004 0.019067 -0.004982 0.000000 0.000000 0.000000
# 3 -0.004370 -0.004982 0.015021 0.000000 0.000000 0.000000
# 4 0.000000 0.000000 0.000000 0.029209 0.000000 0.000000
# 5 0.000000 0.000000 0.000000 0.000000 0.022802 0.000000
# 6 0.000000 0.000000 0.000000 0.000000 0.000000 0.024061
#
#
# Mechanical properties :
#
#
# Convention : Reuss Voigt Hill
#
# Bulk Modulus (GPa) = 48.14261 54.82569 51.48415
# Shear Modulus (GPa) = 33.51410 36.19488 34.85449
#
# Velocity S-wave (km/s) = 3.87003 4.02184 3.94666
# Velocity P-wave (km/s) = 6.44081 6.78734 6.61634
#
# Compressibility (1/GPa) = 0.02077162
#
# Stress axis : x y z
#
# Youngs Moduli (GPa) = 106.43094 52.44678 66.57563
#
# Poissons Ratio (x) = 0.10509 0.29094
# Poissons Ratio (y) = 0.21327 0.33168
# Poissons Ratio (z) = 0.46511 0.26129
#
# Static dielectric constant tensor:
#      x y z
#    x 4.515100 0.000000 0.000000 
#    y 0.000000 3.919760 0.000000 
#    z 0.000000 0.000000 4.036330 
# 
# 
# High freq. dielectric constant tensor:
#      x y z
#    x 1.902180 0.000000 0.000000 
#    y 0.000000 1.861020 0.000000 
#    z 0.000000 0.000000 1.872170 
# 
# From -- ./inp_files/5944.got.cif
#   From: 2010.03.12/outbox.cif.g09.slc.cpg/sg19_3_cif.got.tgz:5944.got - 2010.04.10 18:59:41.
