data_PCOD8157504
_publ_section_title
;
Structure prediction by ZEFSAII (Michael W. Deem and Ramdas Pophale) SiO2 
 PCOD8157504
Probable space group: P 21 21 21
;
_chemical_formula_sum "Si O2"
_cell_formula_units_Z 32
_cell_length_a 4.979368
_cell_length_b 13.903864
_cell_length_c 18.016883
_cell_angle_alpha 90.000000
_cell_angle_beta 90.000000
_cell_angle_gamma 90.000000
_cell_volume 1247.353050
_symmetry_space_group_name_H-M "P 21 21 21"
_symmetry_group_IT_number 19
_symmetry_cell_setting 'orthorhombic'
loop_
_space_group_symop_operation_xyz
x,y,z
1/2-x,-y,1/2+z
1/2+x,1/2-y,-z
-x,1/2+y,1/2-z
loop_
_atom_site_type_symbol
_atom_site_label
_atom_site_fract_x
_atom_site_fract_y
_atom_site_fract_z
Si Si1 0.895812 0.332691 0.070160
Si Si2 0.255512 0.387717 0.664146
Si Si3 0.207780 0.309870 0.508812
Si Si4 0.982087 0.202912 0.698561
Si Si5 0.068286 0.064097 0.819562
Si Si6 0.507837 0.605046 0.868898
Si Si7 0.651912 0.427638 0.789346
Si Si8 0.103893 0.789674 0.593218
O O1 0.796816 0.426227 0.116662
O O2 0.705030 0.243629 0.095089
O O3 0.203202 0.305433 0.089993
O O4 0.853506 0.351777 0.982441
O O5 0.345109 0.352507 0.582850
O O6 0.011936 0.319150 0.693605
O O7 0.484457 0.374052 0.725679
O O8 0.178962 0.499934 0.651189
O O9 0.454770 0.257204 0.467238
O O10 0.078873 0.390592 0.455197
O O11 0.002901 0.169878 0.785881
O O12 0.197083 0.149778 0.644532
O O13 0.682094 0.175601 0.677290
O O14 0.156165 0.004907 0.747841
O O15 0.471034 0.493581 0.844701
O O16 0.826689 0.352447 0.835512
#
# Coordination Sequence:
#
# PCOD8157504 Si02
#       8
#     4   4   4   4   4   4   4   4
#     4  10  24  48  71 103 139 188 241 303 354 429
#     4  12  26  43  73 104 141 191 242 292 361 436
#     4  12  25  46  70 101 139 190 238 290 365 433
#     4  11  24  44  70  93 145 182 227 291 350 419
#     4  11  27  43  68 108 141 185 240 296 352 430
#     4  11  23  47  64  97 139 182 226 290 352 416
#     4  11  27  44  70 109 141 190 243 296 362 434
#     4  10  24  47  76  99 139 192 241 294 370 419
#
# _framework density 25.654326000000001
#
# number of rings (size 3 to 8) (size 9 to 14) (size 15 to 20)
#    0.000    1.000    3.750    0.750   10.500    0.000 
#    0.000    0.000    0.000    0.000    0.000    0.000 
#    0.000    0.000    0.000    0.000    0.000    0.000 
#
# Total GULP energy -396724.150813 kJ/mol
# GULP energy per Si atom -12397.629713 kJ/mol
# Density = 2.559594 g / cm^3
# Si number density = 25.654326 Si / 1000 Ang^3
#
#
#
# Elastic Constant Matrix: (Units=GPa)
#
#
# Indices 1 2 3 4 5 6 
#
# 1 64.8975 -10.5853 -5.7387 0.0000 0.0000 0.0000
# 2 -10.5853 67.2660 8.9615 0.0000 0.0000 0.0000
# 3 -5.7387 8.9615 115.6022 0.0000 0.0000 0.0000
# 4 0.0000 0.0000 0.0000 42.7943 0.0000 0.0000
# 5 0.0000 0.0000 0.0000 0.0000 37.7885 0.0000
# 6 0.0000 0.0000 0.0000 0.0000 0.0000 12.5630
#
#
#
# Elastic Compliance Matrix: (Units=1/GPa)
#
#
# Indices 1 2 3 4 5 6 
#
# 1 0.015856 0.002415 0.000600 0.000000 0.000000 0.000000
# 2 0.002415 0.015389 -0.001073 0.000000 0.000000 0.000000
# 3 0.000600 -0.001073 0.008763 0.000000 0.000000 0.000000
# 4 0.000000 0.000000 0.000000 0.023368 0.000000 0.000000
# 5 0.000000 0.000000 0.000000 0.000000 0.026463 0.000000
# 6 0.000000 0.000000 0.000000 0.000000 0.000000 0.079599
#
#
# Mechanical properties :
#
#
# Convention : Reuss Voigt Hill
#
# Bulk Modulus (GPa) = 22.78285 25.89342 24.33814
# Shear Modulus (GPa) = 27.74927 35.63771 31.69349
#
# Velocity S-wave (km/s) = 3.29243 3.73117 3.51865
# Velocity P-wave (km/s) = 4.83254 5.35512 5.10053
#
# Compressibility (1/GPa) = 0.04389266
#
# Stress axis : x y z
#
# Youngs Moduli (GPa) = 63.06803 64.97982 114.11201
#
# Poissons Ratio (x) = -0.15694 -0.06845
# Poissons Ratio (y) = -0.15232 0.12245
# Poissons Ratio (z) = -0.03783 0.06973
#
# Static dielectric constant tensor:
#      x y z
#    x 4.373220 0.000000 0.000000 
#    y 0.000000 4.859040 0.000000 
#    z 0.000000 0.000000 4.908160 
# 
# 
# High freq. dielectric constant tensor:
#      x y z
#    x 2.021810 0.000000 0.000000 
#    y 0.000000 2.010340 0.000000 
#    z 0.000000 0.000000 2.047330 
# 
# From -- ./inp_files/6463.got.cif
#   From: 2010.03.12/outbox.cif.g09.slc.cpg/sg19_4_cif.got.tgz:6463.got - 2010.04.10 18:59:41.
