data_PCOD8157418
_publ_section_title
;
Structure prediction by ZEFSAII (Michael W. Deem and Ramdas Pophale) SiO2 
 PCOD8157418
Probable space group: P 21 21 21
;
_chemical_formula_sum "Si O2"
_cell_formula_units_Z 32
_cell_length_a 9.221820
_cell_length_b 13.896597
_cell_length_c 11.307125
_cell_angle_alpha 90.000000
_cell_angle_beta 90.000000
_cell_angle_gamma 90.000000
_cell_volume 1449.029735
_symmetry_space_group_name_H-M "P 21 21 21"
_symmetry_group_IT_number 19
_symmetry_cell_setting 'orthorhombic'
loop_
_space_group_symop_operation_xyz
x,y,z
1/2-x,-y,1/2+z
1/2+x,1/2-y,-z
-x,1/2+y,1/2-z
loop_
_atom_site_type_symbol
_atom_site_label
_atom_site_fract_x
_atom_site_fract_y
_atom_site_fract_z
Si Si1 0.557158 0.557040 0.817971
Si Si2 0.693122 0.988614 0.400034
Si Si3 0.136440 0.123116 0.587543
Si Si4 0.819774 0.281902 0.956165
Si Si5 0.492126 0.049622 0.954388
Si Si6 0.994261 0.629355 0.446974
Si Si7 0.875994 0.152534 0.729621
Si Si8 0.169424 0.326392 0.471002
O O1 0.710272 0.579849 0.876789
O O2 0.558564 0.574875 0.678483
O O3 0.519427 0.442563 0.835020
O O4 0.447810 0.630934 0.880203
O O5 0.542598 0.941397 0.446541
O O6 0.698273 0.951531 0.264144
O O7 0.833814 0.945328 0.466862
O O8 0.688833 0.103063 0.415652
O O9 0.135125 0.223848 0.521375
O O10 0.046878 0.135858 0.709431
O O11 0.060951 0.054889 0.491906
O O12 0.654068 0.313906 0.976504
O O13 0.839870 0.231559 0.828989
O O14 0.922188 0.374947 0.955181
O O15 0.877739 0.210167 0.061168
O O16 0.816729 0.185197 0.602797
#
# Coordination Sequence:
#
# PCOD8157418 Si02
#       8
#     4   4   4   4   4   4   4   4
#     4  11  26  44  69 106 143 190 231 295 353 415
#     4  10  23  47  71  97 138 184 234 289 346 424
#     4  12  27  44  70 106 142 187 234 286 355 425
#     4  11  24  43  72 103 139 178 235 294 345 424
#     4  12  25  45  72 101 140 188 238 285 350 426
#     4  10  23  45  70 103 136 182 232 291 347 414
#     4  11  24  45  69 101 139 184 232 287 358 414
#     4  11  24  47  69 101 141 181 238 291 354 420
#
# _framework density 22.083742999999998
#
# number of rings (size 3 to 8) (size 9 to 14) (size 15 to 20)
#    0.000    1.000    3.750    2.250    5.250    1.000 
#    0.000    0.000    0.000    0.000    0.000    0.000 
#    0.000    0.000    0.000    0.000    0.000    0.000 
#
# Total GULP energy -396564.316505 kJ/mol
# GULP energy per Si atom -12392.634891 kJ/mol
# Density = 2.203348 g / cm^3
# Si number density = 22.083743 Si / 1000 Ang^3
#
#
#
# Elastic Constant Matrix: (Units=GPa)
#
#
# Indices 1 2 3 4 5 6 
#
# 1 94.3036 34.7126 30.4084 0.0000 0.0000 0.0000
# 2 34.7126 156.9472 59.5649 0.0000 0.0000 0.0000
# 3 30.4084 59.5649 87.7964 0.0000 0.0000 0.0000
# 4 0.0000 0.0000 0.0000 35.7914 0.0000 0.0000
# 5 0.0000 0.0000 0.0000 0.0000 32.1470 0.0000
# 6 0.0000 0.0000 0.0000 0.0000 0.0000 41.3615
#
#
#
# Elastic Compliance Matrix: (Units=1/GPa)
#
#
# Indices 1 2 3 4 5 6 
#
# 1 0.012185 -0.001472 -0.003221 0.000000 0.000000 0.000000
# 2 -0.001472 0.008759 -0.005433 0.000000 0.000000 0.000000
# 3 -0.003221 -0.005433 0.016191 0.000000 0.000000 0.000000
# 4 0.000000 0.000000 0.000000 0.027940 0.000000 0.000000
# 5 0.000000 0.000000 0.000000 0.000000 0.031107 0.000000
# 6 0.000000 0.000000 0.000000 0.000000 0.000000 0.024177
#
#
# Mechanical properties :
#
#
# Convention : Reuss Voigt Hill
#
# Bulk Modulus (GPa) = 59.23221 65.37990 62.30605
# Shear Modulus (GPa) = 34.19064 36.15071 35.17068
#
# Velocity S-wave (km/s) = 3.93902 4.05035 3.99507
# Velocity P-wave (km/s) = 6.89693 7.17938 7.03958
#
# Compressibility (1/GPa) = 0.01688271
#
# Stress axis : x y z
#
# Youngs Moduli (GPa) = 82.06987 114.16854 61.76150
#
# Poissons Ratio (x) = 0.16810 0.19895
# Poissons Ratio (y) = 0.12084 0.33552
# Poissons Ratio (z) = 0.26437 0.62022
#
# Static dielectric constant tensor:
#      x y z
#    x 4.250350 0.000000 0.000000 
#    y 0.000000 4.205740 0.000000 
#    z 0.000000 0.000000 3.827400 
# 
# 
# High freq. dielectric constant tensor:
#      x y z
#    x 1.886610 0.000000 0.000000 
#    y 0.000000 1.881770 0.000000 
#    z 0.000000 0.000000 1.847020 
# 
# From -- ./inp_files/4732.got.cif
#   From: 2010.03.12/outbox.cif.g09.slc.cpg/sg19_3_cif.got.tgz:4732.got - 2010.04.10 18:59:41.
