data_PCOD8157677
_publ_section_title
;
Structure prediction by ZEFSAII (Michael W. Deem and Ramdas Pophale) SiO2 
 PCOD8157677
Probable space group: P 21 21 21
;
_chemical_formula_sum "Si O2"
_cell_formula_units_Z 32
_cell_length_a 21.127520
_cell_length_b 4.781826
_cell_length_c 11.509225
_cell_angle_alpha 90.000000
_cell_angle_beta 90.000000
_cell_angle_gamma 90.000000
_cell_volume 1162.755416
_symmetry_space_group_name_H-M "P 21 21 21"
_symmetry_group_IT_number 19
_symmetry_cell_setting 'orthorhombic'
loop_
_space_group_symop_operation_xyz
x,y,z
1/2-x,-y,1/2+z
1/2+x,1/2-y,-z
-x,1/2+y,1/2-z
loop_
_atom_site_type_symbol
_atom_site_label
_atom_site_fract_x
_atom_site_fract_y
_atom_site_fract_z
Si Si1 0.644170 0.593905 0.391811
Si Si2 0.375589 0.022982 0.794377
Si Si3 0.695599 0.042351 0.067915
Si Si4 0.474795 0.555908 0.807259
Si Si5 0.916210 0.089323 0.709122
Si Si6 0.167108 0.482603 0.421604
Si Si7 0.713785 0.534363 0.915362
Si Si8 0.529838 0.215486 0.430222
O O1 0.620421 0.636437 0.258615
O O2 0.654339 0.909591 0.446254
O O3 0.710573 0.425880 0.393747
O O4 0.587223 0.427934 0.456635
O O5 0.428875 0.802165 0.753264
O O6 0.340373 0.851136 0.901675
O O7 0.387284 0.340697 0.849385
O O8 0.323967 0.096763 0.699746
O O9 0.764760 0.083064 0.126680
O O10 0.639253 0.110131 0.158239
O O11 0.693096 0.225909 0.952194
O O12 0.691368 0.726742 0.021545
O O13 0.464345 0.241554 0.746519
O O14 0.478930 0.547727 0.948340
O O15 0.963369 0.139528 0.601443
O O16 0.955344 0.974146 0.818487
#
# Coordination Sequence:
#
# PCOD8157677 Si02
#       8
#     4   4   4   4   4   4   4   4
#     4  11  25  46  72 109 151 205 256 323 393 482
#     4  12  24  45  74 106 141 194 256 318 390 450
#     4  11  27  46  72 114 152 202 248 322 391 469
#     4  12  30  50  79 107 152 209 267 335 387 473
#     4  12  28  47  79 112 164 208 265 332 399 494
#     4  11  23  44  74 107 145 196 254 321 386 470
#     4  11  27  45  75 110 154 199 257 323 395 471
#     4  12  28  49  77 115 155 215 269 320 411 477
#
# _framework density 27.520835999999999
#
# number of rings (size 3 to 8) (size 9 to 14) (size 15 to 20)
#    0.000    0.500    2.500    4.500   12.250    0.000 
#    0.000    0.000    0.000    0.000    0.000    0.000 
#    0.000    0.000    0.000    0.000    0.000    0.000 
#
# Total GULP energy -396473.534144 kJ/mol
# GULP energy per Si atom -12389.797942 kJ/mol
# Density = 2.745820 g / cm^3
# Si number density = 27.520836 Si / 1000 Ang^3
#
#
#
# Elastic Constant Matrix: (Units=GPa)
#
#
# Indices 1 2 3 4 5 6 
#
# 1 99.2211 8.3285 44.9444 0.0000 0.0000 0.0000
# 2 8.3285 138.5866 30.1167 0.0000 0.0000 0.0000
# 3 44.9444 30.1167 122.2683 0.0000 0.0000 0.0000
# 4 0.0000 0.0000 0.0000 45.7718 0.0000 0.0000
# 5 0.0000 0.0000 0.0000 0.0000 60.2257 0.0000
# 6 0.0000 0.0000 0.0000 0.0000 0.0000 28.0251
#
#
#
# Elastic Compliance Matrix: (Units=1/GPa)
#
#
# Indices 1 2 3 4 5 6 
#
# 1 0.012100 0.000253 -0.004510 0.000000 0.000000 0.000000
# 2 0.000253 0.007629 -0.001972 0.000000 0.000000 0.000000
# 3 -0.004510 -0.001972 0.010322 0.000000 0.000000 0.000000
# 4 0.000000 0.000000 0.000000 0.021847 0.000000 0.000000
# 5 0.000000 0.000000 0.000000 0.000000 0.016604 0.000000
# 6 0.000000 0.000000 0.000000 0.000000 0.000000 0.035682
#
#
# Mechanical properties :
#
#
# Convention : Reuss Voigt Hill
#
# Bulk Modulus (GPa) = 56.84103 58.53946 57.69025
# Shear Modulus (GPa) = 40.81337 45.25029 43.03183
#
# Velocity S-wave (km/s) = 3.85515 4.05930 3.95854
# Velocity P-wave (km/s) = 6.36513 6.57934 6.47312
#
# Compressibility (1/GPa) = 0.01759292
#
# Stress axis : x y z
#
# Youngs Moduli (GPa) = 82.64271 131.07746 96.87655
#
# Poissons Ratio (x) = -0.03316 0.43694
# Poissons Ratio (y) = -0.02091 0.19106
# Poissons Ratio (z) = 0.37274 0.25850
#
# Static dielectric constant tensor:
#      x y z
#    x 5.884790 0.000000 0.000000 
#    y 0.000000 5.087440 0.000000 
#    z 0.000000 0.000000 4.845330 
# 
# 
# High freq. dielectric constant tensor:
#      x y z
#    x 2.149980 0.000000 0.000000 
#    y 0.000000 2.124030 0.000000 
#    z 0.000000 0.000000 2.106600 
# 
# From -- ./inp_files/5512.got.cif
#   From: 2010.03.12/outbox.cif.g09.slc.cpg/sg19_3_cif.got.tgz:5512.got - 2010.04.10 18:59:41.
