data_PCOD8157171
_publ_section_title
;
Structure prediction by ZEFSAII (Michael W. Deem and Ramdas Pophale) SiO2 
 PCOD8157171
Probable space group: P 21 21 21
;
_chemical_formula_sum "Si O2"
_cell_formula_units_Z 20
_cell_length_a 8.564354
_cell_length_b 13.054644
_cell_length_c 9.502287
_cell_angle_alpha 90.000000
_cell_angle_beta 90.000000
_cell_angle_gamma 90.000000
_cell_volume 1062.399326
_symmetry_space_group_name_H-M "P 21 21 21"
_symmetry_group_IT_number 19
_symmetry_cell_setting 'orthorhombic'
loop_
_space_group_symop_operation_xyz
x,y,z
1/2-x,-y,1/2+z
1/2+x,1/2-y,-z
-x,1/2+y,1/2-z
loop_
_atom_site_type_symbol
_atom_site_label
_atom_site_fract_x
_atom_site_fract_y
_atom_site_fract_z
Si Si1 0.177866 0.269801 0.263334
Si Si2 0.596184 0.449880 0.760888
Si Si3 0.427585 0.114344 0.244006
Si Si4 0.395365 0.563980 0.980712
Si Si5 0.598091 0.067450 0.964692
O O1 0.061138 0.172739 0.241549
O O2 0.355593 0.227081 0.277023
O O3 0.128312 0.327221 0.405132
O O4 0.171821 0.343730 0.129678
O O5 0.784135 0.467582 0.760226
O O6 0.526989 0.498219 0.902143
O O7 0.524821 0.501058 0.622837
O O8 0.553334 0.082622 0.359982
O O9 0.511943 0.119552 0.094778
O O10 0.232981 0.504764 0.976188
#
# Coordination Sequence:
#
# PCOD8157171 Si02
#       5
#     4   4   4   4   4
#     4   9  24  37  61  92 126 160 211 240 320 360
#     4   9  22  39  63  89 127 160 206 251 310 371
#     4  10  22  40  64  89 123 172 201 259 310 369
#     4  11  22  42  63  95 126 161 211 261 305 367
#     4  11  22  42  63  95 126 161 211 261 305 367
#
# _framework density 18.825312
#
# number of rings (size 3 to 8) (size 9 to 14) (size 15 to 20)
#    1.200    0.800    0.000    3.600    5.600    0.000 
#    0.000    0.000    0.000    0.000    0.000    0.000 
#    0.000    0.000    0.000    0.000    0.000    0.000 
#
# Total GULP energy -247951.629015 kJ/mol
# GULP energy per Si atom -12397.581451 kJ/mol
# Density = 1.878246 g / cm^3
# Si number density = 18.825312 Si / 1000 Ang^3
#
#
#
# Elastic Constant Matrix: (Units=GPa)
#
#
# Indices 1 2 3 4 5 6 
#
# 1 77.4088 11.3801 19.4259 0.0000 0.0000 0.0000
# 2 11.3801 87.9138 19.7109 0.0000 0.0000 0.0000
# 3 19.4259 19.7109 98.7004 0.0000 0.0000 0.0000
# 4 0.0000 0.0000 0.0000 14.4681 0.0000 0.0000
# 5 0.0000 0.0000 0.0000 0.0000 34.5078 0.0000
# 6 0.0000 0.0000 0.0000 0.0000 0.0000 37.0331
#
#
#
# Elastic Compliance Matrix: (Units=1/GPa)
#
#
# Indices 1 2 3 4 5 6 
#
# 1 0.013715 -0.001225 -0.002455 0.000000 0.000000 0.000000
# 2 -0.001225 0.012017 -0.002159 0.000000 0.000000 0.000000
# 3 -0.002455 -0.002159 0.011046 0.000000 0.000000 0.000000
# 4 0.000000 0.000000 0.000000 0.069118 0.000000 0.000000
# 5 0.000000 0.000000 0.000000 0.000000 0.028979 0.000000
# 6 0.000000 0.000000 0.000000 0.000000 0.000000 0.027003
#
#
# Mechanical properties :
#
#
# Convention : Reuss Voigt Hill
#
# Bulk Modulus (GPa) = 39.83907 40.56188 40.20047
# Shear Modulus (GPa) = 27.48446 31.43552 29.45999
#
# Velocity S-wave (km/s) = 3.82511 4.09082 3.96019
# Velocity P-wave (km/s) = 6.38099 6.62618 6.50474
#
# Compressibility (1/GPa) = 0.02510099
#
# Stress axis : x y z
#
# Youngs Moduli (GPa) = 72.91548 83.21289 90.53122
#
# Poissons Ratio (x) = 0.10193 0.22222
# Poissons Ratio (y) = 0.08932 0.19544
# Poissons Ratio (z) = 0.17898 0.17964
#
# Static dielectric constant tensor:
#      x y z
#    x 3.342450 0.000000 0.000000 
#    y 0.000000 3.427820 0.000000 
#    z 0.000000 0.000000 3.335810 
# 
# 
# High freq. dielectric constant tensor:
#      x y z
#    x 1.728770 0.000000 0.000000 
#    y 0.000000 1.727990 0.000000 
#    z 0.000000 0.000000 1.740770 
# 
# From -- ./inp_files/2658.got.cif
#   From: 2010.03.12/outbox.cif.g09.slc.cpg/sg19_2_cif.got.tgz:2658.got - 2010.04.10 18:59:41.
