data_PCOD8157825
_publ_section_title
;
Structure prediction by ZEFSAII (Michael W. Deem and Ramdas Pophale) SiO2 
 PCOD8157825
Probable space group: P 21 21 21
;
_chemical_formula_sum "Si O2"
_cell_formula_units_Z 28
_cell_length_a 6.942016
_cell_length_b 18.661088
_cell_length_c 9.551327
_cell_angle_alpha 90.000000
_cell_angle_beta 90.000000
_cell_angle_gamma 90.000000
_cell_volume 1237.332115
_symmetry_space_group_name_H-M "P 21 21 21"
_symmetry_group_IT_number 19
_symmetry_cell_setting 'orthorhombic'
loop_
_space_group_symop_operation_xyz
x,y,z
1/2-x,-y,1/2+z
1/2+x,1/2-y,-z
-x,1/2+y,1/2-z
loop_
_atom_site_type_symbol
_atom_site_label
_atom_site_fract_x
_atom_site_fract_y
_atom_site_fract_z
Si Si1 0.207453 0.224091 0.843648
Si Si2 0.545200 0.155037 0.987941
Si Si3 0.503020 0.304140 0.656021
Si Si4 0.712285 0.071393 0.752894
Si Si5 0.854893 0.207349 0.643251
Si Si6 0.404223 0.967743 0.850636
Si Si7 0.453652 0.027274 0.159836
O O1 0.342799 0.159458 0.900310
O O2 0.341701 0.280485 0.764253
O O3 0.034689 0.194011 0.748094
O O4 0.112893 0.265129 0.975035
O O5 0.713009 0.116271 0.898304
O O6 0.516140 0.108688 0.128026
O O7 0.712617 0.270810 0.694680
O O8 0.442991 0.272624 0.505726
O O9 0.503238 0.389542 0.656386
O O10 0.730838 0.132856 0.633220
O O11 0.519756 0.024058 0.753484
O O12 0.883640 0.016215 0.739425
O O13 0.199121 0.966922 0.781425
O O14 0.390453 0.990799 0.013323
#
# Coordination Sequence:
#
# PCOD8157825 Si02
#       7
#     4   4   4   4   4   4   4
#     4  12  26  46  71 107 148 185 242 302 362 441
#     4  11  26  46  72 105 141 195 236 297 369 428
#     4  12  25  46  72 109 142 191 239 302 364 432
#     4  11  25  48  69 103 142 194 239 296 352 433
#     4  12  25  45  73 105 146 186 247 299 369 429
#     4  11  27  45  73 104 144 189 247 293 369 427
#     4  11  26  46  70 105 143 192 242 299 361 430
#
# _framework density 22.629332999999999
#
# number of rings (size 3 to 8) (size 9 to 14) (size 15 to 20)
#    0.000    0.571    4.286    2.571    6.000    4.571 
#    2.571    0.000    0.000    0.000    0.000    0.000 
#    0.000    0.000    0.000    0.000    0.000    0.000 
#
# Total GULP energy -347129.506887 kJ/mol
# GULP energy per Si atom -12397.482389 kJ/mol
# Density = 2.257783 g / cm^3
# Si number density = 22.629333 Si / 1000 Ang^3
#
#
#
# Elastic Constant Matrix: (Units=GPa)
#
#
# Indices 1 2 3 4 5 6 
#
# 1 79.1633 16.2170 49.6053 0.0000 0.0000 0.0000
# 2 16.2170 97.9889 10.9973 0.0000 0.0000 0.0000
# 3 49.6053 10.9973 63.9224 0.0000 0.0000 0.0000
# 4 0.0000 0.0000 0.0000 28.4985 0.0000 0.0000
# 5 0.0000 0.0000 0.0000 0.0000 41.6177 0.0000
# 6 0.0000 0.0000 0.0000 0.0000 0.0000 36.4129
#
#
#
# Elastic Compliance Matrix: (Units=1/GPa)
#
#
# Indices 1 2 3 4 5 6 
#
# 1 0.024966 -0.001996 -0.019031 0.000000 0.000000 0.000000
# 2 -0.001996 0.010566 -0.000269 0.000000 0.000000 0.000000
# 3 -0.019031 -0.000269 0.030459 0.000000 0.000000 0.000000
# 4 0.000000 0.000000 0.000000 0.035090 0.000000 0.000000
# 5 0.000000 0.000000 0.000000 0.000000 0.024028 0.000000
# 6 0.000000 0.000000 0.000000 0.000000 0.000000 0.027463
#
#
# Mechanical properties :
#
#
# Convention : Reuss Voigt Hill
#
# Bulk Modulus (GPa) = 42.73673 43.85712 43.29692
# Shear Modulus (GPa) = 24.63510 32.25614 28.44562
#
# Velocity S-wave (km/s) = 3.30303 3.77956 3.54930
# Velocity P-wave (km/s) = 5.78560 6.20238 5.99761
#
# Compressibility (1/GPa) = 0.02339908
#
# Stress axis : x y z
#
# Youngs Moduli (GPa) = 40.05417 94.64549 32.83136
#
# Poissons Ratio (x) = 0.18891 0.62481
# Poissons Ratio (y) = 0.07995 0.00882
# Poissons Ratio (z) = 0.76227 0.02544
#
# Static dielectric constant tensor:
#      x y z
#    x 4.197760 0.000000 0.000000 
#    y 0.000000 4.305580 0.000000 
#    z 0.000000 0.000000 4.009020 
# 
# 
# High freq. dielectric constant tensor:
#      x y z
#    x 1.896200 0.000000 0.000000 
#    y 0.000000 1.905940 0.000000 
#    z 0.000000 0.000000 1.888470 
# 
# From -- ./inp_files/4470.got.cif
#   From: 2010.03.12/outbox.cif.g09.slc.cpg/sg19_3_cif.got.tgz:4470.got - 2010.04.10 18:59:41.
