data_PCOD8157256
_publ_section_title
;
Structure prediction by ZEFSAII (Michael W. Deem and Ramdas Pophale) SiO2 
 PCOD8157256
Probable space group: P 21 21 21
;
_chemical_formula_sum "Si O2"
_cell_formula_units_Z 28
_cell_length_a 18.857377
_cell_length_b 8.095308
_cell_length_c 8.428043
_cell_angle_alpha 90.000000
_cell_angle_beta 90.000000
_cell_angle_gamma 90.000000
_cell_volume 1286.593649
_symmetry_space_group_name_H-M "P 21 21 21"
_symmetry_group_IT_number 19
_symmetry_cell_setting 'orthorhombic'
loop_
_space_group_symop_operation_xyz
x,y,z
1/2-x,-y,1/2+z
1/2+x,1/2-y,-z
-x,1/2+y,1/2-z
loop_
_atom_site_type_symbol
_atom_site_label
_atom_site_fract_x
_atom_site_fract_y
_atom_site_fract_z
Si Si1 0.289131 0.479501 0.931061
Si Si2 0.749039 0.647809 0.461303
Si Si3 0.587186 0.216717 0.475805
Si Si4 0.389160 0.805679 0.680824
Si Si5 0.430128 0.127310 0.487214
Si Si6 0.844365 0.548109 0.752895
Si Si7 0.852455 0.043723 0.411177
O O1 0.299563 0.307613 0.022506
O O2 0.345948 0.596971 0.013126
O O3 0.306373 0.448909 0.748223
O O4 0.206871 0.540097 0.948996
O O5 0.803887 0.673008 0.315445
O O6 0.791307 0.624129 0.624449
O O7 0.698952 0.497649 0.411994
O O8 0.580409 0.315629 0.641856
O O9 0.512676 0.128720 0.446552
O O10 0.597656 0.324495 0.317659
O O11 0.401501 0.624171 0.595850
O O12 0.422221 0.959761 0.588534
O O13 0.402703 0.294717 0.573213
O O14 0.385277 0.106640 0.325347
#
# Coordination Sequence:
#
# PCOD8157256 Si02
#       7
#     4   4   4   4   4   4   4
#     4  10  23  40  69 102 130 174 235 292 343 397
#     4  10  22  42  68 102 131 178 229 301 346 398
#     4  11  25  45  67 102 139 182 235 287 350 430
#     4   9  23  44  69  99 131 176 241 282 349 413
#     4  11  27  46  68  97 148 190 222 285 363 422
#     4  11  25  43  68 102 137 181 234 289 348 421
#     4  10  23  44  69 104 134 177 232 296 339 415
#
# _framework density 21.762892000000001
#
# number of rings (size 3 to 8) (size 9 to 14) (size 15 to 20)
#    0.000    1.714    0.000    1.714   20.000    1.143 
#   10.286    0.000    0.000    0.000    0.000    0.000 
#    0.000    0.000    0.000    0.000    0.000    0.000 
#
# Total GULP energy -346992.102693 kJ/mol
# GULP energy per Si atom -12392.575096 kJ/mol
# Density = 2.171336 g / cm^3
# Si number density = 21.762892 Si / 1000 Ang^3
#
#
#
# Elastic Constant Matrix: (Units=GPa)
#
#
# Indices 1 2 3 4 5 6 
#
# 1 81.1862 49.9922 38.5039 0.0000 0.0000 0.0000
# 2 49.9922 127.1169 42.9464 0.0000 0.0000 0.0000
# 3 38.5039 42.9464 93.1197 0.0000 0.0000 0.0000
# 4 0.0000 0.0000 0.0000 25.2108 0.0000 0.0000
# 5 0.0000 0.0000 0.0000 0.0000 21.0463 0.0000
# 6 0.0000 0.0000 0.0000 0.0000 0.0000 32.5907
#
#
#
# Elastic Compliance Matrix: (Units=1/GPa)
#
#
# Indices 1 2 3 4 5 6 
#
# 1 0.017991 -0.005404 -0.004947 0.000000 0.000000 0.000000
# 2 -0.005404 0.010942 -0.002812 0.000000 0.000000 0.000000
# 3 -0.004947 -0.002812 0.014081 0.000000 0.000000 0.000000
# 4 0.000000 0.000000 0.000000 0.039666 0.000000 0.000000
# 5 0.000000 0.000000 0.000000 0.000000 0.047514 0.000000
# 6 0.000000 0.000000 0.000000 0.000000 0.000000 0.030684
#
#
# Mechanical properties :
#
#
# Convention : Reuss Voigt Hill
#
# Bulk Modulus (GPa) = 59.92073 62.70090 61.31081
# Shear Modulus (GPa) = 25.93811 27.10159 26.51985
#
# Velocity S-wave (km/s) = 3.45606 3.53273 3.49460
# Velocity P-wave (km/s) = 6.59690 6.74638 6.67206
#
# Compressibility (1/GPa) = 0.01668871
#
# Stress axis : x y z
#
# Youngs Moduli (GPa) = 55.58256 91.38970 71.01719
#
# Poissons Ratio (x) = 0.49390 0.35130
# Poissons Ratio (y) = 0.30039 0.19969
# Poissons Ratio (z) = 0.27495 0.25697
#
# Static dielectric constant tensor:
#      x y z
#    x 3.833880 0.000000 0.000000 
#    y 0.000000 4.145420 0.000000 
#    z 0.000000 0.000000 3.953090 
# 
# 
# High freq. dielectric constant tensor:
#      x y z
#    x 1.842870 0.000000 0.000000 
#    y 0.000000 1.863940 0.000000 
#    z 0.000000 0.000000 1.854620 
# 
# From -- ./inp_files/4152.got.cif
#   From: 2010.03.12/outbox.cif.g09.slc.cpg/sg19_3_cif.got.tgz:4152.got - 2010.04.10 18:59:41.
