data_PCOD8157033
_publ_section_title
;
Structure prediction by ZEFSAII (Michael W. Deem and Ramdas Pophale) SiO2 
 PCOD8157033
Probable space group: P 21 21 21
;
_chemical_formula_sum "Si O2"
_cell_formula_units_Z 32
_cell_length_a 9.070650
_cell_length_b 13.410134
_cell_length_c 11.978965
_cell_angle_alpha 90.000000
_cell_angle_beta 90.000000
_cell_angle_gamma 90.000000
_cell_volume 1457.104915
_symmetry_space_group_name_H-M "P 21 21 21"
_symmetry_group_IT_number 19
_symmetry_cell_setting 'orthorhombic'
loop_
_space_group_symop_operation_xyz
x,y,z
1/2-x,-y,1/2+z
1/2+x,1/2-y,-z
-x,1/2+y,1/2-z
loop_
_atom_site_type_symbol
_atom_site_label
_atom_site_fract_x
_atom_site_fract_y
_atom_site_fract_z
Si Si1 0.168491 0.730565 0.118375
Si Si2 0.343800 0.592254 0.273793
Si Si3 0.098493 0.121938 0.015398
Si Si4 0.238647 0.678273 0.494240
Si Si5 0.175154 0.222951 0.400444
Si Si6 0.087562 0.933907 0.896017
Si Si7 0.298344 0.605982 0.734778
Si Si8 0.420462 0.064028 0.640603
O O1 0.215382 0.650083 0.209119
O O2 0.191639 0.844499 0.167482
O O3 0.998486 0.707624 0.092493
O O4 0.265959 0.717964 0.008342
O O5 0.346031 0.635534 0.398334
O O6 0.497319 0.608053 0.209044
O O7 0.318489 0.474028 0.279441
O O8 0.222751 0.205762 0.010569
O O9 0.102859 0.055473 0.900703
O O10 0.934725 0.167490 0.034719
O O11 0.143161 0.048074 0.120598
O O12 0.279417 0.615315 0.602894
O O13 0.250460 0.114592 0.389314
O O14 0.223161 0.287629 0.292900
O O15 0.012019 0.904339 0.016560
O O16 0.458402 0.561088 0.763315
#
# Coordination Sequence:
#
# PCOD8157033 Si02
#       8
#     4   4   4   4   4   4   4   4
#     4  10  21  39  71  99 130 176 231 280 335 405
#     4  12  23  40  67  99 135 186 230 270 344 415
#     4  10  23  48  63  97 137 175 222 292 346 407
#     4  12  27  42  69  96 138 186 224 277 356 419
#     4  10  22  41  71 102 131 175 230 286 335 400
#     4   9  20  44  68  94 139 175 219 292 336 395
#     4  11  22  40  67  97 133 185 227 267 342 413
#     4   8  18  40  68  90 131 172 213 284 336 388
#
# _framework density 21.961357
#
# number of rings (size 3 to 8) (size 9 to 14) (size 15 to 20)
#    0.750    1.000    2.500    2.250    7.000    0.000 
#    2.250    1.250    0.000    0.000    0.000    0.000 
#    0.000    0.000    0.000    0.000    0.000    0.000 
#
# Total GULP energy -396447.896596 kJ/mol
# GULP energy per Si atom -12388.996769 kJ/mol
# Density = 2.191137 g / cm^3
# Si number density = 21.961357 Si / 1000 Ang^3
#
#
#
# Elastic Constant Matrix: (Units=GPa)
#
#
# Indices 1 2 3 4 5 6 
#
# 1 70.3705 38.9515 8.3521 0.0000 0.0000 0.0000
# 2 38.9515 113.8646 -2.6049 0.0000 0.0000 0.0000
# 3 8.3521 -2.6049 53.4573 0.0000 0.0000 0.0000
# 4 0.0000 0.0000 0.0000 29.3822 0.0000 0.0000
# 5 0.0000 0.0000 0.0000 0.0000 12.1064 0.0000
# 6 0.0000 0.0000 0.0000 0.0000 0.0000 38.5062
#
#
#
# Elastic Compliance Matrix: (Units=1/GPa)
#
#
# Indices 1 2 3 4 5 6 
#
# 1 0.018036 -0.006241 -0.003122 0.000000 0.000000 0.000000
# 2 -0.006241 0.010952 0.001509 0.000000 0.000000 0.000000
# 3 -0.003122 0.001509 0.019268 0.000000 0.000000 0.000000
# 4 0.000000 0.000000 0.000000 0.034034 0.000000 0.000000
# 5 0.000000 0.000000 0.000000 0.000000 0.082601 0.000000
# 6 0.000000 0.000000 0.000000 0.000000 0.000000 0.025970
#
#
# Mechanical properties :
#
#
# Convention : Reuss Voigt Hill
#
# Bulk Modulus (GPa) = 30.72516 36.34332 33.53424
# Shear Modulus (GPa) = 22.99717 28.86520 25.93119
#
# Velocity S-wave (km/s) = 3.23950 3.62935 3.43995
# Velocity P-wave (km/s) = 5.29277 5.84359 5.57499
#
# Compressibility (1/GPa) = 0.03254662
#
# Stress axis : x y z
#
# Youngs Moduli (GPa) = 55.44575 91.30838 51.89997
#
# Poissons Ratio (x) = 0.56987 0.16203
# Poissons Ratio (y) = 0.34605 -0.07831
# Poissons Ratio (z) = 0.17310 -0.13776
#
# Static dielectric constant tensor:
#      x y z
#    x 3.544560 0.000000 0.000000 
#    y 0.000000 4.237600 0.000000 
#    z 0.000000 0.000000 3.938590 
# 
# 
# High freq. dielectric constant tensor:
#      x y z
#    x 1.834870 0.000000 0.000000 
#    y 0.000000 1.877130 0.000000 
#    z 0.000000 0.000000 1.855820 
# 
# From -- ./inp_files/4683.got.cif
#   From: 2010.03.12/outbox.cif.g09.slc.cpg/sg19_3_cif.got.tgz:4683.got - 2010.04.10 18:59:41.
