data_PCOD8157930
_publ_section_title
;
Structure prediction by ZEFSAII (Michael W. Deem and Ramdas Pophale) SiO2 
 PCOD8157930
Probable space group: P 21 21 21
;
_chemical_formula_sum "Si O2"
_cell_formula_units_Z 16
_cell_length_a 18.054781
_cell_length_b 6.514986
_cell_length_c 4.646768
_cell_angle_alpha 90.000000
_cell_angle_beta 90.000000
_cell_angle_gamma 90.000000
_cell_volume 546.583732
_symmetry_space_group_name_H-M "P 21 21 21"
_symmetry_group_IT_number 19
_symmetry_cell_setting 'orthorhombic'
loop_
_space_group_symop_operation_xyz
x,y,z
1/2-x,-y,1/2+z
1/2+x,1/2-y,-z
-x,1/2+y,1/2-z
loop_
_atom_site_type_symbol
_atom_site_label
_atom_site_fract_x
_atom_site_fract_y
_atom_site_fract_z
Si Si1 0.951419 0.704321 0.117589
Si Si2 0.113815 0.413179 0.858698
Si Si3 0.246903 0.850691 0.188176
Si Si4 0.901383 0.250984 0.062896
O O1 0.909384 0.494323 0.046091
O O2 0.030302 0.650505 0.257034
O O3 0.958155 0.813929 0.807321
O O4 0.109591 0.652354 0.756738
O O5 0.186801 0.308019 0.734416
O O6 0.101052 0.358046 0.192743
O O7 0.173527 0.714477 0.251177
O O8 0.255094 0.063845 0.364645
#
# Coordination Sequence:
#
# PCOD8157930 Si02
#       4
#     4   4   4   4
#     4  12  28  50  80 123 157 215 277 336 409 498
#     4  12  28  50  81 118 160 216 275 333 417 488
#     4  12  26  50  80 117 165 214 273 340 408 497
#     4  12  28  52  85 116 170 215 273 347 414 489
#
# _framework density 29.272739000000001
#
# number of rings (size 3 to 8) (size 9 to 14) (size 15 to 20)
#    0.000    0.000    7.500    0.000    3.500   10.000 
#    0.000    0.000    0.000    0.000    0.000    0.000 
#    0.000    0.000    0.000    0.000    0.000    0.000 
#
# Total GULP energy -198378.372303 kJ/mol
# GULP energy per Si atom -12398.648269 kJ/mol
# Density = 2.920611 g / cm^3
# Si number density = 29.272739 Si / 1000 Ang^3
#
#
#
# Elastic Constant Matrix: (Units=GPa)
#
#
# Indices 1 2 3 4 5 6 
#
# 1 115.4330 51.8545 -6.6726 0.0000 0.0000 0.0000
# 2 51.8545 117.0916 17.8410 0.0000 0.0000 0.0000
# 3 -6.6726 17.8410 77.9419 0.0000 0.0000 0.0000
# 4 0.0000 0.0000 0.0000 59.7346 0.0000 0.0000
# 5 0.0000 0.0000 0.0000 0.0000 27.4984 0.0000
# 6 0.0000 0.0000 0.0000 0.0000 0.0000 69.9490
#
#
#
# Elastic Compliance Matrix: (Units=1/GPa)
#
#
# Indices 1 2 3 4 5 6 
#
# 1 0.011155 -0.005269 0.002161 0.000000 0.000000 0.000000
# 2 -0.005269 0.011338 -0.003046 0.000000 0.000000 0.000000
# 3 0.002161 -0.003046 0.013712 0.000000 0.000000 0.000000
# 4 0.000000 0.000000 0.000000 0.016741 0.000000 0.000000
# 5 0.000000 0.000000 0.000000 0.000000 0.036366 0.000000
# 6 0.000000 0.000000 0.000000 0.000000 0.000000 0.014296
#
#
# Mechanical properties :
#
#
# Convention : Reuss Voigt Hill
#
# Bulk Modulus (GPa) = 41.84752 48.50139 45.17445
# Shear Modulus (GPa) = 40.36075 47.93263 44.14669
#
# Velocity S-wave (km/s) = 3.71722 4.05093 3.88766
# Velocity P-wave (km/s) = 5.72280 6.20361 5.96805
#
# Compressibility (1/GPa) = 0.02389628
#
# Stress axis : x y z
#
# Youngs Moduli (GPa) = 89.64554 88.19858 72.92659
#
# Poissons Ratio (x) = 0.46475 -0.15760
# Poissons Ratio (y) = 0.47237 0.22216
# Poissons Ratio (z) = -0.19374 0.26869
#
# Static dielectric constant tensor:
#      x y z
#    x 5.796430 0.000000 0.000000 
#    y 0.000000 5.343580 0.000000 
#    z 0.000000 0.000000 5.385730 
# 
# 
# High freq. dielectric constant tensor:
#      x y z
#    x 2.203950 0.000000 0.000000 
#    y 0.000000 2.215950 0.000000 
#    z 0.000000 0.000000 2.198050 
# 
# From -- ./inp_files/1904.got.cif
#   From: 2010.03.12/outbox.cif.g09.slc.cpg/sg19_1_cif.got.tgz:1904.got - 2010.04.10 18:59:41.
