data_PCOD8157975
_publ_section_title
;
Structure prediction by ZEFSAII (Michael W. Deem and Ramdas Pophale) SiO2 
 PCOD8157975
Probable space group: C 2 2 21
;
_chemical_formula_sum "Si O2"
_cell_formula_units_Z 60
_cell_length_a 20.961313
_cell_length_b 11.599152
_cell_length_c 11.870043
_cell_angle_alpha 90.000000
_cell_angle_beta 90.000000
_cell_angle_gamma 90.000000
_cell_volume 2886.004573
_symmetry_space_group_name_H-M "C 2 2 21"
_symmetry_group_IT_number 20
_symmetry_cell_setting 'orthorhombic'
loop_
_space_group_symop_operation_xyz
x,y,z
-x,-y,1/2+z
x,-y,-z
-x,y,1/2-z
1/2+x,1/2+y,z
1/2-x,1/2-y,1/2+z
1/2+x,1/2-y,-z
1/2-x,1/2+y,1/2-z
loop_
_atom_site_type_symbol
_atom_site_label
_atom_site_fract_x
_atom_site_fract_y
_atom_site_fract_z
Si Si1 0.805388 0.339898 0.218700
Si Si2 0.553336 0.457914 0.159055
Si Si3 0.122674 0.807088 0.903194
Si Si4 0.507050 0.256371 0.028795
Si Si5 0.862005 0.577396 0.242438
Si Si6 0.334204 0.299633 0.354270
Si Si7 0.000000 0.610746 0.250000
Si Si8 0.380342 0.133737 0.003305
O O1 0.837150 0.244828 0.299839
O O2 0.819108 0.466808 0.265945
O O3 0.729837 0.327940 0.212911
O O4 0.830476 0.330888 0.091541
O O5 0.500000 0.489619 0.250000
O O6 0.592854 0.570924 0.129393
O O7 0.516895 0.394172 0.053844
O O8 0.607335 0.368574 0.204328
O O9 0.168900 0.826800 0.011648
O O10 0.063340 0.723336 0.939723
O O11 0.516321 0.191333 0.145446
O O12 0.438651 0.221716 0.979787
O O13 0.847932 0.663391 0.344147
O O14 0.936359 0.535001 0.232158
O O15 0.846990 0.647293 0.125732
O O16 0.403165 0.000000 0.000000
#
# Coordination Sequence:
#
# PCOD8157975 Si02
#       8
#     8   8   8   8   8   8   4   8
#     4  11  27  41  63 102 134 176 224 277 342 404
#     4  11  22  42  69  99 131 178 230 277 342 409
#     4  11  26  41  65  98 137 179 218 287 341 399
#     4  10  18  38  63  92 131 171 217 265 331 400
#     4  10  21  41  70  93 125 174 218 274 328 403
#     4  11  24  45  68  90 132 182 229 274 336 418
#     4  10  16  38  66  92 122 162 220 262 316 396
#     4   9  21  38  64  99 132 170 217 277 334 399
#
# _framework density 20.789988000000001
#
# number of rings (size 3 to 8) (size 9 to 14) (size 15 to 20)
#    0.000    1.600    3.333    2.400    5.600    5.867 
#    0.000    0.000    0.000    0.000    0.000    0.000 
#    0.000    0.000    0.000    0.000    0.000    0.000 
#
# Total GULP energy -371692.409493 kJ/mol
# GULP energy per Si atom -12389.746983 kJ/mol
# Density = 2.074267 g / cm^3
# Si number density = 20.789988 Si / 1000 Ang^3
#
#
#
# Elastic Constant Matrix: (Units=GPa)
#
#
# Indices 1 2 3 4 5 6 
#
# 1 118.7513 62.2331 27.5362 0.0000 0.0000 0.0000
# 2 62.2331 96.6440 23.8949 0.0000 0.0000 0.0000
# 3 27.5362 23.8949 74.8949 0.0000 0.0000 0.0000
# 4 0.0000 0.0000 0.0000 26.2018 0.0000 0.0000
# 5 0.0000 0.0000 0.0000 0.0000 40.8628 0.0000
# 6 0.0000 0.0000 0.0000 0.0000 0.0000 28.3316
#
#
#
# Elastic Compliance Matrix: (Units=1/GPa)
#
#
# Indices 1 2 3 4 5 6 
#
# 1 0.013066 -0.007845 -0.002301 0.000000 0.000000 0.000000
# 2 -0.007845 0.015943 -0.002202 0.000000 0.000000 0.000000
# 3 -0.002301 -0.002202 0.014901 0.000000 0.000000 0.000000
# 4 0.000000 0.000000 0.000000 0.038165 0.000000 0.000000
# 5 0.000000 0.000000 0.000000 0.000000 0.024472 0.000000
# 6 0.000000 0.000000 0.000000 0.000000 0.000000 0.035296
#
#
# Mechanical properties :
#
#
# Convention : Reuss Voigt Hill
#
# Bulk Modulus (GPa) = 52.04659 57.51316 54.77988
# Shear Modulus (GPa) = 28.91114 30.85430 29.88272
#
# Velocity S-wave (km/s) = 3.73316 3.85657 3.79537
# Velocity P-wave (km/s) = 6.60839 6.89600 6.75372
#
# Compressibility (1/GPa) = 0.01921355
#
# Stress axis : x y z
#
# Youngs Moduli (GPa) = 76.53715 62.72251 67.11086
#
# Poissons Ratio (x) = 0.49203 0.15442
# Poissons Ratio (y) = 0.60040 0.14781
# Poissons Ratio (z) = 0.17611 0.13814
#
# Static dielectric constant tensor:
#      x y z
#    x 3.849130 0.000000 0.000000 
#    y 0.000000 3.659110 0.000000 
#    z 0.000000 0.000000 3.885280 
# 
# 
# High freq. dielectric constant tensor:
#      x y z
#    x 1.813850 0.000000 0.000000 
#    y 0.000000 1.800660 0.000000 
#    z 0.000000 0.000000 1.811510 
# 
# From -- ./inp_files/16378.got.cif
#   From: 2010.03.12/outbox.cif.g09.slc.cpg/sg20_9_cif.got.tgz:16378.got - 2010.04.14 01:38:04.
