data_PCOD8157741
_publ_section_title
;
Structure prediction by ZEFSAII (Michael W. Deem and Ramdas Pophale) SiO2 
 PCOD8157741
Probable space group: P 21 21 21
;
_chemical_formula_sum "Si O2"
_cell_formula_units_Z 24
_cell_length_a 9.147720
_cell_length_b 17.815564
_cell_length_c 7.079510
_cell_angle_alpha 90.000000
_cell_angle_beta 90.000000
_cell_angle_gamma 90.000000
_cell_volume 1153.760425
_symmetry_space_group_name_H-M "P 21 21 21"
_symmetry_group_IT_number 19
_symmetry_cell_setting 'orthorhombic'
loop_
_space_group_symop_operation_xyz
x,y,z
1/2-x,-y,1/2+z
1/2+x,1/2-y,-z
-x,1/2+y,1/2-z
loop_
_atom_site_type_symbol
_atom_site_label
_atom_site_fract_x
_atom_site_fract_y
_atom_site_fract_z
Si Si1 0.447511 0.255170 0.267996
Si Si2 0.024311 0.092960 0.901243
Si Si3 0.454255 0.511182 0.426892
Si Si4 0.327567 0.419441 0.765210
Si Si5 0.285849 0.255171 0.651180
Si Si6 0.345155 0.139608 0.957498
O O1 0.430595 0.335334 0.167038
O O2 0.331818 0.249980 0.435424
O O3 0.611043 0.246148 0.344519
O O4 0.404601 0.189302 0.127384
O O5 0.177473 0.117474 0.991398
O O6 0.047777 0.036624 0.724977
O O7 0.932421 0.052498 0.066054
O O8 0.371627 0.456120 0.568114
O O9 0.338595 0.560261 0.311118
O O10 0.559593 0.564085 0.550243
O O11 0.345568 0.330274 0.747479
O O12 0.357166 0.184753 0.761166
#
# Coordination Sequence:
#
# PCOD8157741 Si02
#       6
#     4   4   4   4   4   4
#     4  11  24  44  71  99 135 177 233 279 346 404
#     4  11  26  44  67 102 138 181 228 284 342 412
#     4  12  26  45  68 104 136 184 227 283 350 407
#     4  12  24  44  71  98 140 179 228 287 339 412
#     4  11  25  43  70 103 133 182 232 284 339 409
#     4  11  27  44  69 100 142 181 230 285 342 408
#
# _framework density 20.801544
#
# number of rings (size 3 to 8) (size 9 to 14) (size 15 to 20)
#    0.000    0.667    6.667    0.000    4.667    4.000 
#    0.000    0.000    0.000    0.000    0.000    0.000 
#    0.000    0.000    0.000    0.000    0.000    0.000 
#
# Total GULP energy -297738.007949 kJ/mol
# GULP energy per Si atom -12405.750331 kJ/mol
# Density = 2.075420 g / cm^3
# Si number density = 20.801544 Si / 1000 Ang^3
#
#
#
# Elastic Constant Matrix: (Units=GPa)
#
#
# Indices 1 2 3 4 5 6 
#
# 1 76.7869 15.1788 25.7242 0.0000 0.0000 0.0000
# 2 15.1788 80.8424 2.0053 0.0000 0.0000 0.0000
# 3 25.7242 2.0053 66.7761 0.0000 0.0000 0.0000
# 4 0.0000 0.0000 0.0000 28.9093 0.0000 0.0000
# 5 0.0000 0.0000 0.0000 0.0000 40.3041 0.0000
# 6 0.0000 0.0000 0.0000 0.0000 0.0000 34.9865
#
#
#
# Elastic Compliance Matrix: (Units=1/GPa)
#
#
# Indices 1 2 3 4 5 6 
#
# 1 0.015550 -0.002773 -0.005907 0.000000 0.000000 0.000000
# 2 -0.002773 0.012874 0.000682 0.000000 0.000000 0.000000
# 3 -0.005907 0.000682 0.017231 0.000000 0.000000 0.000000
# 4 0.000000 0.000000 0.000000 0.034591 0.000000 0.000000
# 5 0.000000 0.000000 0.000000 0.000000 0.024811 0.000000
# 6 0.000000 0.000000 0.000000 0.000000 0.000000 0.028582
#
#
# Mechanical properties :
#
#
# Convention : Reuss Voigt Hill
#
# Bulk Modulus (GPa) = 33.71872 34.46911 34.09391
# Shear Modulus (GPa) = 31.34368 32.93980 32.14174
#
# Velocity S-wave (km/s) = 3.88596 3.98367 3.93512
# Velocity P-wave (km/s) = 6.03151 6.14540 6.08872
#
# Compressibility (1/GPa) = 0.02965712
#
# Stress axis : x y z
#
# Youngs Moduli (GPa) = 64.30797 77.67888 58.03640
#
# Poissons Ratio (x) = 0.21541 0.34283
# Poissons Ratio (y) = 0.17834 -0.03956
# Poissons Ratio (z) = 0.37988 -0.05295
#
# Static dielectric constant tensor:
#      x y z
#    x 3.682950 0.000000 0.000000 
#    y 0.000000 3.910530 0.000000 
#    z 0.000000 0.000000 3.704950 
# 
# 
# High freq. dielectric constant tensor:
#      x y z
#    x 1.814270 0.000000 0.000000 
#    y 0.000000 1.823840 0.000000 
#    z 0.000000 0.000000 1.821550 
# 
# From -- ./inp_files/408.got.cif
#   From: 2010.03.12/outbox.cif.g09.slc.cpg/sg19_1_cif.got.tgz:408.got - 2010.04.10 18:59:41.
