data_PCOD8157818
_publ_section_title
;
Structure prediction by ZEFSAII (Michael W. Deem and Ramdas Pophale) SiO2 
 PCOD8157818
Probable space group: P 21 21 21
;
_chemical_formula_sum "Si O2"
_cell_formula_units_Z 28
_cell_length_a 14.072283
_cell_length_b 9.695192
_cell_length_c 9.139706
_cell_angle_alpha 90.000000
_cell_angle_beta 90.000000
_cell_angle_gamma 90.000000
_cell_volume 1246.961947
_symmetry_space_group_name_H-M "P 21 21 21"
_symmetry_group_IT_number 19
_symmetry_cell_setting 'orthorhombic'
loop_
_space_group_symop_operation_xyz
x,y,z
1/2-x,-y,1/2+z
1/2+x,1/2-y,-z
-x,1/2+y,1/2-z
loop_
_atom_site_type_symbol
_atom_site_label
_atom_site_fract_x
_atom_site_fract_y
_atom_site_fract_z
Si Si1 0.925941 0.482543 0.686113
Si Si2 0.894510 0.216570 0.255280
Si Si3 0.585900 0.212196 0.227385
Si Si4 0.767359 0.665659 0.237236
Si Si5 0.734516 0.145246 0.468766
Si Si6 0.549833 0.494420 0.845253
Si Si7 0.745694 0.168449 0.019951
O O1 0.938588 0.629818 0.765197
O O2 0.817127 0.437730 0.697580
O O3 0.959657 0.494914 0.519290
O O4 0.989157 0.374112 0.776123
O O5 0.837505 0.185411 0.404852
O O6 0.957538 0.352778 0.277533
O O7 0.820908 0.244874 0.124263
O O8 0.961670 0.088639 0.219146
O O9 0.655273 0.144633 0.345019
O O10 0.638165 0.206748 0.069513
O O11 0.851505 0.573135 0.298565
O O12 0.736374 0.779073 0.356452
O O13 0.797526 0.747251 0.092336
O O14 0.739111 0.994058 0.536863
#
# Coordination Sequence:
#
# PCOD8157818 Si02
#       7
#     4   4   4   4   4   4   4
#     4  12  28  48  72 109 147 193 247 300 370 437
#     4  11  27  47  74 104 146 190 245 299 365 435
#     4  11  27  47  74 104 146 190 245 299 365 435
#     4  12  26  46  76 102 150 194 236 306 362 440
#     4  11  25  47  75 109 144 189 243 300 368 434
#     4  12  28  48  72 109 147 193 247 300 370 437
#     4  11  25  47  75 109 144 189 243 300 368 434
#
# _framework density 22.454574000000001
#
# number of rings (size 3 to 8) (size 9 to 14) (size 15 to 20)
#    0.000    0.571    2.857    4.286   12.000    0.000 
#    0.000    0.000    0.000    0.000    0.000    0.000 
#    0.000    0.000    0.000    0.000    0.000    0.000 
#
# Total GULP energy -347449.985872 kJ/mol
# GULP energy per Si atom -12408.928067 kJ/mol
# Density = 2.240347 g / cm^3
# Si number density = 22.454574 Si / 1000 Ang^3
#
#
#
# Elastic Constant Matrix: (Units=GPa)
#
#
# Indices 1 2 3 4 5 6 
#
# 1 68.6476 18.5448 13.1976 0.0000 0.0000 0.0000
# 2 18.5448 112.3426 14.1344 0.0000 0.0000 0.0000
# 3 13.1976 14.1344 84.9872 0.0000 0.0000 0.0000
# 4 0.0000 0.0000 0.0000 38.4485 0.0000 0.0000
# 5 0.0000 0.0000 0.0000 0.0000 29.9692 0.0000
# 6 0.0000 0.0000 0.0000 0.0000 0.0000 49.6816
#
#
#
# Elastic Compliance Matrix: (Units=1/GPa)
#
#
# Indices 1 2 3 4 5 6 
#
# 1 0.015584 -0.002317 -0.002035 0.000000 0.000000 0.000000
# 2 -0.002317 0.009436 -0.001210 0.000000 0.000000 0.000000
# 3 -0.002035 -0.001210 0.012284 0.000000 0.000000 0.000000
# 4 0.000000 0.000000 0.000000 0.026009 0.000000 0.000000
# 5 0.000000 0.000000 0.000000 0.000000 0.033368 0.000000
# 6 0.000000 0.000000 0.000000 0.000000 0.000000 0.020128
#
#
# Mechanical properties :
#
#
# Convention : Reuss Voigt Hill
#
# Bulk Modulus (GPa) = 38.19431 39.74790 38.97110
# Shear Modulus (GPa) = 36.58785 38.29323 37.44054
#
# Velocity S-wave (km/s) = 4.04098 4.13409 4.08780
# Velocity P-wave (km/s) = 6.23051 6.36612 6.29868
#
# Compressibility (1/GPa) = 0.02618191
#
# Stress axis : x y z
#
# Youngs Moduli (GPa) = 64.16785 105.97797 81.40918
#
# Poissons Ratio (x) = 0.24550 0.16565
# Poissons Ratio (y) = 0.14865 0.09847
# Poissons Ratio (z) = 0.13057 0.12819
#
# Static dielectric constant tensor:
#      x y z
#    x 4.103390 0.000000 0.000000 
#    y 0.000000 4.103770 0.000000 
#    z 0.000000 0.000000 4.093070 
# 
# 
# High freq. dielectric constant tensor:
#      x y z
#    x 1.889340 0.000000 0.000000 
#    y 0.000000 1.901520 0.000000 
#    z 0.000000 0.000000 1.887020 
# 
# From -- ./inp_files/3854.got.cif
#   From: 2010.03.12/outbox.cif.g09.slc.cpg/sg19_2_cif.got.tgz:3854.got - 2010.04.10 18:59:41.
