data_PCOD8158873
_publ_section_title
;
Structure prediction by ZEFSAII (Michael W. Deem and Ramdas Pophale) SiO2 
 PCOD8158873
Probable space group: C 2 2 21
;
_chemical_formula_sum "Si O2"
_cell_formula_units_Z 60
_cell_length_a 11.875258
_cell_length_b 25.287842
_cell_length_c 8.434064
_cell_angle_alpha 90.000000
_cell_angle_beta 90.000000
_cell_angle_gamma 90.000000
_cell_volume 2532.746451
_symmetry_space_group_name_H-M "C 2 2 21"
_symmetry_group_IT_number 20
_symmetry_cell_setting 'orthorhombic'
loop_
_space_group_symop_operation_xyz
x,y,z
-x,-y,1/2+z
x,-y,-z
-x,y,1/2-z
1/2+x,1/2+y,z
1/2-x,1/2-y,1/2+z
1/2+x,1/2-y,-z
1/2-x,1/2+y,1/2-z
loop_
_atom_site_type_symbol
_atom_site_label
_atom_site_fract_x
_atom_site_fract_y
_atom_site_fract_z
Si Si1 0.443309 0.500000 0.500000
Si Si2 0.226007 0.175623 0.661167
Si Si3 0.433140 0.594549 0.948589
Si Si4 0.966615 0.352987 0.423319
Si Si5 0.324070 0.582431 0.274784
Si Si6 0.909396 0.546868 0.377817
Si Si7 0.036280 0.748333 0.431154
Si Si8 0.131818 0.168960 0.985740
O O1 0.528059 0.463824 0.392944
O O2 0.364112 0.537069 0.394492
O O3 0.180442 0.115588 0.631410
O O4 0.348344 0.177713 0.586307
O O5 0.153763 0.219356 0.564808
O O6 0.224369 0.183611 0.851262
O O7 0.416725 0.591790 0.139174
O O8 0.536628 0.632523 0.902804
O O9 0.965830 0.403431 0.535502
O O10 0.000000 0.373237 0.250000
O O11 0.054070 0.309575 0.492448
O O12 0.205094 0.565008 0.204982
O O13 0.310101 0.638824 0.367045
O O14 0.881546 0.500000 0.500000
O O15 0.000000 0.526079 0.250000
O O16 0.000000 0.742226 0.250000
O O17 0.938345 0.778361 0.533250
#
# Coordination Sequence:
#
# PCOD8158873 Si02
#       8
#     4   8   8   8   8   8   8   8
#     4  10  22  34  66 106 136 166 232 286 354 432
#     4  10  22  43  68 102 150 189 222 293 360 420
#     4  10  20  39  61 100 141 178 223 283 353 424
#     4  12  27  47  74 110 138 188 254 300 360 445
#     4  11  24  42  69 104 135 188 229 294 366 427
#     4  12  30  54  73  95 138 195 253 320 363 437
#     4   9  21  44  69 106 148 189 228 283 361 432
#     4   9  20  39  68 103 147 182 216 275 361 437
#
# _framework density 23.689698
#
# number of rings (size 3 to 8) (size 9 to 14) (size 15 to 20)
#    0.000    1.600    1.333    3.600    3.733   10.667 
#    4.800    0.000    0.000    0.000    0.000    0.000 
#    0.000    0.000    0.000    0.000    0.000    0.000 
#
# Total GULP energy -371885.540563 kJ/mol
# GULP energy per Si atom -12396.184685 kJ/mol
# Density = 2.363578 g / cm^3
# Si number density = 23.689698 Si / 1000 Ang^3
#
#
#
# Elastic Constant Matrix: (Units=GPa)
#
#
# Indices 1 2 3 4 5 6 
#
# 1 72.1688 20.4697 29.7713 0.0000 0.0000 0.0000
# 2 20.4697 122.7010 34.5410 0.0000 0.0000 0.0000
# 3 29.7713 34.5410 99.3520 0.0000 0.0000 0.0000
# 4 0.0000 0.0000 0.0000 30.6847 0.0000 0.0000
# 5 0.0000 0.0000 0.0000 0.0000 42.8423 0.0000
# 6 0.0000 0.0000 0.0000 0.0000 0.0000 22.7135
#
#
#
# Elastic Compliance Matrix: (Units=1/GPa)
#
#
# Indices 1 2 3 4 5 6 
#
# 1 0.016046 -0.001467 -0.004298 0.000000 0.000000 0.000000
# 2 -0.001467 0.009168 -0.002748 0.000000 0.000000 0.000000
# 3 -0.004298 -0.002748 0.012309 0.000000 0.000000 0.000000
# 4 0.000000 0.000000 0.000000 0.032590 0.000000 0.000000
# 5 0.000000 0.000000 0.000000 0.000000 0.023341 0.000000
# 6 0.000000 0.000000 0.000000 0.000000 0.000000 0.044027
#
#
# Mechanical properties :
#
#
# Convention : Reuss Voigt Hill
#
# Bulk Modulus (GPa) = 48.78896 51.53176 50.16036
# Shear Modulus (GPa) = 30.99087 33.21073 32.10080
#
# Velocity S-wave (km/s) = 3.62083 3.74827 3.68510
# Velocity P-wave (km/s) = 6.17416 6.36653 6.27108
#
# Compressibility (1/GPa) = 0.02049644
#
# Stress axis : x y z
#
# Youngs Moduli (GPa) = 62.32260 109.07328 81.24452
#
# Poissons Ratio (x) = 0.16000 0.34920
# Poissons Ratio (y) = 0.09142 0.22325
# Poissons Ratio (z) = 0.26787 0.29972
#
# Static dielectric constant tensor:
#      x y z
#    x 4.090490 0.000000 0.000000 
#    y 0.000000 4.434470 0.000000 
#    z 0.000000 0.000000 4.211440 
# 
# 
# High freq. dielectric constant tensor:
#      x y z
#    x 1.929640 0.000000 0.000000 
#    y 0.000000 1.942150 0.000000 
#    z 0.000000 0.000000 1.938090 
# 
# From -- ./inp_files/7557.got.cif
#   From: 2010.03.12/outbox.cif.g09.slc.cpg/sg20_4_cif.got.tgz:7557.got - 2010.04.14 01:38:04.
