data_PCOD8158064
_publ_section_title
;
Structure prediction by ZEFSAII (Michael W. Deem and Ramdas Pophale) SiO2 
 PCOD8158064
Probable space group: C 2 2 21
;
_chemical_formula_sum "Si O2"
_cell_formula_units_Z 52
_cell_length_a 14.549281
_cell_length_b 10.277837
_cell_length_c 20.300796
_cell_angle_alpha 90.000000
_cell_angle_beta 90.000000
_cell_angle_gamma 90.000000
_cell_volume 3035.682343
_symmetry_space_group_name_H-M "C 2 2 21"
_symmetry_group_IT_number 20
_symmetry_cell_setting 'orthorhombic'
loop_
_space_group_symop_operation_xyz
x,y,z
-x,-y,1/2+z
x,-y,-z
-x,y,1/2-z
1/2+x,1/2+y,z
1/2-x,1/2-y,1/2+z
1/2+x,1/2-y,-z
1/2-x,1/2+y,1/2-z
loop_
_atom_site_type_symbol
_atom_site_label
_atom_site_fract_x
_atom_site_fract_y
_atom_site_fract_z
Si Si1 0.479072 0.638327 0.464988
Si Si2 0.397896 0.738853 0.926404
Si Si3 0.526388 0.826579 0.819815
Si Si4 0.500000 0.577954 0.750000
Si Si5 0.199882 0.705187 0.963214
Si Si6 0.696532 0.071437 0.101770
Si Si7 0.392659 0.462454 0.860050
O O1 0.466841 0.500000 0.500000
O O2 0.532353 0.740051 0.512028
O O3 0.379749 0.693458 0.446684
O O4 0.535340 0.631058 0.396817
O O5 0.439665 0.833565 0.870173
O O6 0.295534 0.781169 0.948220
O O7 0.386828 0.592545 0.902246
O O8 0.500000 0.895284 0.750000
O O9 0.547754 0.672542 0.804982
O O10 0.614351 0.895667 0.849206
O O11 0.424510 0.487147 0.785009
O O12 0.186547 0.578443 0.918260
O O13 0.195763 0.666113 0.039465
O O14 0.791044 0.098855 0.141163
#
# Coordination Sequence:
#
# PCOD8158064 Si02
#       7
#     8   8   8   4   8   8   8
#     4  10  18  31  54  78 108 132 168 222 261 297
#     4   9  16  32  53  75 103 132 175 207 256 314
#     4   9  18  33  56  72  99 142 174 209 248 322
#     4   8  18  34  52  72 102 134 184 212 252 310
#     4  10  19  31  53  82 102 134 169 220 270 310
#     4  10  18  32  56  76 101 135 176 207 265 322
#     4   9  17  32  52  76  97 138 177 215 254 307
#
# _framework density 17.129593
#
# number of rings (size 3 to 8) (size 9 to 14) (size 15 to 20)
#    0.462    2.154    3.077    0.000    0.000    0.000 
#    2.769    1.538    5.077    0.000    0.000    0.000 
#    0.000    0.000    0.000    0.000    0.000    0.000 
#
# Total GULP energy -322247.922207 kJ/mol
# GULP energy per Si atom -12394.150854 kJ/mol
# Density = 1.709060 g / cm^3
# Si number density = 17.129593 Si / 1000 Ang^3
#
#
#
# Elastic Constant Matrix: (Units=GPa)
#
#
# Indices 1 2 3 4 5 6 
#
# 1 169.2339 38.2893 65.4077 0.0000 0.0000 0.0000
# 2 38.2893 28.5309 20.9585 0.0000 0.0000 0.0000
# 3 65.4077 20.9585 95.0309 0.0000 0.0000 0.0000
# 4 0.0000 0.0000 0.0000 10.7835 0.0000 0.0000
# 5 0.0000 0.0000 0.0000 0.0000 29.4867 0.0000
# 6 0.0000 0.0000 0.0000 0.0000 0.0000 29.6816
#
#
#
# Elastic Compliance Matrix: (Units=1/GPa)
#
#
# Indices 1 2 3 4 5 6 
#
# 1 0.009961 -0.009942 -0.004663 0.000000 0.000000 0.000000
# 2 -0.009942 0.051749 -0.004570 0.000000 0.000000 0.000000
# 3 -0.004663 -0.004570 0.014740 0.000000 0.000000 0.000000
# 4 0.000000 0.000000 0.000000 0.092734 0.000000 0.000000
# 5 0.000000 0.000000 0.000000 0.000000 0.033914 0.000000
# 6 0.000000 0.000000 0.000000 0.000000 0.000000 0.033691
#
#
# Mechanical properties :
#
#
# Convention : Reuss Voigt Hill
#
# Bulk Modulus (GPa) = 26.24683 60.23408 43.24046
# Shear Modulus (GPa) = 17.37082 25.19971 21.28526
#
# Velocity S-wave (km/s) = 3.18792 3.83968 3.52888
# Velocity P-wave (km/s) = 5.37645 7.40929 6.47317
#
# Compressibility (1/GPa) = 0.03809984
#
# Stress axis : x y z
#
# Youngs Moduli (GPa) = 100.39574 19.32395 67.84142
#
# Poissons Ratio (x) = 0.19212 0.31635
# Poissons Ratio (y) = 0.99813 0.31004
# Poissons Ratio (z) = 0.46815 0.08831
#
# Static dielectric constant tensor:
#      x y z
#    x 3.298120 0.000000 0.000000 
#    y 0.000000 2.775040 0.000000 
#    z 0.000000 0.000000 3.190320 
# 
# 
# High freq. dielectric constant tensor:
#      x y z
#    x 1.668520 0.000000 0.000000 
#    y 0.000000 1.615280 0.000000 
#    z 0.000000 0.000000 1.657210 
# 
# From -- ./inp_files/27646.got.cif
#   From: 2010.03.12/outbox.cif.g09.slc.cpg/sg20_14_cif.got.tgz:27646.got - 2010.04.14 01:38:04.
