data_PCOD8158447
_publ_section_title
;
Structure prediction by ZEFSAII (Michael W. Deem and Ramdas Pophale) SiO2 
 PCOD8158447
Probable space group: C 2 2 21
;
_chemical_formula_sum "Si O2"
_cell_formula_units_Z 64
_cell_length_a 9.978524
_cell_length_b 17.792925
_cell_length_c 18.809156
_cell_angle_alpha 90.000000
_cell_angle_beta 90.000000
_cell_angle_gamma 90.000000
_cell_volume 3339.511649
_symmetry_space_group_name_H-M "C 2 2 21"
_symmetry_group_IT_number 20
_symmetry_cell_setting 'orthorhombic'
loop_
_space_group_symop_operation_xyz
x,y,z
-x,-y,1/2+z
x,-y,-z
-x,y,1/2-z
1/2+x,1/2+y,z
1/2-x,1/2-y,1/2+z
1/2+x,1/2-y,-z
1/2-x,1/2+y,1/2-z
loop_
_atom_site_type_symbol
_atom_site_label
_atom_site_fract_x
_atom_site_fract_y
_atom_site_fract_z
Si Si1 0.220467 0.045170 0.567660
Si Si2 0.389808 0.300796 0.805844
Si Si3 0.972942 0.541143 0.929580
Si Si4 0.376852 0.041214 0.202378
Si Si5 0.620203 0.526332 0.295942
Si Si6 0.718336 0.280395 0.434648
Si Si7 0.471967 0.218187 0.945982
Si Si8 0.135385 0.286367 0.712743
O O1 0.372360 0.019834 0.584766
O O2 0.206250 0.132014 0.549424
O O3 0.165173 0.000000 0.500000
O O4 0.131072 0.025506 0.635295
O O5 0.500000 0.271187 0.750000
O O6 0.409582 0.388863 0.820927
O O7 0.402907 0.258437 0.879794
O O8 0.244249 0.283734 0.774969
O O9 0.878623 0.508660 0.868178
O O10 0.957764 0.629884 0.934726
O O11 0.921572 0.500000 0.000000
O O12 0.500000 0.016041 0.250000
O O13 0.246712 0.020647 0.245641
O O14 0.383973 0.129341 0.182700
O O15 0.500000 0.492931 0.250000
O O16 0.610433 0.237970 0.483265
O O17 0.682137 0.265300 0.352481
O O18 0.872047 0.255872 0.451891
O O19 0.000000 0.256317 0.750000
#
# Coordination Sequence:
#
# PCOD8158447 Si02
#       8
#     8   8   8   8   8   8   8   8
#     4  10  21  39  61  84 114 156 196 235 292 350
#     4  10  20  39  61  86 119 157 194 235 296 357
#     4  10  21  38  61  87 114 149 199 248 285 338
#     4  10  19  37  62  88 115 150 195 241 288 342
#     4  10  21  37  59  88 120 152 189 237 293 353
#     4  11  24  41  60  87 120 155 199 246 292 354
#     4  11  24  40  62  86 119 158 197 245 298 351
#     4  10  22  37  62  91 119 155 195 242 293 347
#
# _framework density 19.164477999999999
#
# number of rings (size 3 to 8) (size 9 to 14) (size 15 to 20)
#    0.000    1.750    2.500    1.500    1.750    2.000 
#    2.250    0.625    0.000    0.000    0.000    0.000 
#    0.000    0.000    0.000    0.000    0.000    0.000 
#
# Total GULP energy -396910.430512 kJ/mol
# GULP energy per Si atom -12403.450954 kJ/mol
# Density = 1.912086 g / cm^3
# Si number density = 19.164478 Si / 1000 Ang^3
#
#
#
# Elastic Constant Matrix: (Units=GPa)
#
#
# Indices 1 2 3 4 5 6 
#
# 1 106.4822 32.8385 44.0490 0.0000 0.0000 0.0000
# 2 32.8385 66.3001 43.8311 0.0000 0.0000 0.0000
# 3 44.0490 43.8311 114.0211 0.0000 0.0000 0.0000
# 4 0.0000 0.0000 0.0000 39.5679 0.0000 0.0000
# 5 0.0000 0.0000 0.0000 0.0000 26.9191 0.0000
# 6 0.0000 0.0000 0.0000 0.0000 0.0000 21.1280
#
#
#
# Elastic Compliance Matrix: (Units=1/GPa)
#
#
# Indices 1 2 3 4 5 6 
#
# 1 0.011855 -0.003813 -0.003114 0.000000 0.000000 0.000000
# 2 -0.003813 0.021449 -0.006772 0.000000 0.000000 0.000000
# 3 -0.003114 -0.006772 0.012577 0.000000 0.000000 0.000000
# 4 0.000000 0.000000 0.000000 0.025273 0.000000 0.000000
# 5 0.000000 0.000000 0.000000 0.000000 0.037148 0.000000
# 6 0.000000 0.000000 0.000000 0.000000 0.000000 0.047331
#
#
# Mechanical properties :
#
#
# Convention : Reuss Voigt Hill
#
# Bulk Modulus (GPa) = 54.10694 58.69340 56.40017
# Shear Modulus (GPa) = 26.42817 28.59531 27.51174
#
# Velocity S-wave (km/s) = 3.71754 3.86696 3.79299
# Velocity P-wave (km/s) = 6.83528 7.11551 6.97680
#
# Compressibility (1/GPa) = 0.01848192
#
# Stress axis : x y z
#
# Youngs Moduli (GPa) = 84.34913 46.62312 79.51271
#
# Poissons Ratio (x) = 0.17779 0.24762
# Poissons Ratio (y) = 0.32164 0.53846
# Poissons Ratio (z) = 0.26268 0.31573
#
# Static dielectric constant tensor:
#      x y z
#    x 3.589720 0.000000 0.000000 
#    y 0.000000 3.415130 0.000000 
#    z 0.000000 0.000000 3.498480 
# 
# 
# High freq. dielectric constant tensor:
#      x y z
#    x 1.746590 0.000000 0.000000 
#    y 0.000000 1.740320 0.000000 
#    z 0.000000 0.000000 1.753660 
# 
# From -- ./inp_files/26909.got.cif
#   From: 2010.03.12/outbox.cif.g09.slc.cpg/sg20_14_cif.got.tgz:26909.got - 2010.04.14 01:38:04.
