data_PCOD8158266
_publ_section_title
;
Structure prediction by ZEFSAII (Michael W. Deem and Ramdas Pophale) SiO2 
 PCOD8158266
Probable space group: C 2 2 21
;
_chemical_formula_sum "Si O2"
_cell_formula_units_Z 40
_cell_length_a 8.602496
_cell_length_b 27.072528
_cell_length_c 9.165633
_cell_angle_alpha 90.000000
_cell_angle_beta 90.000000
_cell_angle_gamma 90.000000
_cell_volume 2134.596311
_symmetry_space_group_name_H-M "C 2 2 21"
_symmetry_group_IT_number 20
_symmetry_cell_setting 'orthorhombic'
loop_
_space_group_symop_operation_xyz
x,y,z
-x,-y,1/2+z
x,-y,-z
-x,y,1/2-z
1/2+x,1/2+y,z
1/2-x,1/2-y,1/2+z
1/2+x,1/2-y,-z
1/2-x,1/2+y,1/2-z
loop_
_atom_site_type_symbol
_atom_site_label
_atom_site_fract_x
_atom_site_fract_y
_atom_site_fract_z
Si Si1 0.902518 0.360288 0.977270
Si Si2 0.291513 0.199895 0.456687
Si Si3 0.172244 0.710628 0.717724
Si Si4 0.917574 0.453964 0.601960
Si Si5 0.826773 0.117235 0.220251
O O1 0.763126 0.362179 0.862014
O O2 0.034435 0.320899 0.926436
O O3 0.977475 0.414669 0.987318
O O4 0.839115 0.342332 0.134310
O O5 0.274261 0.253070 0.381580
O O6 0.246409 0.203148 0.626868
O O7 0.164650 0.162706 0.391478
O O8 0.000000 0.732335 0.750000
O O9 0.882700 0.500000 0.500000
O O10 0.755360 0.429484 0.646562
O O11 0.000000 0.471881 0.750000
O O12 0.000000 0.099208 0.250000
#
# Coordination Sequence:
#
# PCOD8158266 Si02
#       5
#     8   8   8   8   8
#     4   9  20  38  56  79 110 142 182 224 268 323
#     4  10  19  32  53  77 106 147 184 222 267 318
#     4  10  20  33  52  79 109 144 184 228 269 316
#     4   9  19  36  62  85 106 140 178 222 273 326
#     4  10  20  37  55  78 112 145 179 224 270 317
#
# _framework density 18.738906
#
# number of rings (size 3 to 8) (size 9 to 14) (size 15 to 20)
#    0.000    2.400    0.000    3.600    0.000    7.200 
#    0.000    9.000    0.000    0.000    0.000    0.000 
#    0.000    0.000    0.000    0.000    0.000    0.000 
#
# Total GULP energy -247955.253284 kJ/mol
# GULP energy per Si atom -12397.762664 kJ/mol
# Density = 1.869626 g / cm^3
# Si number density = 18.738906 Si / 1000 Ang^3
#
#
#
# Elastic Constant Matrix: (Units=GPa)
#
#
# Indices 1 2 3 4 5 6 
#
# 1 85.1480 47.5957 52.6553 0.0000 0.0000 0.0000
# 2 47.5957 104.6648 78.2784 0.0000 0.0000 0.0000
# 3 52.6553 78.2784 146.4661 0.0000 0.0000 0.0000
# 4 0.0000 0.0000 0.0000 46.6115 0.0000 0.0000
# 5 0.0000 0.0000 0.0000 0.0000 22.7645 0.0000
# 6 0.0000 0.0000 0.0000 0.0000 0.0000 14.7992
#
#
#
# Elastic Compliance Matrix: (Units=1/GPa)
#
#
# Indices 1 2 3 4 5 6 
#
# 1 0.016613 -0.005144 -0.003223 0.000000 0.000000 0.000000
# 2 -0.005144 0.017509 -0.007508 0.000000 0.000000 0.000000
# 3 -0.003223 -0.007508 0.011999 0.000000 0.000000 0.000000
# 4 0.000000 0.000000 0.000000 0.021454 0.000000 0.000000
# 5 0.000000 0.000000 0.000000 0.000000 0.043928 0.000000
# 6 0.000000 0.000000 0.000000 0.000000 0.000000 0.067571
#
#
# Mechanical properties :
#
#
# Convention : Reuss Voigt Hill
#
# Bulk Modulus (GPa) = 69.59010 77.03752 73.31381
# Shear Modulus (GPa) = 23.18949 27.35167 25.27058
#
# Velocity S-wave (km/s) = 3.52163 3.82464 3.67626
# Velocity P-wave (km/s) = 7.33166 7.79128 7.56496
#
# Compressibility (1/GPa) = 0.01436986
#
# Stress axis : x y z
#
# Youngs Moduli (GPa) = 60.19438 57.11375 83.33969
#
# Poissons Ratio (x) = 0.29379 0.26862
# Poissons Ratio (y) = 0.30964 0.62574
# Poissons Ratio (z) = 0.19402 0.42883
#
# Static dielectric constant tensor:
#      x y z
#    x 3.264820 0.000000 0.000000 
#    y 0.000000 3.284760 0.000000 
#    z 0.000000 0.000000 3.660820 
# 
# 
# High freq. dielectric constant tensor:
#      x y z
#    x 1.710580 0.000000 0.000000 
#    y 0.000000 1.713680 0.000000 
#    z 0.000000 0.000000 1.737500 
# 
# From -- ./inp_files/6092.got.cif
#   From: 2010.03.12/outbox.cif.g09.slc.cpg/sg20_4_cif.got.tgz:6092.got - 2010.04.14 01:38:04.
