data_PCOD8158211
_publ_section_title
;
Structure prediction by ZEFSAII (Michael W. Deem and Ramdas Pophale) SiO2 
 PCOD8158211
Probable space group: C 2 2 21
;
_chemical_formula_sum "Si O2"
_cell_formula_units_Z 40
_cell_length_a 13.911715
_cell_length_b 9.212270
_cell_length_c 14.261961
_cell_angle_alpha 90.000000
_cell_angle_beta 90.000000
_cell_angle_gamma 90.000000
_cell_volume 1827.791169
_symmetry_space_group_name_H-M "C 2 2 21"
_symmetry_group_IT_number 20
_symmetry_cell_setting 'orthorhombic'
loop_
_space_group_symop_operation_xyz
x,y,z
-x,-y,1/2+z
x,-y,-z
-x,y,1/2-z
1/2+x,1/2+y,z
1/2-x,1/2-y,1/2+z
1/2+x,1/2-y,-z
1/2-x,1/2+y,1/2-z
loop_
_atom_site_type_symbol
_atom_site_label
_atom_site_fract_x
_atom_site_fract_y
_atom_site_fract_z
Si Si1 0.769122 0.468116 0.146179
Si Si2 0.904591 0.604874 0.693960
Si Si3 0.427608 0.500000 0.000000
Si Si4 0.467291 0.000000 0.500000
Si Si5 0.063519 0.937422 0.833716
Si Si6 0.857476 0.697982 0.019902
O O1 0.812427 0.454588 0.250059
O O2 0.653877 0.456162 0.150641
O O3 0.796066 0.624766 0.102431
O O4 0.809746 0.339251 0.080699
O O5 0.901629 0.534196 0.590398
O O6 0.897862 0.777992 0.689913
O O7 0.000000 0.556091 0.750000
O O8 0.495207 0.428989 0.922711
O O9 0.359101 0.629411 0.962955
O O10 0.533704 0.861161 0.521857
O O11 0.000000 0.002960 0.750000
#
# Coordination Sequence:
#
# PCOD8158211 Si02
#       6
#     8   8   4   4   8   8
#     4  10  22  44  68  98 136 179 235 274 344 410
#     4  11  19  41  70  94 135 173 225 288 340 404
#     4  12  22  45  69 100 142 174 230 281 351 412
#     4  10  18  39  67 102 120 186 214 271 361 392
#     4  11  25  44  67  96 135 185 222 284 343 397
#     4  10  20  39  74 100 128 180 220 284 345 399
#
# _framework density 21.884336999999999
#
# number of rings (size 3 to 8) (size 9 to 14) (size 15 to 20)
#    0.000    1.600    6.000    2.400    0.000    1.600 
#    7.200    4.000    0.000    0.000    0.000    0.000 
#    0.000    0.000    0.000    0.000    0.000    0.000 
#
# Total GULP energy -248064.378964 kJ/mol
# GULP energy per Si atom -12403.218948 kJ/mol
# Density = 2.183453 g / cm^3
# Si number density = 21.884337 Si / 1000 Ang^3
#
#
#
# Elastic Constant Matrix: (Units=GPa)
#
#
# Indices 1 2 3 4 5 6 
#
# 1 93.0651 30.5944 35.9726 0.0000 0.0000 0.0000
# 2 30.5944 105.6087 10.1650 0.0000 0.0000 0.0000
# 3 35.9726 10.1650 117.7631 0.0000 0.0000 0.0000
# 4 0.0000 0.0000 0.0000 21.1932 0.0000 0.0000
# 5 0.0000 0.0000 0.0000 0.0000 22.9628 0.0000
# 6 0.0000 0.0000 0.0000 0.0000 0.0000 17.4147
#
#
#
# Elastic Compliance Matrix: (Units=1/GPa)
#
#
# Indices 1 2 3 4 5 6 
#
# 1 0.013358 -0.003506 -0.003778 0.000000 0.000000 0.000000
# 2 -0.003506 0.010469 0.000167 0.000000 0.000000 0.000000
# 3 -0.003778 0.000167 0.009631 0.000000 0.000000 0.000000
# 4 0.000000 0.000000 0.000000 0.047185 0.000000 0.000000
# 5 0.000000 0.000000 0.000000 0.000000 0.043549 0.000000
# 6 0.000000 0.000000 0.000000 0.000000 0.000000 0.057423
#
#
# Mechanical properties :
#
#
# Convention : Reuss Voigt Hill
#
# Bulk Modulus (GPa) = 52.01659 52.21120 52.11390
# Shear Modulus (GPa) = 24.72121 28.29446 26.50784
#
# Velocity S-wave (km/s) = 3.36464 3.59961 3.48411
# Velocity P-wave (km/s) = 6.23818 6.41762 6.32853
#
# Compressibility (1/GPa) = 0.01922464
#
# Stress axis : x y z
#
# Youngs Moduli (GPa) = 74.86141 95.52452 103.82973
#
# Poissons Ratio (x) = 0.33492 0.39225
# Poissons Ratio (y) = 0.26247 -0.01738
# Poissons Ratio (z) = 0.28281 -0.01599
#
# Static dielectric constant tensor:
#      x y z
#    x 3.765630 0.000000 0.000000 
#    y 0.000000 3.654040 0.000000 
#    z 0.000000 0.000000 3.984510 
# 
# 
# High freq. dielectric constant tensor:
#      x y z
#    x 1.851010 0.000000 0.000000 
#    y 0.000000 1.840720 0.000000 
#    z 0.000000 0.000000 1.866750 
# 
# From -- ./inp_files/18595.got.cif
#   From: 2010.03.12/outbox.cif.g09.slc.cpg/sg20_10_cif.got.tgz:18595.got - 2010.04.14 01:38:04.
