data_PCOD8158500
_publ_section_title
;
Structure prediction by ZEFSAII (Michael W. Deem and Ramdas Pophale) SiO2 
 PCOD8158500
Probable space group: C 2 2 21
;
_chemical_formula_sum "Si O2"
_cell_formula_units_Z 40
_cell_length_a 8.098742
_cell_length_b 12.183444
_cell_length_c 18.026047
_cell_angle_alpha 90.000000
_cell_angle_beta 90.000000
_cell_angle_gamma 90.000000
_cell_volume 1778.640326
_symmetry_space_group_name_H-M "C 2 2 21"
_symmetry_group_IT_number 20
_symmetry_cell_setting 'orthorhombic'
loop_
_space_group_symop_operation_xyz
x,y,z
-x,-y,1/2+z
x,-y,-z
-x,y,1/2-z
1/2+x,1/2+y,z
1/2-x,1/2-y,1/2+z
1/2+x,1/2-y,-z
1/2-x,1/2+y,1/2-z
loop_
_atom_site_type_symbol
_atom_site_label
_atom_site_fract_x
_atom_site_fract_y
_atom_site_fract_z
Si Si1 0.856917 0.050226 0.897881
Si Si2 0.507798 0.243320 0.166402
Si Si3 0.990226 0.857214 0.534494
Si Si4 0.500593 0.025199 0.087140
Si Si5 0.296895 0.831723 0.080871
O O1 0.902785 0.144033 0.838084
O O2 0.996410 0.951760 0.901453
O O3 0.679505 0.000259 0.877556
O O4 0.861174 0.111276 0.977578
O O5 0.500000 0.198553 0.250000
O O6 0.444401 0.148109 0.110036
O O7 0.695201 0.267527 0.142941
O O8 0.036512 0.736827 0.563379
O O9 0.813690 0.856069 0.492993
O O10 0.360510 0.943816 0.118439
O O11 0.505417 0.000000 0.000000
#
# Coordination Sequence:
#
# PCOD8158500 Si02
#       5
#     8   8   8   8   8
#     4  10  20  41  63  94 137 166 214 286 328 407
#     4  11  26  46  65  95 140 188 231 282 344 422
#     4  10  19  39  64 102 136 163 216 284 348 400
#     4  12  23  41  73 103 131 178 230 292 344 401
#     4  11  23  39  68  99 135 175 220 283 350 407
#
# _framework density 22.489090000000001
#
# number of rings (size 3 to 8) (size 9 to 14) (size 15 to 20)
#    0.000    1.200    4.000    3.600    5.600    1.600 
#    0.000    0.000    0.000    0.000    0.000    0.000 
#    0.000    0.000    0.000    0.000    0.000    0.000 
#
# Total GULP energy -247831.221032 kJ/mol
# GULP energy per Si atom -12391.561052 kJ/mol
# Density = 2.243790 g / cm^3
# Si number density = 22.489090 Si / 1000 Ang^3
#
#
#
# Elastic Constant Matrix: (Units=GPa)
#
#
# Indices 1 2 3 4 5 6 
#
# 1 70.8957 47.6052 12.5262 0.0000 0.0000 0.0000
# 2 47.6052 162.3313 43.0987 0.0000 0.0000 0.0000
# 3 12.5262 43.0987 82.7493 0.0000 0.0000 0.0000
# 4 0.0000 0.0000 0.0000 23.9674 0.0000 0.0000
# 5 0.0000 0.0000 0.0000 0.0000 14.3369 0.0000
# 6 0.0000 0.0000 0.0000 0.0000 0.0000 49.3720
#
#
#
# Elastic Compliance Matrix: (Units=1/GPa)
#
#
# Indices 1 2 3 4 5 6 
#
# 1 0.017564 -0.005158 0.000028 0.000000 0.000000 0.000000
# 2 -0.005158 0.008664 -0.003731 0.000000 0.000000 0.000000
# 3 0.000028 -0.003731 0.014024 0.000000 0.000000 0.000000
# 4 0.000000 0.000000 0.000000 0.041723 0.000000 0.000000
# 5 0.000000 0.000000 0.000000 0.000000 0.069750 0.000000
# 6 0.000000 0.000000 0.000000 0.000000 0.000000 0.020254
#
#
# Mechanical properties :
#
#
# Convention : Reuss Voigt Hill
#
# Bulk Modulus (GPa) = 44.38955 58.04849 51.21902
# Shear Modulus (GPa) = 25.35339 31.71834 28.53586
#
# Velocity S-wave (km/s) = 3.36127 3.75959 3.56599
# Velocity P-wave (km/s) = 5.90299 6.68684 6.30710
#
# Compressibility (1/GPa) = 0.02252783
#
# Stress axis : x y z
#
# Youngs Moduli (GPa) = 56.93482 115.42500 71.30645
#
# Poissons Ratio (x) = 0.59538 -0.00198
# Poissons Ratio (y) = 0.29368 0.26608
# Poissons Ratio (z) = -0.00158 0.43071
#
# Static dielectric constant tensor:
#      x y z
#    x 3.938730 0.000000 0.000000 
#    y 0.000000 4.609140 0.000000 
#    z 0.000000 0.000000 3.412590 
# 
# 
# High freq. dielectric constant tensor:
#      x y z
#    x 1.882120 0.000000 0.000000 
#    y 0.000000 1.919320 0.000000 
#    z 0.000000 0.000000 1.812160 
# 
# From -- ./inp_files/23158.got.cif
#   From: 2010.03.12/outbox.cif.g09.slc.cpg/sg20_12_cif.got.tgz:23158.got - 2010.04.14 01:38:04.
