data_PCOD8158069
_publ_section_title
;
Structure prediction by ZEFSAII (Michael W. Deem and Ramdas Pophale) SiO2 
 PCOD8158069
Probable space group: C 2 2 21
;
_chemical_formula_sum "Si O2"
_cell_formula_units_Z 28
_cell_length_a 21.784234
_cell_length_b 13.041477
_cell_length_c 4.989668
_cell_angle_alpha 90.000000
_cell_angle_beta 90.000000
_cell_angle_gamma 90.000000
_cell_volume 1417.557627
_symmetry_space_group_name_H-M "C 2 2 21"
_symmetry_group_IT_number 20
_symmetry_cell_setting 'orthorhombic'
loop_
_space_group_symop_operation_xyz
x,y,z
-x,-y,1/2+z
x,-y,-z
-x,y,1/2-z
1/2+x,1/2+y,z
1/2-x,1/2-y,1/2+z
1/2+x,1/2-y,-z
1/2-x,1/2+y,1/2-z
loop_
_atom_site_type_symbol
_atom_site_label
_atom_site_fract_x
_atom_site_fract_y
_atom_site_fract_z
Si Si1 0.500000 0.434671 0.250000
Si Si2 0.242282 0.615523 0.956024
Si Si3 0.323427 0.193772 0.042706
Si Si4 0.039650 0.259627 0.517916
O O1 0.472691 0.500000 0.500000
O O2 0.551551 0.358552 0.379602
O O3 0.189409 0.650090 0.162765
O O4 0.265017 0.500000 0.000000
O O5 0.301329 0.688614 0.987134
O O6 0.213204 0.622334 0.662472
O O7 0.395404 0.185983 0.977393
O O8 0.000000 0.261165 0.250000
O O9 0.000000 0.317390 0.750000
#
# Coordination Sequence:
#
# PCOD8158069 Si02
#       4
#     4   8   8   8
#     4  10  18  32  48  78 114 144 184 220 270 340
#     4  10  21  38  60  85 111 147 193 239 278 326
#     4  10  21  38  60  84 114 150 188 229 288 334
#     4  10  20  34  55  79 112 155 174 223 284 339
#
# _framework density 19.752284
#
# number of rings (size 3 to 8) (size 9 to 14) (size 15 to 20)
#    0.857    1.143    1.429    2.571    0.000    1.143 
#    0.000    0.000    0.000   17.143    0.000    0.000 
#    0.000    0.000    0.000    0.000    0.000    0.000 
#
# Total GULP energy -173492.084213 kJ/mol
# GULP energy per Si atom -12392.291730 kJ/mol
# Density = 1.970733 g / cm^3
# Si number density = 19.752284 Si / 1000 Ang^3
#
#
#
# Elastic Constant Matrix: (Units=GPa)
#
#
# Indices 1 2 3 4 5 6 
#
# 1 97.5967 2.8752 22.3105 0.0000 0.0000 0.0000
# 2 2.8752 75.1745 5.0768 0.0000 0.0000 0.0000
# 3 22.3105 5.0768 109.6783 0.0000 0.0000 0.0000
# 4 0.0000 0.0000 0.0000 15.1987 0.0000 0.0000
# 5 0.0000 0.0000 0.0000 0.0000 23.5618 0.0000
# 6 0.0000 0.0000 0.0000 0.0000 0.0000 11.1602
#
#
#
# Elastic Compliance Matrix: (Units=1/GPa)
#
#
# Indices 1 2 3 4 5 6 
#
# 1 0.010751 -0.000264 -0.002175 0.000000 0.000000 0.000000
# 2 -0.000264 0.013351 -0.000564 0.000000 0.000000 0.000000
# 3 -0.002175 -0.000564 0.009586 0.000000 0.000000 0.000000
# 4 0.000000 0.000000 0.000000 0.065795 0.000000 0.000000
# 5 0.000000 0.000000 0.000000 0.000000 0.042442 0.000000
# 6 0.000000 0.000000 0.000000 0.000000 0.000000 0.089604
#
#
# Mechanical properties :
#
#
# Convention : Reuss Voigt Hill
#
# Bulk Modulus (GPa) = 36.12548 38.10827 37.11687
# Shear Modulus (GPa) = 20.26242 26.79661 23.52951
#
# Velocity S-wave (km/s) = 3.20633 3.68725 3.45516
# Velocity P-wave (km/s) = 5.66007 6.12068 5.89487
#
# Compressibility (1/GPa) = 0.02768130
#
# Stress axis : x y z
#
# Youngs Moduli (GPa) = 93.01307 74.90304 104.31808
#
# Poissons Ratio (x) = 0.01980 0.22686
# Poissons Ratio (y) = 0.02459 0.05886
# Poissons Ratio (z) = 0.20228 0.04226
#
# Static dielectric constant tensor:
#      x y z
#    x 3.151920 0.000000 0.000000 
#    y 0.000000 3.384250 0.000000 
#    z 0.000000 0.000000 3.835410 
# 
# 
# High freq. dielectric constant tensor:
#      x y z
#    x 1.735970 0.000000 0.000000 
#    y 0.000000 1.748240 0.000000 
#    z 0.000000 0.000000 1.796280 
# 
# From -- ./inp_files/3016.got.cif
#   From: 2010.03.12/outbox.cif.g09.slc.cpg/sg20_2_cif.got.tgz:3016.got - 2010.04.14 01:38:04.
