data_PCOD8158479
_publ_section_title
;
Structure prediction by ZEFSAII (Michael W. Deem and Ramdas Pophale) SiO2 
 PCOD8158479
Probable space group: C 2 2 21
;
_chemical_formula_sum "Si O2"
_cell_formula_units_Z 60
_cell_length_a 8.988422
_cell_length_b 21.358688
_cell_length_c 13.885023
_cell_angle_alpha 90.000000
_cell_angle_beta 90.000000
_cell_angle_gamma 90.000000
_cell_volume 2665.659227
_symmetry_space_group_name_H-M "C 2 2 21"
_symmetry_group_IT_number 20
_symmetry_cell_setting 'orthorhombic'
loop_
_space_group_symop_operation_xyz
x,y,z
-x,-y,1/2+z
x,-y,-z
-x,y,1/2-z
1/2+x,1/2+y,z
1/2-x,1/2-y,1/2+z
1/2+x,1/2-y,-z
1/2-x,1/2+y,1/2-z
loop_
_atom_site_type_symbol
_atom_site_label
_atom_site_fract_x
_atom_site_fract_y
_atom_site_fract_z
Si Si1 0.270479 0.621372 0.574594
Si Si2 0.967316 0.032954 0.908787
Si Si3 0.834289 0.135572 0.783800
Si Si4 0.739234 0.227063 0.309108
Si Si5 0.023373 0.659332 0.444018
Si Si6 0.036780 0.788772 0.965152
Si Si7 0.000000 0.062995 0.250000
Si Si8 0.715345 0.650575 0.364301
O O1 0.391396 0.569218 0.548055
O O2 0.233668 0.620198 0.689318
O O3 0.123493 0.611521 0.508412
O O4 0.349761 0.687285 0.546908
O O5 0.842264 0.076814 0.857351
O O6 0.042200 0.982335 0.837906
O O7 0.886401 0.000000 0.000000
O O8 0.780714 0.199350 0.833990
O O9 0.000000 0.149123 0.750000
O O10 0.604661 0.184954 0.349093
O O11 0.890412 0.205238 0.359819
O O12 0.751120 0.214640 0.194985
O O13 0.998143 0.717302 0.514998
O O14 0.870311 0.625587 0.410456
O O15 0.890110 0.832479 0.955184
O O16 0.143311 0.102301 0.287283
#
# Coordination Sequence:
#
# PCOD8158479 Si02
#       8
#     8   8   8   8   8   8   4   8
#     4  10  21  40  63  96 131 178 232 280 349 415
#     4  11  23  41  70 100 129 184 245 306 341 415
#     4  10  19  38  64 100 135 177 228 291 354 418
#     4  11  21  37  61  97 140 183 223 282 359 427
#     4  11  23  35  61  97 138 183 224 281 364 430
#     4  11  21  37  61 100 139 180 221 284 347 434
#     4  12  24  44  68 106 136 186 250 294 340 420
#     4  12  23  40  61 104 145 182 231 293 351 421
#
# _framework density 22.508503000000001
#
# number of rings (size 3 to 8) (size 9 to 14) (size 15 to 20)
#    0.000    1.067    3.333    6.800    1.867    1.067 
#    0.000    0.000    0.000    4.000   10.400    0.000 
#    0.000    0.000    0.000    0.000    0.000    0.000 
#
# Total GULP energy -371852.680448 kJ/mol
# GULP energy per Si atom -12395.089348 kJ/mol
# Density = 2.245727 g / cm^3
# Si number density = 22.508503 Si / 1000 Ang^3
#
#
#
# Elastic Constant Matrix: (Units=GPa)
#
#
# Indices 1 2 3 4 5 6 
#
# 1 112.0217 29.2773 45.7876 0.0000 0.0000 0.0000
# 2 29.2773 85.4902 38.5250 0.0000 0.0000 0.0000
# 3 45.7876 38.5250 121.0746 0.0000 0.0000 0.0000
# 4 0.0000 0.0000 0.0000 44.2471 0.0000 0.0000
# 5 0.0000 0.0000 0.0000 0.0000 35.2160 0.0000
# 6 0.0000 0.0000 0.0000 0.0000 0.0000 6.8242
#
#
#
# Elastic Compliance Matrix: (Units=1/GPa)
#
#
# Indices 1 2 3 4 5 6 
#
# 1 0.010899 -0.002189 -0.003425 0.000000 0.000000 0.000000
# 2 -0.002189 0.014095 -0.003657 0.000000 0.000000 0.000000
# 3 -0.003425 -0.003657 0.010718 0.000000 0.000000 0.000000
# 4 0.000000 0.000000 0.000000 0.022600 0.000000 0.000000
# 5 0.000000 0.000000 0.000000 0.000000 0.028396 0.000000
# 6 0.000000 0.000000 0.000000 0.000000 0.000000 0.146537
#
#
# Mechanical properties :
#
#
# Convention : Reuss Voigt Hill
#
# Bulk Modulus (GPa) = 58.24216 60.64071 59.44143
# Shear Modulus (GPa) = 19.41657 30.92390 25.17024
#
# Velocity S-wave (km/s) = 2.94025 3.71060 3.34766
# Velocity P-wave (km/s) = 6.12034 6.73482 6.43492
#
# Compressibility (1/GPa) = 0.01716969
#
# Stress axis : x y z
#
# Youngs Moduli (GPa) = 91.75193 70.94765 93.29792
#
# Poissons Ratio (x) = 0.15530 0.31957
# Poissons Ratio (y) = 0.20084 0.34120
# Poissons Ratio (z) = 0.31427 0.25946
#
# Static dielectric constant tensor:
#      x y z
#    x 4.059120 0.000000 0.000000 
#    y 0.000000 4.003670 0.000000 
#    z 0.000000 0.000000 4.362490 
# 
# 
# High freq. dielectric constant tensor:
#      x y z
#    x 1.861690 0.000000 0.000000 
#    y 0.000000 1.862790 0.000000 
#    z 0.000000 0.000000 1.906130 
# 
# From -- ./inp_files/19332.got.cif
#   From: 2010.03.12/outbox.cif.g09.slc.cpg/sg20_10_cif.got.tgz:19332.got - 2010.04.14 01:38:04.
