data_PCOD8158688
_publ_section_title
;
Structure prediction by ZEFSAII (Michael W. Deem and Ramdas Pophale) SiO2 
 PCOD8158688
Probable space group: C 2 2 21
;
_chemical_formula_sum "Si O2"
_cell_formula_units_Z 52
_cell_length_a 12.204932
_cell_length_b 13.720830
_cell_length_c 16.661642
_cell_angle_alpha 90.000000
_cell_angle_beta 90.000000
_cell_angle_gamma 90.000000
_cell_volume 2790.188513
_symmetry_space_group_name_H-M "C 2 2 21"
_symmetry_group_IT_number 20
_symmetry_cell_setting 'orthorhombic'
loop_
_space_group_symop_operation_xyz
x,y,z
-x,-y,1/2+z
x,-y,-z
-x,y,1/2-z
1/2+x,1/2+y,z
1/2-x,1/2-y,1/2+z
1/2+x,1/2-y,-z
1/2-x,1/2+y,1/2-z
loop_
_atom_site_type_symbol
_atom_site_label
_atom_site_fract_x
_atom_site_fract_y
_atom_site_fract_z
Si Si1 0.467206 0.796562 0.428253
Si Si2 0.682356 0.014186 0.914210
Si Si3 0.904645 0.305268 0.599860
Si Si4 0.000000 0.624345 0.250000
Si Si5 0.307956 0.193997 0.843143
Si Si6 0.392144 0.664940 0.290951
Si Si7 0.722266 0.006243 0.260816
O O1 0.392434 0.890390 0.412792
O O2 0.463130 0.762148 0.521050
O O3 0.592478 0.818446 0.405340
O O4 0.419144 0.706804 0.378173
O O5 0.604265 0.921068 0.911555
O O6 0.756217 0.014437 0.833056
O O7 0.748404 0.000000 0.000000
O O8 0.788353 0.252937 0.613141
O O9 0.981954 0.298020 0.677788
O O10 0.898099 0.552690 0.235231
O O11 0.346494 0.248425 0.763646
O O12 0.267611 0.088818 0.815089
O O13 0.500000 0.619966 0.250000
O O14 0.305354 0.580190 0.301632
#
# Coordination Sequence:
#
# PCOD8158688 Si02
#       7
#     8   8   8   4   8   8   8
#     4  10  21  37  61  85 115 158 202 238 292 359
#     4   9  17  32  57  87 116 142 193 252 289 333
#     4  10  21  37  56  90 120 145 194 251 299 341
#     4  10  20  36  60  86 120 142 196 260 298 328
#     4  11  20  37  62  86 115 157 199 240 294 358
#     4  10  21  37  58  82 119 160 196 233 290 363
#     4  11  20  36  60  89 117 155 198 248 293 351
#
# _framework density 18.636734000000001
#
# number of rings (size 3 to 8) (size 9 to 14) (size 15 to 20)
#    0.000    1.846    4.615    1.846    1.077    1.231 
#    1.385    2.308    0.000    0.000    0.000    0.000 
#    0.000    0.000    0.000    0.000    0.000    0.000 
#
# Total GULP energy -322234.260330 kJ/mol
# GULP energy per Si atom -12393.625397 kJ/mol
# Density = 1.859432 g / cm^3
# Si number density = 18.636734 Si / 1000 Ang^3
#
#
#
# Elastic Constant Matrix: (Units=GPa)
#
#
# Indices 1 2 3 4 5 6 
#
# 1 51.6838 39.9095 20.9012 0.0000 0.0000 0.0000
# 2 39.9095 64.7403 20.1278 0.0000 0.0000 0.0000
# 3 20.9012 20.1278 127.9559 0.0000 0.0000 0.0000
# 4 0.0000 0.0000 0.0000 18.2673 0.0000 0.0000
# 5 0.0000 0.0000 0.0000 0.0000 21.9118 0.0000
# 6 0.0000 0.0000 0.0000 0.0000 0.0000 14.6785
#
#
#
# Elastic Compliance Matrix: (Units=1/GPa)
#
#
# Indices 1 2 3 4 5 6 
#
# 1 0.037752 -0.022453 -0.002635 0.000000 0.000000 0.000000
# 2 -0.022453 0.029595 -0.000988 0.000000 0.000000 0.000000
# 3 -0.002635 -0.000988 0.008401 0.000000 0.000000 0.000000
# 4 0.000000 0.000000 0.000000 0.054743 0.000000 0.000000
# 5 0.000000 0.000000 0.000000 0.000000 0.045637 0.000000
# 6 0.000000 0.000000 0.000000 0.000000 0.000000 0.068127
#
#
# Mechanical properties :
#
#
# Convention : Reuss Voigt Hill
#
# Bulk Modulus (GPa) = 42.37930 45.13968 43.75949
# Shear Modulus (GPa) = 16.43266 21.86761 19.15014
#
# Velocity S-wave (km/s) = 2.97262 3.42915 3.20902
# Velocity P-wave (km/s) = 5.87971 6.32077 6.10423
#
# Compressibility (1/GPa) = 0.02359643
#
# Stress axis : x y z
#
# Youngs Moduli (GPa) = 26.48862 33.78961 119.03447
#
# Poissons Ratio (x) = 0.75869 0.31362
# Poissons Ratio (y) = 0.59476 0.11757
# Poissons Ratio (z) = 0.06979 0.03337
#
# Static dielectric constant tensor:
#      x y z
#    x 3.318070 0.000000 0.000000 
#    y 0.000000 3.287290 0.000000 
#    z 0.000000 0.000000 4.074090 
# 
# 
# High freq. dielectric constant tensor:
#      x y z
#    x 1.696620 0.000000 0.000000 
#    y 0.000000 1.715710 0.000000 
#    z 0.000000 0.000000 1.739140 
# 
# From -- ./inp_files/24366.got.cif
#   From: 2010.03.12/outbox.cif.g09.slc.cpg/sg20_13_cif.got.tgz:24366.got - 2010.04.14 01:38:04.
