data_PCOD8158932
_publ_section_title
;
Structure prediction by ZEFSAII (Michael W. Deem and Ramdas Pophale) SiO2 
 PCOD8158932
Probable space group: C 2 2 21
;
_chemical_formula_sum "Si O2"
_cell_formula_units_Z 40
_cell_length_a 14.830320
_cell_length_b 13.614338
_cell_length_c 9.155150
_cell_angle_alpha 90.000000
_cell_angle_beta 90.000000
_cell_angle_gamma 90.000000
_cell_volume 1848.470461
_symmetry_space_group_name_H-M "C 2 2 21"
_symmetry_group_IT_number 20
_symmetry_cell_setting 'orthorhombic'
loop_
_space_group_symop_operation_xyz
x,y,z
-x,-y,1/2+z
x,-y,-z
-x,y,1/2-z
1/2+x,1/2+y,z
1/2-x,1/2-y,1/2+z
1/2+x,1/2-y,-z
1/2-x,1/2+y,1/2-z
loop_
_atom_site_type_symbol
_atom_site_label
_atom_site_fract_x
_atom_site_fract_y
_atom_site_fract_z
Si Si1 0.723866 0.291030 0.549826
Si Si2 0.000000 0.822025 0.250000
Si Si3 0.570414 0.174005 0.467892
Si Si4 0.552700 0.000000 0.000000
Si Si5 0.196382 0.868310 0.230020
Si Si6 0.191414 0.444229 0.755972
O O1 0.626712 0.240098 0.582769
O O2 0.798160 0.211006 0.599196
O O3 0.734746 0.321440 0.380397
O O4 0.734292 0.387710 0.647745
O O5 0.003790 0.748016 0.386283
O O6 0.089139 0.890896 0.244690
O O7 0.647677 0.124816 0.365674
O O8 0.511070 0.091094 0.544548
O O9 0.610145 0.980229 0.857240
O O10 0.254326 0.964089 0.187019
#
# Coordination Sequence:
#
# PCOD8158932 Si02
#       6
#     8   4   8   4   8   8
#     4  11  21  41  64  93 128 168 213 257 326 381
#     4  10  20  40  62  84 126 168 206 252 324 370
#     4  11  22  38  65  94 128 167 212 263 322 378
#     4  12  20  36  64 100 128 158 212 272 318 388
#     4  11  23  39  69  90 128 169 213 262 324 388
#     4  12  22  40  67  94 127 168 215 263 321 383
#
# _framework density 21.639510999999999
#
# number of rings (size 3 to 8) (size 9 to 14) (size 15 to 20)
#    0.000    0.800    8.000    1.200    0.000    0.000 
#    0.000    0.000   26.400    0.000    0.000    0.000 
#    0.000    0.000    0.000    0.000    0.000    0.000 
#
# Total GULP energy -247905.985084 kJ/mol
# GULP energy per Si atom -12395.299254 kJ/mol
# Density = 2.159026 g / cm^3
# Si number density = 21.639511 Si / 1000 Ang^3
#
#
#
# Elastic Constant Matrix: (Units=GPa)
#
#
# Indices 1 2 3 4 5 6 
#
# 1 113.2505 52.5876 28.6894 0.0000 0.0000 0.0000
# 2 52.5876 91.3690 20.6173 0.0000 0.0000 0.0000
# 3 28.6894 20.6173 51.8430 0.0000 0.0000 0.0000
# 4 0.0000 0.0000 0.0000 23.7099 0.0000 0.0000
# 5 0.0000 0.0000 0.0000 0.0000 14.1261 0.0000
# 6 0.0000 0.0000 0.0000 0.0000 0.0000 49.8041
#
#
#
# Elastic Compliance Matrix: (Units=1/GPa)
#
#
# Indices 1 2 3 4 5 6 
#
# 1 0.012989 -0.006431 -0.004631 0.000000 0.000000 0.000000
# 2 -0.006431 0.015208 -0.002489 0.000000 0.000000 0.000000
# 3 -0.004631 -0.002489 0.022841 0.000000 0.000000 0.000000
# 4 0.000000 0.000000 0.000000 0.042177 0.000000 0.000000
# 5 0.000000 0.000000 0.000000 0.000000 0.070791 0.000000
# 6 0.000000 0.000000 0.000000 0.000000 0.000000 0.020079
#
#
# Mechanical properties :
#
#
# Convention : Reuss Voigt Hill
#
# Bulk Modulus (GPa) = 41.77633 51.13899 46.45766
# Shear Modulus (GPa) = 22.81387 27.83256 25.32321
#
# Velocity S-wave (km/s) = 3.25047 3.59024 3.42457
# Velocity P-wave (km/s) = 5.78229 6.39296 6.09528
#
# Compressibility (1/GPa) = 0.02393700
#
# Stress axis : x y z
#
# Youngs Moduli (GPa) = 76.98638 65.75609 43.78024
#
# Poissons Ratio (x) = 0.42289 0.20273
# Poissons Ratio (y) = 0.49511 0.10897
# Poissons Ratio (z) = 0.35649 0.16367
#
# Static dielectric constant tensor:
#      x y z
#    x 4.170180 0.000000 0.000000 
#    y 0.000000 4.208170 0.000000 
#    z 0.000000 0.000000 3.721290 
# 
# 
# High freq. dielectric constant tensor:
#      x y z
#    x 1.852550 0.000000 0.000000 
#    y 0.000000 1.854050 0.000000 
#    z 0.000000 0.000000 1.827120 
# 
# From -- ./inp_files/8141.got.cif
#   From: 2010.03.12/outbox.cif.g09.slc.cpg/sg20_5_cif.got.tgz:8141.got - 2010.04.14 01:38:04.
