data_PCOD8158106
_publ_section_title
;
Structure prediction by ZEFSAII (Michael W. Deem and Ramdas Pophale) SiO2 
 PCOD8158106
Probable space group: C 2 2 21
;
_chemical_formula_sum "Si O2"
_cell_formula_units_Z 64
_cell_length_a 15.628297
_cell_length_b 9.016721
_cell_length_c 22.198387
_cell_angle_alpha 90.000000
_cell_angle_beta 90.000000
_cell_angle_gamma 90.000000
_cell_volume 3128.107764
_symmetry_space_group_name_H-M "C 2 2 21"
_symmetry_group_IT_number 20
_symmetry_cell_setting 'orthorhombic'
loop_
_space_group_symop_operation_xyz
x,y,z
-x,-y,1/2+z
x,-y,-z
-x,y,1/2-z
1/2+x,1/2+y,z
1/2-x,1/2-y,1/2+z
1/2+x,1/2-y,-z
1/2-x,1/2+y,1/2-z
loop_
_atom_site_type_symbol
_atom_site_label
_atom_site_fract_x
_atom_site_fract_y
_atom_site_fract_z
Si Si1 0.119813 0.065880 0.629600
Si Si2 0.180325 0.927789 0.242900
Si Si3 0.953850 0.035950 0.567829
Si Si4 0.285909 0.967057 0.431469
Si Si5 0.880604 0.277068 0.132189
Si Si6 0.437091 0.211718 0.612077
Si Si7 0.650899 0.232058 0.766913
Si Si8 0.692315 0.288035 0.118207
O O1 0.114074 0.096955 0.701461
O O2 0.207698 0.127076 0.598926
O O3 0.032852 0.126577 0.598689
O O4 0.124095 0.892986 0.612634
O O5 0.271135 0.882160 0.269990
O O6 0.156459 0.825543 0.185335
O O7 0.183737 0.099535 0.223833
O O8 0.868868 0.137433 0.568811
O O9 0.979499 0.000000 0.500000
O O10 0.933017 0.887810 0.604104
O O11 0.371562 0.867469 0.432992
O O12 0.260417 0.000000 0.500000
O O13 0.306851 0.112481 0.391898
O O14 0.896451 0.285607 0.203539
O O15 0.790213 0.352517 0.112909
O O16 0.965275 0.348324 0.101024
O O17 0.412943 0.181363 0.681101
#
# Coordination Sequence:
#
# PCOD8158106 Si02
#       8
#     8   8   8   8   8   8   8   8
#     4   9  19  36  60  85 111 152 196 241 296 359
#     4  10  19  35  59  90 121 147 193 246 307 359
#     4  11  22  38  59  86 115 151 203 249 289 351
#     4  11  22  39  59  83 119 162 200 242 299 360
#     4   8  19  34  57  81 115 147 188 235 293 362
#     4  11  20  36  59  85 107 156 202 230 289 359
#     4  10  18  33  58  87 115 152 184 244 291 369
#     4  10  21  39  57  84 120 154 188 255 301 346
#
# _framework density 20.459654
#
# number of rings (size 3 to 8) (size 9 to 14) (size 15 to 20)
#    0.000    2.000    2.500    2.250    0.000    0.500 
#    0.000    4.375    2.750    0.000    0.000    0.000 
#    0.000    0.000    0.000    0.000    0.000    0.000 
#
# Total GULP energy -396617.548200 kJ/mol
# GULP energy per Si atom -12394.298381 kJ/mol
# Density = 2.041309 g / cm^3
# Si number density = 20.459654 Si / 1000 Ang^3
#
#
#
# Elastic Constant Matrix: (Units=GPa)
#
#
# Indices 1 2 3 4 5 6 
#
# 1 123.9225 27.6298 30.3933 0.0000 0.0000 0.0000
# 2 27.6298 38.6688 7.0541 0.0000 0.0000 0.0000
# 3 30.3933 7.0541 74.3283 0.0000 0.0000 0.0000
# 4 0.0000 0.0000 0.0000 25.3158 0.0000 0.0000
# 5 0.0000 0.0000 0.0000 0.0000 30.8317 0.0000
# 6 0.0000 0.0000 0.0000 0.0000 0.0000 24.4536
#
#
#
# Elastic Compliance Matrix: (Units=1/GPa)
#
#
# Indices 1 2 3 4 5 6 
#
# 1 0.010484 -0.006827 -0.003639 0.000000 0.000000 0.000000
# 2 -0.006827 0.030762 -0.000128 0.000000 0.000000 0.000000
# 3 -0.003639 -0.000128 0.014954 0.000000 0.000000 0.000000
# 4 0.000000 0.000000 0.000000 0.039501 0.000000 0.000000
# 5 0.000000 0.000000 0.000000 0.000000 0.032434 0.000000
# 6 0.000000 0.000000 0.000000 0.000000 0.000000 0.040894
#
#
# Mechanical properties :
#
#
# Convention : Reuss Voigt Hill
#
# Bulk Modulus (GPa) = 28.56158 40.78600 34.67379
# Shear Modulus (GPa) = 24.76607 27.57636 26.17122
#
# Velocity S-wave (km/s) = 3.48297 3.67528 3.58042
# Velocity P-wave (km/s) = 5.49227 6.16347 5.83753
#
# Compressibility (1/GPa) = 0.03501206
#
# Stress axis : x y z
#
# Youngs Moduli (GPa) = 95.38023 32.50731 66.87165
#
# Poissons Ratio (x) = 0.22194 0.24336
# Poissons Ratio (y) = 0.65120 0.00854
# Poissons Ratio (z) = 0.34710 0.00415
#
# Static dielectric constant tensor:
#      x y z
#    x 4.085870 0.000000 0.000000 
#    y 0.000000 3.373210 0.000000 
#    z 0.000000 0.000000 3.667930 
# 
# 
# High freq. dielectric constant tensor:
#      x y z
#    x 1.809200 0.000000 0.000000 
#    y 0.000000 1.754790 0.000000 
#    z 0.000000 0.000000 1.800410 
# 
# From -- ./inp_files/29355.got.cif
#   From: 2010.03.12/outbox.cif.g09.slc.cpg/sg20_15_cif.got.tgz:29355.got - 2010.04.14 01:38:04.
