data_PCOD8158739
_publ_section_title
;
Structure prediction by ZEFSAII (Michael W. Deem and Ramdas Pophale) SiO2 
 PCOD8158739
Probable space group: C 2 2 21
;
_chemical_formula_sum "Si O2"
_cell_formula_units_Z 60
_cell_length_a 8.789151
_cell_length_b 13.719510
_cell_length_c 24.429535
_cell_angle_alpha 90.000000
_cell_angle_beta 90.000000
_cell_angle_gamma 90.000000
_cell_volume 2945.782833
_symmetry_space_group_name_H-M "C 2 2 21"
_symmetry_group_IT_number 20
_symmetry_cell_setting 'orthorhombic'
loop_
_space_group_symop_operation_xyz
x,y,z
-x,-y,1/2+z
x,-y,-z
-x,y,1/2-z
1/2+x,1/2+y,z
1/2-x,1/2-y,1/2+z
1/2+x,1/2-y,-z
1/2-x,1/2+y,1/2-z
loop_
_atom_site_type_symbol
_atom_site_label
_atom_site_fract_x
_atom_site_fract_y
_atom_site_fract_z
Si Si1 0.385243 0.426562 0.890233
Si Si2 0.326493 0.809003 0.460725
Si Si3 0.382701 0.437727 0.702354
Si Si4 0.323040 0.636263 0.660025
Si Si5 0.320968 0.500000 0.000000
Si Si6 0.320379 0.238670 0.743066
Si Si7 0.318923 0.371262 0.146201
Si Si8 0.677919 0.227616 0.562225
O O1 0.529490 0.402504 0.852542
O O2 0.432704 0.471302 0.949804
O O3 0.284135 0.512957 0.862483
O O4 0.294598 0.327233 0.902759
O O5 0.296499 0.914452 0.486001
O O6 0.236629 0.802438 0.403323
O O7 0.502155 0.790058 0.449711
O O8 0.265719 0.728966 0.504177
O O9 0.500000 0.469176 0.750000
O O10 0.280721 0.531343 0.686755
O O11 0.277694 0.347975 0.722514
O O12 0.261276 0.721752 0.699116
O O13 0.497217 0.646045 0.846229
O O14 0.245254 0.642249 0.600313
O O15 0.500000 0.233017 0.750000
O O16 0.269066 0.157009 0.700745
#
# Coordination Sequence:
#
# PCOD8158739 Si02
#       8
#     8   8   8   8   4   8   8   8
#     4   9  18  35  59  82 111 153 188 226 284 350
#     4  10  20  37  58  85 117 151 189 235 285 340
#     4  10  20  37  58  82 113 151 190 230 283 351
#     4  11  22  37  58  84 112 150 193 235 280 336
#     4   8  18  34  56  82 114 146 186 238 290 326
#     4  11  22  38  60  85 115 151 189 237 289 341
#     4  10  20  38  61  85 113 148 191 236 280 339
#     4  11  21  37  60  87 117 153 192 234 285 338
#
# _framework density 20.368099999999998
#
# number of rings (size 3 to 8) (size 9 to 14) (size 15 to 20)
#    0.000    1.867    0.000    6.000    0.000    1.067 
#    0.000   10.667    0.000    2.400    0.000    0.000 
#    0.000    0.000    0.000    0.000    0.000    0.000 
#
# Total GULP energy -371846.988375 kJ/mol
# GULP energy per Si atom -12394.899612 kJ/mol
# Density = 2.032174 g / cm^3
# Si number density = 20.368100 Si / 1000 Ang^3
#
#
#
# Elastic Constant Matrix: (Units=GPa)
#
#
# Indices 1 2 3 4 5 6 
#
# 1 100.2651 37.8876 44.2269 0.0000 0.0000 0.0000
# 2 37.8876 53.1814 20.4184 0.0000 0.0000 0.0000
# 3 44.2269 20.4184 106.3658 0.0000 0.0000 0.0000
# 4 0.0000 0.0000 0.0000 37.6109 0.0000 0.0000
# 5 0.0000 0.0000 0.0000 0.0000 39.7970 0.0000
# 6 0.0000 0.0000 0.0000 0.0000 0.0000 19.7718
#
#
#
# Elastic Compliance Matrix: (Units=1/GPa)
#
#
# Indices 1 2 3 4 5 6 
#
# 1 0.015544 -0.009276 -0.004683 0.000000 0.000000 0.000000
# 2 -0.009276 0.025835 -0.001102 0.000000 0.000000 0.000000
# 3 -0.004683 -0.001102 0.011560 0.000000 0.000000 0.000000
# 4 0.000000 0.000000 0.000000 0.026588 0.000000 0.000000
# 5 0.000000 0.000000 0.000000 0.000000 0.025128 0.000000
# 6 0.000000 0.000000 0.000000 0.000000 0.000000 0.050577
#
#
# Mechanical properties :
#
#
# Convention : Reuss Voigt Hill
#
# Bulk Modulus (GPa) = 43.82628 51.65313 47.73970
# Shear Modulus (GPa) = 25.91196 29.92122 27.91659
#
# Velocity S-wave (km/s) = 3.57064 3.83694 3.70618
# Velocity P-wave (km/s) = 6.20992 6.71151 6.46558
#
# Compressibility (1/GPa) = 0.02281736
#
# Stress axis : x y z
#
# Youngs Moduli (GPa) = 64.33200 38.70643 86.50383
#
# Poissons Ratio (x) = 0.35905 0.40507
# Poissons Ratio (y) = 0.59676 0.09536
# Poissons Ratio (z) = 0.30124 0.04267
#
# Static dielectric constant tensor:
#      x y z
#    x 3.281130 0.000000 0.000000 
#    y 0.000000 4.004740 0.000000 
#    z 0.000000 0.000000 4.235940 
# 
# 
# High freq. dielectric constant tensor:
#      x y z
#    x 1.752750 0.000000 0.000000 
#    y 0.000000 1.797190 0.000000 
#    z 0.000000 0.000000 1.828470 
# 
# From -- ./inp_files/27316.got.cif
#   From: 2010.03.12/outbox.cif.g09.slc.cpg/sg20_14_cif.got.tgz:27316.got - 2010.04.14 01:38:04.
