data_PCOD8158222
_publ_section_title
;
Structure prediction by ZEFSAII (Michael W. Deem and Ramdas Pophale) SiO2 
 PCOD8158222
Probable space group: C 2 2 21
;
_chemical_formula_sum "Si O2"
_cell_formula_units_Z 64
_cell_length_a 26.834987
_cell_length_b 13.172101
_cell_length_c 8.825196
_cell_angle_alpha 90.000000
_cell_angle_beta 90.000000
_cell_angle_gamma 90.000000
_cell_volume 3119.469910
_symmetry_space_group_name_H-M "C 2 2 21"
_symmetry_group_IT_number 20
_symmetry_cell_setting 'orthorhombic'
loop_
_space_group_symop_operation_xyz
x,y,z
-x,-y,1/2+z
x,-y,-z
-x,y,1/2-z
1/2+x,1/2+y,z
1/2-x,1/2-y,1/2+z
1/2+x,1/2-y,-z
1/2-x,1/2+y,1/2-z
loop_
_atom_site_type_symbol
_atom_site_label
_atom_site_fract_x
_atom_site_fract_y
_atom_site_fract_z
Si Si1 0.353344 0.949533 0.850137
Si Si2 0.122407 0.048547 0.158395
Si Si3 0.898209 0.748407 0.025172
Si Si4 0.951539 0.070181 0.851964
Si Si5 0.813834 0.110667 0.072474
Si Si6 0.204531 0.608645 0.069878
Si Si7 0.389601 0.093342 0.603550
Si Si8 0.056362 0.230929 0.207323
O O1 0.392209 0.859636 0.892217
O O2 0.310972 0.900197 0.745567
O O3 0.380138 0.044092 0.767746
O O4 0.329192 0.000000 0.000000
O O5 0.167868 0.099407 0.252083
O O6 0.079221 0.131953 0.126894
O O7 0.097522 0.962298 0.261084
O O8 0.141284 0.000000 0.000000
O O9 0.942923 0.812625 0.102296
O O10 0.847366 0.813877 0.027298
O O11 0.911970 0.733986 0.851124
O O12 0.000000 0.060717 0.750000
O O13 0.957643 0.000000 0.000000
O O14 0.758505 0.162730 0.067125
O O15 0.815562 0.000000 0.000000
O O16 0.214633 0.500000 0.000000
O O17 0.159317 0.653611 0.966260
O O18 0.435884 0.171710 0.598657
O O19 0.405388 0.000000 0.500000
O O20 0.000000 0.207398 0.250000
#
# Coordination Sequence:
#
# PCOD8158222 Si02
#       8
#     8   8   8   8   8   8   8   8
#     4  10  19  38  62  87 117 154 204 253 304 359
#     4  11  23  37  63  92 132 163 201 255 303 382
#     4  11  22  39  62  89 124 159 201 259 300 364
#     4  12  23  41  62  91 125 169 205 245 314 376
#     4  10  18  42  61  86 128 161 197 249 319 364
#     4   8  19  37  66  85 115 165 197 250 318 373
#     4   9  20  43  63  85 119 159 209 259 312 366
#     4  11  23  41  62  89 125 167 206 257 319 361
#
# _framework density 20.516307000000001
#
# number of rings (size 3 to 8) (size 9 to 14) (size 15 to 20)
#    0.000    2.000    5.000    0.750    1.750    2.500 
#    6.750    0.000    0.000    0.000    0.000    0.000 
#    0.000    0.000    0.000    0.000    0.000    0.000 
#
# Total GULP energy -396480.220880 kJ/mol
# GULP energy per Si atom -12390.006903 kJ/mol
# Density = 2.046961 g / cm^3
# Si number density = 20.516307 Si / 1000 Ang^3
#
#
#
# Elastic Constant Matrix: (Units=GPa)
#
#
# Indices 1 2 3 4 5 6 
#
# 1 65.6552 33.4451 18.8570 0.0000 0.0000 0.0000
# 2 33.4451 69.1548 29.1966 0.0000 0.0000 0.0000
# 3 18.8570 29.1966 109.7676 0.0000 0.0000 0.0000
# 4 0.0000 0.0000 0.0000 20.5429 0.0000 0.0000
# 5 0.0000 0.0000 0.0000 0.0000 -21.9612 0.0000
# 6 0.0000 0.0000 0.0000 0.0000 0.0000 -151.2621
#
#
#
# Elastic Compliance Matrix: (Units=1/GPa)
#
#
# Indices 1 2 3 4 5 6 
#
# 1 0.020305 -0.009403 -0.000987 0.000000 0.000000 0.000000
# 2 -0.009403 0.020644 -0.003876 0.000000 0.000000 0.000000
# 3 -0.000987 -0.003876 0.010311 0.000000 0.000000 0.000000
# 4 0.000000 0.000000 0.000000 0.048679 0.000000 0.000000
# 5 0.000000 0.000000 0.000000 0.000000 -0.045535 0.000000
# 6 0.000000 0.000000 0.000000 0.000000 0.000000 -0.006611
#
#
# Mechanical properties :
#
#
# Convention : Reuss Voigt Hill
#
# Bulk Modulus (GPa) = 43.99922 45.28611 44.64266
# Shear Modulus (GPa) = 59.59495 -19.66415 19.96540
#
# Velocity S-wave (km/s) = 5.39543 -3.09927 3.12292
# Velocity P-wave (km/s) = 7.76574 3.05187 5.90003
#
# Compressibility (1/GPa) = 0.02272768
#
# Stress axis : x y z
#
# Youngs Moduli (GPa) = 49.25004 48.43975 96.98763
#
# Poissons Ratio (x) = 0.45548 0.09573
# Poissons Ratio (y) = 0.46310 0.37590
# Poissons Ratio (z) = 0.04861 0.18774
#
# Static dielectric constant tensor:
#      x y z
#    x 3.925220 0.000000 0.000000 
#    y 0.000000 3.761250 0.000000 
#    z 0.000000 0.000000 4.090090 
# 
# 
# High freq. dielectric constant tensor:
#      x y z
#    x 1.783280 0.000000 0.000000 
#    y 0.000000 1.791720 0.000000 
#    z 0.000000 0.000000 1.805940 
# 
# From -- ./inp_files/11602.got.cif
#   From: 2010.03.12/outbox.cif.g09.slc.cpg/sg20_6_cif.got.tgz:11602.got - 2010.04.14 01:38:04.
