data_PCOD8158604
_publ_section_title
;
Structure prediction by ZEFSAII (Michael W. Deem and Ramdas Pophale) SiO2 
 PCOD8158604
Probable space group: C 2 2 21
;
_chemical_formula_sum "Si O2"
_cell_formula_units_Z 64
_cell_length_a 17.615681
_cell_length_b 8.915998
_cell_length_c 20.106534
_cell_angle_alpha 90.000000
_cell_angle_beta 90.000000
_cell_angle_gamma 90.000000
_cell_volume 3157.959908
_symmetry_space_group_name_H-M "C 2 2 21"
_symmetry_group_IT_number 20
_symmetry_cell_setting 'orthorhombic'
loop_
_space_group_symop_operation_xyz
x,y,z
-x,-y,1/2+z
x,-y,-z
-x,y,1/2-z
1/2+x,1/2+y,z
1/2-x,1/2-y,1/2+z
1/2+x,1/2-y,-z
1/2-x,1/2+y,1/2-z
loop_
_atom_site_type_symbol
_atom_site_label
_atom_site_fract_x
_atom_site_fract_y
_atom_site_fract_z
Si Si1 0.448082 0.091552 0.437064
Si Si2 0.920953 0.413374 0.711432
Si Si3 0.920953 0.086626 0.211432
Si Si4 0.164983 0.121543 0.799296
Si Si5 0.603565 0.566329 0.936917
Si Si6 0.896435 0.566329 0.936917
Si Si7 0.835017 0.621543 0.799296
Si Si8 0.051918 0.091552 0.437064
O O1 0.417392 0.033795 0.365497
O O2 0.432160 0.267860 0.447408
O O3 0.411949 0.000000 0.500000
O O4 0.537219 0.058373 0.431735
O O5 0.902529 0.238001 0.714076
O O6 0.850137 0.490004 0.747477
O O7 0.000000 0.444341 0.750000
O O8 0.902529 0.261999 0.214076
O O9 0.917392 0.033795 0.134503
O O10 0.000000 0.055659 0.250000
O O11 0.850137 0.009996 0.247477
O O12 0.158522 0.059387 0.874120
O O13 0.250000 0.184895 0.789203
O O14 0.537219 0.441627 0.931735
O O15 0.650910 0.500000 0.000000
O O16 0.841478 0.559387 0.874120
O O17 0.932160 0.732140 0.947408
O O18 0.849090 0.500000 0.000000
O O19 0.088051 0.000000 0.500000
#
# Coordination Sequence:
#
# PCOD8158604 Si02
#       8
#     8   8   8   8   8   8   8   8
#     4  10  20  34  58  91 115 146 195 249 288 335
#     4  11  22  39  63  87 117 155 202 242 288 351
#     4  11  22  39  63  87 117 155 202 242 288 351
#     4  11  24  39  59  88 122 157 193 244 299 348
#     4  10  20  35  57  85 117 150 193 237 292 346
#     4  10  20  35  57  85 117 150 193 237 292 346
#     4  11  24  39  59  88 122 157 193 244 299 348
#     4  10  20  34  58  91 115 146 195 249 288 335
#
# _framework density 20.266248000000001
#
# number of rings (size 3 to 8) (size 9 to 14) (size 15 to 20)
#    0.000    1.500    2.500    4.500    3.500    2.500 
#    0.000    0.000    0.000   18.750    0.000    0.000 
#    0.000    1.000    0.000    0.000    0.000    0.000 
#
# Total GULP energy -396468.169943 kJ/mol
# GULP energy per Si atom -12389.630311 kJ/mol
# Density = 2.022012 g / cm^3
# Si number density = 20.266248 Si / 1000 Ang^3
#
#
#
# Elastic Constant Matrix: (Units=GPa)
#
#
# Indices 1 2 3 4 5 6 
#
# 1 74.7168 19.6976 43.6626 0.0000 0.0000 0.0000
# 2 19.6976 60.6412 59.4528 0.0000 0.0000 0.0000
# 3 43.6626 59.4528 166.2706 0.0000 0.0000 0.0000
# 4 0.0000 0.0000 0.0000 38.5336 0.0000 0.0000
# 5 0.0000 0.0000 0.0000 0.0000 18.9149 0.0000
# 6 0.0000 0.0000 0.0000 0.0000 0.0000 20.9926
#
#
#
# Elastic Compliance Matrix: (Units=1/GPa)
#
#
# Indices 1 2 3 4 5 6 
#
# 1 0.015917 -0.001651 -0.003589 0.000000 0.000000 0.000000
# 2 -0.001651 0.025563 -0.008707 0.000000 0.000000 0.000000
# 3 -0.003589 -0.008707 0.010070 0.000000 0.000000 0.000000
# 4 0.000000 0.000000 0.000000 0.025951 0.000000 0.000000
# 5 0.000000 0.000000 0.000000 0.000000 0.052868 0.000000
# 6 0.000000 0.000000 0.000000 0.000000 0.000000 0.047636
#
#
# Mechanical properties :
#
#
# Convention : Reuss Voigt Hill
#
# Bulk Modulus (GPa) = 42.27407 60.80606 51.54006
# Shear Modulus (GPa) = 23.38797 27.60927 25.49862
#
# Velocity S-wave (km/s) = 3.40080 3.69498 3.55093
# Velocity P-wave (km/s) = 6.02704 6.94784 6.50376
#
# Compressibility (1/GPa) = 0.02365516
#
# Stress axis : x y z
#
# Youngs Moduli (GPa) = 62.82725 39.11895 99.30338
#
# Poissons Ratio (x) = 0.06459 0.35643
# Poissons Ratio (y) = 0.10373 0.86463
# Poissons Ratio (z) = 0.22551 0.34061
#
# Static dielectric constant tensor:
#      x y z
#    x 3.152060 0.000000 0.000000 
#    y 0.000000 3.541230 0.000000 
#    z 0.000000 0.000000 4.525230 
# 
# 
# High freq. dielectric constant tensor:
#      x y z
#    x 1.750540 0.000000 0.000000 
#    y 0.000000 1.790330 0.000000 
#    z 0.000000 0.000000 1.822660 
# 
# From -- ./inp_files/27785.got.cif
#   From: 2010.03.12/outbox.cif.g09.slc.cpg/sg20_14_cif.got.tgz:27785.got - 2010.04.14 01:38:04.
