data_PCOD8158867
_publ_section_title
;
Structure prediction by ZEFSAII (Michael W. Deem and Ramdas Pophale) SiO2 
 PCOD8158867
Probable space group: C 2 2 21
;
_chemical_formula_sum "Si O2"
_cell_formula_units_Z 40
_cell_length_a 17.675740
_cell_length_b 8.278510
_cell_length_c 11.805434
_cell_angle_alpha 90.000000
_cell_angle_beta 90.000000
_cell_angle_gamma 90.000000
_cell_volume 1727.474877
_symmetry_space_group_name_H-M "C 2 2 21"
_symmetry_group_IT_number 20
_symmetry_cell_setting 'orthorhombic'
loop_
_space_group_symop_operation_xyz
x,y,z
-x,-y,1/2+z
x,-y,-z
-x,y,1/2-z
1/2+x,1/2+y,z
1/2-x,1/2-y,1/2+z
1/2+x,1/2-y,-z
1/2-x,1/2+y,1/2-z
loop_
_atom_site_type_symbol
_atom_site_label
_atom_site_fract_x
_atom_site_fract_y
_atom_site_fract_z
Si Si1 0.586469 0.665506 0.439874
Si Si2 0.500000 0.500613 0.250000
Si Si3 0.318769 0.962129 0.625874
Si Si4 0.779467 0.662569 0.834244
Si Si5 0.559146 0.736745 0.929046
Si Si6 0.824483 0.000000 0.500000
O O1 0.614084 0.500000 0.500000
O O2 0.554775 0.617101 0.318469
O O3 0.653784 0.791683 0.422162
O O4 0.522200 0.757163 0.513003
O O5 0.446483 0.388466 0.326054
O O6 0.272438 0.818412 0.683983
O O7 0.407546 0.908316 0.613761
O O8 0.286556 0.000000 0.500000
O O9 0.312128 0.111910 0.711624
O O10 0.729135 0.520488 0.890064
O O11 0.621555 0.658597 0.015331
#
# Coordination Sequence:
#
# PCOD8158867 Si02
#       6
#     8   4   8   8   8   4
#     4  10  22  41  70 108 135 191 241 295 347 451
#     4  10  20  38  74  96 138 192 236 280 366 432
#     4  11  28  47  71 106 147 191 237 308 367 437
#     4  11  27  43  76 102 148 183 248 296 371 424
#     4  10  22  45  70  98 145 184 242 289 361 430
#     4  10  22  46  68 104 136 190 228 302 362 422
#
# _framework density 23.155184999999999
#
# number of rings (size 3 to 8) (size 9 to 14) (size 15 to 20)
#    0.000    1.600    3.000    0.600   14.000    3.200 
#    5.400    0.000    0.000    0.000    0.000    0.000 
#    0.000    0.000    0.000    0.000    0.000    0.000 
#
# Total GULP energy -247951.424130 kJ/mol
# GULP energy per Si atom -12397.571207 kJ/mol
# Density = 2.310248 g / cm^3
# Si number density = 23.155185 Si / 1000 Ang^3
#
#
#
# Elastic Constant Matrix: (Units=GPa)
#
#
# Indices 1 2 3 4 5 6 
#
# 1 124.1261 38.8268 36.9375 0.0000 0.0000 0.0000
# 2 38.8268 69.9150 37.1328 0.0000 0.0000 0.0000
# 3 36.9375 37.1328 99.3567 0.0000 0.0000 0.0000
# 4 0.0000 0.0000 0.0000 41.3859 0.0000 0.0000
# 5 0.0000 0.0000 0.0000 0.0000 22.0789 0.0000
# 6 0.0000 0.0000 0.0000 0.0000 0.0000 54.2696
#
#
#
# Elastic Compliance Matrix: (Units=1/GPa)
#
#
# Indices 1 2 3 4 5 6 
#
# 1 0.010079 -0.004500 -0.002065 0.000000 0.000000 0.000000
# 2 -0.004500 0.019855 -0.005747 0.000000 0.000000 0.000000
# 3 -0.002065 -0.005747 0.012980 0.000000 0.000000 0.000000
# 4 0.000000 0.000000 0.000000 0.024163 0.000000 0.000000
# 5 0.000000 0.000000 0.000000 0.000000 0.045292 0.000000
# 6 0.000000 0.000000 0.000000 0.000000 0.000000 0.018427
#
#
# Mechanical properties :
#
#
# Convention : Reuss Voigt Hill
#
# Bulk Modulus (GPa) = 54.67904 57.68800 56.18352
# Shear Modulus (GPa) = 30.95660 35.58026 33.26843
#
# Velocity S-wave (km/s) = 3.66036 3.92420 3.79457
# Velocity P-wave (km/s) = 6.44435 6.74538 6.59659
#
# Compressibility (1/GPa) = 0.01828854
#
# Stress axis : x y z
#
# Youngs Moduli (GPa) = 99.22097 50.36567 77.03938
#
# Poissons Ratio (x) = 0.22666 0.15908
# Poissons Ratio (y) = 0.44653 0.44277
# Poissons Ratio (z) = 0.20488 0.28947
#
# Static dielectric constant tensor:
#      x y z
#    x 4.246420 0.000000 0.000000 
#    y 0.000000 4.001040 0.000000 
#    z 0.000000 0.000000 4.055080 
# 
# 
# High freq. dielectric constant tensor:
#      x y z
#    x 1.920160 0.000000 0.000000 
#    y 0.000000 1.898760 0.000000 
#    z 0.000000 0.000000 1.911390 
# 
# From -- ./inp_files/12766.got.cif
#   From: 2010.03.12/outbox.cif.g09.slc.cpg/sg20_7_cif.got.tgz:12766.got - 2010.04.14 01:38:04.
