data_PCOD8158694
_publ_section_title
;
Structure prediction by ZEFSAII (Michael W. Deem and Ramdas Pophale) SiO2 
 PCOD8158694
Probable space group: C 2 2 21
;
_chemical_formula_sum "Si O2"
_cell_formula_units_Z 64
_cell_length_a 33.027297
_cell_length_b 10.955853
_cell_length_c 8.867329
_cell_angle_alpha 90.000000
_cell_angle_beta 90.000000
_cell_angle_gamma 90.000000
_cell_volume 3208.573930
_symmetry_space_group_name_H-M "C 2 2 21"
_symmetry_group_IT_number 20
_symmetry_cell_setting 'orthorhombic'
loop_
_space_group_symop_operation_xyz
x,y,z
-x,-y,1/2+z
x,-y,-z
-x,y,1/2-z
1/2+x,1/2+y,z
1/2-x,1/2-y,1/2+z
1/2+x,1/2-y,-z
1/2-x,1/2+y,1/2-z
loop_
_atom_site_type_symbol
_atom_site_label
_atom_site_fract_x
_atom_site_fract_y
_atom_site_fract_z
Si Si1 0.541593 0.150028 0.837039
Si Si2 0.729444 0.583787 0.138287
Si Si3 0.187552 0.427740 0.779987
Si Si4 0.544775 0.126531 0.184474
Si Si5 0.389207 0.712452 0.203524
Si Si6 0.179854 0.681510 0.900916
Si Si7 0.842717 0.978256 0.169024
Si Si8 0.878688 0.719232 0.137614
O O1 0.500000 0.155819 0.750000
O O2 0.566085 0.258865 0.758817
O O3 0.559595 0.014234 0.811231
O O4 0.540313 0.176672 0.014874
O O5 0.768245 0.621367 0.236843
O O6 0.713320 0.714232 0.085377
O O7 0.695199 0.508497 0.226098
O O8 0.743809 0.500000 0.000000
O O9 0.194188 0.572821 0.791591
O O10 0.152580 0.392445 0.661281
O O11 0.171202 0.369447 0.934014
O O12 0.500000 0.143064 0.250000
O O13 0.578099 0.201254 0.280045
O O14 0.361157 0.768790 0.331883
O O15 0.380953 0.567811 0.196865
O O16 0.383851 0.773395 0.040871
O O17 0.857930 0.842216 0.202427
O O18 0.826729 0.000000 0.000000
#
# Coordination Sequence:
#
# PCOD8158694 Si02
#       8
#     8   8   8   8   8   8   8   8
#     4  10  20  36  60  89 125 157 195 243 302 363
#     4  11  25  39  62  84 116 155 206 249 304 367
#     4  11  25  38  59  84 116 153 195 251 303 354
#     4  10  21  37  60  91 124 157 193 245 303 357
#     4  10  21  39  61  86 119 157 203 243 299 365
#     4  10  24  41  56  83 116 155 194 249 299 361
#     4   9  22  42  61  84 117 164 201 249 304 359
#     4  11  22  38  63  88 121 156 203 252 300 363
#
# _framework density 19.946555
#
# number of rings (size 3 to 8) (size 9 to 14) (size 15 to 20)
#    0.000    1.750    0.000    3.000    7.000    6.500 
#    0.000    0.625    0.000    0.000    0.000    0.000 
#    0.000    0.000    0.000    0.000    0.000    0.000 
#
# Total GULP energy -396758.352716 kJ/mol
# GULP energy per Si atom -12398.698522 kJ/mol
# Density = 1.990116 g / cm^3
# Si number density = 19.946555 Si / 1000 Ang^3
#
#
#
# Elastic Constant Matrix: (Units=GPa)
#
#
# Indices 1 2 3 4 5 6 
#
# 1 85.5190 29.6454 32.6731 0.0000 0.0000 0.0000
# 2 29.6454 83.1341 35.3945 0.0000 0.0000 0.0000
# 3 32.6731 35.3945 95.8863 0.0000 0.0000 0.0000
# 4 0.0000 0.0000 0.0000 22.0692 0.0000 0.0000
# 5 0.0000 0.0000 0.0000 0.0000 33.3812 0.0000
# 6 0.0000 0.0000 0.0000 0.0000 0.0000 26.9101
#
#
#
# Elastic Compliance Matrix: (Units=1/GPa)
#
#
# Indices 1 2 3 4 5 6 
#
# 1 0.014291 -0.003587 -0.003546 0.000000 0.000000 0.000000
# 2 -0.003587 0.015172 -0.004378 0.000000 0.000000 0.000000
# 3 -0.003546 -0.004378 0.013253 0.000000 0.000000 0.000000
# 4 0.000000 0.000000 0.000000 0.045312 0.000000 0.000000
# 5 0.000000 0.000000 0.000000 0.000000 0.029957 0.000000
# 6 0.000000 0.000000 0.000000 0.000000 0.000000 0.037161
#
#
# Mechanical properties :
#
#
# Convention : Reuss Voigt Hill
#
# Bulk Modulus (GPa) = 50.77384 51.10725 50.94055
# Shear Modulus (GPa) = 27.06614 27.59386 27.33000
#
# Velocity S-wave (km/s) = 3.68765 3.72343 3.70558
# Velocity P-wave (km/s) = 6.60620 6.64552 6.62589
#
# Compressibility (1/GPa) = 0.01969518
#
# Stress axis : x y z
#
# Youngs Moduli (GPa) = 69.97254 65.91189 75.45246
#
# Poissons Ratio (x) = 0.23640 0.26754
# Poissons Ratio (y) = 0.25096 0.33035
# Poissons Ratio (z) = 0.24811 0.28858
#
# Static dielectric constant tensor:
#      x y z
#    x 3.528790 0.000000 0.000000 
#    y 0.000000 3.811730 0.000000 
#    z 0.000000 0.000000 3.728500 
# 
# 
# High freq. dielectric constant tensor:
#      x y z
#    x 1.775620 0.000000 0.000000 
#    y 0.000000 1.775420 0.000000 
#    z 0.000000 0.000000 1.793200 
# 
# From -- ./inp_files/11597.got.cif
#   From: 2010.03.12/outbox.cif.g09.slc.cpg/sg20_6_cif.got.tgz:11597.got - 2010.04.14 01:38:04.
