data_PCOD8158921
_publ_section_title
;
Structure prediction by ZEFSAII (Michael W. Deem and Ramdas Pophale) SiO2 
 PCOD8158921
Probable space group: C 2 2 21
;
_chemical_formula_sum "Si O2"
_cell_formula_units_Z 28
_cell_length_a 14.647507
_cell_length_b 12.071762
_cell_length_c 6.348954
_cell_angle_alpha 90.000000
_cell_angle_beta 90.000000
_cell_angle_gamma 90.000000
_cell_volume 1122.629782
_symmetry_space_group_name_H-M "C 2 2 21"
_symmetry_group_IT_number 20
_symmetry_cell_setting 'orthorhombic'
loop_
_space_group_symop_operation_xyz
x,y,z
-x,-y,1/2+z
x,-y,-z
-x,y,1/2-z
1/2+x,1/2+y,z
1/2-x,1/2-y,1/2+z
1/2+x,1/2-y,-z
1/2-x,1/2+y,1/2-z
loop_
_atom_site_type_symbol
_atom_site_label
_atom_site_fract_x
_atom_site_fract_y
_atom_site_fract_z
Si Si1 0.794410 0.000000 0.500000
Si Si2 0.801742 0.392591 0.618260
Si Si3 0.920213 0.814524 0.453929
Si Si4 0.394136 0.625229 0.055984
O O1 0.728765 0.072297 0.352476
O O2 0.859819 0.082787 0.642292
O O3 0.841312 0.500000 0.500000
O O4 0.880514 0.302404 0.617283
O O5 0.711062 0.345167 0.499227
O O6 0.911105 0.841087 0.702358
O O7 0.031579 0.810198 0.407510
O O8 0.416412 0.500000 0.000000
#
# Coordination Sequence:
#
# PCOD8158921 Si02
#       4
#     4   8   8   8
#     4  10  22  38  66 102 140 178 238 288 360 420
#     4  10  23  40  69 100 143 187 236 296 363 434
#     4  10  20  39  69 107 141 183 239 301 359 428
#     4   9  19  40  69 106 138 182 239 303 354 421
#
# _framework density 24.941438000000002
#
# number of rings (size 3 to 8) (size 9 to 14) (size 15 to 20)
#    0.000    2.286    1.429    0.000    8.000    0.000 
#    0.000    0.000    3.143    0.000    3.714    0.000 
#    0.000    0.000    0.000    0.000    0.000    0.000 
#
# Total GULP energy -173437.026437 kJ/mol
# GULP energy per Si atom -12388.359031 kJ/mol
# Density = 2.488467 g / cm^3
# Si number density = 24.941438 Si / 1000 Ang^3
#
#
#
# Elastic Constant Matrix: (Units=GPa)
#
#
# Indices 1 2 3 4 5 6 
#
# 1 171.6819 112.0849 31.9892 0.0000 0.0000 0.0000
# 2 112.0849 167.0191 30.8502 0.0000 0.0000 0.0000
# 3 31.9892 30.8502 82.4398 0.0000 0.0000 0.0000
# 4 0.0000 0.0000 0.0000 37.5719 0.0000 0.0000
# 5 0.0000 0.0000 0.0000 0.0000 12.7137 0.0000
# 6 0.0000 0.0000 0.0000 0.0000 0.0000 58.8737
#
#
#
# Elastic Compliance Matrix: (Units=1/GPa)
#
#
# Indices 1 2 3 4 5 6 
#
# 1 0.010548 -0.006792 -0.001551 0.000000 0.000000 0.000000
# 2 -0.006792 0.010806 -0.001408 0.000000 0.000000 0.000000
# 3 -0.001551 -0.001408 0.013259 0.000000 0.000000 0.000000
# 4 0.000000 0.000000 0.000000 0.026616 0.000000 0.000000
# 5 0.000000 0.000000 0.000000 0.000000 0.078655 0.000000
# 6 0.000000 0.000000 0.000000 0.000000 0.000000 0.016986
#
#
# Mechanical properties :
#
#
# Convention : Reuss Voigt Hill
#
# Bulk Modulus (GPa) = 66.18287 85.66546 75.92417
# Shear Modulus (GPa) = 27.56208 38.24631 32.90419
#
# Velocity S-wave (km/s) = 3.32787 3.92017 3.63610
# Velocity P-wave (km/s) = 6.43111 7.41023 6.93796
#
# Compressibility (1/GPa) = 0.01510965
#
# Stress axis : x y z
#
# Youngs Moduli (GPa) = 94.80306 92.54436 75.42105
#
# Poissons Ratio (x) = 0.62858 0.11700
# Poissons Ratio (y) = 0.64393 0.10619
# Poissons Ratio (z) = 0.14706 0.13030
#
# Static dielectric constant tensor:
#      x y z
#    x 4.839590 0.000000 0.000000 
#    y 0.000000 4.098730 0.000000 
#    z 0.000000 0.000000 5.142970 
# 
# 
# High freq. dielectric constant tensor:
#      x y z
#    x 1.992290 0.000000 0.000000 
#    y 0.000000 1.960760 0.000000 
#    z 0.000000 0.000000 2.044650 
# 
# From -- ./inp_files/7785.got.cif
#   From: 2010.03.12/outbox.cif.g09.slc.cpg/sg20_4_cif.got.tgz:7785.got - 2010.04.14 01:38:04.
