data_PCOD8158293
_publ_section_title
;
Structure prediction by ZEFSAII (Michael W. Deem and Ramdas Pophale) SiO2 
 PCOD8158293
Probable space group: C 2 2 21
;
_chemical_formula_sum "Si O2"
_cell_formula_units_Z 60
_cell_length_a 8.799490
_cell_length_b 14.518995
_cell_length_c 23.733799
_cell_angle_alpha 90.000000
_cell_angle_beta 90.000000
_cell_angle_gamma 90.000000
_cell_volume 3032.224258
_symmetry_space_group_name_H-M "C 2 2 21"
_symmetry_group_IT_number 20
_symmetry_cell_setting 'orthorhombic'
loop_
_space_group_symop_operation_xyz
x,y,z
-x,-y,1/2+z
x,-y,-z
-x,y,1/2-z
1/2+x,1/2+y,z
1/2-x,1/2-y,1/2+z
1/2+x,1/2-y,-z
1/2-x,1/2+y,1/2-z
loop_
_atom_site_type_symbol
_atom_site_label
_atom_site_fract_x
_atom_site_fract_y
_atom_site_fract_z
Si Si1 0.970506 0.695475 0.022960
Si Si2 0.748613 0.726580 0.923648
Si Si3 0.845744 0.454449 0.116304
Si Si4 0.170767 0.737359 0.771514
Si Si5 0.673652 0.845970 0.637038
Si Si6 0.892548 0.539366 0.699854
Si Si7 0.830245 0.655726 0.325038
Si Si8 0.028034 0.500000 0.500000
O O1 0.095225 0.771068 0.039306
O O2 0.059257 0.595362 0.016035
O O3 0.842608 0.686080 0.071954
O O4 0.893987 0.727070 0.964616
O O5 0.741409 0.636926 0.882109
O O6 0.756490 0.814168 0.882055
O O7 0.773171 0.546837 0.143080
O O8 0.007119 0.431559 0.145693
O O9 0.863069 0.473339 0.050640
O O10 0.198341 0.785787 0.831884
O O11 0.203482 0.628148 0.779574
O O12 0.286418 0.779560 0.726831
O O13 0.000000 0.753839 0.750000
O O14 0.510694 0.834767 0.666945
O O15 0.785554 0.451688 0.685532
O O16 0.000000 0.505081 0.750000
#
# Coordination Sequence:
#
# PCOD8158293 Si02
#       8
#     8   8   8   8   8   8   8   4
#     4   9  19  33  55  81 109 143 183 224 268 313
#     4  10  19  33  57  85 109 140 182 226 268 315
#     4   9  17  34  58  79 105 143 184 216 257 326
#     4  11  22  35  55  84 111 137 174 230 284 314
#     4   9  19  37  59  78 104 147 188 217 256 328
#     4  10  20  35  56  79 104 143 183 218 263 323
#     4  10  20  37  57  78 105 145 188 218 256 327
#     4   8  16  32  54  78 100 144 192 214 246 320
#
# _framework density 19.787455000000001
#
# number of rings (size 3 to 8) (size 9 to 14) (size 15 to 20)
#    0.000    2.400    0.000    4.400    0.000    3.200 
#    0.000    4.000    0.000   16.800    0.000    0.000 
#    0.000    0.000    0.000    0.000    0.000    0.000 
#
# Total GULP energy -371701.421694 kJ/mol
# GULP energy per Si atom -12390.047390 kJ/mol
# Density = 1.974242 g / cm^3
# Si number density = 19.787455 Si / 1000 Ang^3
#
#
#
# Elastic Constant Matrix: (Units=GPa)
#
#
# Indices 1 2 3 4 5 6 
#
# 1 41.7644 55.9801 27.5560 0.0000 0.0000 0.0000
# 2 55.9801 173.1275 62.1872 0.0000 0.0000 0.0000
# 3 27.5560 62.1872 110.9442 0.0000 0.0000 0.0000
# 4 0.0000 0.0000 0.0000 37.1594 0.0000 0.0000
# 5 0.0000 0.0000 0.0000 0.0000 29.7643 0.0000
# 6 0.0000 0.0000 0.0000 0.0000 0.0000 19.2587
#
#
#
# Elastic Compliance Matrix: (Units=1/GPa)
#
#
# Indices 1 2 3 4 5 6 
#
# 1 0.043408 -0.012725 -0.003649 0.000000 0.000000 0.000000
# 2 -0.012725 0.010963 -0.002984 0.000000 0.000000 0.000000
# 3 -0.003649 -0.002984 0.011593 0.000000 0.000000 0.000000
# 4 0.000000 0.000000 0.000000 0.026911 0.000000 0.000000
# 5 0.000000 0.000000 0.000000 0.000000 0.033597 0.000000
# 6 0.000000 0.000000 0.000000 0.000000 0.000000 0.051925
#
#
# Mechanical properties :
#
#
# Convention : Reuss Voigt Hill
#
# Bulk Modulus (GPa) = 36.70156 68.58695 52.64426
# Shear Modulus (GPa) = 22.10488 29.24399 25.67443
#
# Velocity S-wave (km/s) = 3.34595 3.84852 3.60601
# Velocity P-wave (km/s) = 5.78925 7.38141 6.63327
#
# Compressibility (1/GPa) = 0.02724680
#
# Stress axis : x y z
#
# Youngs Moduli (GPa) = 23.03737 91.21888 86.26237
#
# Poissons Ratio (x) = 1.16077 0.31475
# Poissons Ratio (y) = 0.29315 0.25743
# Poissons Ratio (z) = 0.08406 0.27222
#
# Static dielectric constant tensor:
#      x y z
#    x 3.055630 0.000000 0.000000 
#    y 0.000000 4.062800 0.000000 
#    z 0.000000 0.000000 3.922460 
# 
# 
# High freq. dielectric constant tensor:
#      x y z
#    x 1.704190 0.000000 0.000000 
#    y 0.000000 1.785500 0.000000 
#    z 0.000000 0.000000 1.798730 
# 
# From -- ./inp_files/30184.got.cif
#   From: 2010.03.12/outbox.cif.g09.slc.cpg/sg20_16_cif.got.tgz:30184.got - 2010.04.14 01:38:04.
