data_PCOD8158139
_publ_section_title
;
Structure prediction by ZEFSAII (Michael W. Deem and Ramdas Pophale) SiO2 
 PCOD8158139
Probable space group: C 2 2 21
;
_chemical_formula_sum "Si O2"
_cell_formula_units_Z 48
_cell_length_a 17.244175
_cell_length_b 9.022775
_cell_length_c 16.719107
_cell_angle_alpha 90.000000
_cell_angle_beta 90.000000
_cell_angle_gamma 90.000000
_cell_volume 2601.331059
_symmetry_space_group_name_H-M "C 2 2 21"
_symmetry_group_IT_number 20
_symmetry_cell_setting 'orthorhombic'
loop_
_space_group_symop_operation_xyz
x,y,z
-x,-y,1/2+z
x,-y,-z
-x,y,1/2-z
1/2+x,1/2+y,z
1/2-x,1/2-y,1/2+z
1/2+x,1/2-y,-z
1/2-x,1/2+y,1/2-z
loop_
_atom_site_type_symbol
_atom_site_label
_atom_site_fract_x
_atom_site_fract_y
_atom_site_fract_z
Si Si1 0.500000 0.297361 0.250000
Si Si2 0.286198 0.328525 0.482180
Si Si3 0.898892 0.650892 0.380053
Si Si4 0.224646 0.426024 0.087329
Si Si5 0.612464 0.261890 0.537619
Si Si6 0.392937 0.440519 0.121300
Si Si7 0.487516 0.000000 0.000000
O O1 0.440735 0.193856 0.298299
O O2 0.448173 0.401659 0.194410
O O3 0.291418 0.500000 0.500000
O O4 0.350138 0.289091 0.415125
O O5 0.303329 0.240557 0.565632
O O6 0.202192 0.279832 0.450018
O O7 0.841826 0.511873 0.364335
O O8 0.961708 0.602919 0.444145
O O9 0.301334 0.428106 0.142446
O O10 0.243756 0.500000 0.000000
O O11 0.587455 0.389494 0.599454
O O12 0.592785 0.323026 0.449389
O O13 0.564817 0.111186 0.553074
#
# Coordination Sequence:
#
# PCOD8158139 Si02
#       7
#     4   8   8   8   8   8   4
#     4  12  26  38  60  96 136 162 200 260 338 372
#     4  10  18  34  67  98 114 148 222 262 290 364
#     4  11  22  40  59  91 129 165 200 257 317 373
#     4   9  16  37  66  87 112 164 212 251 298 361
#     4  10  19  36  68  91 116 164 214 254 302 370
#     4  10  19  39  61  88 125 163 202 257 312 372
#     4  12  20  36  66 100 120 154 212 264 298 358
#
# _framework density 18.452092
#
# number of rings (size 3 to 8) (size 9 to 14) (size 15 to 20)
#    0.000    1.667   10.000    0.000    0.000    1.333 
#    0.000    5.833    0.000    0.000    0.000    0.000 
#    0.000    0.000    0.000    0.000    0.000    0.000 
#
# Total GULP energy -297496.994618 kJ/mol
# GULP energy per Si atom -12395.708109 kJ/mol
# Density = 1.841009 g / cm^3
# Si number density = 18.452092 Si / 1000 Ang^3
#
#
#
# Elastic Constant Matrix: (Units=GPa)
#
#
# Indices 1 2 3 4 5 6 
#
# 1 129.5478 60.1522 62.1560 0.0000 0.0000 0.0000
# 2 60.1522 142.3717 43.6727 0.0000 0.0000 0.0000
# 3 62.1560 43.6727 84.1200 0.0000 0.0000 0.0000
# 4 0.0000 0.0000 0.0000 22.4980 0.0000 0.0000
# 5 0.0000 0.0000 0.0000 0.0000 33.5409 0.0000
# 6 0.0000 0.0000 0.0000 0.0000 0.0000 61.3467
#
#
#
# Elastic Compliance Matrix: (Units=1/GPa)
#
#
# Indices 1 2 3 4 5 6 
#
# 1 0.012966 -0.003020 -0.008012 0.000000 0.000000 0.000000
# 2 -0.003020 0.009058 -0.002471 0.000000 0.000000 0.000000
# 3 -0.008012 -0.002471 0.019091 0.000000 0.000000 0.000000
# 4 0.000000 0.000000 0.000000 0.044448 0.000000 0.000000
# 5 0.000000 0.000000 0.000000 0.000000 0.029814 0.000000
# 6 0.000000 0.000000 0.000000 0.000000 0.000000 0.016301
#
#
# Mechanical properties :
#
#
# Convention : Reuss Voigt Hill
#
# Bulk Modulus (GPa) = 70.88423 76.44460 73.66442
# Shear Modulus (GPa) = 30.60202 36.14769 33.37485
#
# Velocity S-wave (km/s) = 4.07684 4.43086 4.25753
# Velocity P-wave (km/s) = 7.78842 8.22772 8.01108
#
# Compressibility (1/GPa) = 0.01410751
#
# Stress axis : x y z
#
# Youngs Moduli (GPa) = 77.12588 110.40091 52.38085
#
# Poissons Ratio (x) = 0.33344 0.41969
# Poissons Ratio (y) = 0.23294 0.12943
# Poissons Ratio (z) = 0.61796 0.27279
#
# Static dielectric constant tensor:
#      x y z
#    x 3.631870 0.000000 0.000000 
#    y 0.000000 3.720450 0.000000 
#    z 0.000000 0.000000 2.598240 
# 
# 
# High freq. dielectric constant tensor:
#      x y z
#    x 1.734850 0.000000 0.000000 
#    y 0.000000 1.728330 0.000000 
#    z 0.000000 0.000000 1.657590 
# 
# From -- ./inp_files/25189.got.cif
#   From: 2010.03.12/outbox.cif.g09.slc.cpg/sg20_13_cif.got.tgz:25189.got - 2010.04.14 01:38:04.
