data_PCOD8158758
_publ_section_title
;
Structure prediction by ZEFSAII (Michael W. Deem and Ramdas Pophale) SiO2 
 PCOD8158758
Probable space group: C 2 2 21
;
_chemical_formula_sum "Si O2"
_cell_formula_units_Z 32
_cell_length_a 8.875359
_cell_length_b 10.574899
_cell_length_c 16.357707
_cell_angle_alpha 90.000000
_cell_angle_beta 90.000000
_cell_angle_gamma 90.000000
_cell_volume 1535.269357
_symmetry_space_group_name_H-M "C 2 2 21"
_symmetry_group_IT_number 20
_symmetry_cell_setting 'orthorhombic'
loop_
_space_group_symop_operation_xyz
x,y,z
-x,-y,1/2+z
x,-y,-z
-x,y,1/2-z
1/2+x,1/2+y,z
1/2-x,1/2-y,1/2+z
1/2+x,1/2-y,-z
1/2-x,1/2+y,1/2-z
loop_
_atom_site_type_symbol
_atom_site_label
_atom_site_fract_x
_atom_site_fract_y
_atom_site_fract_z
Si Si1 0.615979 0.007166 0.592457
Si Si2 0.922248 0.232660 0.162259
Si Si3 0.568557 0.211985 0.161730
Si Si4 0.564606 0.489117 0.158878
O O1 0.540222 0.143428 0.608887
O O2 0.755023 0.990410 0.655163
O O3 0.677063 0.000000 0.500000
O O4 0.491593 0.897939 0.603029
O O5 0.746451 0.207313 0.172091
O O6 0.000000 0.251979 0.250000
O O7 0.989191 0.109727 0.113816
O O8 0.500000 0.189978 0.250000
O O9 0.522488 0.349981 0.123903
O O10 0.500000 0.495699 0.250000
#
# Coordination Sequence:
#
# PCOD8158758 Si02
#       4
#     8   8   8   8
#     4  11  24  39  58  90 128 159 192 243 304 359
#     4  10  21  37  60  88 114 152 202 247 292 348
#     4  10  20  37  61  87 114 152 200 247 294 350
#     4   9  20  39  63  89 116 155 205 249 290 345
#
# _framework density 20.843249
#
# number of rings (size 3 to 8) (size 9 to 14) (size 15 to 20)
#    0.000    2.000    0.000    3.750    0.000   12.000 
#    0.000    1.250    0.000    0.000    0.000    0.000 
#    0.000    0.000    0.000    0.000    0.000    0.000 
#
# Total GULP energy -198268.117646 kJ/mol
# GULP energy per Si atom -12391.757353 kJ/mol
# Density = 2.079581 g / cm^3
# Si number density = 20.843249 Si / 1000 Ang^3
#
#
#
# Elastic Constant Matrix: (Units=GPa)
#
#
# Indices 1 2 3 4 5 6 
#
# 1 110.1933 78.9542 38.1078 0.0000 0.0000 0.0000
# 2 78.9542 215.7289 33.3441 0.0000 0.0000 0.0000
# 3 38.1078 33.3441 60.4983 0.0000 0.0000 0.0000
# 4 0.0000 0.0000 0.0000 8.2626 0.0000 0.0000
# 5 0.0000 0.0000 0.0000 0.0000 17.2799 0.0000
# 6 0.0000 0.0000 0.0000 0.0000 0.0000 38.8985
#
#
#
# Elastic Compliance Matrix: (Units=1/GPa)
#
#
# Indices 1 2 3 4 5 6 
#
# 1 0.014457 -0.004245 -0.006767 0.000000 0.000000 0.000000
# 2 -0.004245 0.006314 -0.000806 0.000000 0.000000 0.000000
# 3 -0.006767 -0.000806 0.021236 0.000000 0.000000 0.000000
# 4 0.000000 0.000000 0.000000 0.121028 0.000000 0.000000
# 5 0.000000 0.000000 0.000000 0.000000 0.057871 0.000000
# 6 0.000000 0.000000 0.000000 0.000000 0.000000 0.025708
#
#
# Mechanical properties :
#
#
# Convention : Reuss Voigt Hill
#
# Bulk Modulus (GPa) = 54.43314 76.35918 65.39616
# Shear Modulus (GPa) = 18.09162 28.62248 23.35705
#
# Velocity S-wave (km/s) = 2.94935 3.70973 3.35118
# Velocity P-wave (km/s) = 6.14576 7.42051 6.81302
#
# Compressibility (1/GPa) = 0.01837116
#
# Stress axis : x y z
#
# Youngs Moduli (GPa) = 69.17239 158.38689 47.09042
#
# Poissons Ratio (x) = 0.67237 0.31864
# Poissons Ratio (y) = 0.29364 0.03795
# Poissons Ratio (z) = 0.46806 0.12763
#
# Static dielectric constant tensor:
#      x y z
#    x 3.735600 0.000000 0.000000 
#    y 0.000000 4.811220 0.000000 
#    z 0.000000 0.000000 3.312280 
# 
# 
# High freq. dielectric constant tensor:
#      x y z
#    x 1.813390 0.000000 0.000000 
#    y 0.000000 1.853410 0.000000 
#    z 0.000000 0.000000 1.769890 
# 
# From -- ./inp_files/18162.got.cif
#   From: 2010.03.12/outbox.cif.g09.slc.cpg/sg20_10_cif.got.tgz:18162.got - 2010.04.14 01:38:04.
