data_PCOD8158497
_publ_section_title
;
Structure prediction by ZEFSAII (Michael W. Deem and Ramdas Pophale) SiO2 
 PCOD8158497
Probable space group: C 2 2 21
;
_chemical_formula_sum "Si O2"
_cell_formula_units_Z 56
_cell_length_a 9.072475
_cell_length_b 20.911019
_cell_length_c 15.072355
_cell_angle_alpha 90.000000
_cell_angle_beta 90.000000
_cell_angle_gamma 90.000000
_cell_volume 2859.447263
_symmetry_space_group_name_H-M "C 2 2 21"
_symmetry_group_IT_number 20
_symmetry_cell_setting 'orthorhombic'
loop_
_space_group_symop_operation_xyz
x,y,z
-x,-y,1/2+z
x,-y,-z
-x,y,1/2-z
1/2+x,1/2+y,z
1/2-x,1/2-y,1/2+z
1/2+x,1/2-y,-z
1/2-x,1/2+y,1/2-z
loop_
_atom_site_type_symbol
_atom_site_label
_atom_site_fract_x
_atom_site_fract_y
_atom_site_fract_z
Si Si1 0.480356 0.175427 0.014397
Si Si2 0.781512 0.431088 0.527974
Si Si3 0.083169 0.764352 0.333229
Si Si4 0.072983 0.752622 0.847311
Si Si5 0.959111 0.101897 0.887881
Si Si6 0.980216 0.959917 0.847029
Si Si7 0.849240 0.869284 0.543692
O O1 0.592248 0.120518 0.046163
O O2 0.495815 0.237924 0.077177
O O3 0.321352 0.146542 0.035459
O O4 0.509031 0.196146 0.911732
O O5 0.849997 0.500000 0.500000
O O6 0.683701 0.404937 0.448662
O O7 0.678613 0.439136 0.614532
O O8 0.254223 0.749647 0.331435
O O9 0.070793 0.840640 0.320661
O O10 0.000000 0.731748 0.250000
O O11 0.049930 0.818895 0.900247
O O12 0.000000 0.750197 0.750000
O O13 0.993260 0.036269 0.838180
O O14 0.099416 0.124939 0.943339
O O15 0.000000 0.929546 0.750000
O O16 0.116460 0.936899 0.908348
#
# Coordination Sequence:
#
# PCOD8158497 Si02
#       7
#     8   8   8   8   8   8   8
#     4  11  23  41  62  89 127 158 202 257 314 366
#     4   9  20  38  64  82 116 165 202 245 310 360
#     4  11  24  37  63  94 121 162 207 251 309 369
#     4  11  24  40  61  91 125 162 205 257 315 366
#     4  10  19  39  61  87 120 160 203 247 296 363
#     4  10  21  38  61  89 121 163 211 253 295 361
#     4  10  22  37  62  89 118 163 205 249 306 364
#
# _framework density 19.584202999999999
#
# number of rings (size 3 to 8) (size 9 to 14) (size 15 to 20)
#    0.000    1.714    2.857    2.143    2.000    5.714 
#    0.000    0.000    0.000    0.857    0.000    0.000 
#    0.000    0.000    0.000    0.000    0.000    0.000 
#
# Total GULP energy -346997.468828 kJ/mol
# GULP energy per Si atom -12392.766744 kJ/mol
# Density = 1.953963 g / cm^3
# Si number density = 19.584203 Si / 1000 Ang^3
#
#
#
# Elastic Constant Matrix: (Units=GPa)
#
#
# Indices 1 2 3 4 5 6 
#
# 1 91.9866 45.9711 42.1405 0.0000 0.0000 0.0000
# 2 45.9711 89.3242 15.6526 0.0000 0.0000 0.0000
# 3 42.1405 15.6526 106.4792 0.0000 0.0000 0.0000
# 4 0.0000 0.0000 0.0000 22.2290 0.0000 0.0000
# 5 0.0000 0.0000 0.0000 0.0000 22.5839 0.0000
# 6 0.0000 0.0000 0.0000 0.0000 0.0000 23.5806
#
#
#
# Elastic Compliance Matrix: (Units=1/GPa)
#
#
# Indices 1 2 3 4 5 6 
#
# 1 0.017505 -0.008001 -0.005751 0.000000 0.000000 0.000000
# 2 -0.008001 0.015148 0.000940 0.000000 0.000000 0.000000
# 3 -0.005751 0.000940 0.011530 0.000000 0.000000 0.000000
# 4 0.000000 0.000000 0.000000 0.044986 0.000000 0.000000
# 5 0.000000 0.000000 0.000000 0.000000 0.044279 0.000000
# 6 0.000000 0.000000 0.000000 0.000000 0.000000 0.042408
#
#
# Mechanical properties :
#
#
# Convention : Reuss Voigt Hill
#
# Bulk Modulus (GPa) = 53.88851 55.03537 54.46194
# Shear Modulus (GPa) = 24.07704 25.94710 25.01207
#
# Velocity S-wave (km/s) = 3.51010 3.64387 3.57761
# Velocity P-wave (km/s) = 6.63354 6.77249 6.70337
#
# Compressibility (1/GPa) = 0.01855683
#
# Stress axis : x y z
#
# Youngs Moduli (GPa) = 57.12803 66.01431 86.73324
#
# Poissons Ratio (x) = 0.52818 0.49885
# Poissons Ratio (y) = 0.45708 -0.08150
# Poissons Ratio (z) = 0.32857 -0.06203
#
# Static dielectric constant tensor:
#      x y z
#    x 3.393740 0.000000 0.000000 
#    y 0.000000 3.790480 0.000000 
#    z 0.000000 0.000000 3.555300 
# 
# 
# High freq. dielectric constant tensor:
#      x y z
#    x 1.748880 0.000000 0.000000 
#    y 0.000000 1.773810 0.000000 
#    z 0.000000 0.000000 1.764530 
# 
# From -- ./inp_files/19209.got.cif
#   From: 2010.03.12/outbox.cif.g09.slc.cpg/sg20_10_cif.got.tgz:19209.got - 2010.04.14 01:38:04.
