data_PCOD8158045
_publ_section_title
;
Structure prediction by ZEFSAII (Michael W. Deem and Ramdas Pophale) SiO2 
 PCOD8158045
Probable space group: C 2 2 21
;
_chemical_formula_sum "Si O2"
_cell_formula_units_Z 48
_cell_length_a 11.357712
_cell_length_b 24.203921
_cell_length_c 7.779230
_cell_angle_alpha 90.000000
_cell_angle_beta 90.000000
_cell_angle_gamma 90.000000
_cell_volume 2138.519382
_symmetry_space_group_name_H-M "C 2 2 21"
_symmetry_group_IT_number 20
_symmetry_cell_setting 'orthorhombic'
loop_
_space_group_symop_operation_xyz
x,y,z
-x,-y,1/2+z
x,-y,-z
-x,y,1/2-z
1/2+x,1/2+y,z
1/2-x,1/2-y,1/2+z
1/2+x,1/2-y,-z
1/2-x,1/2+y,1/2-z
loop_
_atom_site_type_symbol
_atom_site_label
_atom_site_fract_x
_atom_site_fract_y
_atom_site_fract_z
Si Si1 0.228685 0.594372 0.730695
Si Si2 0.047870 0.326780 0.422757
Si Si3 0.178432 0.630963 0.101883
Si Si4 0.632052 0.985478 0.802793
Si Si5 0.749731 0.778445 0.646651
Si Si6 0.124450 0.189307 0.837672
O O1 0.109368 0.617322 0.646284
O O2 0.221816 0.527909 0.704078
O O3 0.342983 0.624119 0.644011
O O4 0.242668 0.610274 0.931226
O O5 0.138803 0.288570 0.522392
O O6 0.000000 0.295510 0.250000
O O7 0.948263 0.343196 0.559257
O O8 0.165103 0.578435 0.231818
O O9 0.256084 0.676853 0.199769
O O10 0.500000 0.998611 0.750000
O O11 0.643955 0.000000 0.000000
O O12 0.868403 0.782262 0.528066
O O13 0.729748 0.717092 0.722469
O O14 0.000000 0.200091 0.750000
#
# Coordination Sequence:
#
# PCOD8158045 Si02
#       6
#     8   8   8   8   8   8
#     4   9  19  34  51  78 117 156 191 225 277 343
#     4   9  17  31  53  82 116 147 181 229 288 348
#     4  10  18  32  55  87 119 148 188 239 291 342
#     4  10  18  29  52  84 118 152 186 235 293 341
#     4  11  22  37  58  83 109 145 188 238 292 347
#     4  11  24  41  60  82 113 152 192 238 291 353
#
# _framework density 22.445436000000001
#
# number of rings (size 3 to 8) (size 9 to 14) (size 15 to 20)
#    0.000    2.000    0.000    6.000    0.000    4.000 
#    0.000    2.500    0.000    6.000    0.000    0.000 
#    0.000    0.000    0.000    0.000    0.000    0.000 
#
# Total GULP energy -297409.360573 kJ/mol
# GULP energy per Si atom -12392.056691 kJ/mol
# Density = 2.239435 g / cm^3
# Si number density = 22.445436 Si / 1000 Ang^3
#
#
#
# Elastic Constant Matrix: (Units=GPa)
#
#
# Indices 1 2 3 4 5 6 
#
# 1 51.1843 11.5176 14.6300 0.0000 0.0000 0.0000
# 2 11.5176 114.7516 9.8354 0.0000 0.0000 0.0000
# 3 14.6300 9.8354 62.4174 0.0000 0.0000 0.0000
# 4 0.0000 0.0000 0.0000 41.8209 0.0000 0.0000
# 5 0.0000 0.0000 0.0000 0.0000 40.1534 0.0000
# 6 0.0000 0.0000 0.0000 0.0000 0.0000 13.9078
#
#
#
# Elastic Compliance Matrix: (Units=1/GPa)
#
#
# Indices 1 2 3 4 5 6 
#
# 1 0.021274 -0.001731 -0.004714 0.000000 0.000000 0.000000
# 2 -0.001731 0.008975 -0.001008 0.000000 0.000000 0.000000
# 3 -0.004714 -0.001008 0.017285 0.000000 0.000000 0.000000
# 4 0.000000 0.000000 0.000000 0.023911 0.000000 0.000000
# 5 0.000000 0.000000 0.000000 0.000000 0.024905 0.000000
# 6 0.000000 0.000000 0.000000 0.000000 0.000000 0.071902
#
#
# Mechanical properties :
#
#
# Convention : Reuss Voigt Hill
#
# Bulk Modulus (GPa) = 30.64938 33.36882 32.00910
# Shear Modulus (GPa) = 25.76869 32.00111 28.88490
#
# Velocity S-wave (km/s) = 3.39198 3.77998 3.59122
# Velocity P-wave (km/s) = 5.38752 5.82665 5.61139
#
# Compressibility (1/GPa) = 0.03262709
#
# Stress axis : x y z
#
# Youngs Moduli (GPa) = 47.00549 111.42470 57.85400
#
# Poissons Ratio (x) = 0.19291 0.27270
# Poissons Ratio (y) = 0.08138 0.05834
# Poissons Ratio (z) = 0.22157 0.11236
#
# Static dielectric constant tensor:
#      x y z
#    x 3.542140 0.000000 0.000000 
#    y 0.000000 4.401910 0.000000 
#    z 0.000000 0.000000 4.541930 
# 
# 
# High freq. dielectric constant tensor:
#      x y z
#    x 1.828530 0.000000 0.000000 
#    y 0.000000 1.885640 0.000000 
#    z 0.000000 0.000000 1.898880 
# 
# From -- ./inp_files/7375.got.cif
#   From: 2010.03.12/outbox.cif.g09.slc.cpg/sg20_4_cif.got.tgz:7375.got - 2010.04.14 01:38:04.
