data_PCOD8158390
_publ_section_title
;
Structure prediction by ZEFSAII (Michael W. Deem and Ramdas Pophale) SiO2 
 PCOD8158390
Probable space group: C 2 2 21
;
_chemical_formula_sum "Si O2"
_cell_formula_units_Z 64
_cell_length_a 9.328458
_cell_length_b 14.653791
_cell_length_c 24.279657
_cell_angle_alpha 90.000000
_cell_angle_beta 90.000000
_cell_angle_gamma 90.000000
_cell_volume 3318.962923
_symmetry_space_group_name_H-M "C 2 2 21"
_symmetry_group_IT_number 20
_symmetry_cell_setting 'orthorhombic'
loop_
_space_group_symop_operation_xyz
x,y,z
-x,-y,1/2+z
x,-y,-z
-x,y,1/2-z
1/2+x,1/2+y,z
1/2-x,1/2-y,1/2+z
1/2+x,1/2-y,-z
1/2-x,1/2+y,1/2-z
loop_
_atom_site_type_symbol
_atom_site_label
_atom_site_fract_x
_atom_site_fract_y
_atom_site_fract_z
Si Si1 0.221283 0.098943 0.006734
Si Si2 0.773615 0.670566 0.380448
Si Si3 0.198477 0.487384 0.797872
Si Si4 0.415286 0.450625 0.947881
Si Si5 0.099916 0.889170 0.361297
Si Si6 0.628645 0.975613 0.675284
Si Si7 0.894489 0.690795 0.099674
Si Si8 0.788977 0.133521 0.619485
O O1 0.326803 0.165223 0.040475
O O2 0.075591 0.084695 0.041297
O O3 0.182082 0.138203 0.946493
O O4 0.297097 0.000000 0.000000
O O5 0.751482 0.605159 0.327955
O O6 0.680760 0.635069 0.431503
O O7 0.715736 0.770547 0.363309
O O8 0.934515 0.681883 0.403299
O O9 0.295256 0.576056 0.812664
O O10 0.213557 0.473729 0.732684
O O11 0.035504 0.503501 0.815869
O O12 0.409950 0.528048 0.902798
O O13 0.345219 0.500000 0.000000
O O14 0.158193 0.793402 0.385986
O O15 0.934693 0.873258 0.344046
O O16 0.686000 0.050818 0.633365
O O17 0.656535 0.877405 0.647916
#
# Coordination Sequence:
#
# PCOD8158390 Si02
#       8
#     8   8   8   8   8   8   8   8
#     4  11  20  35  55  79 118 151 181 225 272 323
#     4   9  22  36  54  83 111 141 188 228 271 331
#     4   9  21  40  57  77 108 141 179 232 282 324
#     4  10  19  36  53  75 115 156 177 224 271 320
#     4  10  20  37  56  83 110 142 190 222 273 331
#     4  10  20  39  59  77 107 143 178 231 284 323
#     4  10  21  36  56  84 111 144 188 227 269 331
#     4  11  21  36  57  84 112 146 186 224 275 333
#
# _framework density 19.283131999999998
#
# number of rings (size 3 to 8) (size 9 to 14) (size 15 to 20)
#    0.000    2.000    3.750    0.000    1.750    3.000 
#    2.250    2.500    0.000    0.000    0.000    0.000 
#    0.000    0.000    0.000    0.000    0.000    0.000 
#
# Total GULP energy -396616.090287 kJ/mol
# GULP energy per Si atom -12394.252821 kJ/mol
# Density = 1.923924 g / cm^3
# Si number density = 19.283132 Si / 1000 Ang^3
#
#
#
# Elastic Constant Matrix: (Units=GPa)
#
#
# Indices 1 2 3 4 5 6 
#
# 1 42.6691 36.3078 29.2748 0.0000 0.0000 0.0000
# 2 36.3078 130.3423 24.0635 0.0000 0.0000 0.0000
# 3 29.2748 24.0635 76.4133 0.0000 0.0000 0.0000
# 4 0.0000 0.0000 0.0000 20.0274 0.0000 0.0000
# 5 0.0000 0.0000 0.0000 0.0000 27.3386 0.0000
# 6 0.0000 0.0000 0.0000 0.0000 0.0000 29.6927
#
#
#
# Elastic Compliance Matrix: (Units=1/GPa)
#
#
# Indices 1 2 3 4 5 6 
#
# 1 0.039252 -0.008661 -0.012310 0.000000 0.000000 0.000000
# 2 -0.008661 0.010057 0.000151 0.000000 0.000000 0.000000
# 3 -0.012310 0.000151 0.017755 0.000000 0.000000 0.000000
# 4 0.000000 0.000000 0.000000 0.049932 0.000000 0.000000
# 5 0.000000 0.000000 0.000000 0.000000 0.036578 0.000000
# 6 0.000000 0.000000 0.000000 0.000000 0.000000 0.033678
#
#
# Mechanical properties :
#
#
# Convention : Reuss Voigt Hill
#
# Bulk Modulus (GPa) = 39.33375 47.63523 43.48449
# Shear Modulus (GPa) = 21.06430 26.06364 23.56397
#
# Velocity S-wave (km/s) = 3.30869 3.68044 3.49950
# Velocity P-wave (km/s) = 5.91936 6.54351 6.23925
#
# Compressibility (1/GPa) = 0.02542346
#
# Stress axis : x y z
#
# Youngs Moduli (GPa) = 25.47621 99.43465 56.32091
#
# Poissons Ratio (x) = 0.86123 0.69334
# Poissons Ratio (y) = 0.22066 -0.00852
# Poissons Ratio (z) = 0.31362 -0.01504
#
# Static dielectric constant tensor:
#      x y z
#    x 3.632750 0.000000 0.000000 
#    y 0.000000 3.769190 0.000000 
#    z 0.000000 0.000000 3.565050 
# 
# 
# High freq. dielectric constant tensor:
#      x y z
#    x 1.735720 0.000000 0.000000 
#    y 0.000000 1.765090 0.000000 
#    z 0.000000 0.000000 1.741780 
# 
# From -- ./inp_files/28882.got.cif
#   From: 2010.03.12/outbox.cif.g09.slc.cpg/sg20_15_cif.got.tgz:28882.got - 2010.04.14 01:38:04.
