data_PCOD8158842
_publ_section_title
;
Structure prediction by ZEFSAII (Michael W. Deem and Ramdas Pophale) SiO2 
 PCOD8158842
Probable space group: C 2 2 21
;
_chemical_formula_sum "Si O2"
_cell_formula_units_Z 52
_cell_length_a 7.663930
_cell_length_b 12.041558
_cell_length_c 25.805182
_cell_angle_alpha 90.000000
_cell_angle_beta 90.000000
_cell_angle_gamma 90.000000
_cell_volume 2381.448190
_symmetry_space_group_name_H-M "C 2 2 21"
_symmetry_group_IT_number 20
_symmetry_cell_setting 'orthorhombic'
loop_
_space_group_symop_operation_xyz
x,y,z
-x,-y,1/2+z
x,-y,-z
-x,y,1/2-z
1/2+x,1/2+y,z
1/2-x,1/2-y,1/2+z
1/2+x,1/2-y,-z
1/2-x,1/2+y,1/2-z
loop_
_atom_site_type_symbol
_atom_site_label
_atom_site_fract_x
_atom_site_fract_y
_atom_site_fract_z
Si Si1 0.500000 0.068916 0.750000
Si Si2 0.012664 0.887576 0.470457
Si Si3 0.373104 0.128482 0.130187
Si Si4 0.841683 0.968455 0.715801
Si Si5 0.514362 0.635438 0.643576
Si Si6 0.164733 0.740591 0.948267
Si Si7 0.917497 0.597343 0.640232
O O1 0.672296 0.991250 0.751167
O O2 0.493797 0.138355 0.696249
O O3 0.929371 0.894176 0.412755
O O4 0.218761 0.864149 0.466326
O O5 0.937122 0.784283 0.502523
O O6 0.973234 0.000000 0.500000
O O7 0.487532 0.231710 0.151062
O O8 0.289227 0.162365 0.074990
O O9 0.211584 0.115186 0.170103
O O10 0.493532 0.020062 0.125424
O O11 0.000000 0.918230 0.750000
O O12 0.902249 0.084468 0.689763
O O13 0.709211 0.584702 0.644498
O O14 0.036828 0.690459 0.903314
#
# Coordination Sequence:
#
# PCOD8158842 Si02
#       7
#     4   8   8   8   8   8   8
#     4  10  20  38  64  92 124 170 216 260 322 386
#     4  10  22  39  64  89 126 163 208 259 317 381
#     4   9  21  41  60  90 127 161 211 265 310 387
#     4  11  21  41  67  90 131 171 212 270 321 375
#     4  10  22  42  62  93 130 163 215 267 314 388
#     4  10  23  40  60  94 125 160 216 257 317 385
#     4   9  19  40  61  84 128 159 210 265 311 378
#
# _framework density 21.835453999999999
#
# number of rings (size 3 to 8) (size 9 to 14) (size 15 to 20)
#    0.000    2.462    1.538    0.923    0.000    8.615 
#   11.077    6.154    0.000    0.000    0.000    0.000 
#    0.000    0.000    0.000    0.000    0.000    0.000 
#
# Total GULP energy -322201.035245 kJ/mol
# GULP energy per Si atom -12392.347509 kJ/mol
# Density = 2.178576 g / cm^3
# Si number density = 21.835454 Si / 1000 Ang^3
#
#
#
# Elastic Constant Matrix: (Units=GPa)
#
#
# Indices 1 2 3 4 5 6 
#
# 1 81.4717 21.9336 24.4050 0.0000 0.0000 0.0000
# 2 21.9336 87.2176 24.8309 0.0000 0.0000 0.0000
# 3 24.4050 24.8309 79.5095 0.0000 0.0000 0.0000
# 4 0.0000 0.0000 0.0000 26.9638 0.0000 0.0000
# 5 0.0000 0.0000 0.0000 0.0000 33.8439 0.0000
# 6 0.0000 0.0000 0.0000 0.0000 0.0000 30.9533
#
#
#
# Elastic Compliance Matrix: (Units=1/GPa)
#
#
# Indices 1 2 3 4 5 6 
#
# 1 0.014005 -0.002522 -0.003511 0.000000 0.000000 0.000000
# 2 -0.002522 0.013039 -0.003298 0.000000 0.000000 0.000000
# 3 -0.003511 -0.003298 0.014685 0.000000 0.000000 0.000000
# 4 0.000000 0.000000 0.000000 0.037087 0.000000 0.000000
# 5 0.000000 0.000000 0.000000 0.000000 0.029547 0.000000
# 6 0.000000 0.000000 0.000000 0.000000 0.000000 0.032307
#
#
# Mechanical properties :
#
#
# Convention : Reuss Voigt Hill
#
# Bulk Modulus (GPa) = 43.35367 43.39307 43.37337
# Shear Modulus (GPa) = 29.93644 30.15416 30.04530
#
# Velocity S-wave (km/s) = 3.70672 3.72017 3.71345
# Velocity P-wave (km/s) = 6.18203 6.19426 6.18815
#
# Compressibility (1/GPa) = 0.02306610
#
# Stress axis : x y z
#
# Youngs Moduli (GPa) = 71.40310 76.69422 68.09808
#
# Poissons Ratio (x) = 0.19345 0.23909
# Poissons Ratio (y) = 0.18011 0.22457
# Poissons Ratio (z) = 0.25070 0.25292
#
# Static dielectric constant tensor:
#      x y z
#    x 3.829540 0.000000 0.000000 
#    y 0.000000 3.652170 0.000000 
#    z 0.000000 0.000000 4.330360 
# 
# 
# High freq. dielectric constant tensor:
#      x y z
#    x 1.846330 0.000000 0.000000 
#    y 0.000000 1.836590 0.000000 
#    z 0.000000 0.000000 1.875040 
# 
# From -- ./inp_files/30124.got.cif
#   From: 2010.03.12/outbox.cif.g09.slc.cpg/sg20_16_cif.got.tgz:30124.got - 2010.04.14 01:38:04.
