data_PCOD8158433
_publ_section_title
;
Structure prediction by ZEFSAII (Michael W. Deem and Ramdas Pophale) SiO2 
 PCOD8158433
Probable space group: C 2 2 21
;
_chemical_formula_sum "Si O2"
_cell_formula_units_Z 52
_cell_length_a 16.657753
_cell_length_b 19.468529
_cell_length_c 8.231108
_cell_angle_alpha 90.000000
_cell_angle_beta 90.000000
_cell_angle_gamma 90.000000
_cell_volume 2669.364353
_symmetry_space_group_name_H-M "C 2 2 21"
_symmetry_group_IT_number 20
_symmetry_cell_setting 'orthorhombic'
loop_
_space_group_symop_operation_xyz
x,y,z
-x,-y,1/2+z
x,-y,-z
-x,y,1/2-z
1/2+x,1/2+y,z
1/2-x,1/2-y,1/2+z
1/2+x,1/2-y,-z
1/2-x,1/2+y,1/2-z
loop_
_atom_site_type_symbol
_atom_site_label
_atom_site_fract_x
_atom_site_fract_y
_atom_site_fract_z
Si Si1 0.000000 0.785404 0.250000
Si Si2 0.435024 0.926734 0.547323
Si Si3 0.470220 0.800218 0.072905
Si Si4 0.267928 0.055595 0.616038
Si Si5 0.150008 0.456293 0.645591
Si Si6 0.703253 0.814416 0.527356
Si Si7 0.677549 0.315675 0.251903
O O1 0.918130 0.828974 0.258540
O O2 0.000684 0.743875 0.419248
O O3 0.497648 0.875294 0.468585
O O4 0.346574 0.914114 0.472733
O O5 0.576944 0.925909 0.755998
O O6 0.469317 0.000000 0.500000
O O7 0.500000 0.773414 0.250000
O O8 0.374184 0.804503 0.088690
O O9 0.210398 0.118869 0.652090
O O10 0.223422 0.000000 0.500000
O O11 0.292596 0.013332 0.774530
O O12 0.110815 0.500000 0.500000
O O13 0.203886 0.390601 0.601069
O O14 0.700334 0.755903 0.663304
O O15 0.784970 0.808573 0.426278
#
# Coordination Sequence:
#
# PCOD8158433 Si02
#       7
#     4   8   8   8   8   8   8
#     4  10  26  44  62  90 130 156 214 280 318 368
#     4   9  20  36  57  89 129 167 202 249 300 382
#     4  11  23  41  59  90 131 166 205 256 311 382
#     4   9  20  37  65  88 123 165 211 258 308 379
#     4  10  19  37  58  92 126 162 211 256 307 375
#     4  11  25  36  65  90 122 163 211 249 313 381
#     4  11  23  42  63  94 120 169 208 267 319 377
#
# _framework density 19.480291999999999
#
# number of rings (size 3 to 8) (size 9 to 14) (size 15 to 20)
#    0.000    2.154    1.538    2.769   10.769    0.615 
#    1.385    0.000    3.385    0.000    0.000    0.000 
#    0.000    0.000    0.000    0.000    0.000    0.000 
#
# Total GULP energy -322197.539309 kJ/mol
# GULP energy per Si atom -12392.213050 kJ/mol
# Density = 1.943595 g / cm^3
# Si number density = 19.480292 Si / 1000 Ang^3
#
#
#
# Elastic Constant Matrix: (Units=GPa)
#
#
# Indices 1 2 3 4 5 6 
#
# 1 108.8536 40.2939 33.3105 0.0000 0.0000 0.0000
# 2 40.2939 86.4904 31.0213 0.0000 0.0000 0.0000
# 3 33.3105 31.0213 123.2344 0.0000 0.0000 0.0000
# 4 0.0000 0.0000 0.0000 29.5056 0.0000 0.0000
# 5 0.0000 0.0000 0.0000 0.0000 0.2016 0.0000
# 6 0.0000 0.0000 0.0000 0.0000 0.0000 16.2698
#
#
#
# Elastic Compliance Matrix: (Units=1/GPa)
#
#
# Indices 1 2 3 4 5 6 
#
# 1 0.011506 -0.004666 -0.001936 0.000000 0.000000 0.000000
# 2 -0.004666 0.014602 -0.002414 0.000000 0.000000 0.000000
# 3 -0.001936 -0.002414 0.009246 0.000000 0.000000 0.000000
# 4 0.000000 0.000000 0.000000 0.033892 0.000000 0.000000
# 5 0.000000 0.000000 0.000000 0.000000 4.959669 0.000000
# 6 0.000000 0.000000 0.000000 0.000000 0.000000 0.061463
#
#
# Mechanical properties :
#
#
# Convention : Reuss Voigt Hill
#
# Bulk Modulus (GPa) = 57.73242 58.64775 58.19009
# Shear Modulus (GPa) = 0.97767 23.45892 12.21830
#
# Velocity S-wave (km/s) = 0.70920 3.47398 2.50714
# Velocity P-wave (km/s) = 5.51101 6.80169 6.19008
#
# Compressibility (1/GPa) = 0.01732129
#
# Stress axis : x y z
#
# Youngs Moduli (GPa) = 86.90938 68.48448 108.16014
#
# Poissons Ratio (x) = 0.31957 0.20935
# Poissons Ratio (y) = 0.40554 0.26114
# Poissons Ratio (z) = 0.16822 0.16535
#
# Static dielectric constant tensor:
#      x y z
#    x 3.445950 0.000000 0.000000 
#    y 0.000000 3.497530 0.000000 
#    z 0.000000 0.000000 3.870400 
# 
# 
# High freq. dielectric constant tensor:
#      x y z
#    x 1.742090 0.000000 0.000000 
#    y 0.000000 1.749690 0.000000 
#    z 0.000000 0.000000 1.776850 
# 
# From -- ./inp_files/8669.got.cif
#   From: 2010.03.12/outbox.cif.g09.slc.cpg/sg20_5_cif.got.tgz:8669.got - 2010.04.14 01:38:04.
