data_PCOD8158206
_publ_section_title
;
Structure prediction by ZEFSAII (Michael W. Deem and Ramdas Pophale) SiO2 
 PCOD8158206
Probable space group: C 2 2 21
;
_chemical_formula_sum "Si O2"
_cell_formula_units_Z 56
_cell_length_a 19.830186
_cell_length_b 8.702327
_cell_length_c 16.582267
_cell_angle_alpha 90.000000
_cell_angle_beta 90.000000
_cell_angle_gamma 90.000000
_cell_volume 2861.581305
_symmetry_space_group_name_H-M "C 2 2 21"
_symmetry_group_IT_number 20
_symmetry_cell_setting 'orthorhombic'
loop_
_space_group_symop_operation_xyz
x,y,z
-x,-y,1/2+z
x,-y,-z
-x,y,1/2-z
1/2+x,1/2+y,z
1/2-x,1/2-y,1/2+z
1/2+x,1/2-y,-z
1/2-x,1/2+y,1/2-z
loop_
_atom_site_type_symbol
_atom_site_label
_atom_site_fract_x
_atom_site_fract_y
_atom_site_fract_z
Si Si1 0.145819 0.825109 0.011775
Si Si2 0.384023 0.982102 0.298117
Si Si3 0.440909 0.267835 0.811650
Si Si4 0.223901 0.606742 0.925698
Si Si5 0.691904 0.734409 0.808024
Si Si6 0.473297 0.121591 0.562846
Si Si7 0.813683 0.964067 0.813341
O O1 0.165960 0.792524 0.102229
O O2 0.211162 0.781530 0.955461
O O3 0.084468 0.719012 0.981724
O O4 0.125137 0.000000 0.000000
O O5 0.400626 0.880845 0.220247
O O6 0.318115 0.921004 0.344250
O O7 0.445994 0.975178 0.360526
O O8 0.365294 0.154321 0.268117
O O9 0.500000 0.316282 0.750000
O O10 0.469279 0.233607 0.901392
O O11 0.390716 0.411123 0.818465
O O12 0.299137 0.563526 0.895726
O O13 0.199377 0.500000 0.000000
O O14 0.765165 0.815278 0.807403
O O15 0.695855 0.571780 0.764305
O O16 0.504863 0.000000 0.500000
#
# Coordination Sequence:
#
# PCOD8158206 Si02
#       7
#     8   8   8   8   8   8   8
#     4  11  22  36  67  96 121 157 219 262 311 376
#     4   9  17  37  63  92 117 159 205 255 308 370
#     4  10  23  40  63  90 131 168 208 251 315 381
#     4  10  18  39  61  87 124 161 199 258 318 367
#     4  11  22  38  66  95 124 159 211 266 318 379
#     4  10  19  41  67  88 120 168 214 257 300 377
#     4  11  23  38  61  96 131 161 204 261 327 366
#
# _framework density 19.569599
#
# number of rings (size 3 to 8) (size 9 to 14) (size 15 to 20)
#    0.000    1.714    4.286    2.571    8.000    0.000 
#    0.000    6.429    0.000    0.000    0.000    0.000 
#    0.000    0.000    0.000    0.000    0.000    0.000 
#
# Total GULP energy -346978.266279 kJ/mol
# GULP energy per Si atom -12392.080939 kJ/mol
# Density = 1.952506 g / cm^3
# Si number density = 19.569599 Si / 1000 Ang^3
#
#
#
# Elastic Constant Matrix: (Units=GPa)
#
#
# Indices 1 2 3 4 5 6 
#
# 1 90.3316 44.2349 46.8941 0.0000 0.0000 0.0000
# 2 44.2349 88.9950 48.9827 0.0000 0.0000 0.0000
# 3 46.8941 48.9827 108.2286 0.0000 0.0000 0.0000
# 4 0.0000 0.0000 0.0000 31.1797 0.0000 0.0000
# 5 0.0000 0.0000 0.0000 0.0000 29.6771 0.0000
# 6 0.0000 0.0000 0.0000 0.0000 0.0000 20.1627
#
#
#
# Elastic Compliance Matrix: (Units=1/GPa)
#
#
# Indices 1 2 3 4 5 6 
#
# 1 0.016106 -0.005546 -0.004468 0.000000 0.000000 0.000000
# 2 -0.005546 0.016874 -0.005234 0.000000 0.000000 0.000000
# 3 -0.004468 -0.005234 0.013545 0.000000 0.000000 0.000000
# 4 0.000000 0.000000 0.000000 0.032072 0.000000 0.000000
# 5 0.000000 0.000000 0.000000 0.000000 0.033696 0.000000
# 6 0.000000 0.000000 0.000000 0.000000 0.000000 0.049597
#
#
# Mechanical properties :
#
#
# Convention : Reuss Voigt Hill
#
# Bulk Modulus (GPa) = 62.39168 63.08649 62.73909
# Shear Modulus (GPa) = 25.28719 26.03345 25.66032
#
# Velocity S-wave (km/s) = 3.59857 3.65129 3.62502
# Velocity P-wave (km/s) = 7.01551 7.07692 7.04629
#
# Compressibility (1/GPa) = 0.01602778
#
# Stress axis : x y z
#
# Youngs Moduli (GPa) = 62.08908 59.26300 73.83019
#
# Poissons Ratio (x) = 0.32867 0.32991
# Poissons Ratio (y) = 0.34435 0.38642
# Poissons Ratio (z) = 0.27744 0.31018
#
# Static dielectric constant tensor:
#      x y z
#    x 3.650910 0.000000 0.000000 
#    y 0.000000 3.801260 0.000000 
#    z 0.000000 0.000000 3.638390 
# 
# 
# High freq. dielectric constant tensor:
#      x y z
#    x 1.742250 0.000000 0.000000 
#    y 0.000000 1.754740 0.000000 
#    z 0.000000 0.000000 1.762260 
# 
# From -- ./inp_files/25447.got.cif
#   From: 2010.03.12/outbox.cif.g09.slc.cpg/sg20_13_cif.got.tgz:25447.got - 2010.04.14 01:38:04.
