data_PCOD8158107
_publ_section_title
;
Structure prediction by ZEFSAII (Michael W. Deem and Ramdas Pophale) SiO2 
 PCOD8158107
Probable space group: C 2 2 21
;
_chemical_formula_sum "Si O2"
_cell_formula_units_Z 64
_cell_length_a 24.468972
_cell_length_b 8.758069
_cell_length_c 15.724637
_cell_angle_alpha 90.000000
_cell_angle_beta 90.000000
_cell_angle_gamma 90.000000
_cell_volume 3369.804571
_symmetry_space_group_name_H-M "C 2 2 21"
_symmetry_group_IT_number 20
_symmetry_cell_setting 'orthorhombic'
loop_
_space_group_symop_operation_xyz
x,y,z
-x,-y,1/2+z
x,-y,-z
-x,y,1/2-z
1/2+x,1/2+y,z
1/2-x,1/2-y,1/2+z
1/2+x,1/2-y,-z
1/2-x,1/2+y,1/2-z
loop_
_atom_site_type_symbol
_atom_site_label
_atom_site_fract_x
_atom_site_fract_y
_atom_site_fract_z
Si Si1 0.842945 0.483081 0.787220
Si Si2 0.174875 0.259747 0.865092
Si Si3 0.104156 0.664542 0.987127
Si Si4 0.756296 0.009286 0.398857
Si Si5 0.915759 0.052899 0.702980
Si Si6 0.951153 0.310514 0.814807
Si Si7 0.010995 0.131278 0.940754
Si Si8 0.847732 0.774774 0.682507
O O1 0.821027 0.378959 0.710797
O O2 0.805367 0.453195 0.869837
O O3 0.905656 0.444261 0.812846
O O4 0.833949 0.657222 0.757710
O O5 0.126775 0.138394 0.856732
O O6 0.230482 0.162396 0.866873
O O7 0.159134 0.338815 0.954461
O O8 0.122175 0.680146 0.890422
O O9 0.075099 0.500000 0.000000
O O10 0.061673 0.799184 0.007289
O O11 0.795577 0.136964 0.356509
O O12 0.762073 0.000000 0.500000
O O13 0.923744 0.150440 0.787909
O O14 0.971122 0.046991 0.647110
O O15 0.891848 0.888088 0.725579
O O16 0.000000 0.359087 0.750000
O O17 0.972014 0.272917 0.910941
O O18 0.983073 0.000000 0.000000
#
# Coordination Sequence:
#
# PCOD8158107 Si02
#       8
#     8   8   8   8   8   8   8   8
#     4  11  22  38  58  83 121 156 196 236 301 359
#     4   9  18  33  55  80 109 145 182 233 287 347
#     4  11  19  31  56  91 118 137 184 256 303 325
#     4  11  22  37  57  83 117 158 192 238 295 359
#     4   8  17  32  54  80 107 138 183 234 282 334
#     4   9  20  39  57  78 114 155 188 241 296 345
#     4  10  18  33  59  84 109 147 195 236 294 348
#     4  11  20  34  61  90 112 147 197 246 290 350
#
# _framework density 18.992197999999998
#
# number of rings (size 3 to 8) (size 9 to 14) (size 15 to 20)
#    0.000    2.000    3.750    1.500    0.000    0.000 
#    0.000    5.000    0.000    0.750    0.000    0.000 
#    0.000    0.000    0.000    0.000    0.000    0.000 
#
# Total GULP energy -396521.825633 kJ/mol
# GULP energy per Si atom -12391.307051 kJ/mol
# Density = 1.894897 g / cm^3
# Si number density = 18.992198 Si / 1000 Ang^3
#
#
#
# Elastic Constant Matrix: (Units=GPa)
#
#
# Indices 1 2 3 4 5 6 
#
# 1 88.0313 29.9504 22.9485 0.0000 0.0000 0.0000
# 2 29.9504 92.3233 16.9979 0.0000 0.0000 0.0000
# 3 22.9485 16.9979 45.6702 0.0000 0.0000 0.0000
# 4 0.0000 0.0000 0.0000 27.4221 0.0000 0.0000
# 5 0.0000 0.0000 0.0000 0.0000 22.4327 0.0000
# 6 0.0000 0.0000 0.0000 0.0000 0.0000 23.3092
#
#
#
# Elastic Compliance Matrix: (Units=1/GPa)
#
#
# Indices 1 2 3 4 5 6 
#
# 1 0.014051 -0.003498 -0.005758 0.000000 0.000000 0.000000
# 2 -0.003498 0.012499 -0.002894 0.000000 0.000000 0.000000
# 3 -0.005758 -0.002894 0.025867 0.000000 0.000000 0.000000
# 4 0.000000 0.000000 0.000000 0.036467 0.000000 0.000000
# 5 0.000000 0.000000 0.000000 0.000000 0.044578 0.000000
# 6 0.000000 0.000000 0.000000 0.000000 0.000000 0.042902
#
#
# Mechanical properties :
#
#
# Convention : Reuss Voigt Hill
#
# Bulk Modulus (GPa) = 35.56774 40.64649 38.10712
# Shear Modulus (GPa) = 23.80539 25.04132 24.42336
#
# Velocity S-wave (km/s) = 3.54422 3.63506 3.58993
# Velocity P-wave (km/s) = 5.95961 6.25031 6.10669
#
# Compressibility (1/GPa) = 0.02811536
#
# Stress axis : x y z
#
# Youngs Moduli (GPa) = 71.17012 80.00532 38.65951
#
# Poissons Ratio (x) = 0.27986 0.22262
# Poissons Ratio (y) = 0.24895 0.11189
# Poissons Ratio (z) = 0.40983 0.23156
#
# Static dielectric constant tensor:
#      x y z
#    x 3.448070 0.000000 0.000000 
#    y 0.000000 3.502440 0.000000 
#    z 0.000000 0.000000 3.275030 
# 
# 
# High freq. dielectric constant tensor:
#      x y z
#    x 1.714050 0.000000 0.000000 
#    y 0.000000 1.737250 0.000000 
#    z 0.000000 0.000000 1.722960 
# 
# From -- ./inp_files/22046.got.cif
#   From: 2010.03.12/outbox.cif.g09.slc.cpg/sg20_12_cif.got.tgz:22046.got - 2010.04.14 01:38:04.
