data_PCOD8158578
_publ_section_title
;
Structure prediction by ZEFSAII (Michael W. Deem and Ramdas Pophale) SiO2 
 PCOD8158578
Probable space group: C 2 2 21
;
_chemical_formula_sum "Si O2"
_cell_formula_units_Z 36
_cell_length_a 18.100878
_cell_length_b 16.306578
_cell_length_c 5.141188
_cell_angle_alpha 90.000000
_cell_angle_beta 90.000000
_cell_angle_gamma 90.000000
_cell_volume 1517.490422
_symmetry_space_group_name_H-M "C 2 2 21"
_symmetry_group_IT_number 20
_symmetry_cell_setting 'orthorhombic'
loop_
_space_group_symop_operation_xyz
x,y,z
-x,-y,1/2+z
x,-y,-z
-x,y,1/2-z
1/2+x,1/2+y,z
1/2-x,1/2-y,1/2+z
1/2+x,1/2-y,-z
1/2-x,1/2+y,1/2-z
loop_
_atom_site_type_symbol
_atom_site_label
_atom_site_fract_x
_atom_site_fract_y
_atom_site_fract_z
Si Si1 0.456759 0.356881 0.995989
Si Si2 0.703423 0.153867 0.431114
Si Si3 0.792565 0.848070 0.063165
Si Si4 0.423317 0.079927 0.370639
Si Si5 0.500000 0.199049 0.750000
O O1 0.500000 0.398324 0.750000
O O2 0.455534 0.257730 0.952021
O O3 0.500000 0.382408 0.250000
O O4 0.373668 0.388682 0.045611
O O5 0.742361 0.121606 0.694429
O O6 0.697920 0.251023 0.423455
O O7 0.623235 0.114286 0.374886
O O8 0.752631 0.121781 0.194032
O O9 0.500000 0.050020 0.250000
O O10 0.437536 0.148344 0.593731
O O11 0.385294 0.000000 0.500000
#
# Coordination Sequence:
#
# PCOD8158578 Si02
#       5
#     8   8   8   8   4
#     4  10  20  33  59  86 117 147 194 247 315 377
#     4  10  23  34  57  78 113 157 211 255 315 358
#     4  10  20  37  55  83 114 150 198 260 318 375
#     4  12  25  40  56  82 119 174 229 265 294 351
#     4  10  22  34  60  80 120 158 224 262 298 360
#
# _framework density 23.723381
#
# number of rings (size 3 to 8) (size 9 to 14) (size 15 to 20)
#    0.667    0.889    1.111    4.667   12.444    0.000 
#    0.000    0.000    0.000    0.000    0.000    0.000 
#    0.000    5.333    0.000    0.444    1.333    0.889 
#
# Total GULP energy -223113.524017 kJ/mol
# GULP energy per Si atom -12395.195779 kJ/mol
# Density = 2.366939 g / cm^3
# Si number density = 23.723381 Si / 1000 Ang^3
#
#
#
# Elastic Constant Matrix: (Units=GPa)
#
#
# Indices 1 2 3 4 5 6 
#
# 1 141.0535 -2.6736 38.7672 0.0000 0.0000 0.0000
# 2 -2.6736 29.1940 -10.3012 0.0000 0.0000 0.0000
# 3 38.7672 -10.3012 113.4587 0.0000 0.0000 0.0000
# 4 0.0000 0.0000 0.0000 13.5855 0.0000 0.0000
# 5 0.0000 0.0000 0.0000 0.0000 56.7695 0.0000
# 6 0.0000 0.0000 0.0000 0.0000 0.0000 -1.4211
#
#
#
# Elastic Compliance Matrix: (Units=1/GPa)
#
#
# Indices 1 2 3 4 5 6 
#
# 1 0.007826 -0.000234 -0.002695 0.000000 0.000000 0.000000
# 2 -0.000234 0.035394 0.003294 0.000000 0.000000 0.000000
# 3 -0.002695 0.003294 0.010034 0.000000 0.000000 0.000000
# 4 0.000000 0.000000 0.000000 0.073608 0.000000 0.000000
# 5 0.000000 0.000000 0.000000 0.000000 0.017615 0.000000
# 6 0.000000 0.000000 0.000000 0.000000 0.000000 -0.703664
#
#
# Mechanical properties :
#
#
# Convention : Reuss Voigt Hill
#
# Bulk Modulus (GPa) = 18.52468 37.25454 27.88961
# Shear Modulus (GPa) = -9.22642 30.98104 10.87731
#
# Velocity S-wave (km/s) = -1.97424 3.61768 2.14360
# Velocity P-wave (km/s) = 1.62134 5.76090 4.23183
#
# Compressibility (1/GPa) = 0.05398203
#
# Stress axis : x y z
#
# Youngs Moduli (GPa) = 127.78200 28.25308 99.66369
#
# Poissons Ratio (x) = 0.00662 0.26862
# Poissons Ratio (y) = 0.02994 -0.32825
# Poissons Ratio (z) = 0.34440 -0.09305
#
# Static dielectric constant tensor:
#      x y z
#    x 4.400550 0.000000 0.000000 
#    y 0.000000 3.562810 0.000000 
#    z 0.000000 0.000000 4.550620 
# 
# 
# High freq. dielectric constant tensor:
#      x y z
#    x 1.945880 0.000000 0.000000 
#    y 0.000000 1.884660 0.000000 
#    z 0.000000 0.000000 1.956680 
# 
# From -- ./inp_files/2466.got.cif
#   From: 2010.03.12/outbox.cif.g09.slc.cpg/sg20_2_cif.got.tgz:2466.got - 2010.04.14 01:38:04.
