data_PCOD8158692
_publ_section_title
;
Structure prediction by ZEFSAII (Michael W. Deem and Ramdas Pophale) SiO2 
 PCOD8158692
Probable space group: C 2 2 21
;
_chemical_formula_sum "Si O2"
_cell_formula_units_Z 48
_cell_length_a 33.281114
_cell_length_b 7.533849
_cell_length_c 8.723293
_cell_angle_alpha 90.000000
_cell_angle_beta 90.000000
_cell_angle_gamma 90.000000
_cell_volume 2187.233888
_symmetry_space_group_name_H-M "C 2 2 21"
_symmetry_group_IT_number 20
_symmetry_cell_setting 'orthorhombic'
loop_
_space_group_symop_operation_xyz
x,y,z
-x,-y,1/2+z
x,-y,-z
-x,y,1/2-z
1/2+x,1/2+y,z
1/2-x,1/2-y,1/2+z
1/2+x,1/2-y,-z
1/2-x,1/2+y,1/2-z
loop_
_atom_site_type_symbol
_atom_site_label
_atom_site_fract_x
_atom_site_fract_y
_atom_site_fract_z
Si Si1 0.456633 0.983279 0.678817
Si Si2 0.810760 0.349294 0.190328
Si Si3 0.103516 0.816889 0.188747
Si Si4 0.177105 0.164585 0.607666
Si Si5 0.893121 0.230700 0.333482
Si Si6 0.763612 0.966744 0.677884
O O1 0.500000 0.997708 0.750000
O O2 0.429968 0.152310 0.728896
O O3 0.462511 0.000000 0.500000
O O4 0.436313 0.796348 0.731346
O O5 0.854634 0.327149 0.260087
O O6 0.785131 0.531202 0.214899
O O7 0.780157 0.220456 0.275351
O O8 0.809949 0.320031 0.007505
O O9 0.139713 0.756191 0.296851
O O10 0.098103 0.028129 0.215704
O O11 0.114020 0.764759 0.014899
O O12 0.212898 0.112907 0.720522
O O13 0.163063 0.000000 0.500000
O O14 0.773678 0.000000 0.500000
#
# Coordination Sequence:
#
# PCOD8158692 Si02
#       6
#     8   8   8   8   8   8
#     4  10  24  43  64 100 128 156 203 247 304 379
#     4  11  23  38  58  89 119 158 215 256 305 358
#     4  10  20  41  68  87 125 166 203 250 308 366
#     4  10  20  36  60  88 119 158 218 260 293 372
#     4  10  21  41  68  89 122 169 204 248 309 371
#     4  11  22  38  56  81 123 163 203 256 309 353
#
# _framework density 21.945525
#
# number of rings (size 3 to 8) (size 9 to 14) (size 15 to 20)
#    0.000    1.667    3.333    2.000    0.000    4.667 
#    0.000    9.167    0.000    0.000    0.000    0.000 
#    0.000    0.000    0.000    0.000    0.000    0.000 
#
# Total GULP energy -297387.366507 kJ/mol
# GULP energy per Si atom -12391.140271 kJ/mol
# Density = 2.189558 g / cm^3
# Si number density = 21.945525 Si / 1000 Ang^3
#
#
#
# Elastic Constant Matrix: (Units=GPa)
#
#
# Indices 1 2 3 4 5 6 
#
# 1 166.4094 37.1715 55.4137 0.0000 0.0000 0.0000
# 2 37.1715 54.7757 16.7689 0.0000 0.0000 0.0000
# 3 55.4137 16.7689 83.3657 0.0000 0.0000 0.0000
# 4 0.0000 0.0000 0.0000 18.6841 0.0000 0.0000
# 5 0.0000 0.0000 0.0000 0.0000 54.0005 0.0000
# 6 0.0000 0.0000 0.0000 0.0000 0.0000 39.5218
#
#
#
# Elastic Compliance Matrix: (Units=1/GPa)
#
#
# Indices 1 2 3 4 5 6 
#
# 1 0.008591 -0.004350 -0.004836 0.000000 0.000000 0.000000
# 2 -0.004350 0.021656 -0.001465 0.000000 0.000000 0.000000
# 3 -0.004836 -0.001465 0.015504 0.000000 0.000000 0.000000
# 4 0.000000 0.000000 0.000000 0.053521 0.000000 0.000000
# 5 0.000000 0.000000 0.000000 0.000000 0.018518 0.000000
# 6 0.000000 0.000000 0.000000 0.000000 0.000000 0.025302
#
#
# Mechanical properties :
#
#
# Convention : Reuss Voigt Hill
#
# Bulk Modulus (GPa) = 40.89742 58.13989 49.51865
# Shear Modulus (GPa) = 28.97792 35.45438 32.21615
#
# Velocity S-wave (km/s) = 3.63774 4.02377 3.83561
# Velocity P-wave (km/s) = 6.02665 6.93815 6.49840
#
# Compressibility (1/GPa) = 0.02445142
#
# Stress axis : x y z
#
# Youngs Moduli (GPa) = 116.39909 46.17553 64.49825
#
# Poissons Ratio (x) = 0.20085 0.31189
# Poissons Ratio (y) = 0.50630 0.09449
# Poissons Ratio (z) = 0.56286 0.06764
#
# Static dielectric constant tensor:
#      x y z
#    x 4.476390 0.000000 0.000000 
#    y 0.000000 3.896820 0.000000 
#    z 0.000000 0.000000 4.123700 
# 
# 
# High freq. dielectric constant tensor:
#      x y z
#    x 1.855340 0.000000 0.000000 
#    y 0.000000 1.883070 0.000000 
#    z 0.000000 0.000000 1.867750 
# 
# From -- ./inp_files/11448.got.cif
#   From: 2010.03.12/outbox.cif.g09.slc.cpg/sg20_6_cif.got.tgz:11448.got - 2010.04.14 01:38:04.
