data_PCOD8158407
_publ_section_title
;
Structure prediction by ZEFSAII (Michael W. Deem and Ramdas Pophale) SiO2 
 PCOD8158407
Probable space group: C 2 2 21
;
_chemical_formula_sum "Si O2"
_cell_formula_units_Z 60
_cell_length_a 14.486276
_cell_length_b 17.237276
_cell_length_c 13.024387
_cell_angle_alpha 90.000000
_cell_angle_beta 90.000000
_cell_angle_gamma 90.000000
_cell_volume 3252.240719
_symmetry_space_group_name_H-M "C 2 2 21"
_symmetry_group_IT_number 20
_symmetry_cell_setting 'orthorhombic'
loop_
_space_group_symop_operation_xyz
x,y,z
-x,-y,1/2+z
x,-y,-z
-x,y,1/2-z
1/2+x,1/2+y,z
1/2-x,1/2-y,1/2+z
1/2+x,1/2-y,-z
1/2-x,1/2+y,1/2-z
loop_
_atom_site_type_symbol
_atom_site_label
_atom_site_fract_x
_atom_site_fract_y
_atom_site_fract_z
Si Si1 0.372457 0.131989 0.919558
Si Si2 0.163920 0.508528 0.278410
Si Si3 0.787481 0.072173 0.440943
Si Si4 0.629226 0.302277 0.660477
Si Si5 0.559754 0.843804 0.970528
Si Si6 0.078395 0.801832 0.888806
Si Si7 0.264200 0.062442 0.423879
Si Si8 0.000000 0.379800 0.750000
O O1 0.347780 0.220426 0.892224
O O2 0.363056 0.076757 0.819931
O O3 0.301934 0.107678 0.005967
O O4 0.474417 0.120025 0.966181
O O5 0.255116 0.544570 0.329748
O O6 0.192708 0.505087 0.160769
O O7 0.079211 0.566299 0.296491
O O8 0.873981 0.127102 0.442895
O O9 0.828421 0.000000 0.500000
O O10 0.634010 0.285937 0.782716
O O11 0.526125 0.326842 0.631681
O O12 0.696977 0.370345 0.620498
O O13 0.648520 0.898617 0.980292
O O14 0.535270 0.829058 0.848572
O O15 0.587210 0.765571 0.028133
O O16 0.214278 0.000000 0.500000
#
# Coordination Sequence:
#
# PCOD8158407 Si02
#       8
#     8   8   8   8   8   8   8   4
#     4  10  21  36  59  88 115 154 192 241 298 362
#     4  10  21  35  58  86 121 150 192 238 300 364
#     4  10  19  36  60  81 107 146 195 241 284 348
#     4  10  22  40  58  82 117 156 197 251 294 346
#     4  10  22  36  59  91 121 157 192 240 309 375
#     4  10  21  39  61  81 112 157 205 241 295 354
#     4  11  24  38  58  90 123 158 196 251 309 359
#     4  10  20  34  56  88 126 154 180 244 302 364
#
# _framework density 18.448820000000001
#
# number of rings (size 3 to 8) (size 9 to 14) (size 15 to 20)
#    0.000    1.867    2.667    0.800    5.600    1.600 
#    0.000    0.000    8.800    0.000    0.000    0.000 
#    0.000    0.000    0.000    0.000    0.000    0.000 
#
# Total GULP energy -371756.034620 kJ/mol
# GULP energy per Si atom -12391.867821 kJ/mol
# Density = 1.840683 g / cm^3
# Si number density = 18.448820 Si / 1000 Ang^3
#
#
#
# Elastic Constant Matrix: (Units=GPa)
#
#
# Indices 1 2 3 4 5 6 
#
# 1 59.4048 57.4521 36.8299 0.0000 0.0000 0.0000
# 2 57.4521 120.8225 67.9721 0.0000 0.0000 0.0000
# 3 36.8299 67.9721 94.7578 0.0000 0.0000 0.0000
# 4 0.0000 0.0000 0.0000 30.2909 0.0000 0.0000
# 5 0.0000 0.0000 0.0000 0.0000 39.2578 0.0000
# 6 0.0000 0.0000 0.0000 0.0000 0.0000 42.4991
#
#
#
# Elastic Compliance Matrix: (Units=1/GPa)
#
#
# Indices 1 2 3 4 5 6 
#
# 1 0.031520 -0.013573 -0.002514 0.000000 0.000000 0.000000
# 2 -0.013573 0.019722 -0.008871 0.000000 0.000000 0.000000
# 3 -0.002514 -0.008871 0.017894 0.000000 0.000000 0.000000
# 4 0.000000 0.000000 0.000000 0.033013 0.000000 0.000000
# 5 0.000000 0.000000 0.000000 0.000000 0.025473 0.000000
# 6 0.000000 0.000000 0.000000 0.000000 0.000000 0.023530
#
#
# Mechanical properties :
#
#
# Convention : Reuss Voigt Hill
#
# Bulk Modulus (GPa) = 52.03594 66.61035 59.32315
# Shear Modulus (GPa) = 24.09934 29.92495 27.01215
#
# Velocity S-wave (km/s) = 3.61817 4.03184 3.83059
# Velocity P-wave (km/s) = 6.76178 7.60646 7.19652
#
# Compressibility (1/GPa) = 0.01921749
#
# Stress axis : x y z
#
# Youngs Moduli (GPa) = 31.72620 50.70603 55.88470
#
# Poissons Ratio (x) = 0.68825 0.14052
# Poissons Ratio (y) = 0.43063 0.49576
# Poissons Ratio (z) = 0.07977 0.44982
#
# Static dielectric constant tensor:
#      x y z
#    x 3.383990 0.000000 0.000000 
#    y 0.000000 3.389090 0.000000 
#    z 0.000000 0.000000 3.489870 
# 
# 
# High freq. dielectric constant tensor:
#      x y z
#    x 1.711380 0.000000 0.000000 
#    y 0.000000 1.707240 0.000000 
#    z 0.000000 0.000000 1.729290 
# 
# From -- ./inp_files/15290.got.cif
#   From: 2010.03.12/outbox.cif.g09.slc.cpg/sg20_8_cif.got.tgz:15290.got - 2010.04.14 01:38:04.
