data_PCOD8158512
_publ_section_title
;
Structure prediction by ZEFSAII (Michael W. Deem and Ramdas Pophale) SiO2 
 PCOD8158512
Probable space group: C 2 2 21
;
_chemical_formula_sum "Si O2"
_cell_formula_units_Z 40
_cell_length_a 17.082642
_cell_length_b 7.709712
_cell_length_c 15.613042
_cell_angle_alpha 90.000000
_cell_angle_beta 90.000000
_cell_angle_gamma 90.000000
_cell_volume 2056.272761
_symmetry_space_group_name_H-M "C 2 2 21"
_symmetry_group_IT_number 20
_symmetry_cell_setting 'orthorhombic'
loop_
_space_group_symop_operation_xyz
x,y,z
-x,-y,1/2+z
x,-y,-z
-x,y,1/2-z
1/2+x,1/2+y,z
1/2-x,1/2-y,1/2+z
1/2+x,1/2-y,-z
1/2-x,1/2+y,1/2-z
loop_
_atom_site_type_symbol
_atom_site_label
_atom_site_fract_x
_atom_site_fract_y
_atom_site_fract_z
Si Si1 0.841820 0.839059 0.062779
Si Si2 0.091349 0.000000 0.000000
Si Si3 0.584824 0.000000 0.500000
Si Si4 0.971446 0.509999 0.658209
Si Si5 0.995655 0.879642 0.157165
Si Si6 0.333749 0.842044 0.435756
O O1 0.859427 0.663681 0.011750
O O2 0.754240 0.827371 0.101030
O O3 0.903465 0.854985 0.139611
O O4 0.850201 0.000000 0.000000
O O5 0.035824 0.992132 0.083312
O O6 0.144928 0.168189 0.012096
O O7 0.531675 0.951195 0.418485
O O8 0.958325 0.303159 0.662290
O O9 0.891448 0.616111 0.642649
O O10 0.000000 0.579857 0.750000
O O11 0.000000 0.972876 0.250000
O O12 0.342087 0.000000 0.500000
#
# Coordination Sequence:
#
# PCOD8158512 Si02
#       6
#     8   4   4   8   8   8
#     4  10  21  37  60  84 117 152 193 244 300 343
#     4  12  21  38  63  86 120 158 202 242 293 354
#     4  10  19  40  59  84 118 158 198 238 293 352
#     4  10  20  38  65  86 119 160 203 243 291 354
#     4  10  21  39  61  89 119 158 204 247 287 355
#     4  11  21  38  59  88 115 153 194 247 297 347
#
# _framework density 19.452673999999998
#
# number of rings (size 3 to 8) (size 9 to 14) (size 15 to 20)
#    0.000    1.600    4.000    1.800    0.000    0.800 
#    0.000    8.000    0.000    0.000    0.000    0.000 
#    0.000    0.000    0.000    0.000    0.000    0.000 
#
# Total GULP energy -247977.464172 kJ/mol
# GULP energy per Si atom -12398.873209 kJ/mol
# Density = 1.940840 g / cm^3
# Si number density = 19.452674 Si / 1000 Ang^3
#
#
#
# Elastic Constant Matrix: (Units=GPa)
#
#
# Indices 1 2 3 4 5 6 
#
# 1 141.1076 59.2133 61.6180 0.0000 0.0000 0.0000
# 2 59.2133 103.6926 37.1182 0.0000 0.0000 0.0000
# 3 61.6180 37.1182 141.1683 0.0000 0.0000 0.0000
# 4 0.0000 0.0000 0.0000 21.9777 0.0000 0.0000
# 5 0.0000 0.0000 0.0000 0.0000 13.4652 0.0000
# 6 0.0000 0.0000 0.0000 0.0000 0.0000 36.1654
#
#
#
# Elastic Compliance Matrix: (Units=1/GPa)
#
#
# Indices 1 2 3 4 5 6 
#
# 1 0.010580 -0.004845 -0.003344 0.000000 0.000000 0.000000
# 2 -0.004845 0.012864 -0.001268 0.000000 0.000000 0.000000
# 3 -0.003344 -0.001268 0.008877 0.000000 0.000000 0.000000
# 4 0.000000 0.000000 0.000000 0.045501 0.000000 0.000000
# 5 0.000000 0.000000 0.000000 0.000000 0.074266 0.000000
# 6 0.000000 0.000000 0.000000 0.000000 0.000000 0.027651
#
#
# Mechanical properties :
#
#
# Convention : Reuss Voigt Hill
#
# Bulk Modulus (GPa) = 74.58390 77.98530 76.28460
# Shear Modulus (GPa) = 24.61589 29.52292 27.06940
#
# Velocity S-wave (km/s) = 3.56114 3.89997 3.73440
# Velocity P-wave (km/s) = 7.43864 7.77537 7.60887
#
# Compressibility (1/GPa) = 0.01340772
#
# Stress axis : x y z
#
# Youngs Moduli (GPa) = 94.51724 77.73491 112.65290
#
# Poissons Ratio (x) = 0.37659 0.37674
# Poissons Ratio (y) = 0.45790 0.14283
# Poissons Ratio (z) = 0.31609 0.09856
#
# Static dielectric constant tensor:
#      x y z
#    x 3.715730 0.000000 0.000000 
#    y 0.000000 3.613230 0.000000 
#    z 0.000000 0.000000 3.515910 
# 
# 
# High freq. dielectric constant tensor:
#      x y z
#    x 1.755730 0.000000 0.000000 
#    y 0.000000 1.767080 0.000000 
#    z 0.000000 0.000000 1.743790 
# 
# From -- ./inp_files/18737.got.cif
#   From: 2010.03.12/outbox.cif.g09.slc.cpg/sg20_10_cif.got.tgz:18737.got - 2010.04.14 01:38:04.
