data_PCOD8158235
_publ_section_title
;
Structure prediction by ZEFSAII (Michael W. Deem and Ramdas Pophale) SiO2 
 PCOD8158235
Probable space group: C 2 2 21
;
_chemical_formula_sum "Si O2"
_cell_formula_units_Z 48
_cell_length_a 20.963009
_cell_length_b 29.817556
_cell_length_c 5.205676
_cell_angle_alpha 90.000000
_cell_angle_beta 90.000000
_cell_angle_gamma 90.000000
_cell_volume 3253.889486
_symmetry_space_group_name_H-M "C 2 2 21"
_symmetry_group_IT_number 20
_symmetry_cell_setting 'orthorhombic'
loop_
_space_group_symop_operation_xyz
x,y,z
-x,-y,1/2+z
x,-y,-z
-x,y,1/2-z
1/2+x,1/2+y,z
1/2-x,1/2-y,1/2+z
1/2+x,1/2-y,-z
1/2-x,1/2+y,1/2-z
loop_
_atom_site_type_symbol
_atom_site_label
_atom_site_fract_x
_atom_site_fract_y
_atom_site_fract_z
Si Si1 0.000000 0.152983 0.750000
Si Si2 0.345352 0.632056 0.358353
Si Si3 0.675145 0.776623 0.065097
Si Si4 0.398078 0.408368 0.113054
Si Si5 0.932188 0.211210 0.382967
Si Si6 0.959837 0.000000 0.000000
Si Si7 0.268270 0.192168 0.065235
O O1 0.037021 0.120262 0.550094
O O2 0.945381 0.186134 0.649011
O O3 0.374364 0.605821 0.602615
O O4 0.384059 0.675884 0.249839
O O5 0.273318 0.646779 0.425134
O O6 0.345612 0.599819 0.109384
O O7 0.602225 0.758932 0.076688
O O8 0.688723 0.808196 0.309413
O O9 0.722279 0.734726 0.058324
O O10 0.684572 0.805911 0.808996
O O11 0.415191 0.460454 0.106595
O O12 0.000000 0.219010 0.250000
O O13 0.000000 0.016273 0.250000
#
# Coordination Sequence:
#
# PCOD8158235 Si02
#       7
#     4   8   8   8   8   4   8
#     4  10  20  30  42  60  88 110 152 174 220 260
#     4  10  20  32  49  61  80 106 146 186 219 259
#     4   9  18  27  43  58  82 104 133 174 226 256
#     4  11  21  33  46  64  81 113 141 181 222 269
#     4  10  19  27  41  61  86 111 141 181 220 260
#     4  12  24  34  48  62  92 116 138 178 228 278
#     4   9  17  31  43  60  76 103 137 178 221 257
#
# _framework density 14.751575000000001
#
# number of rings (size 3 to 8) (size 9 to 14) (size 15 to 20)
#    0.000    2.000    2.500    2.000    4.667    4.000 
#    0.000    0.000    0.000    0.000    0.000    0.000 
#    0.000    0.000    0.000    0.000    0.000    0.000 
#
# Total GULP energy -297343.414716 kJ/mol
# GULP energy per Si atom -12389.308946 kJ/mol
# Density = 1.471800 g / cm^3
# Si number density = 14.751575 Si / 1000 Ang^3
#
#
#
# Elastic Constant Matrix: (Units=GPa)
#
#
# Indices 1 2 3 4 5 6 
#
# 1 59.4305 41.9502 22.6644 0.0000 0.0000 0.0000
# 2 41.9502 62.5273 30.9120 0.0000 0.0000 0.0000
# 3 22.6644 30.9120 94.1632 0.0000 0.0000 0.0000
# 4 0.0000 0.0000 0.0000 19.3135 0.0000 0.0000
# 5 0.0000 0.0000 0.0000 0.0000 17.0471 0.0000
# 6 0.0000 0.0000 0.0000 0.0000 0.0000 20.6756
#
#
#
# Elastic Compliance Matrix: (Units=1/GPa)
#
#
# Indices 1 2 3 4 5 6 
#
# 1 0.032012 -0.021091 -0.000781 0.000000 0.000000 0.000000
# 2 -0.021091 0.032987 -0.005753 0.000000 0.000000 0.000000
# 3 -0.000781 -0.005753 0.012696 0.000000 0.000000 0.000000
# 4 0.000000 0.000000 0.000000 0.051777 0.000000 0.000000
# 5 0.000000 0.000000 0.000000 0.000000 0.058661 0.000000
# 6 0.000000 0.000000 0.000000 0.000000 0.000000 0.048366
#
#
# Mechanical properties :
#
#
# Convention : Reuss Voigt Hill
#
# Bulk Modulus (GPa) = 44.55183 45.24158 44.89670
# Shear Modulus (GPa) = 16.70952 19.44686 18.07819
#
# Velocity S-wave (km/s) = 3.36925 3.63477 3.50453
# Velocity P-wave (km/s) = 6.73816 6.95348 6.84667
#
# Compressibility (1/GPa) = 0.02244577
#
# Stress axis : x y z
#
# Youngs Moduli (GPa) = 31.23864 30.31500 78.76255
#
# Poissons Ratio (x) = 0.63936 0.06153
# Poissons Ratio (y) = 0.65885 0.45309
# Poissons Ratio (z) = 0.02441 0.17439
#
# Static dielectric constant tensor:
#      x y z
#    x 2.794250 0.000000 0.000000 
#    y 0.000000 2.587760 0.000000 
#    z 0.000000 0.000000 2.982760 
# 
# 
# High freq. dielectric constant tensor:
#      x y z
#    x 1.531300 0.000000 0.000000 
#    y 0.000000 1.518560 0.000000 
#    z 0.000000 0.000000 1.580570 
# 
# From -- ./inp_files/3358.got.cif
#   From: 2010.03.12/outbox.cif.g09.slc.cpg/sg20_2_cif.got.tgz:3358.got - 2010.04.14 01:38:04.
