data_PCOD8158505
_publ_section_title
;
Structure prediction by ZEFSAII (Michael W. Deem and Ramdas Pophale) SiO2 
 PCOD8158505
Probable space group: C 2 2 21
;
_chemical_formula_sum "Si O2"
_cell_formula_units_Z 48
_cell_length_a 21.263259
_cell_length_b 8.952312
_cell_length_c 12.697774
_cell_angle_alpha 90.000000
_cell_angle_beta 90.000000
_cell_angle_gamma 90.000000
_cell_volume 2417.088944
_symmetry_space_group_name_H-M "C 2 2 21"
_symmetry_group_IT_number 20
_symmetry_cell_setting 'orthorhombic'
loop_
_space_group_symop_operation_xyz
x,y,z
-x,-y,1/2+z
x,-y,-z
-x,y,1/2-z
1/2+x,1/2+y,z
1/2-x,1/2-y,1/2+z
1/2+x,1/2-y,-z
1/2-x,1/2+y,1/2-z
loop_
_atom_site_type_symbol
_atom_site_label
_atom_site_fract_x
_atom_site_fract_y
_atom_site_fract_z
Si Si1 0.812430 0.206352 0.806948
Si Si2 0.416060 0.595852 0.392880
Si Si3 0.938194 0.794226 0.305745
Si Si4 0.371597 0.326492 0.981837
Si Si5 0.187917 0.863906 0.738454
Si Si6 0.995244 0.322689 0.495057
O O1 0.876186 0.265629 0.752034
O O2 0.755844 0.296246 0.757230
O O3 0.799926 0.036043 0.780748
O O4 0.818959 0.225544 0.933453
O O5 0.404416 0.500000 0.500000
O O6 0.440064 0.475133 0.306826
O O7 0.351956 0.664564 0.344867
O O8 0.466256 0.733266 0.394889
O O9 0.942463 0.727473 0.421635
O O10 0.000000 0.730774 0.250000
O O11 0.346170 0.292317 0.864661
O O12 0.434168 0.234439 0.010011
O O13 0.388720 0.500000 0.000000
O O14 0.995436 0.500000 0.500000
#
# Coordination Sequence:
#
# PCOD8158505 Si02
#       6
#     8   8   8   8   8   8
#     4  10  22  39  63  87 121 159 204 254 306 363
#     4   9  21  38  63  88 119 162 206 244 299 373
#     4  10  19  39  65  85 115 164 206 246 297 372
#     4  10  21  40  62  85 118 163 212 246 299 380
#     4  10  23  39  60  92 119 162 204 248 308 367
#     4  11  23  37  58  95 126 156 198 266 320 351
#
# _framework density 19.858599000000002
#
# number of rings (size 3 to 8) (size 9 to 14) (size 15 to 20)
#    0.000    2.000    1.667    1.500    4.667    6.667 
#    3.000    1.667    0.000    0.000    0.000    0.000 
#    0.000    0.000    0.000    0.000    0.000    0.000 
#
# Total GULP energy -297390.163363 kJ/mol
# GULP energy per Si atom -12391.256807 kJ/mol
# Density = 1.981340 g / cm^3
# Si number density = 19.858599 Si / 1000 Ang^3
#
#
#
# Elastic Constant Matrix: (Units=GPa)
#
#
# Indices 1 2 3 4 5 6 
#
# 1 127.9512 56.2465 52.0845 0.0000 0.0000 0.0000
# 2 56.2465 84.4020 28.3963 0.0000 0.0000 0.0000
# 3 52.0845 28.3963 83.5884 0.0000 0.0000 0.0000
# 4 0.0000 0.0000 0.0000 15.8398 0.0000 0.0000
# 5 0.0000 0.0000 0.0000 0.0000 33.3052 0.0000
# 6 0.0000 0.0000 0.0000 0.0000 0.0000 34.7106
#
#
#
# Elastic Compliance Matrix: (Units=1/GPa)
#
#
# Indices 1 2 3 4 5 6 
#
# 1 0.013225 -0.006820 -0.005924 0.000000 0.000000 0.000000
# 2 -0.006820 0.016894 -0.001489 0.000000 0.000000 0.000000
# 3 -0.005924 -0.001489 0.016160 0.000000 0.000000 0.000000
# 4 0.000000 0.000000 0.000000 0.063132 0.000000 0.000000
# 5 0.000000 0.000000 0.000000 0.000000 0.030025 0.000000
# 6 0.000000 0.000000 0.000000 0.000000 0.000000 0.028810
#
#
# Mechanical properties :
#
#
# Convention : Reuss Voigt Hill
#
# Bulk Modulus (GPa) = 56.13907 63.26626 59.70267
# Shear Modulus (GPa) = 24.67293 27.38540 26.02916
#
# Velocity S-wave (km/s) = 3.52864 3.71754 3.62432
# Velocity P-wave (km/s) = 6.70317 7.09608 6.90242
#
# Compressibility (1/GPa) = 0.01781291
#
# Stress axis : x y z
#
# Youngs Moduli (GPa) = 75.61480 59.19152 61.87963
#
# Poissons Ratio (x) = 0.40370 0.36655
# Poissons Ratio (y) = 0.51572 0.09217
# Poissons Ratio (z) = 0.44791 0.08816
#
# Static dielectric constant tensor:
#      x y z
#    x 3.570510 0.000000 0.000000 
#    y 0.000000 3.511920 0.000000 
#    z 0.000000 0.000000 3.862910 
# 
# 
# High freq. dielectric constant tensor:
#      x y z
#    x 1.773230 0.000000 0.000000 
#    y 0.000000 1.754310 0.000000 
#    z 0.000000 0.000000 1.781820 
# 
# From -- ./inp_files/16633.got.cif
#   From: 2010.03.12/outbox.cif.g09.slc.cpg/sg20_9_cif.got.tgz:16633.got - 2010.04.14 01:38:04.
