data_PCOD8158942
_publ_section_title
;
Structure prediction by ZEFSAII (Michael W. Deem and Ramdas Pophale) SiO2 
 PCOD8158942
Probable space group: C 2 2 21
;
_chemical_formula_sum "Si O2"
_cell_formula_units_Z 28
_cell_length_a 7.608985
_cell_length_b 15.886634
_cell_length_c 10.536072
_cell_angle_alpha 90.000000
_cell_angle_beta 90.000000
_cell_angle_gamma 90.000000
_cell_volume 1273.612603
_symmetry_space_group_name_H-M "C 2 2 21"
_symmetry_group_IT_number 20
_symmetry_cell_setting 'orthorhombic'
loop_
_space_group_symop_operation_xyz
x,y,z
-x,-y,1/2+z
x,-y,-z
-x,y,1/2-z
1/2+x,1/2+y,z
1/2-x,1/2-y,1/2+z
1/2+x,1/2-y,-z
1/2-x,1/2+y,1/2-z
loop_
_atom_site_type_symbol
_atom_site_label
_atom_site_fract_x
_atom_site_fract_y
_atom_site_fract_z
Si Si1 0.630418 0.363947 0.481746
Si Si2 0.368202 0.500000 0.500000
Si Si3 0.203847 0.604696 0.720387
Si Si4 0.606049 0.232987 0.131162
O O1 0.493813 0.425294 0.552115
O O2 0.681840 0.408232 0.348239
O O3 0.536492 0.273977 0.462729
O O4 0.802878 0.347268 0.565671
O O5 0.250544 0.533293 0.616830
O O6 0.249604 0.697497 0.669519
O O7 0.000000 0.598665 0.750000
O O8 0.500000 0.195629 0.250000
#
# Coordination Sequence:
#
# PCOD8158942 Si02
#       4
#     8   4   8   8
#     4  10  20  40  63  91 128 164 205 256 306 369
#     4  10  22  40  62  88 128 168 200 250 316 366
#     4  10  21  40  64  92 125 162 206 260 309 366
#     4   9  19  37  66  95 122 161 207 255 311 367
#
# _framework density 21.984705000000002
#
# number of rings (size 3 to 8) (size 9 to 14) (size 15 to 20)
#    0.000    2.286    0.000    4.286    0.000    1.143 
#    0.000   32.857    0.000   20.571    0.000    0.000 
#    0.000    0.000    0.000    0.000    0.000    0.000 
#
# Total GULP energy -173573.538670 kJ/mol
# GULP energy per Si atom -12398.109905 kJ/mol
# Density = 2.193467 g / cm^3
# Si number density = 21.984705 Si / 1000 Ang^3
#
#
#
# Elastic Constant Matrix: (Units=GPa)
#
#
# Indices 1 2 3 4 5 6 
#
# 1 140.5823 41.9904 71.9338 0.0000 0.0000 0.0000
# 2 41.9904 51.7921 64.9196 0.0000 0.0000 0.0000
# 3 71.9338 64.9196 130.4528 0.0000 0.0000 0.0000
# 4 0.0000 0.0000 0.0000 21.5229 0.0000 0.0000
# 5 0.0000 0.0000 0.0000 0.0000 48.2008 0.0000
# 6 0.0000 0.0000 0.0000 0.0000 0.0000 32.5718
#
#
#
# Elastic Compliance Matrix: (Units=1/GPa)
#
#
# Indices 1 2 3 4 5 6 
#
# 1 0.010106 -0.003212 -0.003974 0.000000 0.000000 0.000000
# 2 -0.003212 0.052342 -0.024277 0.000000 0.000000 0.000000
# 3 -0.003974 -0.024277 0.021939 0.000000 0.000000 0.000000
# 4 0.000000 0.000000 0.000000 0.046462 0.000000 0.000000
# 5 0.000000 0.000000 0.000000 0.000000 0.020747 0.000000
# 6 0.000000 0.000000 0.000000 0.000000 0.000000 0.030701
#
#
# Mechanical properties :
#
#
# Convention : Reuss Voigt Hill
#
# Bulk Modulus (GPa) = 46.59688 75.61276 61.10482
# Shear Modulus (GPa) = 19.81159 30.05798 24.93478
#
# Velocity S-wave (km/s) = 3.00518 3.70161 3.37142
# Velocity P-wave (km/s) = 5.76911 7.26204 6.55819
#
# Compressibility (1/GPa) = 0.02146067
#
# Stress axis : x y z
#
# Youngs Moduli (GPa) = 98.94867 19.10494 45.58185
#
# Poissons Ratio (x) = 0.06136 0.18116
# Poissons Ratio (y) = 0.31782 1.10659
# Poissons Ratio (z) = 0.39326 0.46381
#
# Static dielectric constant tensor:
#      x y z
#    x 4.052940 0.000000 0.000000 
#    y 0.000000 3.634560 0.000000 
#    z 0.000000 0.000000 3.937010 
# 
# 
# High freq. dielectric constant tensor:
#      x y z
#    x 1.879840 0.000000 0.000000 
#    y 0.000000 1.839190 0.000000 
#    z 0.000000 0.000000 1.858380 
# 
# From -- ./inp_files/5672.got.cif
#   From: 2010.03.12/outbox.cif.g09.slc.cpg/sg20_3_cif.got.tgz:5672.got - 2010.04.14 01:38:04.
