data_PCOD8158961
_publ_section_title
;
Structure prediction by ZEFSAII (Michael W. Deem and Ramdas Pophale) SiO2 
 PCOD8158961
Probable space group: C 2 2 21
;
_chemical_formula_sum "Si O2"
_cell_formula_units_Z 40
_cell_length_a 28.156307
_cell_length_b 7.393806
_cell_length_c 9.422998
_cell_angle_alpha 90.000000
_cell_angle_beta 90.000000
_cell_angle_gamma 90.000000
_cell_volume 1961.701129
_symmetry_space_group_name_H-M "C 2 2 21"
_symmetry_group_IT_number 20
_symmetry_cell_setting 'orthorhombic'
loop_
_space_group_symop_operation_xyz
x,y,z
-x,-y,1/2+z
x,-y,-z
-x,y,1/2-z
1/2+x,1/2+y,z
1/2-x,1/2-y,1/2+z
1/2+x,1/2-y,-z
1/2-x,1/2+y,1/2-z
loop_
_atom_site_type_symbol
_atom_site_label
_atom_site_fract_x
_atom_site_fract_y
_atom_site_fract_z
Si Si1 0.953447 0.002657 0.164038
Si Si2 0.698506 0.371093 0.871525
Si Si3 0.718809 0.385261 0.369002
Si Si4 0.884805 0.693200 0.810300
Si Si5 0.875616 0.291808 0.856622
O O1 0.912704 0.856796 0.197552
O O2 0.000000 0.950433 0.250000
O O3 0.934384 0.200348 0.211873
O O4 0.967566 0.000000 0.000000
O O5 0.731086 0.482348 0.760955
O O6 0.734431 0.216732 0.925830
O O7 0.653622 0.280599 0.794723
O O8 0.681337 0.500000 0.000000
O O9 0.697980 0.500000 0.500000
O O10 0.677290 0.257007 0.305876
O O11 0.891306 0.479574 0.782126
O O12 0.870498 0.708565 0.973969
#
# Coordination Sequence:
#
# PCOD8158961 Si02
#       5
#     8   8   8   8   8
#     4  10  21  41  67  93 124 162 208 267 328 388
#     4  12  25  37  60  95 135 171 220 276 321 369
#     4  12  22  41  61  88 130 179 221 259 321 388
#     4  10  21  40  64  92 123 168 217 264 314 387
#     4  10  20  40  68  88 120 171 223 255 313 397
#
# _framework density 20.390467000000001
#
# number of rings (size 3 to 8) (size 9 to 14) (size 15 to 20)
#    0.000    1.200    4.000    3.000    2.800    1.600 
#    0.000    0.000    0.000    0.000    0.000    0.000 
#    0.000    0.000    0.000    0.000    0.000    0.000 
#
# Total GULP energy -247961.895616 kJ/mol
# GULP energy per Si atom -12398.094781 kJ/mol
# Density = 2.034406 g / cm^3
# Si number density = 20.390467 Si / 1000 Ang^3
#
#
#
# Elastic Constant Matrix: (Units=GPa)
#
#
# Indices 1 2 3 4 5 6 
#
# 1 113.9529 40.5768 37.1251 0.0000 0.0000 0.0000
# 2 40.5768 124.0838 45.0490 0.0000 0.0000 0.0000
# 3 37.1251 45.0490 73.5180 0.0000 0.0000 0.0000
# 4 0.0000 0.0000 0.0000 32.4650 0.0000 0.0000
# 5 0.0000 0.0000 0.0000 0.0000 31.3737 0.0000
# 6 0.0000 0.0000 0.0000 0.0000 0.0000 22.0776
#
#
#
# Elastic Compliance Matrix: (Units=1/GPa)
#
#
# Indices 1 2 3 4 5 6 
#
# 1 0.010880 -0.002010 -0.004262 0.000000 0.000000 0.000000
# 2 -0.002010 0.010736 -0.005564 0.000000 0.000000 0.000000
# 3 -0.004262 -0.005564 0.019164 0.000000 0.000000 0.000000
# 4 0.000000 0.000000 0.000000 0.030802 0.000000 0.000000
# 5 0.000000 0.000000 0.000000 0.000000 0.031874 0.000000
# 6 0.000000 0.000000 0.000000 0.000000 0.000000 0.045295
#
#
# Mechanical properties :
#
#
# Convention : Reuss Voigt Hill
#
# Bulk Modulus (GPa) = 58.45423 61.89517 60.17470
# Shear Modulus (GPa) = 28.06998 29.77018 28.92008
#
# Velocity S-wave (km/s) = 3.71431 3.82515 3.77014
# Velocity P-wave (km/s) = 6.86473 7.06611 6.96614
#
# Compressibility (1/GPa) = 0.01710740
#
# Stress axis : x y z
#
# Youngs Moduli (GPa) = 91.91112 93.14114 52.18218
#
# Poissons Ratio (x) = 0.18726 0.22242
# Poissons Ratio (y) = 0.18479 0.29032
# Poissons Ratio (z) = 0.39175 0.51820
#
# Static dielectric constant tensor:
#      x y z
#    x 3.363470 0.000000 0.000000 
#    y 0.000000 4.112660 0.000000 
#    z 0.000000 0.000000 3.480110 
# 
# 
# High freq. dielectric constant tensor:
#      x y z
#    x 1.780230 0.000000 0.000000 
#    y 0.000000 1.814260 0.000000 
#    z 0.000000 0.000000 1.779710 
# 
# From -- ./inp_files/10980.got.cif
#   From: 2010.03.12/outbox.cif.g09.slc.cpg/sg20_6_cif.got.tgz:10980.got - 2010.04.14 01:38:04.
