data_PCOD8158695
_publ_section_title
;
Structure prediction by ZEFSAII (Michael W. Deem and Ramdas Pophale) SiO2 
 PCOD8158695
Probable space group: C 2 2 21
;
_chemical_formula_sum "Si O2"
_cell_formula_units_Z 56
_cell_length_a 14.575690
_cell_length_b 11.986067
_cell_length_c 16.655759
_cell_angle_alpha 90.000000
_cell_angle_beta 90.000000
_cell_angle_gamma 90.000000
_cell_volume 2909.847656
_symmetry_space_group_name_H-M "C 2 2 21"
_symmetry_group_IT_number 20
_symmetry_cell_setting 'orthorhombic'
loop_
_space_group_symop_operation_xyz
x,y,z
-x,-y,1/2+z
x,-y,-z
-x,y,1/2-z
1/2+x,1/2+y,z
1/2-x,1/2-y,1/2+z
1/2+x,1/2-y,-z
1/2-x,1/2+y,1/2-z
loop_
_atom_site_type_symbol
_atom_site_label
_atom_site_fract_x
_atom_site_fract_y
_atom_site_fract_z
Si Si1 0.233266 0.693386 0.635100
Si Si2 0.833939 0.643319 0.587581
Si Si3 0.604848 0.281342 0.762699
Si Si4 0.249863 0.043070 0.187289
Si Si5 0.509087 0.884209 0.962110
Si Si6 0.152170 0.587894 0.156118
Si Si7 0.813830 0.685005 0.042902
O O1 0.139896 0.730166 0.679043
O O2 0.275659 0.587565 0.682572
O O3 0.302435 0.795495 0.632883
O O4 0.213420 0.650956 0.546295
O O5 0.881749 0.691485 0.667177
O O6 0.905999 0.662244 0.515164
O O7 0.807719 0.513822 0.601736
O O8 0.736886 0.701890 0.569509
O O9 0.500000 0.313871 0.750000
O O10 0.658865 0.394538 0.783327
O O11 0.333413 0.063054 0.250051
O O12 0.284541 0.085399 0.101509
O O13 0.545476 0.902838 0.870555
O O14 0.424312 0.798188 0.956025
O O15 0.472352 0.000000 0.000000
#
# Coordination Sequence:
#
# PCOD8158695 Si02
#       7
#     8   8   8   8   8   8   8
#     4  11  20  38  62  82 124 157 196 241 303 357
#     4  10  20  40  61  87 126 152 201 255 294 352
#     4  10  21  37  62  88 113 158 205 243 291 358
#     4  10  22  38  59  86 122 157 195 245 302 353
#     4  10  20  36  60  90 120 155 201 247 291 356
#     4  10  21  39  60  87 118 161 195 242 303 349
#     4  11  22  36  62  92 117 157 198 250 304 351
#
# _framework density 19.244993000000001
#
# number of rings (size 3 to 8) (size 9 to 14) (size 15 to 20)
#    0.000    1.714    2.857    2.143    0.000    1.714 
#    0.000    2.857    0.000    1.714    0.000    0.000 
#    0.000    0.000    0.000    0.000    0.000    0.000 
#
# Total GULP energy -347106.658408 kJ/mol
# GULP energy per Si atom -12396.666372 kJ/mol
# Density = 1.920119 g / cm^3
# Si number density = 19.244993 Si / 1000 Ang^3
#
#
#
# Elastic Constant Matrix: (Units=GPa)
#
#
# Indices 1 2 3 4 5 6 
#
# 1 111.1352 67.8539 54.1849 0.0000 0.0000 0.0000
# 2 67.8539 125.4640 41.0982 0.0000 0.0000 0.0000
# 3 54.1849 41.0982 117.2906 0.0000 0.0000 0.0000
# 4 0.0000 0.0000 0.0000 25.2687 0.0000 0.0000
# 5 0.0000 0.0000 0.0000 0.0000 22.7290 0.0000
# 6 0.0000 0.0000 0.0000 0.0000 0.0000 21.1266
#
#
#
# Elastic Compliance Matrix: (Units=1/GPa)
#
#
# Indices 1 2 3 4 5 6 
#
# 1 0.015479 -0.006811 -0.004765 0.000000 0.000000 0.000000
# 2 -0.006811 0.012001 -0.001059 0.000000 0.000000 0.000000
# 3 -0.004765 -0.001059 0.011098 0.000000 0.000000 0.000000
# 4 0.000000 0.000000 0.000000 0.039575 0.000000 0.000000
# 5 0.000000 0.000000 0.000000 0.000000 0.043997 0.000000
# 6 0.000000 0.000000 0.000000 0.000000 0.000000 0.047334
#
#
# Mechanical properties :
#
#
# Convention : Reuss Voigt Hill
#
# Bulk Modulus (GPa) = 75.13188 75.57376 75.35282
# Shear Modulus (GPa) = 25.10193 26.54170 25.82181
#
# Velocity S-wave (km/s) = 3.61548 3.71772 3.66695
# Velocity P-wave (km/s) = 7.52020 7.60152 7.56097
#
# Compressibility (1/GPa) = 0.01330993
#
# Stress axis : x y z
#
# Youngs Moduli (GPa) = 64.60161 83.32856 90.10780
#
# Poissons Ratio (x) = 0.56755 0.42932
# Poissons Ratio (y) = 0.44000 0.09538
# Poissons Ratio (z) = 0.30780 0.08821
#
# Static dielectric constant tensor:
#      x y z
#    x 3.323340 0.000000 0.000000 
#    y 0.000000 3.483840 0.000000 
#    z 0.000000 0.000000 3.803190 
# 
# 
# High freq. dielectric constant tensor:
#      x y z
#    x 1.727960 0.000000 0.000000 
#    y 0.000000 1.745090 0.000000 
#    z 0.000000 0.000000 1.768310 
# 
# From -- ./inp_files/20712.got.cif
#   From: 2010.03.12/outbox.cif.g09.slc.cpg/sg20_11_cif.got.tgz:20712.got - 2010.04.14 01:38:04.
