data_PCOD8158462
_publ_section_title
;
Structure prediction by ZEFSAII (Michael W. Deem and Ramdas Pophale) SiO2 
 PCOD8158462
Probable space group: C 2 2 21
;
_chemical_formula_sum "Si O2"
_cell_formula_units_Z 48
_cell_length_a 18.331579
_cell_length_b 12.232236
_cell_length_c 9.642161
_cell_angle_alpha 90.000000
_cell_angle_beta 90.000000
_cell_angle_gamma 90.000000
_cell_volume 2162.121548
_symmetry_space_group_name_H-M "C 2 2 21"
_symmetry_group_IT_number 20
_symmetry_cell_setting 'orthorhombic'
loop_
_space_group_symop_operation_xyz
x,y,z
-x,-y,1/2+z
x,-y,-z
-x,y,1/2-z
1/2+x,1/2+y,z
1/2-x,1/2-y,1/2+z
1/2+x,1/2-y,-z
1/2-x,1/2+y,1/2-z
loop_
_atom_site_type_symbol
_atom_site_label
_atom_site_fract_x
_atom_site_fract_y
_atom_site_fract_z
Si Si1 0.800316 0.183849 0.052329
Si Si2 0.797870 0.955548 0.207346
Si Si3 0.946538 0.463878 0.644706
Si Si4 0.060542 0.926480 0.129181
Si Si5 0.142146 0.723899 0.033094
Si Si6 0.148059 0.357419 0.263790
O O1 0.724172 0.248938 0.084199
O O2 0.860139 0.272328 0.106351
O O3 0.796845 0.070151 0.131235
O O4 0.815649 0.149248 0.893215
O O5 0.861598 0.969867 0.319299
O O6 0.719788 0.933691 0.277757
O O7 0.985694 0.500000 0.500000
O O8 0.877207 0.394142 0.596694
O O9 0.921564 0.564749 0.743847
O O10 0.000000 0.398483 0.750000
O O11 0.076996 0.804413 0.076397
O O12 0.000000 0.927858 0.250000
O O13 0.032580 0.000000 0.000000
O O14 0.150347 0.721348 0.868581
#
# Coordination Sequence:
#
# PCOD8158462 Si02
#       6
#     8   8   8   8   8   8
#     4  10  19  37  67  96 125 171 221 274 346 392
#     4  10  21  39  65  94 133 168 225 284 333 405
#     4  10  21  41  61  92 131 168 214 268 336 400
#     4  12  27  46  65  94 138 183 232 280 338 409
#     4  10  20  40  65  92 130 171 213 281 338 400
#     4  10  19  38  65  96 129 171 219 276 337 404
#
# _framework density 22.200417000000002
#
# number of rings (size 3 to 8) (size 9 to 14) (size 15 to 20)
#    0.000    1.667    3.333    1.500    2.333    0.000 
#    9.000    2.500    0.000    0.000    0.000    0.000 
#    0.000    0.000    0.000    0.000    0.000    0.000 
#
# Total GULP energy -297323.196253 kJ/mol
# GULP energy per Si atom -12388.466511 kJ/mol
# Density = 2.214989 g / cm^3
# Si number density = 22.200417 Si / 1000 Ang^3
#
#
#
# Elastic Constant Matrix: (Units=GPa)
#
#
# Indices 1 2 3 4 5 6 
#
# 1 66.5526 2.9215 32.9922 0.0000 0.0000 0.0000
# 2 2.9215 75.2601 20.9657 0.0000 0.0000 0.0000
# 3 32.9922 20.9657 74.5378 0.0000 0.0000 0.0000
# 4 0.0000 0.0000 0.0000 32.3740 0.0000 0.0000
# 5 0.0000 0.0000 0.0000 0.0000 36.1655 0.0000
# 6 0.0000 0.0000 0.0000 0.0000 0.0000 18.3623
#
#
#
# Elastic Compliance Matrix: (Units=1/GPa)
#
#
# Indices 1 2 3 4 5 6 
#
# 1 0.019468 0.001785 -0.009119 0.000000 0.000000 0.000000
# 2 0.001785 0.014580 -0.004891 0.000000 0.000000 0.000000
# 3 -0.009119 -0.004891 0.018828 0.000000 0.000000 0.000000
# 4 0.000000 0.000000 0.000000 0.030889 0.000000 0.000000
# 5 0.000000 0.000000 0.000000 0.000000 0.027651 0.000000
# 6 0.000000 0.000000 0.000000 0.000000 0.000000 0.054459
#
#
# Mechanical properties :
#
#
# Convention : Reuss Voigt Hill
#
# Bulk Modulus (GPa) = 35.17951 36.67883 35.92917
# Shear Modulus (GPa) = 25.02487 28.01177 26.51832
#
# Velocity S-wave (km/s) = 3.36106 3.55599 3.45990
# Velocity P-wave (km/s) = 5.56265 5.78080 5.67277
#
# Compressibility (1/GPa) = 0.02842564
#
# Stress axis : x y z
#
# Youngs Moduli (GPa) = 51.36663 68.58476 53.11245
#
# Poissons Ratio (x) = -0.12240 0.48433
# Poissons Ratio (y) = -0.09167 0.25978
# Poissons Ratio (z) = 0.46841 0.33545
#
# Static dielectric constant tensor:
#      x y z
#    x 3.767860 0.000000 0.000000 
#    y 0.000000 3.858820 0.000000 
#    z 0.000000 0.000000 4.113300 
# 
# 
# High freq. dielectric constant tensor:
#      x y z
#    x 1.857700 0.000000 0.000000 
#    y 0.000000 1.871320 0.000000 
#    z 0.000000 0.000000 1.871650 
# 
# From -- ./inp_files/15727.got.cif
#   From: 2010.03.12/outbox.cif.g09.slc.cpg/sg20_8_cif.got.tgz:15727.got - 2010.04.14 01:38:04.
