data_PCOD8158012
_publ_section_title
;
Structure prediction by ZEFSAII (Michael W. Deem and Ramdas Pophale) SiO2 
 PCOD8158012
Probable space group: C 2 2 21
;
_chemical_formula_sum "Si O2"
_cell_formula_units_Z 44
_cell_length_a 10.784281
_cell_length_b 18.759296
_cell_length_c 11.694321
_cell_angle_alpha 90.000000
_cell_angle_beta 90.000000
_cell_angle_gamma 90.000000
_cell_volume 2365.825684
_symmetry_space_group_name_H-M "C 2 2 21"
_symmetry_group_IT_number 20
_symmetry_cell_setting 'orthorhombic'
loop_
_space_group_symop_operation_xyz
x,y,z
-x,-y,1/2+z
x,-y,-z
-x,y,1/2-z
1/2+x,1/2+y,z
1/2-x,1/2-y,1/2+z
1/2+x,1/2-y,-z
1/2-x,1/2+y,1/2-z
loop_
_atom_site_type_symbol
_atom_site_label
_atom_site_fract_x
_atom_site_fract_y
_atom_site_fract_z
Si Si1 0.364475 0.363589 0.036351
Si Si2 0.000000 0.267785 0.750000
Si Si3 0.356366 0.619713 0.224851
Si Si4 0.858731 0.841024 0.398632
Si Si5 0.353491 0.462473 0.236834
Si Si6 0.208713 0.288920 0.605618
O O1 0.514221 0.356943 0.033349
O O2 0.322829 0.432760 0.109476
O O3 0.296717 0.296395 0.094739
O O4 0.320464 0.368687 0.906641
O O5 0.890700 0.219820 0.694170
O O6 0.929247 0.313818 0.848533
O O7 0.500000 0.617944 0.250000
O O8 0.299146 0.541790 0.256529
O O9 0.304035 0.684460 0.298823
O O10 0.802245 0.909876 0.334536
O O11 0.747049 0.820245 0.483324
O O12 0.500000 0.462478 0.250000
#
# Coordination Sequence:
#
# PCOD8158012 Si02
#       6
#     8   4   8   8   8   8
#     4  10  19  34  52  77 122 149 182 230 288 344
#     4  10  20  38  54  84 118 160 190 232 288 342
#     4  11  21  33  55  90 114 140 190 238 289 349
#     4  10  17  34  53  83 114 149 186 232 290 336
#     4   9  18  33  54  81 118 144 175 236 299 341
#     4  11  21  33  57  83 115 152 190 230 280 345
#
# _framework density 18.598158000000002
#
# number of rings (size 3 to 8) (size 9 to 14) (size 15 to 20)
#    0.000    1.818    6.364    1.636    0.000    0.727 
#    0.000    0.000    0.000    0.000   30.727    0.000 
#    0.000    0.000    0.000    0.000    0.000    0.000 
#
# Total GULP energy -272537.997993 kJ/mol
# GULP energy per Si atom -12388.090818 kJ/mol
# Density = 1.855583 g / cm^3
# Si number density = 18.598158 Si / 1000 Ang^3
#
#
#
# Elastic Constant Matrix: (Units=GPa)
#
#
# Indices 1 2 3 4 5 6 
#
# 1 50.9851 43.5087 40.4894 0.0000 0.0000 0.0000
# 2 43.5087 88.5815 52.0109 0.0000 0.0000 0.0000
# 3 40.4894 52.0109 136.0168 0.0000 0.0000 0.0000
# 4 0.0000 0.0000 0.0000 30.7679 0.0000 0.0000
# 5 0.0000 0.0000 0.0000 0.0000 45.2769 0.0000
# 6 0.0000 0.0000 0.0000 0.0000 0.0000 13.3153
#
#
#
# Elastic Compliance Matrix: (Units=1/GPa)
#
#
# Indices 1 2 3 4 5 6 
#
# 1 0.036366 -0.014837 -0.005152 0.000000 0.000000 0.000000
# 2 -0.014837 0.020611 -0.003465 0.000000 0.000000 0.000000
# 3 -0.005152 -0.003465 0.010211 0.000000 0.000000 0.000000
# 4 0.000000 0.000000 0.000000 0.032501 0.000000 0.000000
# 5 0.000000 0.000000 0.000000 0.000000 0.022086 0.000000
# 6 0.000000 0.000000 0.000000 0.000000 0.000000 0.075102
#
#
# Mechanical properties :
#
#
# Convention : Reuss Voigt Hill
#
# Bulk Modulus (GPa) = 49.30893 60.84461 55.07677
# Shear Modulus (GPa) = 19.95650 27.17697 23.56674
#
# Velocity S-wave (km/s) = 3.27928 3.82681 3.56357
# Velocity P-wave (km/s) = 6.39598 7.23273 6.82719
#
# Compressibility (1/GPa) = 0.02028030
#
# Stress axis : x y z
#
# Youngs Moduli (GPa) = 27.49787 48.51813 97.93834
#
# Poissons Ratio (x) = 0.71987 0.50458
# Poissons Ratio (y) = 0.40799 0.33932
# Poissons Ratio (z) = 0.14167 0.16810
#
# Static dielectric constant tensor:
#      x y z
#    x 3.105960 0.000000 0.000000 
#    y 0.000000 3.733970 0.000000 
#    z 0.000000 0.000000 3.659510 
# 
# 
# High freq. dielectric constant tensor:
#      x y z
#    x 1.665280 0.000000 0.000000 
#    y 0.000000 1.713560 0.000000 
#    z 0.000000 0.000000 1.745270 
# 
# From -- ./inp_files/14050.got.cif
#   From: 2010.03.12/outbox.cif.g09.slc.cpg/sg20_8_cif.got.tgz:14050.got - 2010.04.14 01:38:04.
