data_PCOD8158865
_publ_section_title
;
Structure prediction by ZEFSAII (Michael W. Deem and Ramdas Pophale) SiO2 
 PCOD8158865
Probable space group: C 2 2 21
;
_chemical_formula_sum "Si O2"
_cell_formula_units_Z 52
_cell_length_a 24.342969
_cell_length_b 8.740164
_cell_length_c 11.569024
_cell_angle_alpha 90.000000
_cell_angle_beta 90.000000
_cell_angle_gamma 90.000000
_cell_volume 2461.443378
_symmetry_space_group_name_H-M "C 2 2 21"
_symmetry_group_IT_number 20
_symmetry_cell_setting 'orthorhombic'
loop_
_space_group_symop_operation_xyz
x,y,z
-x,-y,1/2+z
x,-y,-z
-x,y,1/2-z
1/2+x,1/2+y,z
1/2-x,1/2-y,1/2+z
1/2+x,1/2-y,-z
1/2-x,1/2+y,1/2-z
loop_
_atom_site_type_symbol
_atom_site_label
_atom_site_fract_x
_atom_site_fract_y
_atom_site_fract_z
Si Si1 0.778368 0.409809 0.236846
Si Si2 0.834440 0.150727 0.860618
Si Si3 0.352465 0.691298 0.115094
Si Si4 0.936340 0.326444 0.260383
Si Si5 0.124203 0.383552 0.814472
Si Si6 0.879248 0.167960 0.473614
Si Si7 0.726756 0.500000 0.000000
O O1 0.726392 0.368718 0.312694
O O2 0.807797 0.249265 0.208240
O O3 0.818564 0.520435 0.310911
O O4 0.763997 0.485924 0.113769
O O5 0.873260 0.251442 0.780595
O O6 0.863587 0.987111 0.866563
O O7 0.830704 0.227520 0.986575
O O8 0.409200 0.782875 0.136946
O O9 0.926749 0.504998 0.287390
O O10 0.905420 0.220764 0.353895
O O11 0.000000 0.289445 0.250000
O O12 0.109906 0.303805 0.935438
O O13 0.812758 0.147179 0.474884
O O14 0.905916 0.000000 0.500000
#
# Coordination Sequence:
#
# PCOD8158865 Si02
#       7
#     8   8   8   8   8   8   4
#     4  11  21  37  63 100 139 183 213 253 327 400
#     4  11  21  41  61  98 137 172 213 259 328 388
#     4  10  24  41  63  93 135 168 219 274 312 394
#     4  11  25  48  69  93 124 171 225 284 344 388
#     4  11  23  42  64  99 132 176 217 274 322 403
#     4  10  22  45  71  97 136 167 223 275 328 406
#     4  10  20  38  70  98 142 176 208 266 322 408
#
# _framework density 21.125814999999999
#
# number of rings (size 3 to 8) (size 9 to 14) (size 15 to 20)
#    0.462    0.923    1.538    4.154    0.000    5.538 
#   16.615    1.538    0.000    0.000    0.000    0.000 
#    0.000    0.000    0.000    0.000    0.000    0.000 
#
# Total GULP energy -322326.747979 kJ/mol
# GULP energy per Si atom -12397.182615 kJ/mol
# Density = 2.107773 g / cm^3
# Si number density = 21.125815 Si / 1000 Ang^3
#
#
#
# Elastic Constant Matrix: (Units=GPa)
#
#
# Indices 1 2 3 4 5 6 
#
# 1 91.4744 16.5184 44.6670 0.0000 0.0000 0.0000
# 2 16.5184 89.2726 34.7219 0.0000 0.0000 0.0000
# 3 44.6670 34.7219 113.4081 0.0000 0.0000 0.0000
# 4 0.0000 0.0000 0.0000 40.8686 0.0000 0.0000
# 5 0.0000 0.0000 0.0000 0.0000 13.9920 0.0000
# 6 0.0000 0.0000 0.0000 0.0000 0.0000 7.7192
#
#
#
# Elastic Compliance Matrix: (Units=1/GPa)
#
#
# Indices 1 2 3 4 5 6 
#
# 1 0.013554 -0.000490 -0.005188 0.000000 0.000000 0.000000
# 2 -0.000490 0.012734 -0.003706 0.000000 0.000000 0.000000
# 3 -0.005188 -0.003706 0.011996 0.000000 0.000000 0.000000
# 4 0.000000 0.000000 0.000000 0.024469 0.000000 0.000000
# 5 0.000000 0.000000 0.000000 0.000000 0.071470 0.000000
# 6 0.000000 0.000000 0.000000 0.000000 0.000000 0.129547
#
#
# Mechanical properties :
#
#
# Convention : Reuss Voigt Hill
#
# Bulk Modulus (GPa) = 51.24159 53.99661 52.61910
# Shear Modulus (GPa) = 17.29854 25.73246 21.51550
#
# Velocity S-wave (km/s) = 2.86463 3.49385 3.19477
# Velocity P-wave (km/s) = 5.93714 6.47233 6.21050
#
# Compressibility (1/GPa) = 0.01951540
#
# Stress axis : x y z
#
# Youngs Moduli (GPa) = 73.77903 78.53245 83.36278
#
# Poissons Ratio (x) = 0.03848 0.43252
# Poissons Ratio (y) = 0.03615 0.30891
# Poissons Ratio (z) = 0.38279 0.29101
#
# Static dielectric constant tensor:
#      x y z
#    x 3.455900 0.000000 0.000000 
#    y 0.000000 4.100280 0.000000 
#    z 0.000000 0.000000 3.953450 
# 
# 
# High freq. dielectric constant tensor:
#      x y z
#    x 1.785550 0.000000 0.000000 
#    y 0.000000 1.847350 0.000000 
#    z 0.000000 0.000000 1.837370 
# 
# From -- ./inp_files/17028.got.cif
#   From: 2010.03.12/outbox.cif.g09.slc.cpg/sg20_9_cif.got.tgz:17028.got - 2010.04.14 01:38:04.
