data_PCOD8158910
_publ_section_title
;
Structure prediction by ZEFSAII (Michael W. Deem and Ramdas Pophale) SiO2 
 PCOD8158910
Probable space group: C 2 2 21
;
_chemical_formula_sum "Si O2"
_cell_formula_units_Z 48
_cell_length_a 8.891651
_cell_length_b 28.211720
_cell_length_c 8.905395
_cell_angle_alpha 90.000000
_cell_angle_beta 90.000000
_cell_angle_gamma 90.000000
_cell_volume 2233.907367
_symmetry_space_group_name_H-M "C 2 2 21"
_symmetry_group_IT_number 20
_symmetry_cell_setting 'orthorhombic'
loop_
_space_group_symop_operation_xyz
x,y,z
-x,-y,1/2+z
x,-y,-z
-x,y,1/2-z
1/2+x,1/2+y,z
1/2-x,1/2-y,1/2+z
1/2+x,1/2-y,-z
1/2-x,1/2+y,1/2-z
loop_
_atom_site_type_symbol
_atom_site_label
_atom_site_fract_x
_atom_site_fract_y
_atom_site_fract_z
Si Si1 0.623555 0.278631 0.377748
Si Si2 0.855804 0.886062 0.465652
Si Si3 0.188680 0.883242 0.371316
Si Si4 0.642985 0.527773 0.150812
Si Si5 0.869013 0.530587 0.640010
Si Si6 0.898898 0.788575 0.614470
O O1 0.500000 0.289186 0.250000
O O2 0.707633 0.328158 0.419113
O O3 0.754950 0.242201 0.333608
O O4 0.519925 0.259101 0.513867
O O5 0.774724 0.888882 0.305915
O O6 0.787418 0.922366 0.589150
O O7 0.834289 0.833055 0.525480
O O8 0.027435 0.900035 0.429881
O O9 0.304058 0.921489 0.439368
O O10 0.500000 0.540473 0.250000
O O11 0.752495 0.498513 0.257732
O O12 0.596544 0.500000 0.000000
O O13 0.929402 0.500000 0.500000
O O14 0.000000 0.545950 0.750000
O O15 0.000000 0.807454 0.750000
#
# Coordination Sequence:
#
# PCOD8158910 Si02
#       6
#     8   8   8   8   8   8
#     4  11  22  44  66  94 132 173 219 272 335 399
#     4  10  20  39  66  95 124 166 216 269 314 384
#     4  10  20  42  67  89 127 171 217 260 319 391
#     4  12  22  37  66  96 127 167 219 267 319 384
#     4  12  27  45  64  95 134 172 213 271 337 394
#     4  11  23  38  65  97 132 167 219 280 328 387
#
# _framework density 21.487013999999999
#
# number of rings (size 3 to 8) (size 9 to 14) (size 15 to 20)
#    0.000    1.000    5.000    4.500    0.000    2.000 
#    0.000    0.833    0.000    0.000    0.000    0.000 
#    0.000    0.000    0.000    0.000    0.000    0.000 
#
# Total GULP energy -297362.056695 kJ/mol
# GULP energy per Si atom -12390.085696 kJ/mol
# Density = 2.143811 g / cm^3
# Si number density = 21.487014 Si / 1000 Ang^3
#
#
#
# Elastic Constant Matrix: (Units=GPa)
#
#
# Indices 1 2 3 4 5 6 
#
# 1 60.2238 40.3013 2.9502 0.0000 0.0000 0.0000
# 2 40.3013 112.2649 9.9344 0.0000 0.0000 0.0000
# 3 2.9502 9.9344 63.8323 0.0000 0.0000 0.0000
# 4 0.0000 0.0000 0.0000 29.4390 0.0000 0.0000
# 5 0.0000 0.0000 0.0000 0.0000 29.0627 0.0000
# 6 0.0000 0.0000 0.0000 0.0000 0.0000 22.7497
#
#
#
# Elastic Compliance Matrix: (Units=1/GPa)
#
#
# Indices 1 2 3 4 5 6 
#
# 1 0.021858 -0.007866 0.000214 0.000000 0.000000 0.000000
# 2 -0.007866 0.011862 -0.001483 0.000000 0.000000 0.000000
# 3 0.000214 -0.001483 0.015887 0.000000 0.000000 0.000000
# 4 0.000000 0.000000 0.000000 0.033969 0.000000 0.000000
# 5 0.000000 0.000000 0.000000 0.000000 0.034408 0.000000
# 6 0.000000 0.000000 0.000000 0.000000 0.000000 0.043957
#
#
# Mechanical properties :
#
#
# Convention : Reuss Voigt Hill
#
# Bulk Modulus (GPa) = 31.90963 38.07697 34.99330
# Shear Modulus (GPa) = 26.22534 28.45927 27.34231
#
# Velocity S-wave (km/s) = 3.49738 3.64330 3.57109
# Velocity P-wave (km/s) = 5.58496 5.95462 5.77275
#
# Compressibility (1/GPa) = 0.03133850
#
# Stress axis : x y z
#
# Youngs Moduli (GPa) = 45.75031 84.30072 62.94488
#
# Poissons Ratio (x) = 0.66307 -0.01346
# Poissons Ratio (y) = 0.35985 0.09332
# Poissons Ratio (z) = -0.00979 0.12499
#
# Static dielectric constant tensor:
#      x y z
#    x 3.807900 0.000000 0.000000 
#    y 0.000000 3.911510 0.000000 
#    z 0.000000 0.000000 4.342310 
# 
# 
# High freq. dielectric constant tensor:
#      x y z
#    x 1.812040 0.000000 0.000000 
#    y 0.000000 1.846600 0.000000 
#    z 0.000000 0.000000 1.852880 
# 
# From -- ./inp_files/6483.got.cif
#   From: 2010.03.12/outbox.cif.g09.slc.cpg/sg20_4_cif.got.tgz:6483.got - 2010.04.14 01:38:04.
