data_PCOD8158866
_publ_section_title
;
Structure prediction by ZEFSAII (Michael W. Deem and Ramdas Pophale) SiO2 
 PCOD8158866
Probable space group: C 2 2 21
;
_chemical_formula_sum "Si O2"
_cell_formula_units_Z 32
_cell_length_a 18.231304
_cell_length_b 5.104779
_cell_length_c 15.972526
_cell_angle_alpha 90.000000
_cell_angle_beta 90.000000
_cell_angle_gamma 90.000000
_cell_volume 1486.511528
_symmetry_space_group_name_H-M "C 2 2 21"
_symmetry_group_IT_number 20
_symmetry_cell_setting 'orthorhombic'
loop_
_space_group_symop_operation_xyz
x,y,z
-x,-y,1/2+z
x,-y,-z
-x,y,1/2-z
1/2+x,1/2+y,z
1/2-x,1/2-y,1/2+z
1/2+x,1/2-y,-z
1/2-x,1/2+y,1/2-z
loop_
_atom_site_type_symbol
_atom_site_label
_atom_site_fract_x
_atom_site_fract_y
_atom_site_fract_z
Si Si1 0.114059 0.914113 0.856049
Si Si2 0.195384 0.423418 0.839671
Si Si3 0.032344 0.246640 0.447306
Si Si4 0.650407 0.216312 0.687826
O O1 0.172296 0.691775 0.886715
O O2 0.107424 0.899871 0.754736
O O3 0.036196 0.870216 0.897618
O O4 0.145187 0.197173 0.880351
O O5 0.280677 0.366238 0.853034
O O6 0.179637 0.458398 0.738701
O O7 0.007926 0.500000 0.500000
O O8 0.094763 0.357013 0.385545
O O9 0.063631 0.000000 0.500000
#
# Coordination Sequence:
#
# PCOD8158866 Si02
#       4
#     8   8   8   8
#     4  10  21  42  65  94 119 170 212 265 305 385
#     4  10  20  38  74  91 121 148 229 271 313 354
#     4  12  28  43  60  94 141 174 208 259 333 392
#     4  10  22  42  69  97 120 165 223 270 313 372
#
# _framework density 21.526910000000001
#
# number of rings (size 3 to 8) (size 9 to 14) (size 15 to 20)
#    1.500    0.000    2.500    2.250    3.500    0.000 
#    4.500    7.500    0.000    0.000    0.000    0.000 
#    0.000    0.000    0.000    0.000    0.000    0.000 
#
# Total GULP energy -198264.873363 kJ/mol
# GULP energy per Si atom -12391.554585 kJ/mol
# Density = 2.147791 g / cm^3
# Si number density = 21.526910 Si / 1000 Ang^3
#
#
#
# Elastic Constant Matrix: (Units=GPa)
#
#
# Indices 1 2 3 4 5 6 
#
# 1 100.2061 15.3446 36.0690 0.0000 0.0000 0.0000
# 2 15.3446 116.8714 8.9099 0.0000 0.0000 0.0000
# 3 36.0690 8.9099 41.5460 0.0000 0.0000 0.0000
# 4 0.0000 0.0000 0.0000 29.0449 0.0000 0.0000
# 5 0.0000 0.0000 0.0000 0.0000 1.6290 0.0000
# 6 0.0000 0.0000 0.0000 0.0000 0.0000 29.4030
#
#
#
# Elastic Compliance Matrix: (Units=1/GPa)
#
#
# Indices 1 2 3 4 5 6 
#
# 1 0.014622 -0.000968 -0.012487 0.000000 0.000000 0.000000
# 2 -0.000968 0.008763 -0.001039 0.000000 0.000000 0.000000
# 3 -0.012487 -0.001039 0.035133 0.000000 0.000000 0.000000
# 4 0.000000 0.000000 0.000000 0.034429 0.000000 0.000000
# 5 0.000000 0.000000 0.000000 0.000000 0.613859 0.000000
# 6 0.000000 0.000000 0.000000 0.000000 0.000000 0.034010
#
#
# Mechanical properties :
#
#
# Convention : Reuss Voigt Hill
#
# Bulk Modulus (GPa) = 33.86317 42.14117 38.00217
# Shear Modulus (GPa) = 6.41314 25.23538 15.82426
#
# Velocity S-wave (km/s) = 1.72789 3.42756 2.71420
# Velocity P-wave (km/s) = 4.44360 5.93993 5.24539
#
# Compressibility (1/GPa) = 0.02953061
#
# Stress axis : x y z
#
# Youngs Moduli (GPa) = 68.38838 114.12014 28.46288
#
# Poissons Ratio (x) = 0.11045 0.35542
# Poissons Ratio (y) = 0.06619 0.02957
# Poissons Ratio (z) = 0.85398 0.11857
#
# Static dielectric constant tensor:
#      x y z
#    x 3.571780 0.000000 0.000000 
#    y 0.000000 3.861560 0.000000 
#    z 0.000000 0.000000 3.638750 
# 
# 
# High freq. dielectric constant tensor:
#      x y z
#    x 1.842440 0.000000 0.000000 
#    y 0.000000 1.848780 0.000000 
#    z 0.000000 0.000000 1.813330 
# 
# From -- ./inp_files/17441.got.cif
#   From: 2010.03.12/outbox.cif.g09.slc.cpg/sg20_9_cif.got.tgz:17441.got - 2010.04.14 01:38:04.
