data_PCOD8158807
_publ_section_title
;
Structure prediction by ZEFSAII (Michael W. Deem and Ramdas Pophale) SiO2 
 PCOD8158807
Probable space group: C 2 2 21
;
_chemical_formula_sum "Si O2"
_cell_formula_units_Z 52
_cell_length_a 11.272739
_cell_length_b 7.809188
_cell_length_c 28.035092
_cell_angle_alpha 90.000000
_cell_angle_beta 90.000000
_cell_angle_gamma 90.000000
_cell_volume 2467.955449
_symmetry_space_group_name_H-M "C 2 2 21"
_symmetry_group_IT_number 20
_symmetry_cell_setting 'orthorhombic'
loop_
_space_group_symop_operation_xyz
x,y,z
-x,-y,1/2+z
x,-y,-z
-x,y,1/2-z
1/2+x,1/2+y,z
1/2-x,1/2-y,1/2+z
1/2+x,1/2-y,-z
1/2-x,1/2+y,1/2-z
loop_
_atom_site_type_symbol
_atom_site_label
_atom_site_fract_x
_atom_site_fract_y
_atom_site_fract_z
Si Si1 0.128863 0.294798 0.993283
Si Si2 0.296914 0.221983 0.392725
Si Si3 0.373779 0.300822 0.738035
Si Si4 0.059187 0.291503 0.432286
Si Si5 0.306592 0.000000 0.000000
Si Si6 0.295838 0.946980 0.184578
Si Si7 0.050327 0.550767 0.843456
O O1 0.111674 0.254580 0.936755
O O2 0.151436 0.500000 0.000000
O O3 0.236729 0.175990 0.011168
O O4 0.016256 0.221673 0.022722
O O5 0.167452 0.167003 0.415189
O O6 0.275671 0.398468 0.363653
O O7 0.350170 0.086436 0.356268
O O8 0.500000 0.391992 0.750000
O O9 0.320409 0.228196 0.786960
O O10 0.280552 0.431182 0.717107
O O11 0.395025 0.148492 0.701096
O O12 0.114708 0.470355 0.452348
O O13 0.970441 0.323870 0.388386
O O14 0.422983 0.032711 0.171130
#
# Coordination Sequence:
#
# PCOD8158807 Si02
#       7
#     8   8   8   8   4   8   8
#     4  11  21  41  63  87 126 176 214 269 323 372
#     4  10  21  38  62  88 123 160 212 259 311 384
#     4  10  22  40  65  89 124 160 199 258 321 381
#     4  10  20  39  60  81 129 160 205 269 310 366
#     4  10  22  38  60  86 120 164 218 264 312 390
#     4  10  22  39  62  90 120 159 200 260 314 380
#     4  10  20  38  60  86 119 159 198 251 320 369
#
# _framework density 21.070074000000002
#
# number of rings (size 3 to 8) (size 9 to 14) (size 15 to 20)
#    0.000    1.846    2.308    0.923    0.000    4.923 
#    5.538    3.077    3.385    0.000    0.000    0.000 
#    0.000    0.000    0.000    0.000    0.000    0.000 
#
# Total GULP energy -322116.489495 kJ/mol
# GULP energy per Si atom -12389.095750 kJ/mol
# Density = 2.102212 g / cm^3
# Si number density = 21.070074 Si / 1000 Ang^3
#
#
#
# Elastic Constant Matrix: (Units=GPa)
#
#
# Indices 1 2 3 4 5 6 
#
# 1 86.5030 29.9093 34.5446 0.0000 0.0000 0.0000
# 2 29.9093 44.7645 14.0887 0.0000 0.0000 0.0000
# 3 34.5446 14.0887 103.5920 0.0000 0.0000 0.0000
# 4 0.0000 0.0000 0.0000 19.3730 0.0000 0.0000
# 5 0.0000 0.0000 0.0000 0.0000 54.7436 0.0000
# 6 0.0000 0.0000 0.0000 0.0000 0.0000 27.4022
#
#
#
# Elastic Compliance Matrix: (Units=1/GPa)
#
#
# Indices 1 2 3 4 5 6 
#
# 1 0.016625 -0.009782 -0.004214 0.000000 0.000000 0.000000
# 2 -0.009782 0.029094 -0.000695 0.000000 0.000000 0.000000
# 3 -0.004214 -0.000695 0.011153 0.000000 0.000000 0.000000
# 4 0.000000 0.000000 0.000000 0.051618 0.000000 0.000000
# 5 0.000000 0.000000 0.000000 0.000000 0.018267 0.000000
# 6 0.000000 0.000000 0.000000 0.000000 0.000000 0.036493
#
#
# Mechanical properties :
#
#
# Convention : Reuss Voigt Hill
#
# Bulk Modulus (GPa) = 36.37565 43.54941 39.96253
# Shear Modulus (GPa) = 24.77766 30.72489 27.75127
#
# Velocity S-wave (km/s) = 3.43295 3.82281 3.63312
# Velocity P-wave (km/s) = 5.74588 6.34026 6.05038
#
# Compressibility (1/GPa) = 0.02749092
#
# Stress axis : x y z
#
# Youngs Moduli (GPa) = 60.14972 34.37178 89.66319
#
# Poissons Ratio (x) = 0.33622 0.37780
# Poissons Ratio (y) = 0.58838 0.06230
# Poissons Ratio (z) = 0.25345 0.02388
#
# Static dielectric constant tensor:
#      x y z
#    x 4.125800 0.000000 0.000000 
#    y 0.000000 3.330280 0.000000 
#    z 0.000000 0.000000 4.197370 
# 
# 
# High freq. dielectric constant tensor:
#      x y z
#    x 1.835760 0.000000 0.000000 
#    y 0.000000 1.771060 0.000000 
#    z 0.000000 0.000000 1.854480 
# 
# From -- ./inp_files/30295.got.cif
#   From: 2010.03.12/outbox.cif.g09.slc.cpg/sg20_16_cif.got.tgz:30295.got - 2010.04.14 01:38:04.
