data_PCOD8158738
_publ_section_title
;
Structure prediction by ZEFSAII (Michael W. Deem and Ramdas Pophale) SiO2 
 PCOD8158738
Probable space group: C 2 2 21
;
_chemical_formula_sum "Si O2"
_cell_formula_units_Z 64
_cell_length_a 23.904491
_cell_length_b 9.709579
_cell_length_c 15.175402
_cell_angle_alpha 90.000000
_cell_angle_beta 90.000000
_cell_angle_gamma 90.000000
_cell_volume 3522.249408
_symmetry_space_group_name_H-M "C 2 2 21"
_symmetry_group_IT_number 20
_symmetry_cell_setting 'orthorhombic'
loop_
_space_group_symop_operation_xyz
x,y,z
-x,-y,1/2+z
x,-y,-z
-x,y,1/2-z
1/2+x,1/2+y,z
1/2-x,1/2-y,1/2+z
1/2+x,1/2-y,-z
1/2-x,1/2+y,1/2-z
loop_
_atom_site_type_symbol
_atom_site_label
_atom_site_fract_x
_atom_site_fract_y
_atom_site_fract_z
Si Si1 0.025314 0.155613 0.154385
Si Si2 0.254857 0.160904 0.662318
Si Si3 0.120755 0.344119 0.898250
Si Si4 0.474686 0.655613 0.654385
Si Si5 0.553729 0.336619 0.500000
Si Si6 0.679692 0.663758 0.500000
Si Si7 0.254857 0.160904 0.337682
Si Si8 0.620755 0.155881 0.898250
O O1 0.081546 0.244082 0.157542
O O2 0.000000 0.161286 0.250000
O O3 0.979713 0.215789 0.085938
O O4 0.041325 0.000000 0.127358
O O5 0.210522 0.214245 0.589200
O O6 0.250000 0.250000 0.750000
O O7 0.315288 0.187943 0.621565
O O8 0.245335 1.000000 0.684846
O O9 0.081546 0.244082 0.842458
O O10 0.184712 0.312057 0.878435
O O11 0.105818 0.500000 0.872199
O O12 0.108855 0.315935 0.000000
O O13 0.500000 0.661286 0.750000
O O14 0.520287 0.715789 0.585938
O O15 0.559219 0.500000 0.500000
O O16 0.616631 0.275276 0.500000
O O17 0.681145 0.500000 0.500000
O O18 0.710522 0.714245 0.410800
#
# Coordination Sequence:
#
# PCOD8158738 Si02
#       8
#     8   8   8   8   8   8   8   8
#     4  10  21  35  55  84 110 139 183 228 270 319
#     4  10  21  37  58  83 109 143 186 225 271 328
#     4  10  20  37  58  80 109 146 185 224 272 330
#     4  10  21  35  55  84 110 139 183 228 270 319
#     4   9  18  33  51  77 111 139 174 223 266 310
#     4   9  18  35  57  77 107 149 182 217 270 330
#     4  10  21  37  58  83 109 143 186 225 271 328
#     4  10  20  37  58  80 109 146 185 224 272 330
#
# _framework density 18.170207000000001
#
# number of rings (size 3 to 8) (size 9 to 14) (size 15 to 20)
#    0.000    2.250    2.500    0.000    3.500    1.500 
#    0.000    0.625    0.000    1.500    0.000    0.000 
#    0.000    0.000    0.000    0.000    0.000    0.000 
#
# Total GULP energy -396807.827436 kJ/mol
# GULP energy per Si atom -12400.244607 kJ/mol
# Density = 1.812885 g / cm^3
# Si number density = 18.170207 Si / 1000 Ang^3
#
#
#
# Elastic Constant Matrix: (Units=GPa)
#
#
# Indices 1 2 3 4 5 6 
#
# 1 109.9540 42.0193 35.3486 0.0000 0.0000 0.0000
# 2 42.0193 51.8975 26.6148 0.0000 0.0000 0.0000
# 3 35.3486 26.6148 96.1636 0.0000 0.0000 0.0000
# 4 0.0000 0.0000 0.0000 -2.7147 0.0000 0.0000
# 5 0.0000 0.0000 0.0000 0.0000 23.9886 0.0000
# 6 0.0000 0.0000 0.0000 0.0000 0.0000 29.7956
#
#
#
# Elastic Compliance Matrix: (Units=1/GPa)
#
#
# Indices 1 2 3 4 5 6 
#
# 1 0.013582 -0.009832 -0.002272 0.000000 0.000000 0.000000
# 2 -0.009832 0.029574 -0.004571 0.000000 0.000000 0.000000
# 3 -0.002272 -0.004571 0.012499 0.000000 0.000000 0.000000
# 4 0.000000 0.000000 0.000000 -0.368358 0.000000 0.000000
# 5 0.000000 0.000000 0.000000 0.000000 0.041686 0.000000
# 6 0.000000 0.000000 0.000000 0.000000 0.000000 0.033562
#
#
# Mechanical properties :
#
#
# Convention : Reuss Voigt Hill
#
# Bulk Modulus (GPa) = 44.83104 51.77560 48.30332
# Shear Modulus (GPa) = -25.42322 20.48271 -2.47026
#
# Velocity S-wave (km/s) = -3.74461 3.36112 -1.16725
# Velocity P-wave (km/s) = 2.45566 6.60451 4.98246
#
# Compressibility (1/GPa) = 0.02230597
#
# Stress axis : x y z
#
# Youngs Moduli (GPa) = 73.62472 33.81399 80.00678
#
# Poissons Ratio (x) = 0.33247 0.18174
# Poissons Ratio (y) = 0.72389 0.36569
# Poissons Ratio (z) = 0.16724 0.15455
#
# Static dielectric constant tensor:
#      x y z
#    x 3.543980 0.000000 0.000000 
#    y 0.000000 3.167180 0.000000 
#    z 0.000000 0.000000 3.143940 
# 
# 
# High freq. dielectric constant tensor:
#      x y z
#    x 1.715510 0.000000 0.000000 
#    y 0.000000 1.671230 0.000000 
#    z 0.000000 0.000000 1.712560 
# 
# From -- ./inp_files/22036.got.cif
#   From: 2010.03.12/outbox.cif.g09.slc.cpg/sg20_12_cif.got.tgz:22036.got - 2010.04.14 01:38:04.
