data_PCOD8158134
_publ_section_title
;
Structure prediction by ZEFSAII (Michael W. Deem and Ramdas Pophale) SiO2 
 PCOD8158134
Probable space group: C 2 2 21
;
_chemical_formula_sum "Si O2"
_cell_formula_units_Z 52
_cell_length_a 10.452618
_cell_length_b 16.368009
_cell_length_c 15.282436
_cell_angle_alpha 90.000000
_cell_angle_beta 90.000000
_cell_angle_gamma 90.000000
_cell_volume 2614.649747
_symmetry_space_group_name_H-M "C 2 2 21"
_symmetry_group_IT_number 20
_symmetry_cell_setting 'orthorhombic'
loop_
_space_group_symop_operation_xyz
x,y,z
-x,-y,1/2+z
x,-y,-z
-x,y,1/2-z
1/2+x,1/2+y,z
1/2-x,1/2-y,1/2+z
1/2+x,1/2-y,-z
1/2-x,1/2+y,1/2-z
loop_
_atom_site_type_symbol
_atom_site_label
_atom_site_fract_x
_atom_site_fract_y
_atom_site_fract_z
Si Si1 0.000000 0.040743 0.250000
Si Si2 0.000000 0.806531 0.250000
Si Si3 0.372962 0.767383 0.136424
Si Si4 0.267014 0.997542 0.774545
Si Si5 0.727178 0.189183 0.293599
Si Si6 0.500000 0.104181 0.750000
Si Si7 0.928964 0.149378 0.416160
Si Si8 0.159348 0.883536 0.099162
O O1 0.955819 0.088829 0.335981
O O2 0.869571 0.992562 0.222901
O O3 0.893027 0.748926 0.206692
O O4 0.944915 0.864593 0.325750
O O5 0.328697 0.712633 0.218412
O O6 0.466696 0.839899 0.167234
O O7 0.452357 0.710869 0.069807
O O8 0.250231 0.804374 0.087584
O O9 0.376535 0.049081 0.724722
O O10 0.241735 0.037256 0.871388
O O11 0.317061 0.904815 0.780800
O O12 0.800365 0.197987 0.386734
O O13 0.908382 0.100454 0.506353
#
# Coordination Sequence:
#
# PCOD8158134 Si02
#       8
#     4   4   8   8   8   4   8   8
#     4  10  20  36  62  84 122 154 210 234 310 358
#     4  10  22  40  53  95 118 152 190 264 288 358
#     4  10  18  38  57  88 110 159 200 239 293 371
#     4  10  20  37  56  93 111 159 192 254 288 364
#     4  10  19  35  62  80 118 154 198 231 304 354
#     4  10  18  34  63  85 116 150 202 248 300 344
#     4  11  19  37  60  87 112 168 195 248 287 374
#     4  10  24  34  60  87 127 144 207 248 306 337
#
# _framework density 19.887941999999999
#
# number of rings (size 3 to 8) (size 9 to 14) (size 15 to 20)
#    0.000    1.846    4.615    0.923    2.154    2.462 
#    0.000    0.000    0.000    0.000    0.000    0.000 
#    0.000    0.000    0.000    0.000    0.000    0.000 
#
# Total GULP energy -322171.521818 kJ/mol
# GULP energy per Si atom -12391.212378 kJ/mol
# Density = 1.984268 g / cm^3
# Si number density = 19.887942 Si / 1000 Ang^3
#
#
#
# Elastic Constant Matrix: (Units=GPa)
#
#
# Indices 1 2 3 4 5 6 
#
# 1 109.0300 25.2192 30.2365 0.0000 0.0000 0.0000
# 2 25.2192 83.8579 28.0633 0.0000 0.0000 0.0000
# 3 30.2365 28.0633 103.2407 0.0000 0.0000 0.0000
# 4 0.0000 0.0000 0.0000 11.7426 0.0000 0.0000
# 5 0.0000 0.0000 0.0000 0.0000 22.7882 0.0000
# 6 0.0000 0.0000 0.0000 0.0000 0.0000 41.5253
#
#
#
# Elastic Compliance Matrix: (Units=1/GPa)
#
#
# Indices 1 2 3 4 5 6 
#
# 1 0.010375 -0.002314 -0.002410 0.000000 0.000000 0.000000
# 2 -0.002314 0.013634 -0.003028 0.000000 0.000000 0.000000
# 3 -0.002410 -0.003028 0.011215 0.000000 0.000000 0.000000
# 4 0.000000 0.000000 0.000000 0.085160 0.000000 0.000000
# 5 0.000000 0.000000 0.000000 0.000000 0.043882 0.000000
# 6 0.000000 0.000000 0.000000 0.000000 0.000000 0.024082
#
#
# Mechanical properties :
#
#
# Convention : Reuss Voigt Hill
#
# Bulk Modulus (GPa) = 50.70832 51.46294 51.08563
# Shear Modulus (GPa) = 23.76132 29.38520 26.57326
#
# Velocity S-wave (km/s) = 3.46028 3.84805 3.65930
# Velocity P-wave (km/s) = 6.44338 6.75840 6.60276
#
# Compressibility (1/GPa) = 0.01972063
#
# Stress axis : x y z
#
# Youngs Moduli (GPa) = 96.38325 73.34460 89.16593
#
# Poissons Ratio (x) = 0.16971 0.21486
# Poissons Ratio (y) = 0.22301 0.27004
# Poissons Ratio (z) = 0.23225 0.22212
#
# Static dielectric constant tensor:
#      x y z
#    x 4.027950 0.000000 0.000000 
#    y 0.000000 3.795610 0.000000 
#    z 0.000000 0.000000 3.174120 
# 
# 
# High freq. dielectric constant tensor:
#      x y z
#    x 1.789270 0.000000 0.000000 
#    y 0.000000 1.788410 0.000000 
#    z 0.000000 0.000000 1.728460 
# 
# From -- ./inp_files/20212.got.cif
#   From: 2010.03.12/outbox.cif.g09.slc.cpg/sg20_11_cif.got.tgz:20212.got - 2010.04.14 01:38:04.
