data_PCOD8158141
_publ_section_title
;
Structure prediction by ZEFSAII (Michael W. Deem and Ramdas Pophale) SiO2 
 PCOD8158141
Probable space group: C 2 2 21
;
_chemical_formula_sum "Si O2"
_cell_formula_units_Z 48
_cell_length_a 18.043175
_cell_length_b 9.128888
_cell_length_c 17.130792
_cell_angle_alpha 90.000000
_cell_angle_beta 90.000000
_cell_angle_gamma 90.000000
_cell_volume 2821.683393
_symmetry_space_group_name_H-M "C 2 2 21"
_symmetry_group_IT_number 20
_symmetry_cell_setting 'orthorhombic'
loop_
_space_group_symop_operation_xyz
x,y,z
-x,-y,1/2+z
x,-y,-z
-x,y,1/2-z
1/2+x,1/2+y,z
1/2-x,1/2-y,1/2+z
1/2+x,1/2-y,-z
1/2-x,1/2+y,1/2-z
loop_
_atom_site_type_symbol
_atom_site_label
_atom_site_fract_x
_atom_site_fract_y
_atom_site_fract_z
Si Si1 0.172617 0.404974 0.933160
Si Si2 0.359157 0.358047 0.539205
Si Si3 0.400020 0.890660 0.179862
Si Si4 0.758689 0.545814 0.156886
Si Si5 0.063004 0.623082 0.860878
Si Si6 0.764523 0.772890 0.804809
O O1 0.097501 0.490919 0.910719
O O2 0.225704 0.393567 0.858882
O O3 0.214098 0.500000 0.000000
O O4 0.154406 0.246084 0.965738
O O5 0.398761 0.500000 0.500000
O O6 0.280169 0.409287 0.575760
O O7 0.409055 0.280043 0.605724
O O8 0.348759 0.027708 0.149976
O O9 0.416226 0.904282 0.271639
O O10 0.474188 0.882100 0.129018
O O11 0.351089 0.742157 0.169570
O O12 0.726486 0.388787 0.187702
O O13 0.740547 0.676161 0.216129
#
# Coordination Sequence:
#
# PCOD8158141 Si02
#       6
#     8   8   8   8   8   8
#     4  10  20  33  54  80 110 148 183 222 274 338
#     4  11  19  34  54  80 110 146 184 223 277 333
#     4   9  19  33  59  78 108 137 187 226 273 318
#     4  10  19  33  58  84 106 143 187 230 270 320
#     4  10  19  35  55  80 107 147 182 221 276 337
#     4  10  18  35  55  84 107 142 185 232 269 320
#
# _framework density 17.011119999999998
#
# number of rings (size 3 to 8) (size 9 to 14) (size 15 to 20)
#    1.000    1.000    5.000    0.000    2.333    0.000 
#    0.000    8.333    3.667    4.000    0.000    0.000 
#    0.000    0.000    0.000    0.000    0.000    0.000 
#
# Total GULP energy -297321.024194 kJ/mol
# GULP energy per Si atom -12388.376008 kJ/mol
# Density = 1.697240 g / cm^3
# Si number density = 17.011120 Si / 1000 Ang^3
#
#
#
# Elastic Constant Matrix: (Units=GPa)
#
#
# Indices 1 2 3 4 5 6 
#
# 1 123.2095 39.7264 32.1764 0.0000 0.0000 0.0000
# 2 39.7264 99.2611 33.3243 0.0000 0.0000 0.0000
# 3 32.1764 33.3243 66.8567 0.0000 0.0000 0.0000
# 4 0.0000 0.0000 0.0000 30.6044 0.0000 0.0000
# 5 0.0000 0.0000 0.0000 0.0000 21.8080 0.0000
# 6 0.0000 0.0000 0.0000 0.0000 0.0000 23.9373
#
#
#
# Elastic Compliance Matrix: (Units=1/GPa)
#
#
# Indices 1 2 3 4 5 6 
#
# 1 0.009907 -0.002840 -0.003353 0.000000 0.000000 0.000000
# 2 -0.002840 0.012913 -0.005070 0.000000 0.000000 0.000000
# 3 -0.003353 -0.005070 0.019098 0.000000 0.000000 0.000000
# 4 0.000000 0.000000 0.000000 0.032675 0.000000 0.000000
# 5 0.000000 0.000000 0.000000 0.000000 0.045855 0.000000
# 6 0.000000 0.000000 0.000000 0.000000 0.000000 0.041776
#
#
# Mechanical properties :
#
#
# Convention : Reuss Voigt Hill
#
# Bulk Modulus (GPa) = 51.56221 55.53129 53.54675
# Shear Modulus (GPa) = 26.14885 27.54326 26.84606
#
# Velocity S-wave (km/s) = 3.92492 4.02821 3.97690
# Velocity P-wave (km/s) = 7.13559 7.37226 7.25489
#
# Compressibility (1/GPa) = 0.01939405
#
# Stress axis : x y z
#
# Youngs Moduli (GPa) = 100.93450 77.44183 52.36151
#
# Poissons Ratio (x) = 0.21990 0.17556
# Poissons Ratio (y) = 0.28661 0.26546
# Poissons Ratio (z) = 0.33842 0.39261
#
# Static dielectric constant tensor:
#      x y z
#    x 3.114260 0.000000 0.000000 
#    y 0.000000 3.146520 0.000000 
#    z 0.000000 0.000000 3.158220 
# 
# 
# High freq. dielectric constant tensor:
#      x y z
#    x 1.628770 0.000000 0.000000 
#    y 0.000000 1.652810 0.000000 
#    z 0.000000 0.000000 1.662310 
# 
# From -- ./inp_files/25167.got.cif
#   From: 2010.03.12/outbox.cif.g09.slc.cpg/sg20_13_cif.got.tgz:25167.got - 2010.04.14 01:38:04.
