data_PCOD8158888
_publ_section_title
;
Structure prediction by ZEFSAII (Michael W. Deem and Ramdas Pophale) SiO2 
 PCOD8158888
Probable space group: C 2 2 21
;
_chemical_formula_sum "Si O2"
_cell_formula_units_Z 56
_cell_length_a 31.156965
_cell_length_b 15.161554
_cell_length_c 5.235594
_cell_angle_alpha 90.000000
_cell_angle_beta 90.000000
_cell_angle_gamma 90.000000
_cell_volume 2473.231817
_symmetry_space_group_name_H-M "C 2 2 21"
_symmetry_group_IT_number 20
_symmetry_cell_setting 'orthorhombic'
loop_
_space_group_symop_operation_xyz
x,y,z
-x,-y,1/2+z
x,-y,-z
-x,y,1/2-z
1/2+x,1/2+y,z
1/2-x,1/2-y,1/2+z
1/2+x,1/2-y,-z
1/2-x,1/2+y,1/2-z
loop_
_atom_site_type_symbol
_atom_site_label
_atom_site_fract_x
_atom_site_fract_y
_atom_site_fract_z
Si Si1 0.760455 0.802800 0.641280
Si Si2 0.393055 0.837810 0.228771
Si Si3 0.593277 0.440181 0.251293
Si Si4 0.025932 0.396555 0.500207
Si Si5 0.149041 0.792118 0.049577
Si Si6 0.176227 0.619785 0.357493
Si Si7 0.371599 0.000000 0.500000
Si Si8 0.500000 0.557255 0.750000
O O1 0.743293 0.734308 0.428111
O O2 0.809486 0.833682 0.593400
O O3 0.727905 0.886364 0.616906
O O4 0.429567 0.840713 0.009615
O O5 0.388642 0.740639 0.353522
O O6 0.403286 0.918389 0.427345
O O7 0.345791 0.863891 0.129637
O O8 0.601927 0.500000 0.500000
O O9 0.628811 0.363339 0.241560
O O10 0.545910 0.392198 0.266964
O O11 0.597726 0.500000 0.000000
O O12 0.036696 0.500000 0.500000
O O13 0.000000 0.368261 0.250000
O O14 0.000000 0.366772 0.750000
O O15 0.164642 0.705065 0.190067
O O16 0.158892 0.529818 0.233588
O O17 0.496128 0.500000 0.500000
#
# Coordination Sequence:
#
# PCOD8158888 Si02
#       8
#     8   8   8   8   8   8   4   4
#     4  10  20  39  63  91 126 176 218 266 333 401
#     4  11  22  40  65  91 131 175 228 280 332 404
#     4  10  22  40  68  95 130 166 214 268 329 407
#     4  10  23  38  60  88 128 176 223 275 334 392
#     4  10  23  39  67  96 127 176 222 273 345 397
#     4  10  21  38  65  91 133 172 220 274 330 405
#     4  10  22  36  64 100 124 176 228 280 330 394
#     4   8  16  36  62  92 118 160 200 250 326 392
#
# _framework density 22.642441000000002
#
# number of rings (size 3 to 8) (size 9 to 14) (size 15 to 20)
#    0.000    2.000    1.429    1.286    9.000    0.000 
#    0.000    2.857    4.714    0.000    0.000    0.000 
#    0.000    0.000    0.000    0.000    0.000    0.000 
#
# Total GULP energy -346958.236865 kJ/mol
# GULP energy per Si atom -12391.365602 kJ/mol
# Density = 2.259091 g / cm^3
# Si number density = 22.642441 Si / 1000 Ang^3
#
#
#
# Elastic Constant Matrix: (Units=GPa)
#
#
# Indices 1 2 3 4 5 6 
#
# 1 142.4640 45.6899 27.8502 0.0000 0.0000 0.0000
# 2 45.6899 60.5226 22.1949 0.0000 0.0000 0.0000
# 3 27.8502 22.1949 111.2820 0.0000 0.0000 0.0000
# 4 0.0000 0.0000 0.0000 27.6416 0.0000 0.0000
# 5 0.0000 0.0000 0.0000 0.0000 32.9209 0.0000
# 6 0.0000 0.0000 0.0000 0.0000 0.0000 23.7699
#
#
#
# Elastic Compliance Matrix: (Units=1/GPa)
#
#
# Indices 1 2 3 4 5 6 
#
# 1 0.009365 -0.006701 -0.001007 0.000000 0.000000 0.000000
# 2 -0.006701 0.022621 -0.002835 0.000000 0.000000 0.000000
# 3 -0.001007 -0.002835 0.009804 0.000000 0.000000 0.000000
# 4 0.000000 0.000000 0.000000 0.036177 0.000000 0.000000
# 5 0.000000 0.000000 0.000000 0.000000 0.030376 0.000000
# 6 0.000000 0.000000 0.000000 0.000000 0.000000 0.042070
#
#
# Mechanical properties :
#
#
# Convention : Reuss Voigt Hill
#
# Bulk Modulus (GPa) = 48.29929 56.19319 52.24624
# Shear Modulus (GPa) = 28.02697 31.43539 29.73118
#
# Velocity S-wave (km/s) = 3.52206 3.73008 3.62757
# Velocity P-wave (km/s) = 6.15772 6.58960 6.37732
#
# Compressibility (1/GPa) = 0.02070424
#
# Stress axis : x y z
#
# Youngs Moduli (GPa) = 106.77819 44.20729 102.00266
#
# Poissons Ratio (x) = 0.29621 0.10276
# Poissons Ratio (y) = 0.71548 0.28915
# Poissons Ratio (z) = 0.10757 0.12531
#
# Static dielectric constant tensor:
#      x y z
#    x 4.548330 0.000000 0.000000 
#    y 0.000000 3.688330 0.000000 
#    z 0.000000 0.000000 4.314920 
# 
# 
# High freq. dielectric constant tensor:
#      x y z
#    x 1.902140 0.000000 0.000000 
#    y 0.000000 1.843430 0.000000 
#    z 0.000000 0.000000 1.908920 
# 
# From -- ./inp_files/4731.got.cif
#   From: 2010.03.12/outbox.cif.g09.slc.cpg/sg20_3_cif.got.tgz:4731.got - 2010.04.14 01:38:04.
