data_PCOD8158934
_publ_section_title
;
Structure prediction by ZEFSAII (Michael W. Deem and Ramdas Pophale) SiO2 
 PCOD8158934
Probable space group: C 2 2 21
;
_chemical_formula_sum "Si O2"
_cell_formula_units_Z 52
_cell_length_a 9.294452
_cell_length_b 16.012531
_cell_length_c 17.268020
_cell_angle_alpha 90.000000
_cell_angle_beta 90.000000
_cell_angle_gamma 90.000000
_cell_volume 2569.959714
_symmetry_space_group_name_H-M "C 2 2 21"
_symmetry_group_IT_number 20
_symmetry_cell_setting 'orthorhombic'
loop_
_space_group_symop_operation_xyz
x,y,z
-x,-y,1/2+z
x,-y,-z
-x,y,1/2-z
1/2+x,1/2+y,z
1/2-x,1/2-y,1/2+z
1/2+x,1/2-y,-z
1/2-x,1/2+y,1/2-z
loop_
_atom_site_type_symbol
_atom_site_label
_atom_site_fract_x
_atom_site_fract_y
_atom_site_fract_z
Si Si1 0.382898 0.007153 0.897159
Si Si2 0.279065 0.248299 0.437552
Si Si3 0.033376 0.357131 0.503308
Si Si4 0.738898 0.405571 0.651162
Si Si5 0.500000 0.957369 0.750000
Si Si6 0.912516 0.917121 0.401627
Si Si7 0.645454 0.500000 0.500000
Si Si8 0.500000 0.506629 0.250000
O O1 0.223862 0.027710 0.928412
O O2 0.423310 0.913211 0.922654
O O3 0.397193 0.013817 0.804293
O O4 0.486638 0.079123 0.931560
O O5 0.156452 0.287686 0.491270
O O6 0.381222 0.188216 0.487980
O O7 0.207139 0.190798 0.370827
O O8 0.374962 0.319691 0.397996
O O9 0.739131 0.460010 0.570378
O O10 0.620639 0.433835 0.712910
O O11 0.895585 0.406721 0.691897
O O12 0.042857 0.929542 0.461865
O O13 0.944452 0.945086 0.315169
#
# Coordination Sequence:
#
# PCOD8158934 Si02
#       8
#     8   8   8   8   4   8   4   4
#     4  10  21  40  67  87 122 176 208 249 312 391
#     4  11  22  38  61  95 122 157 204 270 312 362
#     4  10  22  40  63  89 123 162 214 256 309 370
#     4  11  24  40  67  93 126 163 216 263 316 375
#     4  12  22  39  65  94 128 166 210 260 312 389
#     4  10  20  40  62  89 123 162 209 253 322 371
#     4  10  22  40  68  92 118 172 222 262 292 394
#     4  10  22  43  63  86 120 166 210 250 310 391
#
# _framework density 20.233779999999999
#
# number of rings (size 3 to 8) (size 9 to 14) (size 15 to 20)
#    0.000    1.538    3.077    2.769    2.154    1.846 
#    0.000    3.077    0.000    0.000    0.000    0.000 
#    0.000    0.000    0.000    0.000    0.000    0.000 
#
# Total GULP energy -322204.437754 kJ/mol
# GULP energy per Si atom -12392.478375 kJ/mol
# Density = 2.018773 g / cm^3
# Si number density = 20.233780 Si / 1000 Ang^3
#
#
#
# Elastic Constant Matrix: (Units=GPa)
#
#
# Indices 1 2 3 4 5 6 
#
# 1 84.4150 40.8579 39.6232 0.0000 0.0000 0.0000
# 2 40.8579 99.2733 38.4473 0.0000 0.0000 0.0000
# 3 39.6232 38.4473 121.2015 0.0000 0.0000 0.0000
# 4 0.0000 0.0000 0.0000 21.5824 0.0000 0.0000
# 5 0.0000 0.0000 0.0000 0.0000 40.2007 0.0000
# 6 0.0000 0.0000 0.0000 0.0000 0.0000 35.4497
#
#
#
# Elastic Compliance Matrix: (Units=1/GPa)
#
#
# Indices 1 2 3 4 5 6 
#
# 1 0.016059 -0.005217 -0.003595 0.000000 0.000000 0.000000
# 2 -0.005217 0.013179 -0.002475 0.000000 0.000000 0.000000
# 3 -0.003595 -0.002475 0.010211 0.000000 0.000000 0.000000
# 4 0.000000 0.000000 0.000000 0.046334 0.000000 0.000000
# 5 0.000000 0.000000 0.000000 0.000000 0.024875 0.000000
# 6 0.000000 0.000000 0.000000 0.000000 0.000000 0.028209
#
#
# Mechanical properties :
#
#
# Convention : Reuss Voigt Hill
#
# Bulk Modulus (GPa) = 59.26031 60.30520 59.78275
# Shear Modulus (GPa) = 29.92827 31.84399 30.88613
#
# Velocity S-wave (km/s) = 3.85011 3.97142 3.91124
# Velocity P-wave (km/s) = 7.00827 7.13432 7.07158
#
# Compressibility (1/GPa) = 0.01687470
#
# Stress axis : x y z
#
# Youngs Moduli (GPa) = 62.27121 75.87878 97.93232
#
# Poissons Ratio (x) = 0.39586 0.35207
# Poissons Ratio (y) = 0.32487 0.24239
# Poissons Ratio (z) = 0.22387 0.18780
#
# Static dielectric constant tensor:
#      x y z
#    x 3.838720 0.000000 0.000000 
#    y 0.000000 3.644980 0.000000 
#    z 0.000000 0.000000 3.942910 
# 
# 
# High freq. dielectric constant tensor:
#      x y z
#    x 1.801650 0.000000 0.000000 
#    y 0.000000 1.780330 0.000000 
#    z 0.000000 0.000000 1.792500 
# 
# From -- ./inp_files/23740.got.cif
#   From: 2010.03.12/outbox.cif.g09.slc.cpg/sg20_12_cif.got.tgz:23740.got - 2010.04.14 01:38:04.
