data_PCOD8158247
_publ_section_title
;
Structure prediction by ZEFSAII (Michael W. Deem and Ramdas Pophale) SiO2 
 PCOD8158247
Probable space group: C 2 2 21
;
_chemical_formula_sum "Si O2"
_cell_formula_units_Z 40
_cell_length_a 22.588272
_cell_length_b 19.267893
_cell_length_c 5.081924
_cell_angle_alpha 90.000000
_cell_angle_beta 90.000000
_cell_angle_gamma 90.000000
_cell_volume 2211.797692
_symmetry_space_group_name_H-M "C 2 2 21"
_symmetry_group_IT_number 20
_symmetry_cell_setting 'orthorhombic'
loop_
_space_group_symop_operation_xyz
x,y,z
-x,-y,1/2+z
x,-y,-z
-x,y,1/2-z
1/2+x,1/2+y,z
1/2-x,1/2-y,1/2+z
1/2+x,1/2-y,-z
1/2-x,1/2+y,1/2-z
loop_
_atom_site_type_symbol
_atom_site_label
_atom_site_fract_x
_atom_site_fract_y
_atom_site_fract_z
Si Si1 0.624349 0.722627 0.661617
Si Si2 0.500000 0.225735 0.250000
Si Si3 0.000000 0.367709 0.250000
Si Si4 0.190303 0.805097 0.827556
Si Si5 0.196817 0.333915 0.416598
Si Si6 0.882095 0.547246 0.756459
O O1 0.553358 0.724222 0.659755
O O2 0.653539 0.672905 0.434791
O O3 0.645634 0.802290 0.607118
O O4 0.642788 0.693538 0.941315
O O5 0.482133 0.178317 0.498289
O O6 0.055579 0.416209 0.310073
O O7 0.217189 0.726646 0.789255
O O8 0.245743 0.854570 0.905363
O O9 0.171342 0.397142 0.245930
O O10 0.883089 0.500000 0.500000
O O11 0.866537 0.500000 0.000000
#
# Coordination Sequence:
#
# PCOD8158247 Si02
#       6
#     8   4   4   8   8   8
#     4  10  19  31  49  79  94 126 169 217 285 315
#     4  12  20  33  56  72 104 136 170 237 262 322
#     4  12  22  39  50  64 100 148 196 221 260 294
#     4  10  19  32  56  73  91 125 176 231 267 333
#     4  10  20  35  53  72  97 127 184 226 278 316
#     4  12  26  36  50  71 103 143 186 233 266 308
#
# _framework density 18.084835999999999
#
# number of rings (size 3 to 8) (size 9 to 14) (size 15 to 20)
#    1.200    0.000    4.000    4.200    2.800    0.000 
#    0.000    0.000    0.000    0.000    0.000    0.000 
#    0.000    0.000    0.000    5.400    0.000   14.000 
#
# Total GULP energy -247853.257419 kJ/mol
# GULP energy per Si atom -12392.662871 kJ/mol
# Density = 1.804367 g / cm^3
# Si number density = 18.084836 Si / 1000 Ang^3
#
#
#
# Elastic Constant Matrix: (Units=GPa)
#
#
# Indices 1 2 3 4 5 6 
#
# 1 122.0128 26.0564 20.6328 0.0000 0.0000 0.0000
# 2 26.0564 28.6558 8.0894 0.0000 0.0000 0.0000
# 3 20.6328 8.0894 100.5579 0.0000 0.0000 0.0000
# 4 0.0000 0.0000 0.0000 19.8948 0.0000 0.0000
# 5 0.0000 0.0000 0.0000 0.0000 32.6735 0.0000
# 6 0.0000 0.0000 0.0000 0.0000 0.0000 10.6372
#
#
#
# Elastic Compliance Matrix: (Units=1/GPa)
#
#
# Indices 1 2 3 4 5 6 
#
# 1 0.010360 -0.009025 -0.001400 0.000000 0.000000 0.000000
# 2 -0.009025 0.043570 -0.001653 0.000000 0.000000 0.000000
# 3 -0.001400 -0.001653 0.010365 0.000000 0.000000 0.000000
# 4 0.000000 0.000000 0.000000 0.050264 0.000000 0.000000
# 5 0.000000 0.000000 0.000000 0.000000 0.030606 0.000000
# 6 0.000000 0.000000 0.000000 0.000000 0.000000 0.094010
#
#
# Mechanical properties :
#
#
# Convention : Reuss Voigt Hill
#
# Bulk Modulus (GPa) = 24.91355 40.08707 32.50031
# Shear Modulus (GPa) = 18.06946 25.73761 21.90353
#
# Velocity S-wave (km/s) = 3.16436 3.77657 3.48394
# Velocity P-wave (km/s) = 5.21121 6.42113 5.84755
#
# Compressibility (1/GPa) = 0.04013880
#
# Stress axis : x y z
#
# Youngs Moduli (GPa) = 96.52624 22.95161 96.48130
#
# Poissons Ratio (x) = 0.20714 0.13504
# Poissons Ratio (y) = 0.87115 0.15950
# Poissons Ratio (z) = 0.13510 0.03794
#
# Static dielectric constant tensor:
#      x y z
#    x 3.291760 0.000000 0.000000 
#    y 0.000000 2.798080 0.000000 
#    z 0.000000 0.000000 3.439670 
# 
# 
# High freq. dielectric constant tensor:
#      x y z
#    x 1.708250 0.000000 0.000000 
#    y 0.000000 1.618350 0.000000 
#    z 0.000000 0.000000 1.722400 
# 
# From -- ./inp_files/3134.got.cif
#   From: 2010.03.12/outbox.cif.g09.slc.cpg/sg20_2_cif.got.tgz:3134.got - 2010.04.14 01:38:04.
