data_PCOD8158324
_publ_section_title
;
Structure prediction by ZEFSAII (Michael W. Deem and Ramdas Pophale) SiO2 
 PCOD8158324
Probable space group: C 2 2 21
;
_chemical_formula_sum "Si O2"
_cell_formula_units_Z 56
_cell_length_a 5.133436
_cell_length_b 35.161380
_cell_length_c 15.537626
_cell_angle_alpha 90.000000
_cell_angle_beta 90.000000
_cell_angle_gamma 90.000000
_cell_volume 2804.521199
_symmetry_space_group_name_H-M "C 2 2 21"
_symmetry_group_IT_number 20
_symmetry_cell_setting 'orthorhombic'
loop_
_space_group_symop_operation_xyz
x,y,z
-x,-y,1/2+z
x,-y,-z
-x,y,1/2-z
1/2+x,1/2+y,z
1/2-x,1/2-y,1/2+z
1/2+x,1/2-y,-z
1/2-x,1/2+y,1/2-z
loop_
_atom_site_type_symbol
_atom_site_label
_atom_site_fract_x
_atom_site_fract_y
_atom_site_fract_z
Si Si1 0.500000 0.586842 0.750000
Si Si2 0.500000 0.963169 0.250000
Si Si3 0.581615 0.837863 0.452060
Si Si4 0.939607 0.115385 0.930034
Si Si5 0.971085 0.041864 0.039894
Si Si6 0.749492 0.280014 0.194546
Si Si7 0.472002 0.018439 0.093882
Si Si8 0.915181 0.266552 0.542072
O O1 0.751821 0.562007 0.727660
O O2 0.546982 0.613294 0.832580
O O3 0.424404 0.987563 0.166973
O O4 0.840064 0.860823 0.481409
O O5 0.657417 0.813409 0.368474
O O6 0.498453 0.810474 0.530809
O O7 0.344161 0.865904 0.431429
O O8 0.920050 0.072980 0.967215
O O9 0.237523 0.049079 0.092603
O O10 0.737847 0.041959 0.109825
O O11 0.019781 0.000000 0.000000
O O12 0.500000 0.293859 0.250000
O O13 0.659861 0.242934 0.140291
O O14 0.000000 0.267908 0.250000
O O15 0.520804 0.000000 0.000000
O O16 0.662074 0.259780 0.482337
#
# Coordination Sequence:
#
# PCOD8158324 Si02
#       8
#     4   4   8   8   8   8   8   8
#     4  12  24  36  50  84 130 154 195 228 309 402
#     4  12  22  38  60  86 116 152 197 270 321 372
#     4  11  24  39  58  88 132 165 203 240 309 385
#     4  12  24  38  58  88 123 173 197 247 318 374
#     4  10  20  37  57  79 111 151 212 253 290 350
#     4  11  22  37  64  94 127 162 204 254 307 362
#     4  10  19  34  57  81 108 144 193 258 309 353
#     4  10  20  40  60  89 121 165 210 251 282 364
#
# _framework density 19.967759000000001
#
# number of rings (size 3 to 8) (size 9 to 14) (size 15 to 20)
#    0.000    1.143    0.000   10.286    3.000    0.000 
#    0.000    0.000    0.000    0.000   18.571    0.000 
#    0.000    0.000    0.000    0.000    0.000    0.000 
#
# Total GULP energy -347098.884839 kJ/mol
# GULP energy per Si atom -12396.388744 kJ/mol
# Density = 1.992231 g / cm^3
# Si number density = 19.967759 Si / 1000 Ang^3
#
#
#
# Elastic Constant Matrix: (Units=GPa)
#
#
# Indices 1 2 3 4 5 6 
#
# 1 162.5358 29.6226 20.9130 0.0000 0.0000 0.0000
# 2 29.6226 95.1137 37.8330 0.0000 0.0000 0.0000
# 3 20.9130 37.8330 52.6796 0.0000 0.0000 0.0000
# 4 0.0000 0.0000 0.0000 26.9495 0.0000 0.0000
# 5 0.0000 0.0000 0.0000 0.0000 30.5685 0.0000
# 6 0.0000 0.0000 0.0000 0.0000 0.0000 31.8981
#
#
#
# Elastic Compliance Matrix: (Units=1/GPa)
#
#
# Indices 1 2 3 4 5 6 
#
# 1 0.006618 -0.001423 -0.001606 0.000000 0.000000 0.000000
# 2 -0.001423 0.015024 -0.010225 0.000000 0.000000 0.000000
# 3 -0.001606 -0.010225 0.026963 0.000000 0.000000 0.000000
# 4 0.000000 0.000000 0.000000 0.037106 0.000000 0.000000
# 5 0.000000 0.000000 0.000000 0.000000 0.032713 0.000000
# 6 0.000000 0.000000 0.000000 0.000000 0.000000 0.031350
#
#
# Mechanical properties :
#
#
# Convention : Reuss Voigt Hill
#
# Bulk Modulus (GPa) = 45.25073 54.11849 49.68461
# Shear Modulus (GPa) = 27.22592 32.68059 29.95326
#
# Velocity S-wave (km/s) = 3.69656 4.04996 3.87729
# Velocity P-wave (km/s) = 6.39769 7.00224 6.70678
#
# Compressibility (1/GPa) = 0.02209909
#
# Stress axis : x y z
#
# Youngs Moduli (GPa) = 151.09480 66.56045 37.08721
#
# Poissons Ratio (x) = 0.09468 0.05955
# Poissons Ratio (y) = 0.21494 0.37922
# Poissons Ratio (z) = 0.24262 0.68058
#
# Static dielectric constant tensor:
#      x y z
#    x 4.656330 0.000000 0.000000 
#    y 0.000000 3.480170 0.000000 
#    z 0.000000 0.000000 3.407890 
# 
# 
# High freq. dielectric constant tensor:
#      x y z
#    x 1.823600 0.000000 0.000000 
#    y 0.000000 1.755850 0.000000 
#    z 0.000000 0.000000 1.745800 
# 
# From -- ./inp_files/17991.got.cif
#   From: 2010.03.12/outbox.cif.g09.slc.cpg/sg20_9_cif.got.tgz:17991.got - 2010.04.14 01:38:04.
