data_PCOD8158957
_publ_section_title
;
Structure prediction by ZEFSAII (Michael W. Deem and Ramdas Pophale) SiO2 
 PCOD8158957
Probable space group: C 2 2 21
;
_chemical_formula_sum "Si O2"
_cell_formula_units_Z 64
_cell_length_a 12.130515
_cell_length_b 16.892126
_cell_length_c 14.362963
_cell_angle_alpha 90.000000
_cell_angle_beta 90.000000
_cell_angle_gamma 90.000000
_cell_volume 2943.117446
_symmetry_space_group_name_H-M "C 2 2 21"
_symmetry_group_IT_number 20
_symmetry_cell_setting 'orthorhombic'
loop_
_space_group_symop_operation_xyz
x,y,z
-x,-y,1/2+z
x,-y,-z
-x,y,1/2-z
1/2+x,1/2+y,z
1/2-x,1/2-y,1/2+z
1/2+x,1/2-y,-z
1/2-x,1/2+y,1/2-z
loop_
_atom_site_type_symbol
_atom_site_label
_atom_site_fract_x
_atom_site_fract_y
_atom_site_fract_z
Si Si1 0.455167 0.569026 0.570640
Si Si2 0.872355 0.414316 0.756459
Si Si3 0.258934 0.769180 0.834297
Si Si4 0.307868 0.851347 0.561568
Si Si5 0.063285 0.770530 0.963211
Si Si6 0.739998 0.934983 0.311171
Si Si7 0.851143 0.272043 0.144995
Si Si8 0.689684 0.398370 0.385620
O O1 0.420952 0.500000 0.500000
O O2 0.472585 0.653765 0.522179
O O3 0.365201 0.569393 0.652127
O O4 0.575915 0.551807 0.613345
O O5 0.851500 0.333070 0.810533
O O6 0.823890 0.406490 0.651724
O O7 0.815551 0.479548 0.823515
O O8 0.000000 0.434111 0.750000
O O9 0.179427 0.795482 0.917538
O O10 0.175294 0.753243 0.749688
O O11 0.332070 0.694323 0.864596
O O12 0.420748 0.808522 0.526968
O O13 0.226923 0.777216 0.577066
O O14 0.257130 0.908334 0.481986
O O15 0.975865 0.748093 0.883140
O O16 0.670639 0.866621 0.363460
O O17 0.736092 0.928033 0.199445
#
# Coordination Sequence:
#
# PCOD8158957 Si02
#       8
#     8   8   8   8   8   8   8   8
#     4  12  25  39  66 103 137 172 216 277 352 404
#     4  11  26  43  67  94 137 179 229 279 347 411
#     4   9  22  40  67  95 128 174 225 276 322 400
#     4  10  22  41  66 100 124 178 234 277 319 418
#     4  11  21  39  68  98 131 171 227 271 332 399
#     4  11  25  45  63  96 140 173 221 285 347 405
#     4  10  20  40  67  96 130 170 223 273 335 403
#     4  10  23  42  70  93 133 178 225 277 335 407
#
# _framework density 21.745650000000001
#
# number of rings (size 3 to 8) (size 9 to 14) (size 15 to 20)
#    0.000    1.500    2.500    1.500    3.500    3.000 
#    2.250    2.500    0.000    0.000    0.000    0.000 
#    0.000    0.000    0.000    0.000    0.000    0.000 
#
# Total GULP energy -396722.332791 kJ/mol
# GULP energy per Si atom -12397.572900 kJ/mol
# Density = 2.169616 g / cm^3
# Si number density = 21.745650 Si / 1000 Ang^3
#
#
#
# Elastic Constant Matrix: (Units=GPa)
#
#
# Indices 1 2 3 4 5 6 
#
# 1 87.8186 26.9422 19.3028 0.0000 0.0000 0.0000
# 2 26.9422 79.3891 14.2075 0.0000 0.0000 0.0000
# 3 19.3028 14.2075 77.8788 0.0000 0.0000 0.0000
# 4 0.0000 0.0000 0.0000 32.9158 0.0000 0.0000
# 5 0.0000 0.0000 0.0000 0.0000 33.2625 0.0000
# 6 0.0000 0.0000 0.0000 0.0000 0.0000 32.6473
#
#
#
# Elastic Compliance Matrix: (Units=1/GPa)
#
#
# Indices 1 2 3 4 5 6 
#
# 1 0.013177 -0.004018 -0.002533 0.000000 0.000000 0.000000
# 2 -0.004018 0.014247 -0.001603 0.000000 0.000000 0.000000
# 3 -0.002533 -0.001603 0.013761 0.000000 0.000000 0.000000
# 4 0.000000 0.000000 0.000000 0.030381 0.000000 0.000000
# 5 0.000000 0.000000 0.000000 0.000000 0.030064 0.000000
# 6 0.000000 0.000000 0.000000 0.000000 0.000000 0.030630
#
#
# Mechanical properties :
#
#
# Convention : Reuss Voigt Hill
#
# Bulk Modulus (GPa) = 40.20028 40.66573 40.43300
# Shear Modulus (GPa) = 31.87566 32.07407 31.97487
#
# Velocity S-wave (km/s) = 3.83278 3.84469 3.83874
# Velocity P-wave (km/s) = 6.17363 6.20082 6.18724
#
# Compressibility (1/GPa) = 0.02487545
#
# Stress axis : x y z
#
# Youngs Moduli (GPa) = 75.89167 70.19113 72.67078
#
# Poissons Ratio (x) = 0.28206 0.18406
# Poissons Ratio (y) = 0.30497 0.11650
# Poissons Ratio (z) = 0.19222 0.11252
#
# Static dielectric constant tensor:
#      x y z
#    x 3.685550 0.000000 0.000000 
#    y 0.000000 3.927250 0.000000 
#    z 0.000000 0.000000 3.997960 
# 
# 
# High freq. dielectric constant tensor:
#      x y z
#    x 1.845830 0.000000 0.000000 
#    y 0.000000 1.849300 0.000000 
#    z 0.000000 0.000000 1.863140 
# 
# From -- ./inp_files/20267.got.cif
#   From: 2010.03.12/outbox.cif.g09.slc.cpg/sg20_11_cif.got.tgz:20267.got - 2010.04.14 01:38:04.
