data_PCOD8158289
_publ_section_title
;
Structure prediction by ZEFSAII (Michael W. Deem and Ramdas Pophale) SiO2 
 PCOD8158289
Probable space group: C 2 2 21
;
_chemical_formula_sum "Si O2"
_cell_formula_units_Z 64
_cell_length_a 8.270490
_cell_length_b 16.525129
_cell_length_c 23.361788
_cell_angle_alpha 90.000000
_cell_angle_beta 90.000000
_cell_angle_gamma 90.000000
_cell_volume 3192.876922
_symmetry_space_group_name_H-M "C 2 2 21"
_symmetry_group_IT_number 20
_symmetry_cell_setting 'orthorhombic'
loop_
_space_group_symop_operation_xyz
x,y,z
-x,-y,1/2+z
x,-y,-z
-x,y,1/2-z
1/2+x,1/2+y,z
1/2-x,1/2-y,1/2+z
1/2+x,1/2-y,-z
1/2-x,1/2+y,1/2-z
loop_
_atom_site_type_symbol
_atom_site_label
_atom_site_fract_x
_atom_site_fract_y
_atom_site_fract_z
Si Si1 0.685826 0.571287 0.758923
Si Si2 0.098124 0.833745 0.140200
Si Si3 0.658307 0.244387 0.927394
Si Si4 0.213228 0.232517 0.447750
Si Si5 0.682449 0.387754 0.743667
Si Si6 0.826444 0.588869 0.376131
Si Si7 0.235388 0.910428 0.367541
Si Si8 0.886488 0.680538 0.161341
O O1 0.500000 0.591167 0.750000
O O2 0.726913 0.625994 0.814765
O O3 0.710559 0.476494 0.771052
O O4 0.779446 0.595614 0.700565
O O5 0.202853 0.806827 0.085688
O O6 0.957670 0.897674 0.121936
O O7 0.008259 0.755858 0.166697
O O8 0.476460 0.271707 0.936543
O O9 0.658962 0.155091 0.900513
O O10 0.746017 0.306794 0.885096
O O11 0.759500 0.245637 0.985571
O O12 0.288874 0.146442 0.429812
O O13 0.500000 0.357155 0.750000
O O14 0.713478 0.384771 0.676439
O O15 0.805447 0.329084 0.776520
O O16 0.789196 0.496719 0.392980
O O17 0.013344 0.600532 0.357189
#
# Coordination Sequence:
#
# PCOD8158289 Si02
#       8
#     8   8   8   8   8   8   8   8
#     4   8  16  32  55  81 113 146 177 216 271 334
#     4   9  19  36  59  83 113 151 185 226 282 343
#     4  11  23  40  58  80 110 146 192 242 286 336
#     4  11  23  40  59  81 110 148 191 238 287 339
#     4  10  19  33  55  85 116 147 185 231 279 336
#     4  10  21  37  58  84 114 151 186 226 285 344
#     4   9  19  36  58  85 114 147 185 227 277 336
#     4  10  21  36  57  83 114 150 189 234 282 338
#
# _framework density 20.044619000000001
#
# number of rings (size 3 to 8) (size 9 to 14) (size 15 to 20)
#    0.000    2.250    0.000    4.125    0.000   10.500 
#    0.000    3.125    0.000    8.250    0.000    0.000 
#    0.000    0.000    0.000    0.000    0.000    0.000 
#
# Total GULP energy -396760.330260 kJ/mol
# GULP energy per Si atom -12398.760321 kJ/mol
# Density = 1.999900 g / cm^3
# Si number density = 20.044619 Si / 1000 Ang^3
#
#
#
# Elastic Constant Matrix: (Units=GPa)
#
#
# Indices 1 2 3 4 5 6 
#
# 1 71.4409 9.6545 -11.8892 0.0000 0.0000 0.0000
# 2 9.6545 63.2181 6.6121 0.0000 0.0000 0.0000
# 3 -11.8892 6.6121 38.1517 0.0000 0.0000 0.0000
# 4 0.0000 0.0000 0.0000 21.7685 0.0000 0.0000
# 5 0.0000 0.0000 0.0000 0.0000 33.5424 0.0000
# 6 0.0000 0.0000 0.0000 0.0000 0.0000 31.6054
#
#
#
# Elastic Compliance Matrix: (Units=1/GPa)
#
#
# Indices 1 2 3 4 5 6 
#
# 1 0.015261 -0.002880 0.005255 0.000000 0.000000 0.000000
# 2 -0.002880 0.016654 -0.003784 0.000000 0.000000 0.000000
# 3 0.005255 -0.003784 0.028505 0.000000 0.000000 0.000000
# 4 0.000000 0.000000 0.000000 0.045938 0.000000 0.000000
# 5 0.000000 0.000000 0.000000 0.000000 0.029813 0.000000
# 6 0.000000 0.000000 0.000000 0.000000 0.000000 0.031640
#
#
# Mechanical properties :
#
#
# Convention : Reuss Voigt Hill
#
# Bulk Modulus (GPa) = 17.36064 20.17394 18.76729
# Shear Modulus (GPa) = 26.33942 28.61216 27.47579
#
# Velocity S-wave (km/s) = 3.62890 3.78222 3.70636
# Velocity P-wave (km/s) = 5.12234 5.40000 5.26300
#
# Compressibility (1/GPa) = 0.05760157
#
# Stress axis : x y z
#
# Youngs Moduli (GPa) = 65.52495 60.04600 35.08213
#
# Poissons Ratio (x) = 0.17295 -0.18436
# Poissons Ratio (y) = 0.18873 0.13275
# Poissons Ratio (z) = -0.34434 0.22721
#
# Static dielectric constant tensor:
#      x y z
#    x 3.598220 0.000000 0.000000 
#    y 0.000000 3.736670 0.000000 
#    z 0.000000 0.000000 3.721110 
# 
# 
# High freq. dielectric constant tensor:
#      x y z
#    x 1.774710 0.000000 0.000000 
#    y 0.000000 1.775760 0.000000 
#    z 0.000000 0.000000 1.776230 
# 
# From -- ./inp_files/26889.got.cif
#   From: 2010.03.12/outbox.cif.g09.slc.cpg/sg20_14_cif.got.tgz:26889.got - 2010.04.14 01:38:04.
