data_PCOD8158273
_publ_section_title
;
Structure prediction by ZEFSAII (Michael W. Deem and Ramdas Pophale) SiO2 
 PCOD8158273
Probable space group: C 2 2 21
;
_chemical_formula_sum "Si O2"
_cell_formula_units_Z 48
_cell_length_a 29.292011
_cell_length_b 9.114619
_cell_length_c 9.956161
_cell_angle_alpha 90.000000
_cell_angle_beta 90.000000
_cell_angle_gamma 90.000000
_cell_volume 2658.150822
_symmetry_space_group_name_H-M "C 2 2 21"
_symmetry_group_IT_number 20
_symmetry_cell_setting 'orthorhombic'
loop_
_space_group_symop_operation_xyz
x,y,z
-x,-y,1/2+z
x,-y,-z
-x,y,1/2-z
1/2+x,1/2+y,z
1/2-x,1/2-y,1/2+z
1/2+x,1/2-y,-z
1/2-x,1/2+y,1/2-z
loop_
_atom_site_type_symbol
_atom_site_label
_atom_site_fract_x
_atom_site_fract_y
_atom_site_fract_z
Si Si1 0.271303 0.000000 0.500000
Si Si2 0.099456 0.831654 0.475741
Si Si3 0.024131 0.344448 0.377830
Si Si4 0.052589 0.500000 0.000000
Si Si5 0.412523 0.913782 0.777750
Si Si6 0.687793 0.996747 0.708154
Si Si7 0.298508 0.237867 0.998065
O O1 0.302382 0.999993 0.633307
O O2 0.240535 0.857300 0.503345
O O3 0.066044 0.753240 0.578975
O O4 0.089488 0.757585 0.327998
O O5 0.152138 0.812948 0.513019
O O6 0.086584 0.000000 0.500000
O O7 0.044330 0.508274 0.348035
O O8 0.000000 0.270809 0.250000
O O9 0.980692 0.361748 0.474471
O O10 0.084381 0.437234 0.881875
O O11 0.366240 0.995184 0.822290
O O12 0.708251 0.851916 0.636600
O O13 0.708712 0.137881 0.633869
#
# Coordination Sequence:
#
# PCOD8158273 Si02
#       7
#     4   8   8   4   8   8   8
#     4  12  21  36  56  88 108 142 182 234 285 326
#     4  11  20  36  56  79 111 153 185 222 282 344
#     4  10  19  34  55  81 109 143 188 234 272 322
#     4  10  19  32  58  88 106 134 192 248 267 312
#     4  10  19  35  58  81 109 142 189 231 277 328
#     4  10  21  36  59  80 112 146 185 228 273 336
#     4  10  21  37  56  82 110 145 186 228 273 332
#
# _framework density 18.057666000000001
#
# number of rings (size 3 to 8) (size 9 to 14) (size 15 to 20)
#    0.000    1.667    4.167    1.500    0.000    0.000 
#    3.000    0.000    0.000    0.000    0.000    0.000 
#    0.000    0.000    0.000    0.000    0.000    0.000 
#
# Total GULP energy -297322.798261 kJ/mol
# GULP energy per Si atom -12388.449928 kJ/mol
# Density = 1.801657 g / cm^3
# Si number density = 18.057666 Si / 1000 Ang^3
#
#
#
# Elastic Constant Matrix: (Units=GPa)
#
#
# Indices 1 2 3 4 5 6 
#
# 1 58.0805 16.6749 24.4883 0.0000 0.0000 0.0000
# 2 16.6749 93.4024 40.7938 0.0000 0.0000 0.0000
# 3 24.4883 40.7938 113.5337 0.0000 0.0000 0.0000
# 4 0.0000 0.0000 0.0000 19.2196 0.0000 0.0000
# 5 0.0000 0.0000 0.0000 0.0000 35.2847 0.0000
# 6 0.0000 0.0000 0.0000 0.0000 0.0000 49.9337
#
#
#
# Elastic Compliance Matrix: (Units=1/GPa)
#
#
# Indices 1 2 3 4 5 6 
#
# 1 0.019227 -0.001923 -0.003456 0.000000 0.000000 0.000000
# 2 -0.001923 0.012892 -0.004217 0.000000 0.000000 0.000000
# 3 -0.003456 -0.004217 0.011069 0.000000 0.000000 0.000000
# 4 0.000000 0.000000 0.000000 0.052030 0.000000 0.000000
# 5 0.000000 0.000000 0.000000 0.000000 0.028341 0.000000
# 6 0.000000 0.000000 0.000000 0.000000 0.000000 0.020027
#
#
# Mechanical properties :
#
#
# Convention : Reuss Voigt Hill
#
# Bulk Modulus (GPa) = 41.67669 47.65897 44.66783
# Shear Modulus (GPa) = 29.27815 33.09157 31.18486
#
# Velocity S-wave (km/s) = 4.03099 4.28547 4.16018
# Velocity P-wave (km/s) = 6.69291 7.13702 6.91853
#
# Compressibility (1/GPa) = 0.02399423
#
# Stress axis : x y z
#
# Youngs Moduli (GPa) = 52.01076 77.56985 90.34463
#
# Poissons Ratio (x) = 0.14917 0.31224
# Poissons Ratio (y) = 0.10002 0.38101
# Poissons Ratio (z) = 0.17975 0.32714
#
# Static dielectric constant tensor:
#      x y z
#    x 3.300590 0.000000 0.000000 
#    y 0.000000 3.196860 0.000000 
#    z 0.000000 0.000000 3.441430 
# 
# 
# High freq. dielectric constant tensor:
#      x y z
#    x 1.709270 0.000000 0.000000 
#    y 0.000000 1.675470 0.000000 
#    z 0.000000 0.000000 1.703360 
# 
# From -- ./inp_files/16984.got.cif
#   From: 2010.03.12/outbox.cif.g09.slc.cpg/sg20_9_cif.got.tgz:16984.got - 2010.04.14 01:38:04.
