data_PCOD8158747
_publ_section_title
;
Structure prediction by ZEFSAII (Michael W. Deem and Ramdas Pophale) SiO2 
 PCOD8158747
Probable space group: C 2 2 21
;
_chemical_formula_sum "Si O2"
_cell_formula_units_Z 48
_cell_length_a 12.104451
_cell_length_b 17.093274
_cell_length_c 10.960727
_cell_angle_alpha 90.000000
_cell_angle_beta 90.000000
_cell_angle_gamma 90.000000
_cell_volume 2267.825905
_symmetry_space_group_name_H-M "C 2 2 21"
_symmetry_group_IT_number 20
_symmetry_cell_setting 'orthorhombic'
loop_
_space_group_symop_operation_xyz
x,y,z
-x,-y,1/2+z
x,-y,-z
-x,y,1/2-z
1/2+x,1/2+y,z
1/2-x,1/2-y,1/2+z
1/2+x,1/2-y,-z
1/2-x,1/2+y,1/2-z
loop_
_atom_site_type_symbol
_atom_site_label
_atom_site_fract_x
_atom_site_fract_y
_atom_site_fract_z
Si Si1 0.378498 0.542299 0.758891
Si Si2 0.654990 0.374865 0.022413
Si Si3 0.448635 0.620458 0.137219
Si Si4 0.653486 0.814560 0.638481
Si Si5 0.219660 0.845832 0.442690
Si Si6 0.406276 0.199261 0.407384
O O1 0.500000 0.582656 0.750000
O O2 0.318109 0.562490 0.630351
O O3 0.390850 0.451356 0.790269
O O4 0.309517 0.575692 0.872119
O O5 0.627553 0.290366 0.080708
O O6 0.547703 0.407545 0.951150
O O7 0.761472 0.371437 0.932514
O O8 0.500000 0.672439 0.250000
O O9 0.357373 0.667455 0.062554
O O10 0.703708 0.727764 0.644740
O O11 0.633404 0.837575 0.778713
O O12 0.535826 0.812881 0.569773
O O13 0.345789 0.850421 0.487364
#
# Coordination Sequence:
#
# PCOD8158747 Si02
#       6
#     8   8   8   8   8   8
#     4  11  21  36  59  84 124 163 196 255 318 362
#     4  11  21  37  57  90 127 161 208 254 316 376
#     4  11  23  34  56  91 119 154 207 253 303 369
#     4  10  20  37  59  85 123 165 198 253 313 373
#     4  11  20  35  56  88 120 158 204 246 309 375
#     4  10  20  37  61  86 123 164 202 255 312 380
#
# _framework density 21.165644
#
# number of rings (size 3 to 8) (size 9 to 14) (size 15 to 20)
#    0.000    1.333    5.000    1.500    2.333    0.000 
#    0.000    0.833    0.000    0.000   43.333    0.000 
#    0.000    0.000    0.000    0.000    0.000    0.000 
#
# Total GULP energy -297455.523857 kJ/mol
# GULP energy per Si atom -12393.980161 kJ/mol
# Density = 2.111747 g / cm^3
# Si number density = 21.165644 Si / 1000 Ang^3
#
#
#
# Elastic Constant Matrix: (Units=GPa)
#
#
# Indices 1 2 3 4 5 6 
#
# 1 112.3652 13.9628 24.0617 0.0000 0.0000 0.0000
# 2 13.9628 36.7063 14.8659 0.0000 0.0000 0.0000
# 3 24.0617 14.8659 80.9581 0.0000 0.0000 0.0000
# 4 0.0000 0.0000 0.0000 26.8260 0.0000 0.0000
# 5 0.0000 0.0000 0.0000 0.0000 43.8656 0.0000
# 6 0.0000 0.0000 0.0000 0.0000 0.0000 26.6605
#
#
#
# Elastic Compliance Matrix: (Units=1/GPa)
#
#
# Indices 1 2 3 4 5 6 
#
# 1 0.009753 -0.002740 -0.002396 0.000000 0.000000 0.000000
# 2 -0.002740 0.030202 -0.004732 0.000000 0.000000 0.000000
# 3 -0.002396 -0.004732 0.013933 0.000000 0.000000 0.000000
# 4 0.000000 0.000000 0.000000 0.037277 0.000000 0.000000
# 5 0.000000 0.000000 0.000000 0.000000 0.022797 0.000000
# 6 0.000000 0.000000 0.000000 0.000000 0.000000 0.037509
#
#
# Mechanical properties :
#
#
# Convention : Reuss Voigt Hill
#
# Bulk Modulus (GPa) = 29.27927 37.31227 33.29577
# Shear Modulus (GPa) = 27.38395 31.27970 29.33183
#
# Velocity S-wave (km/s) = 3.60083 3.84846 3.72670
# Velocity P-wave (km/s) = 5.58135 6.11673 5.85516
#
# Compressibility (1/GPa) = 0.03415386
#
# Stress axis : x y z
#
# Youngs Moduli (GPa) = 102.53257 33.11072 71.77255
#
# Poissons Ratio (x) = 0.09071 0.17194
# Poissons Ratio (y) = 0.28091 0.33959
# Poissons Ratio (z) = 0.24563 0.15666
#
# Static dielectric constant tensor:
#      x y z
#    x 3.926420 0.000000 0.000000 
#    y 0.000000 3.329130 0.000000 
#    z 0.000000 0.000000 4.131980 
# 
# 
# High freq. dielectric constant tensor:
#      x y z
#    x 1.818690 0.000000 0.000000 
#    y 0.000000 1.782150 0.000000 
#    z 0.000000 0.000000 1.851070 
# 
# From -- ./inp_files/14253.got.cif
#   From: 2010.03.12/outbox.cif.g09.slc.cpg/sg20_8_cif.got.tgz:14253.got - 2010.04.14 01:38:04.
