data_PCOD8158677
_publ_section_title
;
Structure prediction by ZEFSAII (Michael W. Deem and Ramdas Pophale) SiO2 
 PCOD8158677
Probable space group: C 2 2 21
;
_chemical_formula_sum "Si O2"
_cell_formula_units_Z 48
_cell_length_a 10.343647
_cell_length_b 16.031994
_cell_length_c 13.722059
_cell_angle_alpha 90.000000
_cell_angle_beta 90.000000
_cell_angle_gamma 90.000000
_cell_volume 2275.519255
_symmetry_space_group_name_H-M "C 2 2 21"
_symmetry_group_IT_number 20
_symmetry_cell_setting 'orthorhombic'
loop_
_space_group_symop_operation_xyz
x,y,z
-x,-y,1/2+z
x,-y,-z
-x,y,1/2-z
1/2+x,1/2+y,z
1/2-x,1/2-y,1/2+z
1/2+x,1/2-y,-z
1/2-x,1/2+y,1/2-z
loop_
_atom_site_type_symbol
_atom_site_label
_atom_site_fract_x
_atom_site_fract_y
_atom_site_fract_z
Si Si1 0.555372 0.500000 0.000000
Si Si2 0.393121 0.906937 0.490801
Si Si3 0.608823 0.616825 0.169480
Si Si4 0.215957 0.682828 0.172557
Si Si5 0.362795 0.369172 0.088938
Si Si6 0.000000 0.788512 0.250000
Si Si7 0.055126 0.252561 0.432287
O O1 0.635974 0.456254 0.911286
O O2 0.464652 0.567051 0.952064
O O3 0.311219 0.884286 0.588067
O O4 0.282218 0.905143 0.408158
O O5 0.508635 0.845721 0.458502
O O6 0.451618 0.000000 0.500000
O O7 0.500000 0.590266 0.250000
O O8 0.742584 0.635838 0.227085
O O9 0.564818 0.698762 0.109275
O O10 0.080781 0.730514 0.177563
O O11 0.330458 0.748950 0.148054
O O12 0.396221 0.347724 0.199182
O O13 0.378402 0.283809 0.028711
#
# Coordination Sequence:
#
# PCOD8158677 Si02
#       7
#     4   8   8   8   8   4   8
#     4  10  20  36  58  98 134 168 220 280 336 390
#     4  11  21  38  67  93 131 173 211 272 333 392
#     4   9  19  36  63  91 131 173 222 279 332 399
#     4  10  22  39  65  93 126 172 225 269 322 398
#     4  10  21  35  61  93 123 163 218 262 323 387
#     4  12  22  38  68  90 122 170 224 270 310 406
#     4   9  19  40  61  86 126 172 211 260 332 395
#
# _framework density 21.094086999999998
#
# number of rings (size 3 to 8) (size 9 to 14) (size 15 to 20)
#    0.000    2.000    2.500    2.000    1.167    0.000 
#    0.000    0.000   16.500    0.000    0.000    0.000 
#    0.000    0.000    0.000    0.000    0.000    0.000 
#
# Total GULP energy -297431.668138 kJ/mol
# GULP energy per Si atom -12392.986172 kJ/mol
# Density = 2.104608 g / cm^3
# Si number density = 21.094087 Si / 1000 Ang^3
#
#
#
# Elastic Constant Matrix: (Units=GPa)
#
#
# Indices 1 2 3 4 5 6 
#
# 1 63.4614 41.9599 15.2206 0.0000 0.0000 0.0000
# 2 41.9599 131.4924 45.2842 0.0000 0.0000 0.0000
# 3 15.2206 45.2842 75.6180 0.0000 0.0000 0.0000
# 4 0.0000 0.0000 0.0000 33.2069 0.0000 0.0000
# 5 0.0000 0.0000 0.0000 0.0000 30.0491 0.0000
# 6 0.0000 0.0000 0.0000 0.0000 0.0000 28.1929
#
#
#
# Elastic Compliance Matrix: (Units=1/GPa)
#
#
# Indices 1 2 3 4 5 6 
#
# 1 0.019975 -0.006286 -0.000256 0.000000 0.000000 0.000000
# 2 -0.006286 0.011559 -0.005657 0.000000 0.000000 0.000000
# 3 -0.000256 -0.005657 0.016664 0.000000 0.000000 0.000000
# 4 0.000000 0.000000 0.000000 0.030114 0.000000 0.000000
# 5 0.000000 0.000000 0.000000 0.000000 0.033279 0.000000
# 6 0.000000 0.000000 0.000000 0.000000 0.000000 0.035470
#
#
# Mechanical properties :
#
#
# Convention : Reuss Voigt Hill
#
# Bulk Modulus (GPa) = 42.01758 52.83348 47.42553
# Shear Modulus (GPa) = 27.87185 29.49693 28.68439
#
# Velocity S-wave (km/s) = 3.63893 3.74351 3.69159
# Velocity P-wave (km/s) = 6.13336 6.61711 6.37982
#
# Compressibility (1/GPa) = 0.02379956
#
# Stress axis : x y z
#
# Youngs Moduli (GPa) = 50.06194 86.51236 60.01091
#
# Poissons Ratio (x) = 0.54381 0.01538
# Poissons Ratio (y) = 0.31469 0.33948
# Poissons Ratio (z) = 0.01283 0.48939
#
# Static dielectric constant tensor:
#      x y z
#    x 3.587150 0.000000 0.000000 
#    y 0.000000 3.646700 0.000000 
#    z 0.000000 0.000000 4.066540 
# 
# 
# High freq. dielectric constant tensor:
#      x y z
#    x 1.803950 0.000000 0.000000 
#    y 0.000000 1.808820 0.000000 
#    z 0.000000 0.000000 1.832110 
# 
# From -- ./inp_files/15749.got.cif
#   From: 2010.03.12/outbox.cif.g09.slc.cpg/sg20_8_cif.got.tgz:15749.got - 2010.04.14 01:38:04.
