data_PCOD8158358
_publ_section_title
;
Structure prediction by ZEFSAII (Michael W. Deem and Ramdas Pophale) SiO2 
 PCOD8158358
Probable space group: C 2 2 21
;
_chemical_formula_sum "Si O2"
_cell_formula_units_Z 52
_cell_length_a 9.136235
_cell_length_b 18.919599
_cell_length_c 14.222054
_cell_angle_alpha 90.000000
_cell_angle_beta 90.000000
_cell_angle_gamma 90.000000
_cell_volume 2458.337536
_symmetry_space_group_name_H-M "C 2 2 21"
_symmetry_group_IT_number 20
_symmetry_cell_setting 'orthorhombic'
loop_
_space_group_symop_operation_xyz
x,y,z
-x,-y,1/2+z
x,-y,-z
-x,y,1/2-z
1/2+x,1/2+y,z
1/2-x,1/2-y,1/2+z
1/2+x,1/2-y,-z
1/2-x,1/2+y,1/2-z
loop_
_atom_site_type_symbol
_atom_site_label
_atom_site_fract_x
_atom_site_fract_y
_atom_site_fract_z
Si Si1 0.183006 0.608087 0.918993
Si Si2 0.619258 0.128506 0.521090
Si Si3 0.808434 0.656116 0.779125
Si Si4 0.000000 0.212424 0.250000
Si Si5 0.500000 0.292588 0.250000
Si Si6 0.896986 0.000000 0.000000
Si Si7 0.081468 0.777564 0.448064
Si Si8 0.909795 0.879313 0.572398
O O1 0.120480 0.616570 0.812021
O O2 0.295135 0.543721 0.928717
O O3 0.264166 0.681388 0.944170
O O4 0.044764 0.596204 0.990104
O O5 0.668664 0.110701 0.626997
O O6 0.606115 0.212847 0.516444
O O7 0.737239 0.100984 0.444044
O O8 0.635824 0.655419 0.762626
O O9 0.869770 0.736831 0.786867
O O10 0.936411 0.160727 0.330072
O O11 0.529658 0.247840 0.345286
O O12 0.995477 0.950759 0.932765
O O13 0.954058 0.828181 0.486686
#
# Coordination Sequence:
#
# PCOD8158358 Si02
#       8
#     8   8   8   4   4   4   8   8
#     4  10  22  39  63  90 131 176 217 269 328 390
#     4  12  20  36  67  99 129 166 217 281 340 399
#     4  11  20  35  64 104 132 161 214 274 344 397
#     4  12  22  42  65 102 139 170 206 292 352 396
#     4  10  20  30  53  94 129 170 202 238 320 414
#     4  10  26  48  60  84 132 186 232 274 318 390
#     4  10  19  35  58  96 131 166 204 275 334 391
#     4  11  23  41  63  91 133 177 224 265 334 395
#
# _framework density 21.152508000000001
#
# number of rings (size 3 to 8) (size 9 to 14) (size 15 to 20)
#    0.000    1.231    4.615    2.769    0.000    0.615 
#    2.769    0.000    3.385    0.000    0.000    0.000 
#    0.000    0.000    0.000    0.000    0.000    0.000 
#
# Total GULP energy -322244.937928 kJ/mol
# GULP energy per Si atom -12394.036074 kJ/mol
# Density = 2.110436 g / cm^3
# Si number density = 21.152508 Si / 1000 Ang^3
#
#
#
# Elastic Constant Matrix: (Units=GPa)
#
#
# Indices 1 2 3 4 5 6 
#
# 1 142.7236 29.9924 36.0233 0.0000 0.0000 0.0000
# 2 29.9924 76.8245 18.9043 0.0000 0.0000 0.0000
# 3 36.0233 18.9043 96.4494 0.0000 0.0000 0.0000
# 4 0.0000 0.0000 0.0000 16.2646 0.0000 0.0000
# 5 0.0000 0.0000 0.0000 0.0000 27.1779 0.0000
# 6 0.0000 0.0000 0.0000 0.0000 0.0000 15.2983
#
#
#
# Elastic Compliance Matrix: (Units=1/GPa)
#
#
# Indices 1 2 3 4 5 6 
#
# 1 0.008192 -0.002569 -0.002556 0.000000 0.000000 0.000000
# 2 -0.002569 0.014482 -0.001879 0.000000 0.000000 0.000000
# 3 -0.002556 -0.001879 0.011691 0.000000 0.000000 0.000000
# 4 0.000000 0.000000 0.000000 0.061483 0.000000 0.000000
# 5 0.000000 0.000000 0.000000 0.000000 0.036795 0.000000
# 6 0.000000 0.000000 0.000000 0.000000 0.000000 0.065367
#
#
# Mechanical properties :
#
#
# Convention : Reuss Voigt Hill
#
# Bulk Modulus (GPa) = 49.12404 53.98194 51.55299
# Shear Modulus (GPa) = 22.85165 27.15334 25.00249
#
# Velocity S-wave (km/s) = 3.29040 3.58675 3.44177
# Velocity P-wave (km/s) = 6.14083 6.53673 6.34187
#
# Compressibility (1/GPa) = 0.02035663
#
# Stress axis : x y z
#
# Youngs Moduli (GPa) = 122.07726 69.05119 85.53555
#
# Poissons Ratio (x) = 0.17740 0.21862
# Poissons Ratio (y) = 0.31362 0.16072
# Poissons Ratio (z) = 0.31202 0.12975
#
# Static dielectric constant tensor:
#      x y z
#    x 4.138870 0.000000 0.000000 
#    y 0.000000 3.380930 0.000000 
#    z 0.000000 0.000000 3.891840 
# 
# 
# High freq. dielectric constant tensor:
#      x y z
#    x 1.855650 0.000000 0.000000 
#    y 0.000000 1.775950 0.000000 
#    z 0.000000 0.000000 1.826770 
# 
# From -- ./inp_files/19149.got.cif
#   From: 2010.03.12/outbox.cif.g09.slc.cpg/sg20_10_cif.got.tgz:19149.got - 2010.04.14 01:38:04.
