data_PCOD8158801
_publ_section_title
;
Structure prediction by ZEFSAII (Michael W. Deem and Ramdas Pophale) SiO2 
 PCOD8158801
Probable space group: C 2 2 21
;
_chemical_formula_sum "Si O2"
_cell_formula_units_Z 48
_cell_length_a 29.805939
_cell_length_b 5.445524
_cell_length_c 13.907144
_cell_angle_alpha 90.000000
_cell_angle_beta 90.000000
_cell_angle_gamma 90.000000
_cell_volume 2257.254026
_symmetry_space_group_name_H-M "C 2 2 21"
_symmetry_group_IT_number 20
_symmetry_cell_setting 'orthorhombic'
loop_
_space_group_symop_operation_xyz
x,y,z
-x,-y,1/2+z
x,-y,-z
-x,y,1/2-z
1/2+x,1/2+y,z
1/2-x,1/2-y,1/2+z
1/2+x,1/2-y,-z
1/2-x,1/2+y,1/2-z
loop_
_atom_site_type_symbol
_atom_site_label
_atom_site_fract_x
_atom_site_fract_y
_atom_site_fract_z
Si Si1 0.096585 0.000000 0.000000
Si Si2 0.500000 0.896845 0.250000
Si Si3 0.138237 0.657462 0.859085
Si Si4 0.339021 0.258225 0.942295
Si Si5 0.777613 0.704464 0.756321
Si Si6 0.082538 0.116520 0.312526
Si Si7 0.070852 0.269127 0.826614
O O1 0.128990 0.780915 0.962532
O O2 0.063176 0.074254 0.912456
O O3 0.533687 0.740113 0.316382
O O4 0.471159 0.048327 0.327619
O O5 0.190943 0.657729 0.836282
O O6 0.112167 0.801999 0.776997
O O7 0.118902 0.383098 0.855459
O O8 0.305738 0.215163 0.854241
O O9 0.389645 0.331914 0.909107
O O10 0.321516 0.500000 0.000000
O O11 0.340830 0.000000 0.000000
O O12 0.745400 0.468185 0.761171
O O13 0.073974 0.831591 0.283834
#
# Coordination Sequence:
#
# PCOD8158801 Si02
#       7
#     4   4   8   8   8   8   8
#     4  10  20  38  60 100 118 174 214 278 324 406
#     4  10  20  38  62  92 124 174 222 274 330 404
#     4   9  21  38  65  88 128 168 217 259 335 401
#     4  11  25  45  70  99 137 180 229 282 336 410
#     4  11  25  45  71 101 135 179 219 276 346 408
#     4   9  21  38  65  88 125 178 219 270 331 401
#     4  10  20  38  65  89 129 172 220 273 339 398
#
# _framework density 21.264776999999999
#
# number of rings (size 3 to 8) (size 9 to 14) (size 15 to 20)
#    0.000    2.000    0.000    2.000   14.000    0.000 
#    4.500    6.667    7.333    0.000    0.000    0.000 
#    0.000    0.000    0.000    0.000    0.000    0.000 
#
# Total GULP energy -297324.663511 kJ/mol
# GULP energy per Si atom -12388.527646 kJ/mol
# Density = 2.121638 g / cm^3
# Si number density = 21.264777 Si / 1000 Ang^3
#
#
#
# Elastic Constant Matrix: (Units=GPa)
#
#
# Indices 1 2 3 4 5 6 
#
# 1 120.6786 46.2429 40.1996 0.0000 0.0000 0.0000
# 2 46.2429 139.0818 49.0454 0.0000 0.0000 0.0000
# 3 40.1996 49.0454 92.7264 0.0000 0.0000 0.0000
# 4 0.0000 0.0000 0.0000 35.0393 0.0000 0.0000
# 5 0.0000 0.0000 0.0000 0.0000 22.8301 0.0000
# 6 0.0000 0.0000 0.0000 0.0000 0.0000 26.2691
#
#
#
# Elastic Compliance Matrix: (Units=1/GPa)
#
#
# Indices 1 2 3 4 5 6 
#
# 1 0.010232 -0.002259 -0.003241 0.000000 0.000000 0.000000
# 2 -0.002259 0.009337 -0.003959 0.000000 0.000000 0.000000
# 3 -0.003241 -0.003959 0.014284 0.000000 0.000000 0.000000
# 4 0.000000 0.000000 0.000000 0.028539 0.000000 0.000000
# 5 0.000000 0.000000 0.000000 0.000000 0.043802 0.000000
# 6 0.000000 0.000000 0.000000 0.000000 0.000000 0.038067
#
#
# Mechanical properties :
#
#
# Convention : Reuss Voigt Hill
#
# Bulk Modulus (GPa) = 66.96106 69.27365 68.11735
# Shear Modulus (GPa) = 29.73395 31.29431 30.51413
#
# Velocity S-wave (km/s) = 3.74340 3.84037 3.79220
# Velocity P-wave (km/s) = 7.08813 7.23271 7.16079
#
# Compressibility (1/GPa) = 0.01493405
#
# Stress axis : x y z
#
# Youngs Moduli (GPa) = 97.73551 107.09678 70.01005
#
# Poissons Ratio (x) = 0.24194 0.22689
# Poissons Ratio (y) = 0.22079 0.27720
# Poissons Ratio (z) = 0.31675 0.42404
#
# Static dielectric constant tensor:
#      x y z
#    x 3.934950 0.000000 0.000000 
#    y 0.000000 4.361300 0.000000 
#    z 0.000000 0.000000 3.830280 
# 
# 
# High freq. dielectric constant tensor:
#      x y z
#    x 1.823470 0.000000 0.000000 
#    y 0.000000 1.852130 0.000000 
#    z 0.000000 0.000000 1.821530 
# 
# From -- ./inp_files/22168.got.cif
#   From: 2010.03.12/outbox.cif.g09.slc.cpg/sg20_12_cif.got.tgz:22168.got - 2010.04.14 01:38:04.
