data_PCOD8158326
_publ_section_title
;
Structure prediction by ZEFSAII (Michael W. Deem and Ramdas Pophale) SiO2 
 PCOD8158326
Probable space group: C 2 2 21
;
_chemical_formula_sum "Si O2"
_cell_formula_units_Z 32
_cell_length_a 8.027892
_cell_length_b 35.318941
_cell_length_c 5.236253
_cell_angle_alpha 90.000000
_cell_angle_beta 90.000000
_cell_angle_gamma 90.000000
_cell_volume 1484.669602
_symmetry_space_group_name_H-M "C 2 2 21"
_symmetry_group_IT_number 20
_symmetry_cell_setting 'orthorhombic'
loop_
_space_group_symop_operation_xyz
x,y,z
-x,-y,1/2+z
x,-y,-z
-x,y,1/2-z
1/2+x,1/2+y,z
1/2-x,1/2-y,1/2+z
1/2+x,1/2-y,-z
1/2-x,1/2+y,1/2-z
loop_
_atom_site_type_symbol
_atom_site_label
_atom_site_fract_x
_atom_site_fract_y
_atom_site_fract_z
Si Si1 0.668533 0.456173 0.497958
Si Si2 0.390684 0.149976 0.993105
Si Si3 0.821831 0.733821 0.863613
Si Si4 0.803249 0.924191 0.503846
O O1 0.617731 0.500000 0.500000
O O2 0.501948 0.430524 0.500773
O O3 0.773976 0.444336 0.248164
O O4 0.774793 0.445457 0.748904
O O5 0.500000 0.152038 0.250000
O O6 0.500000 0.137840 0.750000
O O7 0.304168 0.190027 0.939141
O O8 0.241730 0.119929 0.021076
O O9 0.698121 0.742528 0.626630
O O10 0.000000 0.744510 0.750000
#
# Coordination Sequence:
#
# PCOD8158326 Si02
#       4
#     8   8   8   8
#     4  10  19  35  60  85 120 155 191 261 317 349
#     4  11  23  41  63  83 124 165 199 247 312 367
#     4  11  23  44  67  94 126 170 212 263 324 388
#     4  10  19  34  57  85 112 150 204 234 301 363
#
# _framework density 21.553615000000001
#
# number of rings (size 3 to 8) (size 9 to 14) (size 15 to 20)
#    0.000    1.500    0.000    9.000    0.000    0.000 
#   13.500    0.000    0.000   25.500    0.000    0.000 
#    0.000    0.000    0.000    0.000    0.000    0.000 
#
# Total GULP energy -198270.992718 kJ/mol
# GULP energy per Si atom -12391.937045 kJ/mol
# Density = 2.150456 g / cm^3
# Si number density = 21.553615 Si / 1000 Ang^3
#
#
#
# Elastic Constant Matrix: (Units=GPa)
#
#
# Indices 1 2 3 4 5 6 
#
# 1 44.9514 70.9555 29.2810 0.0000 0.0000 0.0000
# 2 70.9555 193.0987 89.7936 0.0000 0.0000 0.0000
# 3 29.2810 89.7936 247.5020 0.0000 0.0000 0.0000
# 4 0.0000 0.0000 0.0000 36.1901 0.0000 0.0000
# 5 0.0000 0.0000 0.0000 0.0000 25.9071 0.0000
# 6 0.0000 0.0000 0.0000 0.0000 0.0000 22.5218
#
#
#
# Elastic Compliance Matrix: (Units=1/GPa)
#
#
# Indices 1 2 3 4 5 6 
#
# 1 0.053160 -0.019980 0.000960 0.000000 0.000000 0.000000
# 2 -0.019980 0.013739 -0.002621 0.000000 0.000000 0.000000
# 3 0.000960 -0.002621 0.004878 0.000000 0.000000 0.000000
# 4 0.000000 0.000000 0.000000 0.027632 0.000000 0.000000
# 5 0.000000 0.000000 0.000000 0.000000 0.038600 0.000000
# 6 0.000000 0.000000 0.000000 0.000000 0.000000 0.044401
#
#
# Mechanical properties :
#
#
# Convention : Reuss Voigt Hill
#
# Bulk Modulus (GPa) = 35.09507 96.17916 65.63712
# Shear Modulus (GPa) = 21.25937 36.62525 28.94231
#
# Velocity S-wave (km/s) = 3.14403 4.12668 3.66841
# Velocity P-wave (km/s) = 5.43120 8.21134 6.96147
#
# Compressibility (1/GPa) = 0.02849403
#
# Stress axis : x y z
#
# Youngs Moduli (GPa) = 18.81120 72.78390 205.01592
#
# Poissons Ratio (x) = 1.45424 -0.19675
# Poissons Ratio (y) = 0.37585 0.53731
# Poissons Ratio (z) = -0.01805 0.19075
#
# Static dielectric constant tensor:
#      x y z
#    x 3.344620 0.000000 0.000000 
#    y 0.000000 3.813760 0.000000 
#    z 0.000000 0.000000 6.921870 
# 
# 
# High freq. dielectric constant tensor:
#      x y z
#    x 1.794850 0.000000 0.000000 
#    y 0.000000 1.845240 0.000000 
#    z 0.000000 0.000000 1.897840 
# 
# From -- ./inp_files/677.got.cif
#   From: 2010.03.12/outbox.cif.g09.slc.cpg/sg20_1_cif.got.tgz:677.got - 2010.04.14 01:38:04.
