data_PCOD8158923
_publ_section_title
;
Structure prediction by ZEFSAII (Michael W. Deem and Ramdas Pophale) SiO2 
 PCOD8158923
Probable space group: C 2 2 21
;
_chemical_formula_sum "Si O2"
_cell_formula_units_Z 48
_cell_length_a 9.025131
_cell_length_b 25.258703
_cell_length_c 10.732054
_cell_angle_alpha 90.000000
_cell_angle_beta 90.000000
_cell_angle_gamma 90.000000
_cell_volume 2446.512336
_symmetry_space_group_name_H-M "C 2 2 21"
_symmetry_group_IT_number 20
_symmetry_cell_setting 'orthorhombic'
loop_
_space_group_symop_operation_xyz
x,y,z
-x,-y,1/2+z
x,-y,-z
-x,y,1/2-z
1/2+x,1/2+y,z
1/2-x,1/2-y,1/2+z
1/2+x,1/2-y,-z
1/2-x,1/2+y,1/2-z
loop_
_atom_site_type_symbol
_atom_site_label
_atom_site_fract_x
_atom_site_fract_y
_atom_site_fract_z
Si Si1 0.000000 0.863168 0.750000
Si Si2 0.500000 0.048832 0.750000
Si Si3 0.500000 0.152840 0.250000
Si Si4 0.174518 0.310414 0.101629
Si Si5 0.241708 0.807590 0.908280
Si Si6 0.847563 0.647921 0.853727
Si Si7 0.750809 0.604635 0.413830
Si Si8 0.124149 0.500000 0.000000
O O1 0.107846 0.824245 0.822076
O O2 0.099031 0.900674 0.663175
O O3 0.369027 0.088087 0.800325
O O4 0.465633 0.011845 0.629251
O O5 0.601059 0.190146 0.336730
O O6 0.395044 0.114529 0.329433
O O7 0.208122 0.252156 0.049676
O O8 0.226669 0.316588 0.245035
O O9 0.002107 0.326763 0.099231
O O10 0.268808 0.348622 0.013174
O O11 0.241535 0.847800 0.026501
O O12 0.770133 0.549700 0.483303
#
# Coordination Sequence:
#
# PCOD8158923 Si02
#       8
#     4   4   4   8   8   8   8   4
#     4  10  26  41  56  92 128 166 207 254 318 382
#     4  10  21  39  68 108 120 158 216 290 316 374
#     4  10  21  38  60  94 118 160 215 250 298 382
#     4  10  21  35  60  90 124 156 202 251 310 374
#     4  11  22  37  64  86 131 171 200 253 315 383
#     4  10  20  40  58  94 129 156 208 268 305 382
#     4  11  22  41  60  88 123 158 208 259 307 376
#     4  12  20  40  70  90 126 164 212 272 342 364
#
# _framework density 19.619767
#
# number of rings (size 3 to 8) (size 9 to 14) (size 15 to 20)
#    0.000    1.667    5.000    1.500    7.000    1.333 
#    0.000    1.667    0.000    2.000    0.000    0.000 
#    0.000    0.000    0.000    0.000    0.000    0.000 
#
# Total GULP energy -297439.405243 kJ/mol
# GULP energy per Si atom -12393.308552 kJ/mol
# Density = 1.957511 g / cm^3
# Si number density = 19.619767 Si / 1000 Ang^3
#
#
#
# Elastic Constant Matrix: (Units=GPa)
#
#
# Indices 1 2 3 4 5 6 
#
# 1 72.4629 5.8404 35.4200 0.0000 0.0000 0.0000
# 2 5.8404 83.8736 32.3940 0.0000 0.0000 0.0000
# 3 35.4200 32.3940 137.6078 0.0000 0.0000 0.0000
# 4 0.0000 0.0000 0.0000 38.0440 0.0000 0.0000
# 5 0.0000 0.0000 0.0000 0.0000 15.6465 0.0000
# 6 0.0000 0.0000 0.0000 0.0000 0.0000 14.2587
#
#
#
# Elastic Compliance Matrix: (Units=1/GPa)
#
#
# Indices 1 2 3 4 5 6 
#
# 1 0.015807 0.000518 -0.004191 0.000000 0.000000 0.000000
# 2 0.000518 0.013132 -0.003225 0.000000 0.000000 0.000000
# 3 -0.004191 -0.003225 0.009105 0.000000 0.000000 0.000000
# 4 0.000000 0.000000 0.000000 0.026285 0.000000 0.000000
# 5 0.000000 0.000000 0.000000 0.000000 0.063912 0.000000
# 6 0.000000 0.000000 0.000000 0.000000 0.000000 0.070133
#
#
# Mechanical properties :
#
#
# Convention : Reuss Voigt Hill
#
# Bulk Modulus (GPa) = 41.23912 49.02812 45.13362
# Shear Modulus (GPa) = 22.70132 28.27583 25.48857
#
# Velocity S-wave (km/s) = 3.40525 3.80042 3.60825
# Velocity P-wave (km/s) = 6.04366 6.65590 6.35715
#
# Compressibility (1/GPa) = 0.02424882
#
# Stress axis : x y z
#
# Youngs Moduli (GPa) = 63.26406 76.14933 109.83239
#
# Poissons Ratio (x) = -0.03943 0.46026
# Poissons Ratio (y) = -0.03276 0.35417
# Poissons Ratio (z) = 0.26511 0.24556
#
# Static dielectric constant tensor:
#      x y z
#    x 3.395600 0.000000 0.000000 
#    y 0.000000 3.416010 0.000000 
#    z 0.000000 0.000000 4.060770 
# 
# 
# High freq. dielectric constant tensor:
#      x y z
#    x 1.732410 0.000000 0.000000 
#    y 0.000000 1.752060 0.000000 
#    z 0.000000 0.000000 1.791610 
# 
# From -- ./inp_files/13163.got.cif
#   From: 2010.03.12/outbox.cif.g09.slc.cpg/sg20_7_cif.got.tgz:13163.got - 2010.04.14 01:38:04.
