data_PCOD8158291
_publ_section_title
;
Structure prediction by ZEFSAII (Michael W. Deem and Ramdas Pophale) SiO2 
 PCOD8158291
Probable space group: C 2 2 21
;
_chemical_formula_sum "Si O2"
_cell_formula_units_Z 64
_cell_length_a 8.375423
_cell_length_b 16.735825
_cell_length_c 23.712418
_cell_angle_alpha 90.000000
_cell_angle_beta 90.000000
_cell_angle_gamma 90.000000
_cell_volume 3323.760469
_symmetry_space_group_name_H-M "C 2 2 21"
_symmetry_group_IT_number 20
_symmetry_cell_setting 'orthorhombic'
loop_
_space_group_symop_operation_xyz
x,y,z
-x,-y,1/2+z
x,-y,-z
-x,y,1/2-z
1/2+x,1/2+y,z
1/2-x,1/2-y,1/2+z
1/2+x,1/2-y,-z
1/2-x,1/2+y,1/2-z
loop_
_atom_site_type_symbol
_atom_site_label
_atom_site_fract_x
_atom_site_fract_y
_atom_site_fract_z
Si Si1 0.446102 0.910417 0.621529
Si Si2 0.356701 0.326096 0.884611
Si Si3 0.083501 0.186970 0.504623
Si Si4 0.057077 0.356981 0.003285
Si Si5 0.861951 0.826140 0.393483
Si Si6 0.567911 0.777434 0.189553
Si Si7 0.068501 0.734387 0.311180
Si Si8 0.055870 0.417655 0.383571
O O1 0.259119 0.896224 0.639125
O O2 0.450166 0.906175 0.554155
O O3 0.557523 0.844146 0.650207
O O4 0.511499 0.995989 0.641758
O O5 0.240244 0.253967 0.905975
O O6 0.474884 0.299584 0.835267
O O7 0.451598 0.350596 0.941991
O O8 0.265201 0.168937 0.521988
O O9 0.059563 0.281737 0.502428
O O10 0.964383 0.149550 0.551279
O O11 0.988358 0.415172 0.050841
O O12 0.745021 0.899079 0.376570
O O13 0.976318 0.808450 0.340223
O O14 0.500000 0.800592 0.250000
O O15 0.750052 0.756878 0.195983
O O16 0.548743 0.852305 0.148788
O O17 0.000000 0.715356 0.250000
#
# Coordination Sequence:
#
# PCOD8158291 Si02
#       8
#     8   8   8   8   8   8   8   8
#     4  10  22  38  57  83 119 154 187 231 297 352
#     4   9  19  34  56  85 112 149 194 239 275 348
#     4  11  16  31  57  86 112 147 197 236 281 331
#     4  11  19  32  57  86 117 151 191 238 284 344
#     4  10  19  33  56  87 114 147 197 237 276 349
#     4  11  22  38  62  86 109 146 198 248 287 339
#     4  11  22  39  62  84 110 148 196 247 288 339
#     4  11  22  37  57  85 120 154 188 234 293 350
#
# _framework density 19.255299000000001
#
# number of rings (size 3 to 8) (size 9 to 14) (size 15 to 20)
#    0.000    1.500    6.250    3.375    0.000    1.500 
#    0.000    2.500    0.000    7.500    0.000    0.000 
#    0.000    0.000    0.000    0.000    0.000    0.000 
#
# Total GULP energy -396755.224065 kJ/mol
# GULP energy per Si atom -12398.600752 kJ/mol
# Density = 1.921147 g / cm^3
# Si number density = 19.255299 Si / 1000 Ang^3
#
#
#
# Elastic Constant Matrix: (Units=GPa)
#
#
# Indices 1 2 3 4 5 6 
#
# 1 121.6086 50.5355 40.2553 0.0000 0.0000 0.0000
# 2 50.5355 89.6415 19.0127 0.0000 0.0000 0.0000
# 3 40.2553 19.0127 91.4102 0.0000 0.0000 0.0000
# 4 0.0000 0.0000 0.0000 7.0488 0.0000 0.0000
# 5 0.0000 0.0000 0.0000 0.0000 37.3910 0.0000
# 6 0.0000 0.0000 0.0000 0.0000 0.0000 25.5632
#
#
#
# Elastic Compliance Matrix: (Units=1/GPa)
#
#
# Indices 1 2 3 4 5 6 
#
# 1 0.012029 -0.005919 -0.004066 0.000000 0.000000 0.000000
# 2 -0.005919 0.014583 -0.000427 0.000000 0.000000 0.000000
# 3 -0.004066 -0.000427 0.012819 0.000000 0.000000 0.000000
# 4 0.000000 0.000000 0.000000 0.141867 0.000000 0.000000
# 5 0.000000 0.000000 0.000000 0.000000 0.026744 0.000000
# 6 0.000000 0.000000 0.000000 0.000000 0.000000 0.039119
#
#
# Mechanical properties :
#
#
# Convention : Reuss Voigt Hill
#
# Bulk Modulus (GPa) = 53.74178 58.02969 55.88574
# Shear Modulus (GPa) = 18.23578 26.85774 22.54676
#
# Velocity S-wave (km/s) = 3.08076 3.73879 3.42561
# Velocity P-wave (km/s) = 6.37381 6.98859 6.68827
#
# Compressibility (1/GPa) = 0.01860750
#
# Stress axis : x y z
#
# Youngs Moduli (GPa) = 83.13463 68.57423 78.00877
#
# Poissons Ratio (x) = 0.40587 0.31719
# Poissons Ratio (y) = 0.49205 0.03328
# Poissons Ratio (z) = 0.33804 0.02925
#
# Static dielectric constant tensor:
#      x y z
#    x 3.748230 0.000000 0.000000 
#    y 0.000000 3.208360 0.000000 
#    z 0.000000 0.000000 3.637910 
# 
# 
# High freq. dielectric constant tensor:
#      x y z
#    x 1.756700 0.000000 0.000000 
#    y 0.000000 1.704910 0.000000 
#    z 0.000000 0.000000 1.755750 
# 
# From -- ./inp_files/28955.got.cif
#   From: 2010.03.12/outbox.cif.g09.slc.cpg/sg20_15_cif.got.tgz:28955.got - 2010.04.14 01:38:04.
