data_PCOD8158746
_publ_section_title
;
Structure prediction by ZEFSAII (Michael W. Deem and Ramdas Pophale) SiO2 
 PCOD8158746
Probable space group: C 2 2 21
;
_chemical_formula_sum "Si O2"
_cell_formula_units_Z 64
_cell_length_a 8.656678
_cell_length_b 10.803388
_cell_length_c 33.356479
_cell_angle_alpha 90.000000
_cell_angle_beta 90.000000
_cell_angle_gamma 90.000000
_cell_volume 3119.546324
_symmetry_space_group_name_H-M "C 2 2 21"
_symmetry_group_IT_number 20
_symmetry_cell_setting 'orthorhombic'
loop_
_space_group_symop_operation_xyz
x,y,z
-x,-y,1/2+z
x,-y,-z
-x,y,1/2-z
1/2+x,1/2+y,z
1/2-x,1/2-y,1/2+z
1/2+x,1/2-y,-z
1/2-x,1/2+y,1/2-z
loop_
_atom_site_type_symbol
_atom_site_label
_atom_site_fract_x
_atom_site_fract_y
_atom_site_fract_z
Si Si1 0.026898 0.007356 0.603882
Si Si2 0.457707 0.867470 0.482351
Si Si3 0.205047 0.405228 0.156285
Si Si4 0.794743 0.144874 0.655468
Si Si5 0.591916 0.624141 0.522736
Si Si6 0.939743 0.488960 0.208412
Si Si7 0.977197 0.270619 0.101365
Si Si8 0.058384 0.232836 0.708019
O O1 0.180692 0.009243 0.630880
O O2 0.043466 0.108332 0.568914
O O3 0.876425 0.036419 0.630230
O O4 0.008417 0.870098 0.585966
O O5 0.514058 0.751206 0.508441
O O6 0.274092 0.861440 0.481778
O O7 0.527057 0.858742 0.437552
O O8 0.514210 0.000000 0.500000
O O9 0.294183 0.342008 0.192958
O O10 0.072977 0.491393 0.174807
O O11 0.125817 0.301450 0.128387
O O12 0.705404 0.088347 0.693232
O O13 0.680471 0.218331 0.626320
O O14 0.925202 0.233888 0.673979
O O15 0.534183 0.500000 0.500000
O O16 0.884916 0.628340 0.216220
O O17 0.000000 0.429273 0.250000
O O18 0.000000 0.173768 0.750000
#
# Coordination Sequence:
#
# PCOD8158746 Si02
#       8
#     8   8   8   8   8   8   8   8
#     4  11  22  39  63  86 120 160 196 248 299 356
#     4  11  26  43  63  92 121 159 204 252 306 368
#     4  10  21  38  57  87 119 155 194 246 298 350
#     4  10  23  36  58  93 116 155 200 244 294 355
#     4  11  24  44  64  88 122 160 202 246 307 364
#     4  10  20  37  59  83 118 157 194 241 292 349
#     4  11  22  41  61  87 124 157 200 249 299 357
#     4  10  20  37  59  86 118 155 198 243 291 352
#
# _framework density 20.515805
#
# number of rings (size 3 to 8) (size 9 to 14) (size 15 to 20)
#    0.000    1.500    2.500    2.250    1.750    1.500 
#    9.000    0.000    0.000   12.000    0.000    0.000 
#    0.000    0.000    0.000    0.000    0.000    0.000 
#
# Total GULP energy -396857.768187 kJ/mol
# GULP energy per Si atom -12401.805256 kJ/mol
# Density = 2.046911 g / cm^3
# Si number density = 20.515805 Si / 1000 Ang^3
#
#
#
# Elastic Constant Matrix: (Units=GPa)
#
#
# Indices 1 2 3 4 5 6 
#
# 1 65.9210 18.1191 14.9992 0.0000 0.0000 0.0000
# 2 18.1191 107.7066 31.9545 0.0000 0.0000 0.0000
# 3 14.9992 31.9545 103.7860 0.0000 0.0000 0.0000
# 4 0.0000 0.0000 0.0000 31.7582 0.0000 0.0000
# 5 0.0000 0.0000 0.0000 0.0000 27.3966 0.0000
# 6 0.0000 0.0000 0.0000 0.0000 0.0000 17.9090
#
#
#
# Elastic Compliance Matrix: (Units=1/GPa)
#
#
# Indices 1 2 3 4 5 6 
#
# 1 0.016157 -0.002229 -0.001649 0.000000 0.000000 0.000000
# 2 -0.002229 0.010525 -0.002918 0.000000 0.000000 0.000000
# 3 -0.001649 -0.002918 0.010772 0.000000 0.000000 0.000000
# 4 0.000000 0.000000 0.000000 0.031488 0.000000 0.000000
# 5 0.000000 0.000000 0.000000 0.000000 0.036501 0.000000
# 6 0.000000 0.000000 0.000000 0.000000 0.000000 0.055838
#
#
# Mechanical properties :
#
#
# Convention : Reuss Voigt Hill
#
# Bulk Modulus (GPa) = 41.90702 45.28435 43.59568
# Shear Modulus (GPa) = 27.34810 29.56881 28.45846
#
# Velocity S-wave (km/s) = 3.65502 3.80052 3.72848
# Velocity P-wave (km/s) = 6.18735 6.43269 6.31121
#
# Compressibility (1/GPa) = 0.02386235
#
# Stress axis : x y z
#
# Youngs Moduli (GPa) = 61.89083 95.00906 92.83263
#
# Poissons Ratio (x) = 0.21177 0.15306
# Poissons Ratio (y) = 0.13795 0.27093
# Poissons Ratio (z) = 0.10205 0.27728
#
# Static dielectric constant tensor:
#      x y z
#    x 3.701960 0.000000 0.000000 
#    y 0.000000 3.490000 0.000000 
#    z 0.000000 0.000000 3.847740 
# 
# 
# High freq. dielectric constant tensor:
#      x y z
#    x 1.804920 0.000000 0.000000 
#    y 0.000000 1.791880 0.000000 
#    z 0.000000 0.000000 1.816560 
# 
# From -- ./inp_files/31062.got.cif
#   From: 2010.03.12/outbox.cif.g09.slc.cpg/sg20_16_cif.got.tgz:31062.got - 2010.04.14 01:38:04.
