data_PCOD8158394
_publ_section_title
;
Structure prediction by ZEFSAII (Michael W. Deem and Ramdas Pophale) SiO2 
 PCOD8158394
Probable space group: C 2 2 21
;
_chemical_formula_sum "Si O2"
_cell_formula_units_Z 52
_cell_length_a 10.441345
_cell_length_b 9.031856
_cell_length_c 27.978749
_cell_angle_alpha 90.000000
_cell_angle_beta 90.000000
_cell_angle_gamma 90.000000
_cell_volume 2638.528216
_symmetry_space_group_name_H-M "C 2 2 21"
_symmetry_group_IT_number 20
_symmetry_cell_setting 'orthorhombic'
loop_
_space_group_symop_operation_xyz
x,y,z
-x,-y,1/2+z
x,-y,-z
-x,y,1/2-z
1/2+x,1/2+y,z
1/2-x,1/2-y,1/2+z
1/2+x,1/2-y,-z
1/2-x,1/2+y,1/2-z
loop_
_atom_site_type_symbol
_atom_site_label
_atom_site_fract_x
_atom_site_fract_y
_atom_site_fract_z
Si Si1 0.053923 0.157634 0.987626
Si Si2 0.336407 0.264138 0.389642
Si Si3 0.360002 0.240404 0.730956
Si Si4 0.077401 0.330549 0.431361
Si Si5 0.291630 0.000000 0.000000
Si Si6 0.263835 0.964173 0.189738
Si Si7 0.045990 0.528713 0.847492
O O1 0.059498 0.196421 0.930934
O O2 0.979130 0.276191 0.018352
O O3 0.986315 0.000000 0.000000
O O4 0.202072 0.146727 0.005301
O O5 0.193153 0.230596 0.410263
O O6 0.323896 0.404668 0.353860
O O7 0.381596 0.120647 0.361122
O O8 0.500000 0.282291 0.750000
O O9 0.272339 0.170235 0.772393
O O10 0.297889 0.390412 0.712085
O O11 0.367471 0.115304 0.690260
O O12 0.132411 0.488899 0.449821
O O13 0.967983 0.360341 0.392672
O O14 0.405680 0.009582 0.172607
#
# Coordination Sequence:
#
# PCOD8158394 Si02
#       7
#     8   8   8   8   4   8   8
#     4   9  20  36  54  79 115 150 197 243 283 339
#     4  10  21  39  58  86 117 155 198 243 290 353
#     4  10  22  40  62  89 118 151 191 243 296 355
#     4  10  19  36  55  75 116 152 189 241 290 335
#     4   8  18  34  50  72 106 144 186 238 288 330
#     4  10  22  40  63  86 120 154 189 247 297 350
#     4  10  22  37  58  86 117 151 197 235 293 356
#
# _framework density 19.707958000000001
#
# number of rings (size 3 to 8) (size 9 to 14) (size 15 to 20)
#    0.462    1.846    0.000    1.846    2.154    1.231 
#    8.308    0.000    0.000    0.000    0.000    0.000 
#    0.000    0.000    0.000    0.000    0.000    0.000 
#
# Total GULP energy -322117.515259 kJ/mol
# GULP energy per Si atom -12389.135202 kJ/mol
# Density = 1.966310 g / cm^3
# Si number density = 19.707958 Si / 1000 Ang^3
#
#
#
# Elastic Constant Matrix: (Units=GPa)
#
#
# Indices 1 2 3 4 5 6 
#
# 1 59.1509 47.4717 49.3476 0.0000 0.0000 0.0000
# 2 47.4717 105.1725 65.7817 0.0000 0.0000 0.0000
# 3 49.3476 65.7817 138.2883 0.0000 0.0000 0.0000
# 4 0.0000 0.0000 0.0000 43.4842 0.0000 0.0000
# 5 0.0000 0.0000 0.0000 0.0000 37.3247 0.0000
# 6 0.0000 0.0000 0.0000 0.0000 0.0000 20.8222
#
#
#
# Elastic Compliance Matrix: (Units=1/GPa)
#
#
# Indices 1 2 3 4 5 6 
#
# 1 0.029633 -0.009625 -0.005996 0.000000 0.000000 0.000000
# 2 -0.009625 0.016662 -0.004491 0.000000 0.000000 0.000000
# 3 -0.005996 -0.004491 0.011507 0.000000 0.000000 0.000000
# 4 0.000000 0.000000 0.000000 0.022997 0.000000 0.000000
# 5 0.000000 0.000000 0.000000 0.000000 0.026792 0.000000
# 6 0.000000 0.000000 0.000000 0.000000 0.000000 0.048026
#
#
# Mechanical properties :
#
#
# Convention : Reuss Voigt Hill
#
# Bulk Modulus (GPa) = 56.89053 69.75708 63.32381
# Shear Modulus (GPa) = 24.78942 29.66025 27.22484
#
# Velocity S-wave (km/s) = 3.55045 3.88363 3.72077
# Velocity P-wave (km/s) = 6.76292 7.45535 7.11756
#
# Compressibility (1/GPa) = 0.01757762
#
# Stress axis : x y z
#
# Youngs Moduli (GPa) = 33.74661 60.01807 86.90271
#
# Poissons Ratio (x) = 0.57768 0.52104
# Poissons Ratio (y) = 0.32482 0.39028
# Poissons Ratio (z) = 0.20234 0.26954
#
# Static dielectric constant tensor:
#      x y z
#    x 3.484940 0.000000 0.000000 
#    y 0.000000 3.269200 0.000000 
#    z 0.000000 0.000000 3.868110 
# 
# 
# High freq. dielectric constant tensor:
#      x y z
#    x 1.754660 0.000000 0.000000 
#    y 0.000000 1.750650 0.000000 
#    z 0.000000 0.000000 1.788190 
# 
# From -- ./inp_files/30294.got.cif
#   From: 2010.03.12/outbox.cif.g09.slc.cpg/sg20_16_cif.got.tgz:30294.got - 2010.04.14 01:38:04.
