data_PCOD8158838
_publ_section_title
;
Structure prediction by ZEFSAII (Michael W. Deem and Ramdas Pophale) SiO2 
 PCOD8158838
Probable space group: C 2 2 21
;
_chemical_formula_sum "Si O2"
_cell_formula_units_Z 40
_cell_length_a 8.897401
_cell_length_b 14.324389
_cell_length_c 16.415605
_cell_angle_alpha 90.000000
_cell_angle_beta 90.000000
_cell_angle_gamma 90.000000
_cell_volume 2092.166116
_symmetry_space_group_name_H-M "C 2 2 21"
_symmetry_group_IT_number 20
_symmetry_cell_setting 'orthorhombic'
loop_
_space_group_symop_operation_xyz
x,y,z
-x,-y,1/2+z
x,-y,-z
-x,y,1/2-z
1/2+x,1/2+y,z
1/2-x,1/2-y,1/2+z
1/2+x,1/2-y,-z
1/2-x,1/2+y,1/2-z
loop_
_atom_site_type_symbol
_atom_site_label
_atom_site_fract_x
_atom_site_fract_y
_atom_site_fract_z
Si Si1 0.060491 0.000000 0.500000
Si Si2 0.303689 0.948953 0.615242
Si Si3 0.935295 0.500000 0.000000
Si Si4 0.676097 0.101442 0.760349
Si Si5 0.843884 0.736162 0.296507
Si Si6 0.191555 0.899511 0.096367
O O1 0.168200 0.068881 0.448035
O O2 0.961079 0.058489 0.562196
O O3 0.463262 0.951263 0.569003
O O4 0.303094 0.870564 0.685307
O O5 0.273893 0.048892 0.657897
O O6 0.829773 0.583401 0.965700
O O7 0.500000 0.091043 0.750000
O O8 0.722499 0.211731 0.762760
O O9 0.761675 0.053407 0.683093
O O10 0.841442 0.789995 0.384521
O O11 0.000000 0.743111 0.250000
#
# Coordination Sequence:
#
# PCOD8158838 Si02
#       6
#     4   8   4   8   8   8
#     4  10  22  38  58  88 122 156 194 252 308 354
#     4  11  21  37  64  88 116 162 199 245 305 356
#     4  10  20  38  64  82 120 162 196 246 306 358
#     4  10  20  41  60  83 122 156 202 248 291 355
#     4  10  22  37  60  89 117 157 205 245 295 354
#     4   9  21  40  58  85 121 159 193 249 302 350
#
# _framework density 19.118939999999998
#
# number of rings (size 3 to 8) (size 9 to 14) (size 15 to 20)
#    1.200    0.800    2.000    1.800    0.000    1.600 
#    3.600    0.000    0.000    0.000    0.000    0.000 
#    0.000    0.000    0.000    0.000    0.000    0.000 
#
# Total GULP energy -247776.420444 kJ/mol
# GULP energy per Si atom -12388.821022 kJ/mol
# Density = 1.907542 g / cm^3
# Si number density = 19.118940 Si / 1000 Ang^3
#
#
#
# Elastic Constant Matrix: (Units=GPa)
#
#
# Indices 1 2 3 4 5 6 
#
# 1 124.7423 35.7717 50.6588 0.0000 0.0000 0.0000
# 2 35.7717 88.7789 34.4054 0.0000 0.0000 0.0000
# 3 50.6588 34.4054 86.0027 0.0000 0.0000 0.0000
# 4 0.0000 0.0000 0.0000 34.9820 0.0000 0.0000
# 5 0.0000 0.0000 0.0000 0.0000 43.3510 0.0000
# 6 0.0000 0.0000 0.0000 0.0000 0.0000 14.2267
#
#
#
# Elastic Compliance Matrix: (Units=1/GPa)
#
#
# Indices 1 2 3 4 5 6 
#
# 1 0.010905 -0.002254 -0.005522 0.000000 0.000000 0.000000
# 2 -0.002254 0.013797 -0.004192 0.000000 0.000000 0.000000
# 3 -0.005522 -0.004192 0.016557 0.000000 0.000000 0.000000
# 4 0.000000 0.000000 0.000000 0.028586 0.000000 0.000000
# 5 0.000000 0.000000 0.000000 0.000000 0.023068 0.000000
# 6 0.000000 0.000000 0.000000 0.000000 0.000000 0.070290
#
#
# Mechanical properties :
#
#
# Convention : Reuss Voigt Hill
#
# Bulk Modulus (GPa) = 57.72419 60.13283 58.92851
# Shear Modulus (GPa) = 25.91844 30.42448 28.17146
#
# Velocity S-wave (km/s) = 3.68590 3.99347 3.84276
# Velocity P-wave (km/s) = 6.95501 7.26526 7.11183
#
# Compressibility (1/GPa) = 0.01732376
#
# Stress axis : x y z
#
# Youngs Moduli (GPa) = 91.69739 72.48164 60.39742
#
# Poissons Ratio (x) = 0.16338 0.33351
# Poissons Ratio (y) = 0.20670 0.25316
# Poissons Ratio (z) = 0.50635 0.30381
#
# Static dielectric constant tensor:
#      x y z
#    x 3.525250 0.000000 0.000000 
#    y 0.000000 3.212170 0.000000 
#    z 0.000000 0.000000 3.537560 
# 
# 
# High freq. dielectric constant tensor:
#      x y z
#    x 1.756530 0.000000 0.000000 
#    y 0.000000 1.709570 0.000000 
#    z 0.000000 0.000000 1.744970 
# 
# From -- ./inp_files/21169.got.cif
#   From: 2010.03.12/outbox.cif.g09.slc.cpg/sg20_11_cif.got.tgz:21169.got - 2010.04.14 01:38:04.
