data_PCOD8158791
_publ_section_title
;
Structure prediction by ZEFSAII (Michael W. Deem and Ramdas Pophale) SiO2 
 PCOD8158791
Probable space group: C 2 2 21
;
_chemical_formula_sum "Si O2"
_cell_formula_units_Z 40
_cell_length_a 21.688976
_cell_length_b 4.931987
_cell_length_c 18.308683
_cell_angle_alpha 90.000000
_cell_angle_beta 90.000000
_cell_angle_gamma 90.000000
_cell_volume 1958.475201
_symmetry_space_group_name_H-M "C 2 2 21"
_symmetry_group_IT_number 20
_symmetry_cell_setting 'orthorhombic'
loop_
_space_group_symop_operation_xyz
x,y,z
-x,-y,1/2+z
x,-y,-z
-x,y,1/2-z
1/2+x,1/2+y,z
1/2-x,1/2-y,1/2+z
1/2+x,1/2-y,-z
1/2-x,1/2+y,1/2-z
loop_
_atom_site_type_symbol
_atom_site_label
_atom_site_fract_x
_atom_site_fract_y
_atom_site_fract_z
Si Si1 0.700938 0.202220 0.819922
Si Si2 0.880374 0.244466 0.451225
Si Si3 0.540355 0.051671 0.323236
Si Si4 0.167675 0.790269 0.268051
Si Si5 0.490398 0.445743 0.914557
O O1 0.678742 0.225943 0.901519
O O2 0.774580 0.244385 0.823086
O O3 0.665602 0.403770 0.763331
O O4 0.682212 0.898414 0.800344
O O5 0.895555 0.500000 0.500000
O O6 0.941829 0.179133 0.406011
O O7 0.859889 0.000000 0.500000
O O8 0.500000 0.995566 0.250000
O O9 0.605321 0.196134 0.306632
O O10 0.505672 0.265198 0.374904
O O11 0.551872 0.772532 0.369707
O O12 0.471177 0.500000 0.000000
#
# Coordination Sequence:
#
# PCOD8158791 Si02
#       5
#     8   8   8   8   8
#     4  10  20  38  57  82 113 143 185 237 284 328
#     4  11  21  36  58  81 108 146 190 229 275 336
#     4  12  22  37  61  89 115 150 199 237 279 346
#     4  10  21  36  59  83 112 147 183 235 289 328
#     4  11  23  39  57  83 120 154 185 234 295 342
#
# _framework density 20.424053000000001
#
# number of rings (size 3 to 8) (size 9 to 14) (size 15 to 20)
#    0.000    1.200    0.000    8.400    0.000    0.000 
#    0.000    3.000    0.000    0.000    0.000    0.000 
#    0.000    0.000    0.000    0.000    0.000    0.000 
#
# Total GULP energy -247909.007266 kJ/mol
# GULP energy per Si atom -12395.450363 kJ/mol
# Density = 2.037757 g / cm^3
# Si number density = 20.424053 Si / 1000 Ang^3
#
#
#
# Elastic Constant Matrix: (Units=GPa)
#
#
# Indices 1 2 3 4 5 6 
#
# 1 81.8216 -3.7779 30.8333 0.0000 0.0000 0.0000
# 2 -3.7779 81.9262 20.5541 0.0000 0.0000 0.0000
# 3 30.8333 20.5541 90.7205 0.0000 0.0000 0.0000
# 4 0.0000 0.0000 0.0000 33.9953 0.0000 0.0000
# 5 0.0000 0.0000 0.0000 0.0000 30.2069 0.0000
# 6 0.0000 0.0000 0.0000 0.0000 0.0000 26.8223
#
#
#
# Elastic Compliance Matrix: (Units=1/GPa)
#
#
# Indices 1 2 3 4 5 6 
#
# 1 0.014318 0.001994 -0.005318 0.000000 0.000000 0.000000
# 2 0.001994 0.013220 -0.003673 0.000000 0.000000 0.000000
# 3 -0.005318 -0.003673 0.013663 0.000000 0.000000 0.000000
# 4 0.000000 0.000000 0.000000 0.029416 0.000000 0.000000
# 5 0.000000 0.000000 0.000000 0.000000 0.033105 0.000000
# 6 0.000000 0.000000 0.000000 0.000000 0.000000 0.037282
#
#
# Mechanical properties :
#
#
# Convention : Reuss Voigt Hill
#
# Bulk Modulus (GPa) = 36.75560 38.85416 37.80488
# Shear Modulus (GPa) = 30.47568 31.99549 31.23559
#
# Velocity S-wave (km/s) = 3.86702 3.96227 3.91494
# Velocity P-wave (km/s) = 6.16229 6.32438 6.24386
#
# Compressibility (1/GPa) = 0.02720674
#
# Stress axis : x y z
#
# Youngs Moduli (GPa) = 69.84283 75.64541 73.19294
#
# Poissons Ratio (x) = -0.15087 0.38925
# Poissons Ratio (y) = -0.13930 0.26884
# Poissons Ratio (z) = 0.37143 0.27784
#
# Static dielectric constant tensor:
#      x y z
#    x 3.712520 0.000000 0.000000 
#    y 0.000000 4.091800 0.000000 
#    z 0.000000 0.000000 3.654940 
# 
# 
# High freq. dielectric constant tensor:
#      x y z
#    x 1.787220 0.000000 0.000000 
#    y 0.000000 1.826480 0.000000 
#    z 0.000000 0.000000 1.790940 
# 
# From -- ./inp_files/17633.got.cif
#   From: 2010.03.12/outbox.cif.g09.slc.cpg/sg20_9_cif.got.tgz:17633.got - 2010.04.14 01:38:04.
