data_PCOD8158481
_publ_section_title
;
Structure prediction by ZEFSAII (Michael W. Deem and Ramdas Pophale) SiO2 
 PCOD8158481
Probable space group: C 2 2 21
;
_chemical_formula_sum "Si O2"
_cell_formula_units_Z 40
_cell_length_a 27.052647
_cell_length_b 12.924039
_cell_length_c 4.892611
_cell_angle_alpha 90.000000
_cell_angle_beta 90.000000
_cell_angle_gamma 90.000000
_cell_volume 1710.600966
_symmetry_space_group_name_H-M "C 2 2 21"
_symmetry_group_IT_number 20
_symmetry_cell_setting 'orthorhombic'
loop_
_space_group_symop_operation_xyz
x,y,z
-x,-y,1/2+z
x,-y,-z
-x,y,1/2-z
1/2+x,1/2+y,z
1/2-x,1/2-y,1/2+z
1/2+x,1/2-y,-z
1/2-x,1/2+y,1/2-z
loop_
_atom_site_type_symbol
_atom_site_label
_atom_site_fract_x
_atom_site_fract_y
_atom_site_fract_z
Si Si1 0.402453 0.930735 0.745868
Si Si2 0.802426 0.175524 0.245468
Si Si3 0.304812 0.816727 0.739287
Si Si4 0.054393 0.782439 0.347285
Si Si5 0.903522 0.107309 0.368029
O O1 0.349331 0.889457 0.645203
O O2 0.439566 0.841813 0.859009
O O3 0.425945 0.000000 0.500000
O O4 0.390199 0.000000 0.000000
O O5 0.748350 0.123325 0.202168
O O6 0.801202 0.216935 0.551522
O O7 0.848230 0.094314 0.241912
O O8 0.813823 0.271639 0.043342
O O9 0.061982 0.844719 0.630014
O O10 0.000000 0.812876 0.250000
O O11 0.095170 0.813391 0.120909
O O12 0.923147 0.000000 0.500000
#
# Coordination Sequence:
#
# PCOD8158481 Si02
#       5
#     8   8   8   8   8
#     4  12  24  41  69 100 135 179 228 275 339 414
#     4  10  19  38  65  95 136 179 222 269 340 408
#     4  10  20  37  64  96 137 182 218 271 334 410
#     4  12  27  48  69  97 138 177 229 297 355 406
#     4  12  24  44  73 102 133 177 231 284 351 420
#
# _framework density 23.383595
#
# number of rings (size 3 to 8) (size 9 to 14) (size 15 to 20)
#    0.000    0.800    4.000    3.600    0.000    3.200 
#    0.000    2.000    0.000    0.000    0.000    0.000 
#    0.000    0.000    0.000    0.000    0.000    0.000 
#
# Total GULP energy -247840.985167 kJ/mol
# GULP energy per Si atom -12392.049258 kJ/mol
# Density = 2.333037 g / cm^3
# Si number density = 23.383595 Si / 1000 Ang^3
#
#
#
# Elastic Constant Matrix: (Units=GPa)
#
#
# Indices 1 2 3 4 5 6 
#
# 1 65.9149 36.5294 15.1102 0.0000 0.0000 0.0000
# 2 36.5294 102.3585 41.6626 0.0000 0.0000 0.0000
# 3 15.1102 41.6626 112.5796 0.0000 0.0000 0.0000
# 4 0.0000 0.0000 0.0000 35.8691 0.0000 0.0000
# 5 0.0000 0.0000 0.0000 0.0000 23.2494 0.0000
# 6 0.0000 0.0000 0.0000 0.0000 0.0000 4.3830
#
#
#
# Elastic Compliance Matrix: (Units=1/GPa)
#
#
# Indices 1 2 3 4 5 6 
#
# 1 0.018912 -0.006730 -0.000048 0.000000 0.000000 0.000000
# 2 -0.006730 0.013897 -0.004240 0.000000 0.000000 0.000000
# 3 -0.000048 -0.004240 0.010458 0.000000 0.000000 0.000000
# 4 0.000000 0.000000 0.000000 0.027879 0.000000 0.000000
# 5 0.000000 0.000000 0.000000 0.000000 0.043012 0.000000
# 6 0.000000 0.000000 0.000000 0.000000 0.000000 0.228156
#
#
# Mechanical properties :
#
#
# Convention : Reuss Voigt Hill
#
# Bulk Modulus (GPa) = 47.09812 51.93971 49.51892
# Shear Modulus (GPa) = 13.46166 25.20368 19.33267
#
# Velocity S-wave (km/s) = 2.40195 3.28660 2.87847
# Velocity P-wave (km/s) = 5.27994 6.05496 5.68068
#
# Compressibility (1/GPa) = 0.02123227
#
# Stress axis : x y z
#
# Youngs Moduli (GPa) = 52.87784 71.95872 95.62071
#
# Poissons Ratio (x) = 0.48425 0.00457
# Poissons Ratio (y) = 0.35585 0.40539
# Poissons Ratio (z) = 0.00253 0.30508
#
# Static dielectric constant tensor:
#      x y z
#    x 4.360330 0.000000 0.000000 
#    y 0.000000 4.593980 0.000000 
#    z 0.000000 0.000000 4.477860 
# 
# 
# High freq. dielectric constant tensor:
#      x y z
#    x 1.931870 0.000000 0.000000 
#    y 0.000000 1.892690 0.000000 
#    z 0.000000 0.000000 1.942040 
# 
# From -- ./inp_files/4055.got.cif
#   From: 2010.03.12/outbox.cif.g09.slc.cpg/sg20_3_cif.got.tgz:4055.got - 2010.04.14 01:38:04.
