data_PCOD8158887
_publ_section_title
;
Structure prediction by ZEFSAII (Michael W. Deem and Ramdas Pophale) SiO2 
 PCOD8158887
Probable space group: C 2 2 21
;
_chemical_formula_sum "Si O2"
_cell_formula_units_Z 48
_cell_length_a 27.599207
_cell_length_b 8.390894
_cell_length_c 10.292941
_cell_angle_alpha 90.000000
_cell_angle_beta 90.000000
_cell_angle_gamma 90.000000
_cell_volume 2383.660073
_symmetry_space_group_name_H-M "C 2 2 21"
_symmetry_group_IT_number 20
_symmetry_cell_setting 'orthorhombic'
loop_
_space_group_symop_operation_xyz
x,y,z
-x,-y,1/2+z
x,-y,-z
-x,y,1/2-z
1/2+x,1/2+y,z
1/2-x,1/2-y,1/2+z
1/2+x,1/2-y,-z
1/2-x,1/2+y,1/2-z
loop_
_atom_site_type_symbol
_atom_site_label
_atom_site_fract_x
_atom_site_fract_y
_atom_site_fract_z
Si Si1 0.099720 0.009255 0.252173
Si Si2 0.658156 0.740608 0.917167
Si Si3 0.248433 0.433578 0.359583
Si Si4 0.096024 0.500000 0.000000
Si Si5 0.184255 0.795474 0.785087
Si Si6 0.042161 0.000000 0.500000
Si Si7 0.527123 0.262095 0.874159
O O1 0.140377 0.135937 0.301326
O O2 0.057906 0.086996 0.168219
O O3 0.123715 0.880503 0.157762
O O4 0.075670 0.939534 0.381502
O O5 0.713244 0.714153 0.869395
O O6 0.632887 0.913722 0.896893
O O7 0.660208 0.715677 0.072537
O O8 0.231573 0.500000 0.500000
O O9 0.202556 0.370239 0.277401
O O10 0.271382 0.580340 0.282326
O O11 0.061225 0.628629 0.935085
O O12 0.011790 0.838724 0.527596
O O13 0.500000 0.184294 0.750000
#
# Coordination Sequence:
#
# PCOD8158887 Si02
#       7
#     8   8   8   4   8   4   8
#     4  10  20  42  63  86 119 160 210 253 299 380
#     4  10  22  38  63  90 120 161 209 248 305 371
#     4   9  21  39  58  89 125 160 206 257 304 366
#     4  12  22  34  63  88 122 156 199 252 314 364
#     4  10  20  39  63  88 124 160 209 252 308 368
#     4  10  22  40  63  88 114 164 207 254 312 372
#     4  10  22  37  61  87 120 156 202 255 309 367
#
# _framework density 20.137101000000001
#
# number of rings (size 3 to 8) (size 9 to 14) (size 15 to 20)
#    0.000    2.000    1.667    2.500    2.333    1.333 
#   12.000    0.000    7.333    0.000    0.000    0.000 
#    0.000    0.000    0.000    0.000    0.000    0.000 
#
# Total GULP energy -297323.838141 kJ/mol
# GULP energy per Si atom -12388.493256 kJ/mol
# Density = 2.009127 g / cm^3
# Si number density = 20.137101 Si / 1000 Ang^3
#
#
#
# Elastic Constant Matrix: (Units=GPa)
#
#
# Indices 1 2 3 4 5 6 
#
# 1 93.5157 43.9276 64.3963 0.0000 0.0000 0.0000
# 2 43.9276 63.6426 49.4810 0.0000 0.0000 0.0000
# 3 64.3963 49.4810 109.9183 0.0000 0.0000 0.0000
# 4 0.0000 0.0000 0.0000 25.7679 0.0000 0.0000
# 5 0.0000 0.0000 0.0000 0.0000 36.1531 0.0000
# 6 0.0000 0.0000 0.0000 0.0000 0.0000 86.6454
#
#
#
# Elastic Compliance Matrix: (Units=1/GPa)
#
#
# Indices 1 2 3 4 5 6 
#
# 1 0.019844 -0.007166 -0.008400 0.000000 0.000000 0.000000
# 2 -0.007166 0.026761 -0.007849 0.000000 0.000000 0.000000
# 3 -0.008400 -0.007849 0.017552 0.000000 0.000000 0.000000
# 4 0.000000 0.000000 0.000000 0.038808 0.000000 0.000000
# 5 0.000000 0.000000 0.000000 0.000000 0.027660 0.000000
# 6 0.000000 0.000000 0.000000 0.000000 0.000000 0.011541
#
#
# Mechanical properties :
#
#
# Convention : Reuss Voigt Hill
#
# Bulk Modulus (GPa) = 57.70994 64.74293 61.22643
# Shear Modulus (GPa) = 25.67131 36.99808 31.33469
#
# Velocity S-wave (km/s) = 3.57434 4.29103 3.94898
# Velocity P-wave (km/s) = 6.76427 7.53469 7.15985
#
# Compressibility (1/GPa) = 0.01732804
#
# Stress axis : x y z
#
# Youngs Moduli (GPa) = 50.39401 37.36790 56.97431
#
# Poissons Ratio (x) = 0.26778 0.47857
# Poissons Ratio (y) = 0.36112 0.44716
# Poissons Ratio (z) = 0.42329 0.29328
#
# Static dielectric constant tensor:
#      x y z
#    x 3.998430 0.000000 0.000000 
#    y 0.000000 3.723750 0.000000 
#    z 0.000000 0.000000 2.264370 
# 
# 
# High freq. dielectric constant tensor:
#      x y z
#    x 1.803890 0.000000 0.000000 
#    y 0.000000 1.773500 0.000000 
#    z 0.000000 0.000000 1.768750 
# 
# From -- ./inp_files/17184.got.cif
#   From: 2010.03.12/outbox.cif.g09.slc.cpg/sg20_9_cif.got.tgz:17184.got - 2010.04.14 01:38:04.
