data_PCOD8158359
_publ_section_title
;
Structure prediction by ZEFSAII (Michael W. Deem and Ramdas Pophale) SiO2 
 PCOD8158359
Probable space group: C 2 2 21
;
_chemical_formula_sum "Si O2"
_cell_formula_units_Z 48
_cell_length_a 7.707438
_cell_length_b 18.724954
_cell_length_c 18.424765
_cell_angle_alpha 90.000000
_cell_angle_beta 90.000000
_cell_angle_gamma 90.000000
_cell_volume 2659.088285
_symmetry_space_group_name_H-M "C 2 2 21"
_symmetry_group_IT_number 20
_symmetry_cell_setting 'orthorhombic'
loop_
_space_group_symop_operation_xyz
x,y,z
-x,-y,1/2+z
x,-y,-z
-x,y,1/2-z
1/2+x,1/2+y,z
1/2-x,1/2-y,1/2+z
1/2+x,1/2-y,-z
1/2-x,1/2+y,1/2-z
loop_
_atom_site_type_symbol
_atom_site_label
_atom_site_fract_x
_atom_site_fract_y
_atom_site_fract_z
Si Si1 0.000000 0.912774 0.834487
Si Si2 0.304473 0.832516 0.587418
Si Si3 0.804473 0.332516 0.912582
Si Si4 0.191340 0.175310 0.566127
Si Si5 0.000000 0.920147 0.165727
Si Si6 0.808660 0.175310 0.566127
O O1 0.824630 0.882666 0.868730
O O2 0.000000 0.894670 0.750000
O O3 0.175370 0.882666 0.868730
O O4 0.000000 0.996665 0.849854
O O5 0.500000 0.844303 0.617270
O O6 0.305281 0.852203 0.501350
O O7 0.239864 0.750449 0.598558
O O8 0.739864 0.250449 0.901442
O O9 0.805281 0.352203 0.998650
O O10 0.173212 0.115211 0.629259
O O11 1.000000 0.192106 0.533206
O O12 0.000000 0.901354 0.250000
O O13 0.173212 0.884789 0.129259
#
# Coordination Sequence:
#
# PCOD8158359 Si02
#       6
#     8   8   8   8   8   8
#     4  11  23  37  55  81 116 149 184 227 275 332
#     4  10  19  35  59  85 109 140 185 236 277 320
#     4  10  19  35  59  85 109 140 185 236 277 320
#     4   8  17  34  59  78 108 144 181 225 271 326
#     4   9  19  37  57  77 114 159 180 215 281 336
#     4   8  17  34  59  78 108 144 181 225 271 326
#
# _framework density 18.051299
#
# number of rings (size 3 to 8) (size 9 to 14) (size 15 to 20)
#    1.000    1.667    1.667    0.000    2.333    4.667 
#    0.000    3.333    0.000    2.000    0.000    0.000 
#    0.000    0.000    0.000    0.000    0.000    0.000 
#
# Total GULP energy -297347.927990 kJ/mol
# GULP energy per Si atom -12389.497000 kJ/mol
# Density = 1.801021 g / cm^3
# Si number density = 18.051299 Si / 1000 Ang^3
#
#
#
# Elastic Constant Matrix: (Units=GPa)
#
#
# Indices 1 2 3 4 5 6 
#
# 1 79.1521 43.2276 47.2656 0.0000 0.0000 0.0000
# 2 43.2276 117.7120 87.9793 0.0000 0.0000 0.0000
# 3 47.2656 87.9793 117.8619 0.0000 0.0000 0.0000
# 4 0.0000 0.0000 0.0000 33.8948 0.0000 0.0000
# 5 0.0000 0.0000 0.0000 0.0000 11.6043 0.0000
# 6 0.0000 0.0000 0.0000 0.0000 0.0000 361.9768
#
#
#
# Elastic Compliance Matrix: (Units=1/GPa)
#
#
# Indices 1 2 3 4 5 6 
#
# 1 0.016954 -0.002589 -0.004867 0.000000 0.000000 0.000000
# 2 -0.002589 0.019612 -0.013601 0.000000 0.000000 0.000000
# 3 -0.004867 -0.013601 0.020589 0.000000 0.000000 0.000000
# 4 0.000000 0.000000 0.000000 0.029503 0.000000 0.000000
# 5 0.000000 0.000000 0.000000 0.000000 0.086175 0.000000
# 6 0.000000 0.000000 0.000000 0.000000 0.000000 0.002763
#
#
# Mechanical properties :
#
#
# Convention : Reuss Voigt Hill
#
# Bulk Modulus (GPa) = 66.48300 74.63011 70.55655
# Shear Modulus (GPa) = 22.44956 90.57875 56.51416
#
# Velocity S-wave (km/s) = 3.53037 7.09136 5.60138
# Velocity P-wave (km/s) = 7.31629 10.41552 9.00031
#
# Compressibility (1/GPa) = 0.01504144
#
# Stress axis : x y z
#
# Youngs Moduli (GPa) = 58.98420 50.99011 48.56982
#
# Poissons Ratio (x) = 0.13199 0.23637
# Poissons Ratio (y) = 0.15269 0.66061
# Poissons Ratio (z) = 0.28705 0.69353
#
# Static dielectric constant tensor:
#      x y z
#    x 3.148290 0.000000 0.000000 
#    y 0.000000 3.244000 0.000000 
#    z 0.000000 0.000000 3.164190 
# 
# 
# High freq. dielectric constant tensor:
#      x y z
#    x 1.682880 0.000000 0.000000 
#    y 0.000000 1.693600 0.000000 
#    z 0.000000 0.000000 1.685690 
# 
# From -- ./inp_files/23816.got.cif
#   From: 2010.03.12/outbox.cif.g09.slc.cpg/sg20_12_cif.got.tgz:23816.got - 2010.04.14 01:38:04.
