data_PCOD8158696
_publ_section_title
;
Structure prediction by ZEFSAII (Michael W. Deem and Ramdas Pophale) SiO2 
 PCOD8158696
Probable space group: C 2 2 21
;
_chemical_formula_sum "Si O2"
_cell_formula_units_Z 52
_cell_length_a 5.362675
_cell_length_b 27.238500
_cell_length_c 17.776273
_cell_angle_alpha 90.000000
_cell_angle_beta 90.000000
_cell_angle_gamma 90.000000
_cell_volume 2596.601937
_symmetry_space_group_name_H-M "C 2 2 21"
_symmetry_group_IT_number 20
_symmetry_cell_setting 'orthorhombic'
loop_
_space_group_symop_operation_xyz
x,y,z
-x,-y,1/2+z
x,-y,-z
-x,y,1/2-z
1/2+x,1/2+y,z
1/2-x,1/2-y,1/2+z
1/2+x,1/2-y,-z
1/2-x,1/2+y,1/2-z
loop_
_atom_site_type_symbol
_atom_site_label
_atom_site_fract_x
_atom_site_fract_y
_atom_site_fract_z
Si Si1 0.000000 0.867285 0.750000
Si Si2 0.565891 0.369683 0.502479
Si Si3 0.258961 0.231378 0.535695
Si Si4 0.975533 0.498063 0.161428
Si Si5 0.753693 0.319364 0.880388
Si Si6 0.516735 0.467997 0.424048
Si Si7 0.131781 0.398329 0.858047
O O1 0.045955 0.831214 0.819434
O O2 0.217316 0.903232 0.720909
O O3 0.735580 0.327542 0.462199
O O4 0.326037 0.342697 0.538720
O O5 0.494750 0.409856 0.440861
O O6 0.704107 0.400890 0.567080
O O7 0.044366 0.254603 0.482744
O O8 0.209324 0.260359 0.614566
O O9 0.223756 0.478725 0.118857
O O10 0.944213 0.556079 0.143018
O O11 0.000000 0.486308 0.250000
O O12 0.720142 0.475926 0.129922
O O13 0.007181 0.344890 0.855244
O O14 0.494706 0.500000 0.500000
#
# Coordination Sequence:
#
# PCOD8158696 Si02
#       7
#     4   8   8   8   8   8   8
#     4  10  22  34  58  92 130 170 196 260 322 396
#     4  10  22  38  62  95 122 163 214 266 318 364
#     4  10  20  36  61  90 123 157 199 255 314 372
#     4  12  27  42  65  91 131 172 214 264 334 388
#     4  10  20  36  60  90 130 158 208 256 328 379
#     4  12  25  42  66  95 127 167 220 273 315 380
#     4  11  21  38  61  90 128 159 209 262 325 381
#
# _framework density 20.026171999999999
#
# number of rings (size 3 to 8) (size 9 to 14) (size 15 to 20)
#    0.000    1.231    3.077    3.231    6.462    0.000 
#    0.000    0.000    1.692    1.846    0.000    0.000 
#    0.000    0.000    0.000    0.000    0.000    0.000 
#
# Total GULP energy -322127.983796 kJ/mol
# GULP energy per Si atom -12389.537838 kJ/mol
# Density = 1.998059 g / cm^3
# Si number density = 20.026172 Si / 1000 Ang^3
#
#
#
# Elastic Constant Matrix: (Units=GPa)
#
#
# Indices 1 2 3 4 5 6 
#
# 1 94.4439 14.6806 30.2732 0.0000 0.0000 0.0000
# 2 14.6806 110.2891 44.1950 0.0000 0.0000 0.0000
# 3 30.2732 44.1950 88.5935 0.0000 0.0000 0.0000
# 4 0.0000 0.0000 0.0000 25.7424 0.0000 0.0000
# 5 0.0000 0.0000 0.0000 0.0000 29.8236 0.0000
# 6 0.0000 0.0000 0.0000 0.0000 0.0000 27.9631
#
#
#
# Elastic Compliance Matrix: (Units=1/GPa)
#
#
# Indices 1 2 3 4 5 6 
#
# 1 0.011891 0.000057 -0.004092 0.000000 0.000000 0.000000
# 2 0.000057 0.011333 -0.005673 0.000000 0.000000 0.000000
# 3 -0.004092 -0.005673 0.015515 0.000000 0.000000 0.000000
# 4 0.000000 0.000000 0.000000 0.038846 0.000000 0.000000
# 5 0.000000 0.000000 0.000000 0.000000 0.033530 0.000000
# 6 0.000000 0.000000 0.000000 0.000000 0.000000 0.035761
#
#
# Mechanical properties :
#
#
# Convention : Reuss Voigt Hill
#
# Bulk Modulus (GPa) = 51.74887 52.40268 52.07577
# Shear Modulus (GPa) = 28.94627 30.31768 29.63197
#
# Velocity S-wave (km/s) = 3.80600 3.89511 3.85081
# Velocity P-wave (km/s) = 6.72390 6.81565 6.76993
#
# Compressibility (1/GPa) = 0.01932409
#
# Stress axis : x y z
#
# Youngs Moduli (GPa) = 84.09726 88.24023 64.45177
#
# Poissons Ratio (x) = -0.00501 0.26371
# Poissons Ratio (y) = -0.00477 0.36562
# Poissons Ratio (z) = 0.34409 0.50056
#
# Static dielectric constant tensor:
#      x y z
#    x 3.808270 0.000000 0.000000 
#    y 0.000000 3.855700 0.000000 
#    z 0.000000 0.000000 3.767140 
# 
# 
# High freq. dielectric constant tensor:
#      x y z
#    x 1.796820 0.000000 0.000000 
#    y 0.000000 1.775290 0.000000 
#    z 0.000000 0.000000 1.762120 
# 
# From -- ./inp_files/22887.got.cif
#   From: 2010.03.12/outbox.cif.g09.slc.cpg/sg20_12_cif.got.tgz:22887.got - 2010.04.14 01:38:04.
