data_PCOD8158719
_publ_section_title
;
Structure prediction by ZEFSAII (Michael W. Deem and Ramdas Pophale) SiO2 
 PCOD8158719
Probable space group: C 2 2 21
;
_chemical_formula_sum "Si O2"
_cell_formula_units_Z 64
_cell_length_a 10.910792
_cell_length_b 22.851060
_cell_length_c 13.303939
_cell_angle_alpha 90.000000
_cell_angle_beta 90.000000
_cell_angle_gamma 90.000000
_cell_volume 3316.980147
_symmetry_space_group_name_H-M "C 2 2 21"
_symmetry_group_IT_number 20
_symmetry_cell_setting 'orthorhombic'
loop_
_space_group_symop_operation_xyz
x,y,z
-x,-y,1/2+z
x,-y,-z
-x,y,1/2-z
1/2+x,1/2+y,z
1/2-x,1/2-y,1/2+z
1/2+x,1/2-y,-z
1/2-x,1/2+y,1/2-z
loop_
_atom_site_type_symbol
_atom_site_label
_atom_site_fract_x
_atom_site_fract_y
_atom_site_fract_z
Si Si1 0.224003 0.616950 0.118937
Si Si2 0.634141 0.994759 0.777069
Si Si3 0.940111 0.705874 0.951373
Si Si4 0.211689 0.547077 0.573802
Si Si5 0.417048 0.230865 0.346924
Si Si6 0.526399 0.672741 0.366830
Si Si7 0.448164 0.089807 0.566711
Si Si8 0.821947 0.165797 0.536798
O O1 0.215147 0.560283 0.189617
O O2 0.174533 0.676312 0.171932
O O3 0.366647 0.629066 0.094290
O O4 0.147589 0.599526 0.021541
O O5 0.500000 0.970026 0.750000
O O6 0.705341 0.021964 0.684724
O O7 0.619897 0.048459 0.854487
O O8 0.929050 0.760226 0.875837
O O9 0.809657 0.688961 0.998330
O O10 0.008964 0.653330 0.890212
O O11 0.013827 0.719994 0.050371
O O12 0.272221 0.500000 0.500000
O O13 0.306022 0.600584 0.578342
O O14 0.075639 0.561089 0.529116
O O15 0.500000 0.237293 0.250000
O O16 0.357108 0.294229 0.367005
O O17 0.500000 0.658791 0.250000
O O18 0.409498 0.664854 0.439295
#
# Coordination Sequence:
#
# PCOD8158719 Si02
#       8
#     8   8   8   8   8   8   8   8
#     4  11  21  38  62  93 126 157 199 257 315 369
#     4  10  20  36  64  98 121 155 211 259 319 358
#     4   9  20  39  62  90 124 158 201 258 307 356
#     4  10  21  37  63  89 120 162 205 264 309 357
#     4  10  21  37  62  92 116 156 199 251 308 361
#     4  11  25  39  60  90 122 167 205 248 309 385
#     4   9  19  38  64  94 127 155 205 262 310 358
#     4  10  22  42  59  85 121 161 206 246 310 369
#
# _framework density 19.294658999999999
#
# number of rings (size 3 to 8) (size 9 to 14) (size 15 to 20)
#    0.000    2.000    1.250    2.250    3.500    3.500 
#    4.500    1.250    0.000    0.000    0.000    0.000 
#    0.000    0.000    0.000    0.000    0.000    0.000 
#
# Total GULP energy -396553.526591 kJ/mol
# GULP energy per Si atom -12392.297706 kJ/mol
# Density = 1.925074 g / cm^3
# Si number density = 19.294659 Si / 1000 Ang^3
#
#
#
# Elastic Constant Matrix: (Units=GPa)
#
#
# Indices 1 2 3 4 5 6 
#
# 1 80.5697 59.3818 34.1929 0.0000 0.0000 0.0000
# 2 59.3818 167.1299 60.2301 0.0000 0.0000 0.0000
# 3 34.1929 60.2301 82.6765 0.0000 0.0000 0.0000
# 4 0.0000 0.0000 0.0000 164.1295 0.0000 0.0000
# 5 0.0000 0.0000 0.0000 0.0000 9.3513 0.0000
# 6 0.0000 0.0000 0.0000 0.0000 0.0000 24.5954
#
#
#
# Elastic Compliance Matrix: (Units=1/GPa)
#
#
# Indices 1 2 3 4 5 6 
#
# 1 0.017610 -0.004925 -0.003695 0.000000 0.000000 0.000000
# 2 -0.004925 0.009491 -0.004877 0.000000 0.000000 0.000000
# 3 -0.003695 -0.004877 0.017177 0.000000 0.000000 0.000000
# 4 0.000000 0.000000 0.000000 0.006093 0.000000 0.000000
# 5 0.000000 0.000000 0.000000 0.000000 0.106937 0.000000
# 6 0.000000 0.000000 0.000000 0.000000 0.000000 0.040658
#
#
# Mechanical properties :
#
#
# Convention : Reuss Voigt Hill
#
# Bulk Modulus (GPa) = 57.86205 70.88731 64.37468
# Shear Modulus (GPa) = 21.67125 51.38667 36.52896
#
# Velocity S-wave (km/s) = 3.35501 5.16628 4.35583
# Velocity P-wave (km/s) = 6.71282 8.50919 7.66382
#
# Compressibility (1/GPa) = 0.01728249
#
# Stress axis : x y z
#
# Youngs Moduli (GPa) = 56.78689 105.36315 58.21896
#
# Poissons Ratio (x) = 0.51894 0.21511
# Poissons Ratio (y) = 0.27969 0.28395
# Poissons Ratio (z) = 0.20982 0.51388
#
# Static dielectric constant tensor:
#      x y z
#    x 3.252050 0.000000 0.000000 
#    y 0.000000 3.994040 0.000000 
#    z 0.000000 0.000000 3.459470 
# 
# 
# High freq. dielectric constant tensor:
#      x y z
#    x 1.737490 0.000000 0.000000 
#    y 0.000000 1.770500 0.000000 
#    z 0.000000 0.000000 1.736220 
# 
# From -- ./inp_files/14502.got.cif
#   From: 2010.03.12/outbox.cif.g09.slc.cpg/sg20_8_cif.got.tgz:14502.got - 2010.04.14 01:38:04.
