data_PCOD8158070
_publ_section_title
;
Structure prediction by ZEFSAII (Michael W. Deem and Ramdas Pophale) SiO2 
 PCOD8158070
Probable space group: C 2 2 21
;
_chemical_formula_sum "Si O2"
_cell_formula_units_Z 36
_cell_length_a 19.875771
_cell_length_b 11.454762
_cell_length_c 8.645433
_cell_angle_alpha 90.000000
_cell_angle_beta 90.000000
_cell_angle_gamma 90.000000
_cell_volume 1968.324979
_symmetry_space_group_name_H-M "C 2 2 21"
_symmetry_group_IT_number 20
_symmetry_cell_setting 'orthorhombic'
loop_
_space_group_symop_operation_xyz
x,y,z
-x,-y,1/2+z
x,-y,-z
-x,y,1/2-z
1/2+x,1/2+y,z
1/2-x,1/2-y,1/2+z
1/2+x,1/2-y,-z
1/2-x,1/2+y,1/2-z
loop_
_atom_site_type_symbol
_atom_site_label
_atom_site_fract_x
_atom_site_fract_y
_atom_site_fract_z
Si Si1 0.422012 0.579090 0.226522
Si Si2 0.363568 0.645357 0.913978
Si Si3 0.301567 0.187072 0.290499
Si Si4 0.762334 0.500000 0.500000
Si Si5 0.191858 0.874773 0.944182
O O1 0.500000 0.601474 0.250000
O O2 0.407525 0.443011 0.189987
O O3 0.385358 0.615292 0.385782
O O4 0.396153 0.658037 0.082904
O O5 0.359453 0.773569 0.832659
O O6 0.286690 0.596381 0.922055
O O7 0.312871 0.063386 0.378052
O O8 0.231049 0.172605 0.204350
O O9 0.298355 0.289909 0.413656
O O10 0.219434 0.000000 0.000000
#
# Coordination Sequence:
#
# PCOD8158070 Si02
#       5
#     8   8   8   4   8
#     4  10  21  37  56  85 123 150 189 235 286 353
#     4  10  20  35  52  83 121 151 188 228 286 346
#     4  12  20  35  55  80 126 150 189 239 283 355
#     4  10  18  32  52  80 116 150 186 226 286 342
#     4  12  22  34  56  86 118 157 185 234 298 339
#
# _framework density 18.289662
#
# number of rings (size 3 to 8) (size 9 to 14) (size 15 to 20)
#    0.000    1.333    8.889    0.000    3.111    0.000 
#    0.000    0.000    0.000    0.000    0.000    4.667 
#   13.333    0.000    0.000    0.000    0.000    0.000 
#
# Total GULP energy -223027.611534 kJ/mol
# GULP energy per Si atom -12390.422863 kJ/mol
# Density = 1.824803 g / cm^3
# Si number density = 18.289662 Si / 1000 Ang^3
#
#
#
# Elastic Constant Matrix: (Units=GPa)
#
#
# Indices 1 2 3 4 5 6 
#
# 1 80.5221 47.5019 54.1291 0.0000 0.0000 0.0000
# 2 47.5019 71.8080 54.9135 0.0000 0.0000 0.0000
# 3 54.1291 54.9135 107.9327 0.0000 0.0000 0.0000
# 4 0.0000 0.0000 0.0000 57.6186 0.0000 0.0000
# 5 0.0000 0.0000 0.0000 0.0000 23.0798 0.0000
# 6 0.0000 0.0000 0.0000 0.0000 0.0000 12.3949
#
#
#
# Elastic Compliance Matrix: (Units=1/GPa)
#
#
# Indices 1 2 3 4 5 6 
#
# 1 0.022577 -0.010274 -0.006096 0.000000 0.000000 0.000000
# 2 -0.010274 0.027470 -0.008824 0.000000 0.000000 0.000000
# 3 -0.006096 -0.008824 0.016811 0.000000 0.000000 0.000000
# 4 0.000000 0.000000 0.000000 0.017356 0.000000 0.000000
# 5 0.000000 0.000000 0.000000 0.000000 0.043328 0.000000
# 6 0.000000 0.000000 0.000000 0.000000 0.000000 0.080678
#
#
# Mechanical properties :
#
#
# Convention : Reuss Voigt Hill
#
# Bulk Modulus (GPa) = 60.70737 63.70576 62.20656
# Shear Modulus (GPa) = 18.93243 25.53322 22.23282
#
# Velocity S-wave (km/s) = 3.22086 3.74042 3.49032
# Velocity P-wave (km/s) = 6.86266 7.31858 7.09428
#
# Compressibility (1/GPa) = 0.01647247
#
# Stress axis : x y z
#
# Youngs Moduli (GPa) = 44.29233 36.40360 59.48355
#
# Poissons Ratio (x) = 0.37399 0.36260
# Poissons Ratio (y) = 0.45504 0.52486
# Poissons Ratio (z) = 0.26999 0.32121
#
# Static dielectric constant tensor:
#      x y z
#    x 3.062200 0.000000 0.000000 
#    y 0.000000 3.550880 0.000000 
#    z 0.000000 0.000000 3.855010 
# 
# 
# High freq. dielectric constant tensor:
#      x y z
#    x 1.658400 0.000000 0.000000 
#    y 0.000000 1.686440 0.000000 
#    z 0.000000 0.000000 1.739270 
# 
# From -- ./inp_files/7166.got.cif
#   From: 2010.03.12/outbox.cif.g09.slc.cpg/sg20_4_cif.got.tgz:7166.got - 2010.04.14 01:38:04.
