data_PCOD8158612
_publ_section_title
;
Structure prediction by ZEFSAII (Michael W. Deem and Ramdas Pophale) SiO2 
 PCOD8158612
Probable space group: C 2 2 21
;
_chemical_formula_sum "Si O2"
_cell_formula_units_Z 64
_cell_length_a 16.750344
_cell_length_b 8.125576
_cell_length_c 23.009297
_cell_angle_alpha 90.000000
_cell_angle_beta 90.000000
_cell_angle_gamma 90.000000
_cell_volume 3131.707823
_symmetry_space_group_name_H-M "C 2 2 21"
_symmetry_group_IT_number 20
_symmetry_cell_setting 'orthorhombic'
loop_
_space_group_symop_operation_xyz
x,y,z
-x,-y,1/2+z
x,-y,-z
-x,y,1/2-z
1/2+x,1/2+y,z
1/2-x,1/2-y,1/2+z
1/2+x,1/2-y,-z
1/2-x,1/2+y,1/2-z
loop_
_atom_site_type_symbol
_atom_site_label
_atom_site_fract_x
_atom_site_fract_y
_atom_site_fract_z
Si Si1 0.827520 0.337639 0.853210
Si Si2 0.452724 0.009902 0.931627
Si Si3 0.539997 0.436932 0.192232
Si Si4 0.907199 0.396232 0.644419
Si Si5 0.891587 0.437477 0.242479
Si Si6 0.927255 0.198630 0.144775
Si Si7 0.190304 0.134768 0.218590
Si Si8 0.271598 0.525026 0.159998
O O1 0.874334 0.411826 0.908033
O O2 0.871405 0.397846 0.794354
O O3 0.736263 0.400858 0.842539
O O4 0.818688 0.141658 0.857292
O O5 0.535874 0.932906 0.909884
O O6 0.451996 0.200688 0.912585
O O7 0.449815 0.000000 0.000000
O O8 0.500000 0.360636 0.250000
O O9 0.585398 0.298007 0.155938
O O10 0.477042 0.530086 0.150396
O O11 0.601190 0.571488 0.215111
O O12 0.939707 0.496336 0.701028
O O13 0.815158 0.446221 0.630192
O O14 0.941675 0.312844 0.201779
O O15 0.815918 0.332365 0.269445
O O16 0.832596 0.165957 0.138402
O O17 0.238869 0.047597 0.270607
#
# Coordination Sequence:
#
# PCOD8158612 Si02
#       8
#     8   8   8   8   8   8   8   8
#     4  11  21  38  66  93 133 170 217 259 342 387
#     4  11  28  49  67  86 124 176 238 285 327 384
#     4  12  24  36  62 104 147 174 210 252 332 423
#     4  12  25  37  65  94 138 169 217 267 337 388
#     4  10  20  34  62  98 133 175 194 267 324 407
#     4  10  24  41  64  92 137 171 220 260 333 391
#     4  11  20  34  60  99 147 162 205 253 330 405
#     4  11  22  37  63 106 133 170 207 264 328 416
#
# _framework density 20.436135
#
# number of rings (size 3 to 8) (size 9 to 14) (size 15 to 20)
#    0.000    1.000    5.000    2.250    8.750    0.000 
#    0.000    3.750    0.000    0.000    0.000    0.000 
#    0.000    0.000    0.000    0.000    0.000    0.000 
#
# Total GULP energy -396481.510603 kJ/mol
# GULP energy per Si atom -12390.047206 kJ/mol
# Density = 2.038962 g / cm^3
# Si number density = 20.436135 Si / 1000 Ang^3
#
#
#
# Elastic Constant Matrix: (Units=GPa)
#
#
# Indices 1 2 3 4 5 6 
#
# 1 107.6029 40.8516 41.9533 0.0000 0.0000 0.0000
# 2 40.8516 113.0283 34.8122 0.0000 0.0000 0.0000
# 3 41.9533 34.8122 114.9412 0.0000 0.0000 0.0000
# 4 0.0000 0.0000 0.0000 15.9244 0.0000 0.0000
# 5 0.0000 0.0000 0.0000 0.0000 22.4083 0.0000
# 6 0.0000 0.0000 0.0000 0.0000 0.0000 34.2966
#
#
#
# Elastic Compliance Matrix: (Units=1/GPa)
#
#
# Indices 1 2 3 4 5 6 
#
# 1 0.011826 -0.003248 -0.003333 0.000000 0.000000 0.000000
# 2 -0.003248 0.010649 -0.002040 0.000000 0.000000 0.000000
# 3 -0.003333 -0.002040 0.010534 0.000000 0.000000 0.000000
# 4 0.000000 0.000000 0.000000 0.062797 0.000000 0.000000
# 5 0.000000 0.000000 0.000000 0.000000 0.044626 0.000000
# 6 0.000000 0.000000 0.000000 0.000000 0.000000 0.029157
#
#
# Mechanical properties :
#
#
# Convention : Reuss Voigt Hill
#
# Bulk Modulus (GPa) = 63.41653 63.42295 63.41974
# Shear Modulus (GPa) = 26.02982 29.05622 27.54302
#
# Velocity S-wave (km/s) = 3.57279 3.77477 3.67517
# Velocity P-wave (km/s) = 6.93676 7.07818 7.00783
#
# Compressibility (1/GPa) = 0.01576876
#
# Stress axis : x y z
#
# Youngs Moduli (GPa) = 84.56057 93.90149 94.92705
#
# Poissons Ratio (x) = 0.30496 0.31637
# Poissons Ratio (y) = 0.27463 0.19365
# Poissons Ratio (z) = 0.28182 0.19156
#
# Static dielectric constant tensor:
#      x y z
#    x 3.840250 0.000000 0.000000 
#    y 0.000000 3.907470 0.000000 
#    z 0.000000 0.000000 3.103400 
# 
# 
# High freq. dielectric constant tensor:
#      x y z
#    x 1.820520 0.000000 0.000000 
#    y 0.000000 1.823010 0.000000 
#    z 0.000000 0.000000 1.719850 
# 
# From -- ./inp_files/27771.got.cif
#   From: 2010.03.12/outbox.cif.g09.slc.cpg/sg20_14_cif.got.tgz:27771.got - 2010.04.14 01:38:04.
