data_PCOD8158632
_publ_section_title
;
Structure prediction by ZEFSAII (Michael W. Deem and Ramdas Pophale) SiO2 
 PCOD8158632
Probable space group: C 2 2 21
;
_chemical_formula_sum "Si O2"
_cell_formula_units_Z 56
_cell_length_a 10.630273
_cell_length_b 20.503441
_cell_length_c 12.063649
_cell_angle_alpha 90.000000
_cell_angle_beta 90.000000
_cell_angle_gamma 90.000000
_cell_volume 2629.358859
_symmetry_space_group_name_H-M "C 2 2 21"
_symmetry_group_IT_number 20
_symmetry_cell_setting 'orthorhombic'
loop_
_space_group_symop_operation_xyz
x,y,z
-x,-y,1/2+z
x,-y,-z
-x,y,1/2-z
1/2+x,1/2+y,z
1/2-x,1/2-y,1/2+z
1/2+x,1/2-y,-z
1/2-x,1/2+y,1/2-z
loop_
_atom_site_type_symbol
_atom_site_label
_atom_site_fract_x
_atom_site_fract_y
_atom_site_fract_z
Si Si1 0.096087 0.456593 0.342161
Si Si2 0.224256 0.821449 0.814313
Si Si3 0.177549 0.814118 0.381970
Si Si4 0.064437 0.401529 0.574700
Si Si5 0.420430 0.681902 0.520797
Si Si6 0.177985 0.317995 0.914972
Si Si7 0.373584 0.579530 0.701240
O O1 0.083994 0.405331 0.442456
O O2 0.043093 0.526797 0.376289
O O3 0.243713 0.462160 0.302816
O O4 0.000000 0.429038 0.250000
O O5 0.277384 0.749113 0.819011
O O6 0.309673 0.873616 0.875361
O O7 0.220822 0.835725 0.682396
O O8 0.095778 0.825403 0.886500
O O9 0.277122 0.846457 0.466720
O O10 0.140378 0.863326 0.288319
O O11 0.061042 0.794071 0.459529
O O12 0.951704 0.354392 0.612647
O O13 0.331859 0.739429 0.569991
O O14 0.395341 0.612194 0.580689
O O15 0.500000 0.541213 0.750000
#
# Coordination Sequence:
#
# PCOD8158632 Si02
#       7
#     8   8   8   8   8   8   8
#     4  11  23  41  64  91 123 165 218 263 307 370
#     4  11  20  35  58  85 123 158 200 249 317 379
#     4  10  21  35  57  88 122 155 200 256 317 384
#     4  11  23  38  63  89 123 162 214 254 311 372
#     4  10  20  35  57  87 117 161 201 249 320 384
#     4  11  21  35  56  88 124 162 201 255 319 372
#     4  10  20  39  63  87 119 159 204 257 311 375
#
# _framework density 21.297967
#
# number of rings (size 3 to 8) (size 9 to 14) (size 15 to 20)
#    0.000    1.429    4.286    2.143    0.000    0.571 
#    0.000    0.000    6.286    1.714    0.000    0.000 
#    0.000    0.000    0.000    0.000    0.000    0.000 
#
# Total GULP energy -346928.223290 kJ/mol
# GULP energy per Si atom -12390.293689 kJ/mol
# Density = 2.124949 g / cm^3
# Si number density = 21.297967 Si / 1000 Ang^3
#
#
#
# Elastic Constant Matrix: (Units=GPa)
#
#
# Indices 1 2 3 4 5 6 
#
# 1 68.5832 -4.4702 2.9627 0.0000 0.0000 0.0000
# 2 -4.4702 30.7510 16.7726 0.0000 0.0000 0.0000
# 3 2.9627 16.7726 51.8026 0.0000 0.0000 0.0000
# 4 0.0000 0.0000 0.0000 19.3467 0.0000 0.0000
# 5 0.0000 0.0000 0.0000 0.0000 32.8799 0.0000
# 6 0.0000 0.0000 0.0000 0.0000 0.0000 23.8261
#
#
#
# Elastic Compliance Matrix: (Units=1/GPa)
#
#
# Indices 1 2 3 4 5 6 
#
# 1 0.014870 0.003189 -0.001883 0.000000 0.000000 0.000000
# 2 0.003189 0.040178 -0.013191 0.000000 0.000000 0.000000
# 3 -0.001883 -0.013191 0.023683 0.000000 0.000000 0.000000
# 4 0.000000 0.000000 0.000000 0.051688 0.000000 0.000000
# 5 0.000000 0.000000 0.000000 0.000000 0.030414 0.000000
# 6 0.000000 0.000000 0.000000 0.000000 0.000000 0.041971
#
#
# Mechanical properties :
#
#
# Convention : Reuss Voigt Hill
#
# Bulk Modulus (GPa) = 18.19514 20.18522 19.19018
# Shear Modulus (GPa) = 20.41701 24.26865 22.34283
#
# Velocity S-wave (km/s) = 3.09954 3.37928 3.24243
# Velocity P-wave (km/s) = 4.62290 4.97234 4.80080
#
# Compressibility (1/GPa) = 0.05495973
#
# Stress axis : x y z
#
# Youngs Moduli (GPa) = 67.24958 24.88945 42.22486
#
# Poissons Ratio (x) = -0.07936 0.07950
# Poissons Ratio (y) = -0.21443 0.55699
# Poissons Ratio (z) = 0.12662 0.32832
#
# Static dielectric constant tensor:
#      x y z
#    x 4.201470 0.000000 0.000000 
#    y 0.000000 3.493610 0.000000 
#    z 0.000000 0.000000 4.200890 
# 
# 
# High freq. dielectric constant tensor:
#      x y z
#    x 1.828440 0.000000 0.000000 
#    y 0.000000 1.801710 0.000000 
#    z 0.000000 0.000000 1.851500 
# 
# From -- ./inp_files/14333.got.cif
#   From: 2010.03.12/outbox.cif.g09.slc.cpg/sg20_8_cif.got.tgz:14333.got - 2010.04.14 01:38:04.
