data_PCOD8158246
_publ_section_title
;
Structure prediction by ZEFSAII (Michael W. Deem and Ramdas Pophale) SiO2 
 PCOD8158246
Probable space group: C 2 2 21
;
_chemical_formula_sum "Si O2"
_cell_formula_units_Z 48
_cell_length_a 17.887433
_cell_length_b 27.088932
_cell_length_c 4.932253
_cell_angle_alpha 90.000000
_cell_angle_beta 90.000000
_cell_angle_gamma 90.000000
_cell_volume 2389.930373
_symmetry_space_group_name_H-M "C 2 2 21"
_symmetry_group_IT_number 20
_symmetry_cell_setting 'orthorhombic'
loop_
_space_group_symop_operation_xyz
x,y,z
-x,-y,1/2+z
x,-y,-z
-x,y,1/2-z
1/2+x,1/2+y,z
1/2-x,1/2-y,1/2+z
1/2+x,1/2-y,-z
1/2-x,1/2+y,1/2-z
loop_
_atom_site_type_symbol
_atom_site_label
_atom_site_fract_x
_atom_site_fract_y
_atom_site_fract_z
Si Si1 0.085647 0.732491 0.768910
Si Si2 0.136659 0.836895 0.643628
Si Si3 0.224533 0.050625 0.836039
Si Si4 0.085361 0.332387 0.735618
Si Si5 0.080810 0.890898 0.161968
Si Si6 0.720490 0.897122 0.835775
O O1 0.137980 0.779514 0.718778
O O2 0.104290 0.687394 0.564568
O O3 0.000000 0.750054 0.750000
O O4 0.100630 0.713930 0.070449
O O5 0.096367 0.844159 0.356059
O O6 0.222345 0.853022 0.595588
O O7 0.090719 0.871044 0.856634
O O8 0.137402 0.063340 0.786758
O O9 0.266769 0.056235 0.543345
O O10 0.263187 0.090541 0.025384
O O11 0.233603 0.000000 0.000000
O O12 0.135553 0.378194 0.835572
O O13 0.000000 0.351146 0.750000
O O14 0.000000 0.911857 0.250000
#
# Coordination Sequence:
#
# PCOD8158246 Si02
#       6
#     8   8   8   8   8   8
#     4  10  19  31  49  76 109 144 182 219 255 304
#     4  10  20  32  51  77 109 148 184 216 253 302
#     4  10  21  38  58  80 104 136 176 219 272 327
#     4  10  21  35  53  78 106 140 179 220 271 320
#     4  10  19  33  52  77 109 144 179 215 257 305
#     4  10  21  37  56  78 106 140 177 221 273 322
#
# _framework density 20.084267000000001
#
# number of rings (size 3 to 8) (size 9 to 14) (size 15 to 20)
#    0.000    2.000    0.000    4.000    0.000    2.667 
#    0.000    5.000    0.000    2.000    0.000    0.000 
#    0.000    0.000    0.000    0.000    0.000    0.000 
#
# Total GULP energy -297501.792450 kJ/mol
# GULP energy per Si atom -12395.908019 kJ/mol
# Density = 2.003855 g / cm^3
# Si number density = 20.084267 Si / 1000 Ang^3
#
#
#
# Elastic Constant Matrix: (Units=GPa)
#
#
# Indices 1 2 3 4 5 6 
#
# 1 107.4141 47.4779 27.9503 0.0000 0.0000 0.0000
# 2 47.4779 60.5671 4.9026 0.0000 0.0000 0.0000
# 3 27.9503 4.9026 87.7309 0.0000 0.0000 0.0000
# 4 0.0000 0.0000 0.0000 30.5564 0.0000 0.0000
# 5 0.0000 0.0000 0.0000 0.0000 21.8809 0.0000
# 6 0.0000 0.0000 0.0000 0.0000 0.0000 15.9472
#
#
#
# Elastic Compliance Matrix: (Units=1/GPa)
#
#
# Indices 1 2 3 4 5 6 
#
# 1 0.015738 -0.011985 -0.004344 0.000000 0.000000 0.000000
# 2 -0.011985 0.025713 0.002381 0.000000 0.000000 0.000000
# 3 -0.004344 0.002381 0.012649 0.000000 0.000000 0.000000
# 4 0.000000 0.000000 0.000000 0.032726 0.000000 0.000000
# 5 0.000000 0.000000 0.000000 0.000000 0.045702 0.000000
# 6 0.000000 0.000000 0.000000 0.000000 0.000000 0.062707
#
#
# Mechanical properties :
#
#
# Convention : Reuss Voigt Hill
#
# Bulk Modulus (GPa) = 38.16145 46.26376 42.21261
# Shear Modulus (GPa) = 21.56429 25.36899 23.46664
#
# Velocity S-wave (km/s) = 3.28028 3.55791 3.42191
# Velocity P-wave (km/s) = 5.77831 6.32164 6.05607
#
# Compressibility (1/GPa) = 0.02620445
#
# Stress axis : x y z
#
# Youngs Moduli (GPa) = 63.54231 38.89136 79.05508
#
# Poissons Ratio (x) = 0.46611 0.34342
# Poissons Ratio (y) = 0.76155 -0.18826
# Poissons Ratio (z) = 0.27603 -0.09262
#
# Static dielectric constant tensor:
#      x y z
#    x 3.611040 0.000000 0.000000 
#    y 0.000000 3.196960 0.000000 
#    z 0.000000 0.000000 3.949910 
# 
# 
# High freq. dielectric constant tensor:
#      x y z
#    x 1.767590 0.000000 0.000000 
#    y 0.000000 1.749180 0.000000 
#    z 0.000000 0.000000 1.809610 
# 
# From -- ./inp_files/2047.got.cif
#   From: 2010.03.12/outbox.cif.g09.slc.cpg/sg20_2_cif.got.tgz:2047.got - 2010.04.14 01:38:04.
