data_PCOD8158551
_publ_section_title
;
Structure prediction by ZEFSAII (Michael W. Deem and Ramdas Pophale) SiO2 
 PCOD8158551
Probable space group: C 2 2 21
;
_chemical_formula_sum "Si O2"
_cell_formula_units_Z 56
_cell_length_a 21.041903
_cell_length_b 15.148959
_cell_length_c 8.892615
_cell_angle_alpha 90.000000
_cell_angle_beta 90.000000
_cell_angle_gamma 90.000000
_cell_volume 2834.635976
_symmetry_space_group_name_H-M "C 2 2 21"
_symmetry_group_IT_number 20
_symmetry_cell_setting 'orthorhombic'
loop_
_space_group_symop_operation_xyz
x,y,z
-x,-y,1/2+z
x,-y,-z
-x,y,1/2-z
1/2+x,1/2+y,z
1/2-x,1/2-y,1/2+z
1/2+x,1/2-y,-z
1/2-x,1/2+y,1/2-z
loop_
_atom_site_type_symbol
_atom_site_label
_atom_site_fract_x
_atom_site_fract_y
_atom_site_fract_z
Si Si1 0.584217 0.372916 0.123110
Si Si2 0.773813 0.169257 0.635170
Si Si3 0.240853 0.002404 0.668873
Si Si4 0.518445 0.695940 0.399751
Si Si5 0.700843 0.840651 0.672199
Si Si6 0.593509 0.470504 0.662052
Si Si7 0.061579 0.292302 0.672973
O O1 0.657697 0.363034 0.071400
O O2 0.569502 0.468118 0.199201
O O3 0.571425 0.302850 0.253007
O O4 0.539090 0.355987 0.981769
O O5 0.725050 0.177391 0.496862
O O6 0.775955 0.263941 0.716045
O O7 0.750570 0.099519 0.760605
O O8 0.277142 0.935690 0.775955
O O9 0.168978 0.970228 0.662392
O O10 0.269607 0.000000 0.500000
O O11 0.500000 0.750051 0.250000
O O12 0.568123 0.628039 0.323025
O O13 0.549621 0.771207 0.499586
O O14 0.624472 0.850340 0.680593
O O15 0.567331 0.500000 0.500000
O O16 0.000000 0.339858 0.750000
#
# Coordination Sequence:
#
# PCOD8158551 Si02
#       7
#     8   8   8   8   8   8   8
#     4   9  20  36  47  75 116 154 193 237 278 349
#     4  10  22  37  59  89 120 158 203 244 301 355
#     4  10  22  40  59  87 123 155 198 252 298 354
#     4  11  23  30  50  78 114 158 197 235 282 347
#     4  11  22  38  65  86 119 162 197 249 305 364
#     4  10  20  31  51  76 114 156 195 230 281 343
#     4   9  20  39  57  77 112 151 196 243 300 345
#
# _framework density 19.755624000000001
#
# number of rings (size 3 to 8) (size 9 to 14) (size 15 to 20)
#    0.000    2.000    1.429    1.286    8.000    0.000 
#    0.000    1.429    0.000    1.714    0.000    0.000 
#    0.000    0.000    0.000    0.000    0.000    0.000 
#
# Total GULP energy -347073.876917 kJ/mol
# GULP energy per Si atom -12395.495604 kJ/mol
# Density = 1.971066 g / cm^3
# Si number density = 19.755624 Si / 1000 Ang^3
#
#
#
# Elastic Constant Matrix: (Units=GPa)
#
#
# Indices 1 2 3 4 5 6 
#
# 1 77.6831 15.5077 35.5566 0.0000 0.0000 0.0000
# 2 15.5077 40.1335 5.7480 0.0000 0.0000 0.0000
# 3 35.5566 5.7480 115.3691 0.0000 0.0000 0.0000
# 4 0.0000 0.0000 0.0000 24.0325 0.0000 0.0000
# 5 0.0000 0.0000 0.0000 0.0000 22.6823 0.0000
# 6 0.0000 0.0000 0.0000 0.0000 0.0000 23.1111
#
#
#
# Elastic Compliance Matrix: (Units=1/GPa)
#
#
# Indices 1 2 3 4 5 6 
#
# 1 0.016132 -0.005561 -0.004695 0.000000 0.000000 0.000000
# 2 -0.005561 0.027013 0.000368 0.000000 0.000000 0.000000
# 3 -0.004695 0.000368 0.010096 0.000000 0.000000 0.000000
# 4 0.000000 0.000000 0.000000 0.041610 0.000000 0.000000
# 5 0.000000 0.000000 0.000000 0.000000 0.044087 0.000000
# 6 0.000000 0.000000 0.000000 0.000000 0.000000 0.043269
#
#
# Mechanical properties :
#
#
# Convention : Reuss Voigt Hill
#
# Bulk Modulus (GPa) = 29.88133 38.53450 34.20791
# Shear Modulus (GPa) = 23.45895 25.72343 24.59119
#
# Velocity S-wave (km/s) = 3.44969 3.61235 3.53196
# Velocity P-wave (km/s) = 5.57005 6.07838 5.82976
#
# Compressibility (1/GPa) = 0.03346572
#
# Stress axis : x y z
#
# Youngs Moduli (GPa) = 61.98939 37.01934 99.04514
#
# Poissons Ratio (x) = 0.20586 0.46499
# Poissons Ratio (y) = 0.34472 -0.03645
# Poissons Ratio (z) = 0.29102 -0.01362
#
# Static dielectric constant tensor:
#      x y z
#    x 3.854810 0.000000 0.000000 
#    y 0.000000 3.178300 0.000000 
#    z 0.000000 0.000000 3.825110 
# 
# 
# High freq. dielectric constant tensor:
#      x y z
#    x 1.768020 0.000000 0.000000 
#    y 0.000000 1.728540 0.000000 
#    z 0.000000 0.000000 1.789240 
# 
# From -- ./inp_files/8743.got.cif
#   From: 2010.03.12/outbox.cif.g09.slc.cpg/sg20_5_cif.got.tgz:8743.got - 2010.04.14 01:38:04.
