data_PCOD8158003
_publ_section_title
;
Structure prediction by ZEFSAII (Michael W. Deem and Ramdas Pophale) SiO2 
 PCOD8158003
Probable space group: C 2 2 21
;
_chemical_formula_sum "Si O2"
_cell_formula_units_Z 56
_cell_length_a 24.993438
_cell_length_b 14.225845
_cell_length_c 9.321606
_cell_angle_alpha 90.000000
_cell_angle_beta 90.000000
_cell_angle_gamma 90.000000
_cell_volume 3314.322881
_symmetry_space_group_name_H-M "C 2 2 21"
_symmetry_group_IT_number 20
_symmetry_cell_setting 'orthorhombic'
loop_
_space_group_symop_operation_xyz
x,y,z
-x,-y,1/2+z
x,-y,-z
-x,y,1/2-z
1/2+x,1/2+y,z
1/2-x,1/2-y,1/2+z
1/2+x,1/2-y,-z
1/2-x,1/2+y,1/2-z
loop_
_atom_site_type_symbol
_atom_site_label
_atom_site_fract_x
_atom_site_fract_y
_atom_site_fract_z
Si Si1 0.753150 0.182429 0.169895
Si Si2 0.811357 0.908200 0.081885
Si Si3 0.847672 0.279203 0.831900
Si Si4 0.947856 0.395119 0.166447
Si Si5 0.245116 0.003065 0.838851
Si Si6 0.449309 0.889195 0.832363
Si Si7 0.669284 0.151082 0.637870
O O1 0.693760 0.223872 0.197511
O O2 0.796811 0.262786 0.203429
O O3 0.757778 0.103212 0.289056
O O4 0.761960 0.136575 0.012014
O O5 0.855673 0.826600 0.103294
O O6 0.792886 0.934020 0.240175
O O7 0.835028 0.000000 0.000000
O O8 0.902605 0.321647 0.774718
O O9 0.828870 0.344976 0.964388
O O10 0.938254 0.503113 0.210668
O O11 0.891347 0.343106 0.200841
O O12 0.000000 0.354005 0.250000
O O13 0.960306 0.381325 0.000340
O O14 0.304251 0.049903 0.826683
O O15 0.222780 0.000000 0.000000
O O16 0.500000 0.849247 0.750000
#
# Coordination Sequence:
#
# PCOD8158003 Si02
#       7
#     8   8   8   8   8   8   8
#     4  10  19  31  49  74 103 131 168 206 249 306
#     4   9  20  33  45  73 105 133 169 208 251 305
#     4  10  17  32  52  72 102 136 167 207 255 305
#     4   9  18  33  49  68  98 133 168 203 244 302
#     4  11  19  31  50  70 101 139 166 200 248 302
#     4   9  18  32  51  72  96 129 170 206 250 301
#     4  10  19  31  51  73 101 137 171 198 250 308
#
# _framework density 16.896363000000001
#
# number of rings (size 3 to 8) (size 9 to 14) (size 15 to 20)
#    0.000    2.286    2.857    0.857    2.000    0.000 
#    2.571    0.000    0.000    0.000    0.000   17.000 
#    0.000    0.000    0.000    0.000    0.000    0.000 
#
# Total GULP energy -346930.289861 kJ/mol
# GULP energy per Si atom -12390.367495 kJ/mol
# Density = 1.685791 g / cm^3
# Si number density = 16.896363 Si / 1000 Ang^3
#
#
#
# Elastic Constant Matrix: (Units=GPa)
#
#
# Indices 1 2 3 4 5 6 
#
# 1 126.4081 58.3753 40.3663 0.0000 0.0000 0.0000
# 2 58.3753 93.2410 34.2371 0.0000 0.0000 0.0000
# 3 40.3663 34.2371 67.6812 0.0000 0.0000 0.0000
# 4 0.0000 0.0000 0.0000 20.1967 0.0000 0.0000
# 5 0.0000 0.0000 0.0000 0.0000 25.4241 0.0000
# 6 0.0000 0.0000 0.0000 0.0000 0.0000 25.5477
#
#
#
# Elastic Compliance Matrix: (Units=1/GPa)
#
#
# Indices 1 2 3 4 5 6 
#
# 1 0.011996 -0.005997 -0.004121 0.000000 0.000000 0.000000
# 2 -0.005997 0.016170 -0.004603 0.000000 0.000000 0.000000
# 3 -0.004121 -0.004603 0.019561 0.000000 0.000000 0.000000
# 4 0.000000 0.000000 0.000000 0.049513 0.000000 0.000000
# 5 0.000000 0.000000 0.000000 0.000000 0.039333 0.000000
# 6 0.000000 0.000000 0.000000 0.000000 0.000000 0.039143
#
#
# Mechanical properties :
#
#
# Convention : Reuss Voigt Hill
#
# Bulk Modulus (GPa) = 54.68877 61.47642 58.08259
# Shear Modulus (GPa) = 23.66830 24.52382 24.09606
#
# Velocity S-wave (km/s) = 3.74678 3.81389 3.78048
# Velocity P-wave (km/s) = 7.15229 7.47380 7.31481
#
# Compressibility (1/GPa) = 0.01828529
#
# Stress axis : x y z
#
# Youngs Moduli (GPa) = 83.35768 61.84398 51.12130
#
# Poissons Ratio (x) = 0.37090 0.21068
# Poissons Ratio (y) = 0.49993 0.23529
# Poissons Ratio (z) = 0.34352 0.28464
#
# Static dielectric constant tensor:
#      x y z
#    x 3.080090 0.000000 0.000000 
#    y 0.000000 3.302650 0.000000 
#    z 0.000000 0.000000 3.190160 
# 
# 
# High freq. dielectric constant tensor:
#      x y z
#    x 1.617790 0.000000 0.000000 
#    y 0.000000 1.654060 0.000000 
#    z 0.000000 0.000000 1.646110 
# 
# From -- ./inp_files/10197.got.cif
#   From: 2010.03.12/outbox.cif.g09.slc.cpg/sg20_6_cif.got.tgz:10197.got - 2010.04.14 01:38:04.
