data_PCOD8158101
_publ_section_title
;
Structure prediction by ZEFSAII (Michael W. Deem and Ramdas Pophale) SiO2 
 PCOD8158101
Probable space group: C 2 2 21
;
_chemical_formula_sum "Si O2"
_cell_formula_units_Z 48
_cell_length_a 15.597013
_cell_length_b 17.725116
_cell_length_c 8.662749
_cell_angle_alpha 90.000000
_cell_angle_beta 90.000000
_cell_angle_gamma 90.000000
_cell_volume 2394.893754
_symmetry_space_group_name_H-M "C 2 2 21"
_symmetry_group_IT_number 20
_symmetry_cell_setting 'orthorhombic'
loop_
_space_group_symop_operation_xyz
x,y,z
-x,-y,1/2+z
x,-y,-z
-x,y,1/2-z
1/2+x,1/2+y,z
1/2-x,1/2-y,1/2+z
1/2+x,1/2-y,-z
1/2-x,1/2+y,1/2-z
loop_
_atom_site_type_symbol
_atom_site_label
_atom_site_fract_x
_atom_site_fract_y
_atom_site_fract_z
Si Si1 0.616435 0.423313 0.556367
Si Si2 0.786803 0.042605 0.349561
Si Si3 0.072720 0.239280 0.432252
Si Si4 0.227764 0.405893 0.176332
Si Si5 0.245096 0.686508 0.522985
Si Si6 0.104842 0.711321 0.910309
O O1 0.568742 0.500000 0.500000
O O2 0.635770 0.434642 0.737423
O O3 0.557819 0.349801 0.532067
O O4 0.704321 0.412489 0.460831
O O5 0.739978 0.118600 0.400751
O O6 0.825213 0.000000 0.500000
O O7 0.719266 0.987142 0.260848
O O8 0.157871 0.268938 0.515981
O O9 0.089234 0.248177 0.251576
O O10 0.988714 0.284996 0.492811
O O11 0.254499 0.342724 0.301871
O O12 0.136822 0.375886 0.107192
O O13 0.325005 0.741898 0.504026
#
# Coordination Sequence:
#
# PCOD8158101 Si02
#       6
#     8   8   8   8   8   8
#     4  10  18  33  56  82 117 149 189 236 295 348
#     4   9  18  33  58  86 108 151 194 235 293 354
#     4  10  20  33  57  86 113 154 196 239 296 359
#     4   9  19  33  56  83 112 153 189 236 294 347
#     4  10  18  34  58  82 112 148 194 242 290 350
#     4  10  19  34  57  83 115 154 193 238 294 354
#
# _framework density 20.042642000000001
#
# number of rings (size 3 to 8) (size 9 to 14) (size 15 to 20)
#    0.000    2.333    3.333    0.000    0.000    0.000 
#    0.000    3.333    0.000   29.000    0.000    0.000 
#    0.000    0.000    0.000    0.000    0.000    0.000 
#
# Total GULP energy -297377.303228 kJ/mol
# GULP energy per Si atom -12390.720968 kJ/mol
# Density = 1.999702 g / cm^3
# Si number density = 20.042642 Si / 1000 Ang^3
#
#
#
# Elastic Constant Matrix: (Units=GPa)
#
#
# Indices 1 2 3 4 5 6 
#
# 1 84.6740 4.0445 15.6403 0.0000 0.0000 0.0000
# 2 4.0445 70.3528 14.3005 0.0000 0.0000 0.0000
# 3 15.6403 14.3005 58.1937 0.0000 0.0000 0.0000
# 4 0.0000 0.0000 0.0000 23.3821 0.0000 0.0000
# 5 0.0000 0.0000 0.0000 0.0000 15.2920 0.0000
# 6 0.0000 0.0000 0.0000 0.0000 0.0000 26.1994
#
#
#
# Elastic Compliance Matrix: (Units=1/GPa)
#
#
# Indices 1 2 3 4 5 6 
#
# 1 0.012427 -0.000037 -0.003331 0.000000 0.000000 0.000000
# 2 -0.000037 0.014962 -0.003667 0.000000 0.000000 0.000000
# 3 -0.003331 -0.003667 0.018980 0.000000 0.000000 0.000000
# 4 0.000000 0.000000 0.000000 0.042768 0.000000 0.000000
# 5 0.000000 0.000000 0.000000 0.000000 0.065394 0.000000
# 6 0.000000 0.000000 0.000000 0.000000 0.000000 0.038169
#
#
# Mechanical properties :
#
#
# Convention : Reuss Voigt Hill
#
# Bulk Modulus (GPa) = 30.96040 31.24345 31.10193
# Shear Modulus (GPa) = 22.98483 24.92371 23.95427
#
# Velocity S-wave (km/s) = 3.39011 3.53020 3.46087
# Velocity P-wave (km/s) = 5.55019 5.67792 5.61442
#
# Compressibility (1/GPa) = 0.03229932
#
# Stress axis : x y z
#
# Youngs Moduli (GPa) = 80.46985 66.83808 52.68648
#
# Poissons Ratio (x) = 0.00250 0.17548
# Poissons Ratio (y) = 0.00301 0.19318
# Poissons Ratio (z) = 0.26802 0.24507
#
# Static dielectric constant tensor:
#      x y z
#    x 3.632590 0.000000 0.000000 
#    y 0.000000 4.036380 0.000000 
#    z 0.000000 0.000000 3.682600 
# 
# 
# High freq. dielectric constant tensor:
#      x y z
#    x 1.741230 0.000000 0.000000 
#    y 0.000000 1.795440 0.000000 
#    z 0.000000 0.000000 1.778450 
# 
# From -- ./inp_files/8407.got.cif
#   From: 2010.03.12/outbox.cif.g09.slc.cpg/sg20_5_cif.got.tgz:8407.got - 2010.04.14 01:38:04.
