data_PCOD8158979
_publ_section_title
;
Structure prediction by ZEFSAII (Michael W. Deem and Ramdas Pophale) SiO2 
 PCOD8158979
Probable space group: C 2 2 21
;
_chemical_formula_sum "Si O2"
_cell_formula_units_Z 44
_cell_length_a 10.985685
_cell_length_b 7.671578
_cell_length_c 25.092251
_cell_angle_alpha 90.000000
_cell_angle_beta 90.000000
_cell_angle_gamma 90.000000
_cell_volume 2114.713171
_symmetry_space_group_name_H-M "C 2 2 21"
_symmetry_group_IT_number 20
_symmetry_cell_setting 'orthorhombic'
loop_
_space_group_symop_operation_xyz
x,y,z
-x,-y,1/2+z
x,-y,-z
-x,y,1/2-z
1/2+x,1/2+y,z
1/2-x,1/2-y,1/2+z
1/2+x,1/2-y,-z
1/2-x,1/2+y,1/2-z
loop_
_atom_site_type_symbol
_atom_site_label
_atom_site_fract_x
_atom_site_fract_y
_atom_site_fract_z
Si Si1 0.871260 0.036774 0.761977
Si Si2 0.808598 0.423889 0.088243
Si Si3 0.556637 0.777169 0.642648
Si Si4 0.796024 0.711847 0.324793
Si Si5 0.495216 0.000000 0.000000
Si Si6 0.052735 0.865707 0.042908
O O1 0.893721 0.189730 0.804209
O O2 0.824739 0.109337 0.705834
O O3 0.000000 0.938918 0.750000
O O4 0.767387 0.913776 0.783503
O O5 0.840812 0.586181 0.125949
O O6 0.794152 0.252941 0.125711
O O7 0.680729 0.453208 0.058666
O O8 0.913948 0.404316 0.044772
O O9 0.424437 0.867531 0.654165
O O10 0.537034 0.639434 0.594058
O O11 0.572542 0.836400 0.977187
O O12 0.994481 0.000000 0.000000
#
# Coordination Sequence:
#
# PCOD8158979 Si02
#       6
#     8   8   8   8   4   8
#     4  10  21  38  59  89 120 154 197 246 301 365
#     4  10  20  41  58  84 120 157 200 256 306 355
#     4   9  21  39  57  83 119 152 197 251 296 361
#     4  10  21  36  59  86 118 155 199 244 306 366
#     4  10  22  40  58  86 122 156 208 258 302 368
#     4  10  21  40  60  85 119 160 203 252 305 362
#
# _framework density 20.806605000000001
#
# number of rings (size 3 to 8) (size 9 to 14) (size 15 to 20)
#    0.000    2.182    0.909    1.091    2.545    1.455 
#   11.455    0.000    0.000    0.000    0.000    0.000 
#    0.000    0.000    0.000    0.000    0.000    0.000 
#
# Total GULP energy -272643.676974 kJ/mol
# GULP energy per Si atom -12392.894408 kJ/mol
# Density = 2.075925 g / cm^3
# Si number density = 20.806605 Si / 1000 Ang^3
#
#
#
# Elastic Constant Matrix: (Units=GPa)
#
#
# Indices 1 2 3 4 5 6 
#
# 1 93.7200 38.1896 25.1731 0.0000 0.0000 0.0000
# 2 38.1896 57.0801 14.7251 0.0000 0.0000 0.0000
# 3 25.1731 14.7251 88.5000 0.0000 0.0000 0.0000
# 4 0.0000 0.0000 0.0000 37.0092 0.0000 0.0000
# 5 0.0000 0.0000 0.0000 0.0000 28.1414 0.0000
# 6 0.0000 0.0000 0.0000 0.0000 0.0000 26.4398
#
#
#
# Elastic Compliance Matrix: (Units=1/GPa)
#
#
# Indices 1 2 3 4 5 6 
#
# 1 0.015291 -0.009517 -0.002766 0.000000 0.000000 0.000000
# 2 -0.009517 0.024228 -0.001324 0.000000 0.000000 0.000000
# 3 -0.002766 -0.001324 0.012307 0.000000 0.000000 0.000000
# 4 0.000000 0.000000 0.000000 0.027020 0.000000 0.000000
# 5 0.000000 0.000000 0.000000 0.000000 0.035535 0.000000
# 6 0.000000 0.000000 0.000000 0.000000 0.000000 0.037822
#
#
# Mechanical properties :
#
#
# Convention : Reuss Voigt Hill
#
# Bulk Modulus (GPa) = 40.63133 43.94175 42.28654
# Shear Modulus (GPa) = 26.64949 29.06556 27.85753
#
# Velocity S-wave (km/s) = 3.58274 3.74162 3.66304
# Velocity P-wave (km/s) = 6.05683 6.31120 6.18532
#
# Compressibility (1/GPa) = 0.02461155
#
# Stress axis : x y z
#
# Youngs Moduli (GPa) = 65.39769 41.27420 81.25784
#
# Poissons Ratio (x) = 0.39281 0.22475
# Poissons Ratio (y) = 0.62239 0.10760
# Poissons Ratio (z) = 0.18088 0.05466
#
# Static dielectric constant tensor:
#      x y z
#    x 3.790200 0.000000 0.000000 
#    y 0.000000 3.369100 0.000000 
#    z 0.000000 0.000000 4.169340 
# 
# 
# High freq. dielectric constant tensor:
#      x y z
#    x 1.806290 0.000000 0.000000 
#    y 0.000000 1.775270 0.000000 
#    z 0.000000 0.000000 1.848640 
# 
# From -- ./inp_files/28649.got.cif
#   From: 2010.03.12/outbox.cif.g09.slc.cpg/sg20_15_cif.got.tgz:28649.got - 2010.04.14 01:38:04.
