data_PCOD8158270
_publ_section_title
;
Structure prediction by ZEFSAII (Michael W. Deem and Ramdas Pophale) SiO2 
 PCOD8158270
Probable space group: C 2 2 21
;
_chemical_formula_sum "Si O2"
_cell_formula_units_Z 56
_cell_length_a 4.995144
_cell_length_b 34.407322
_cell_length_c 15.970712
_cell_angle_alpha 90.000000
_cell_angle_beta 90.000000
_cell_angle_gamma 90.000000
_cell_volume 2744.878734
_symmetry_space_group_name_H-M "C 2 2 21"
_symmetry_group_IT_number 20
_symmetry_cell_setting 'orthorhombic'
loop_
_space_group_symop_operation_xyz
x,y,z
-x,-y,1/2+z
x,-y,-z
-x,y,1/2-z
1/2+x,1/2+y,z
1/2-x,1/2-y,1/2+z
1/2+x,1/2-y,-z
1/2-x,1/2+y,1/2-z
loop_
_atom_site_type_symbol
_atom_site_label
_atom_site_fract_x
_atom_site_fract_y
_atom_site_fract_z
Si Si1 0.430001 0.893593 0.846326
Si Si2 0.060294 0.854830 0.575562
Si Si3 0.238254 0.694441 0.806464
Si Si4 0.506606 0.955405 0.519011
Si Si5 0.241004 0.608565 0.801360
Si Si6 0.606345 0.725563 0.514340
Si Si7 0.996737 0.079396 0.955819
O O1 0.500000 0.901619 0.750000
O O2 0.652644 0.867397 0.890378
O O3 0.159947 0.867878 0.855184
O O4 0.397649 0.936087 0.892209
O O5 0.062244 0.809788 0.551035
O O6 0.994960 0.876700 0.488847
O O7 0.500000 0.696667 0.750000
O O8 0.144107 0.650753 0.833770
O O9 0.279432 0.715928 0.894090
O O10 0.000000 0.713140 0.750000
O O11 0.188734 0.947774 0.514676
O O12 0.696845 0.934849 0.448977
O O13 0.566063 0.000000 0.500000
O O14 0.500000 0.619151 0.750000
O O15 0.336705 0.577625 0.869453
O O16 0.000000 0.588396 0.750000
O O17 0.320654 0.745832 0.528089
#
# Coordination Sequence:
#
# PCOD8158270 Si02
#       7
#     8   8   8   8   8   8   8
#     4  10  21  39  64  87 117 160 209 255 302 357
#     4  10  21  39  60  86 113 153 207 251 297 359
#     4  10  21  38  59  82 115 153 192 237 295 367
#     4  10  21  36  59  87 119 159 200 243 305 359
#     4  10  19  32  55  84 111 144 186 236 289 343
#     4  12  24  40  61  89 123 159 204 254 316 370
#     4  10  19  36  58  81 116 152 197 246 281 361
#
# _framework density 20.401630000000001
#
# number of rings (size 3 to 8) (size 9 to 14) (size 15 to 20)
#    0.000    1.714    1.429    3.429    0.000    0.000 
#    0.000    9.286    0.000    1.714    0.000    0.000 
#    0.000    0.000    0.000    0.000    0.000    0.000 
#
# Total GULP energy -346930.736180 kJ/mol
# GULP energy per Si atom -12390.383435 kJ/mol
# Density = 2.035520 g / cm^3
# Si number density = 20.401630 Si / 1000 Ang^3
#
#
#
# Elastic Constant Matrix: (Units=GPa)
#
#
# Indices 1 2 3 4 5 6 
#
# 1 110.1360 23.5955 16.1035 0.0000 0.0000 0.0000
# 2 23.5955 108.9908 34.3804 0.0000 0.0000 0.0000
# 3 16.1035 34.3804 96.8362 0.0000 0.0000 0.0000
# 4 0.0000 0.0000 0.0000 18.2547 0.0000 0.0000
# 5 0.0000 0.0000 0.0000 0.0000 39.9242 0.0000
# 6 0.0000 0.0000 0.0000 0.0000 0.0000 24.1415
#
#
#
# Elastic Compliance Matrix: (Units=1/GPa)
#
#
# Indices 1 2 3 4 5 6 
#
# 1 0.009601 -0.001774 -0.000967 0.000000 0.000000 0.000000
# 2 -0.001774 0.010660 -0.003490 0.000000 0.000000 0.000000
# 3 -0.000967 -0.003490 0.011726 0.000000 0.000000 0.000000
# 4 0.000000 0.000000 0.000000 0.054780 0.000000 0.000000
# 5 0.000000 0.000000 0.000000 0.000000 0.025047 0.000000
# 6 0.000000 0.000000 0.000000 0.000000 0.000000 0.041422
#
#
# Mechanical properties :
#
#
# Convention : Reuss Voigt Hill
#
# Bulk Modulus (GPa) = 51.21115 51.56912 51.39013
# Shear Modulus (GPa) = 29.03483 32.58966 30.81225
#
# Velocity S-wave (km/s) = 3.77657 4.00109 3.89045
# Velocity P-wave (km/s) = 6.64625 6.83204 6.73979
#
# Compressibility (1/GPa) = 0.01952700
#
# Stress axis : x y z
#
# Youngs Moduli (GPa) = 104.15555 93.81003 85.27703
#
# Poissons Ratio (x) = 0.16637 0.08246
# Poissons Ratio (y) = 0.18472 0.29759
# Poissons Ratio (z) = 0.10071 0.32737
#
# Static dielectric constant tensor:
#      x y z
#    x 3.915820 0.000000 0.000000 
#    y 0.000000 3.502510 0.000000 
#    z 0.000000 0.000000 3.569000 
# 
# 
# High freq. dielectric constant tensor:
#      x y z
#    x 1.824100 0.000000 0.000000 
#    y 0.000000 1.771040 0.000000 
#    z 0.000000 0.000000 1.783210 
# 
# From -- ./inp_files/17951.got.cif
#   From: 2010.03.12/outbox.cif.g09.slc.cpg/sg20_9_cif.got.tgz:17951.got - 2010.04.14 01:38:04.
