data_PCOD8158825
_publ_section_title
;
Structure prediction by ZEFSAII (Michael W. Deem and Ramdas Pophale) SiO2 
 PCOD8158825
Probable space group: C 2 2 21
;
_chemical_formula_sum "Si O2"
_cell_formula_units_Z 64
_cell_length_a 23.122639
_cell_length_b 8.617352
_cell_length_c 15.723622
_cell_angle_alpha 90.000000
_cell_angle_beta 90.000000
_cell_angle_gamma 90.000000
_cell_volume 3133.024758
_symmetry_space_group_name_H-M "C 2 2 21"
_symmetry_group_IT_number 20
_symmetry_cell_setting 'orthorhombic'
loop_
_space_group_symop_operation_xyz
x,y,z
-x,-y,1/2+z
x,-y,-z
-x,y,1/2-z
1/2+x,1/2+y,z
1/2-x,1/2-y,1/2+z
1/2+x,1/2-y,-z
1/2-x,1/2+y,1/2-z
loop_
_atom_site_type_symbol
_atom_site_label
_atom_site_fract_x
_atom_site_fract_y
_atom_site_fract_z
Si Si1 0.204532 0.592074 0.084781
Si Si2 0.324248 0.334046 0.858870
Si Si3 0.088997 0.184045 0.499573
Si Si4 0.155322 0.186001 0.669142
Si Si5 0.213145 0.704419 0.815069
Si Si6 0.374237 0.604517 0.422108
Si Si7 0.535484 0.819957 0.985785
Si Si8 0.893269 0.796626 0.344538
O O1 0.269341 0.659028 0.077304
O O2 0.203764 0.476599 0.165348
O O3 0.160269 0.732218 0.098638
O O4 0.187330 0.500000 0.000000
O O5 0.340463 0.501536 0.822639
O O6 0.311566 0.223387 0.779476
O O7 0.376685 0.266750 0.914635
O O8 0.126530 0.236396 0.580906
O O9 0.030564 0.280239 0.496845
O O10 0.076800 0.000000 0.500000
O O11 0.219754 0.255885 0.679389
O O12 0.114743 0.248628 0.746014
O O13 0.180058 0.803964 0.885517
O O14 0.352380 0.500000 0.500000
O O15 0.425467 0.720531 0.449223
O O16 0.397699 0.483535 0.351386
O O17 0.549612 0.778815 0.886875
O O18 0.547700 0.000000 0.000000
#
# Coordination Sequence:
#
# PCOD8158825 Si02
#       8
#     8   8   8   8   8   8   8   8
#     4  11  21  36  60  94 130 171 204 251 314 371
#     4  10  20  38  62  92 127 165 207 250 308 380
#     4  10  22  43  66  84 118 170 213 254 305 375
#     4  10  21  38  62  94 127 161 207 252 309 372
#     4  11  20  37  61  97 131 162 200 254 309 371
#     4  10  21  37  64  91 120 161 209 254 303 369
#     4  11  24  44  62  89 120 159 211 264 318 367
#     4  11  20  37  64  91 123 161 207 255 303 371
#
# _framework density 20.427544000000001
#
# number of rings (size 3 to 8) (size 9 to 14) (size 15 to 20)
#    0.000    1.500    2.500    5.625    0.000    0.500 
#    2.250    1.250    2.750    0.000    0.000    0.000 
#    0.000    0.000    0.000    0.000    0.000    0.000 
#
# Total GULP energy -396795.806272 kJ/mol
# GULP energy per Si atom -12399.868946 kJ/mol
# Density = 2.038105 g / cm^3
# Si number density = 20.427544 Si / 1000 Ang^3
#
#
#
# Elastic Constant Matrix: (Units=GPa)
#
#
# Indices 1 2 3 4 5 6 
#
# 1 130.2126 48.9138 68.8334 0.0000 0.0000 0.0000
# 2 48.9138 81.6514 29.0004 0.0000 0.0000 0.0000
# 3 68.8334 29.0004 124.2311 0.0000 0.0000 0.0000
# 4 0.0000 0.0000 0.0000 27.2443 0.0000 0.0000
# 5 0.0000 0.0000 0.0000 0.0000 35.0913 0.0000
# 6 0.0000 0.0000 0.0000 0.0000 0.0000 32.3966
#
#
#
# Elastic Compliance Matrix: (Units=1/GPa)
#
#
# Indices 1 2 3 4 5 6 
#
# 1 0.012876 -0.005648 -0.005816 0.000000 0.000000 0.000000
# 2 -0.005648 0.015832 -0.000567 0.000000 0.000000 0.000000
# 3 -0.005816 -0.000567 0.011404 0.000000 0.000000 0.000000
# 4 0.000000 0.000000 0.000000 0.036705 0.000000 0.000000
# 5 0.000000 0.000000 0.000000 0.000000 0.028497 0.000000
# 6 0.000000 0.000000 0.000000 0.000000 0.000000 0.030867
#
#
# Mechanical properties :
#
#
# Convention : Reuss Voigt Hill
#
# Bulk Modulus (GPa) = 62.29875 69.95448 66.12661
# Shear Modulus (GPa) = 30.19490 31.56960 30.88225
#
# Velocity S-wave (km/s) = 3.84884 3.93548 3.89240
# Velocity P-wave (km/s) = 7.09331 7.41419 7.25552
#
# Compressibility (1/GPa) = 0.01605169
#
# Stress axis : x y z
#
# Youngs Moduli (GPa) = 77.66670 63.16467 87.68799
#
# Poissons Ratio (x) = 0.35673 0.50996
# Poissons Ratio (y) = 0.43863 0.04968
# Poissons Ratio (z) = 0.45168 0.03578
#
# Static dielectric constant tensor:
#      x y z
#    x 3.634850 0.000000 0.000000 
#    y 0.000000 3.670980 0.000000 
#    z 0.000000 0.000000 3.750270 
# 
# 
# High freq. dielectric constant tensor:
#      x y z
#    x 1.789680 0.000000 0.000000 
#    y 0.000000 1.788370 0.000000 
#    z 0.000000 0.000000 1.802690 
# 
# From -- ./inp_files/22027.got.cif
#   From: 2010.03.12/outbox.cif.g09.slc.cpg/sg20_12_cif.got.tgz:22027.got - 2010.04.14 01:38:04.
