data_PCOD8158368
_publ_section_title
;
Structure prediction by ZEFSAII (Michael W. Deem and Ramdas Pophale) SiO2 
 PCOD8158368
Probable space group: C 2 2 21
;
_chemical_formula_sum "Si O2"
_cell_formula_units_Z 60
_cell_length_a 7.987451
_cell_length_b 14.859850
_cell_length_c 24.538862
_cell_angle_alpha 90.000000
_cell_angle_beta 90.000000
_cell_angle_gamma 90.000000
_cell_volume 2912.574553
_symmetry_space_group_name_H-M "C 2 2 21"
_symmetry_group_IT_number 20
_symmetry_cell_setting 'orthorhombic'
loop_
_space_group_symop_operation_xyz
x,y,z
-x,-y,1/2+z
x,-y,-z
-x,y,1/2-z
1/2+x,1/2+y,z
1/2-x,1/2-y,1/2+z
1/2+x,1/2-y,-z
1/2-x,1/2+y,1/2-z
loop_
_atom_site_type_symbol
_atom_site_label
_atom_site_fract_x
_atom_site_fract_y
_atom_site_fract_z
Si Si1 0.372218 0.699594 0.163720
Si Si2 0.697638 0.174885 0.469425
Si Si3 0.818298 0.672249 0.228886
Si Si4 0.299393 0.782300 0.367138
Si Si5 0.574609 0.529224 0.193793
Si Si6 0.644696 0.229397 0.064838
Si Si7 0.033693 0.090937 0.601523
Si Si8 0.097146 0.000000 0.000000
O O1 0.293012 0.715816 0.223015
O O2 0.505352 0.780885 0.151927
O O3 0.461064 0.603913 0.165187
O O4 0.235351 0.687301 0.116777
O O5 0.793364 0.214216 0.417582
O O6 0.498410 0.162046 0.458529
O O7 0.719216 0.246303 0.518827
O O8 0.779453 0.080322 0.484061
O O9 0.820277 0.744906 0.180743
O O10 0.752121 0.575875 0.206642
O O11 0.000000 0.650965 0.250000
O O12 0.226610 0.882573 0.381621
O O13 0.500000 0.491409 0.250000
O O14 0.578505 0.447059 0.151343
O O15 0.548243 0.316903 0.084068
O O16 0.026528 0.023440 0.550163
#
# Coordination Sequence:
#
# PCOD8158368 Si02
#       8
#     8   8   8   8   8   8   8   4
#     4  10  20  37  58  82 112 147 191 238 282 340
#     4  10  20  36  57  82 114 153 192 238 288 339
#     4  10  19  35  60  86 112 152 194 232 285 342
#     4  10  20  35  58  85 113 149 193 237 284 339
#     4   9  20  37  56  82 118 151 185 232 286 337
#     4  10  21  37  58  83 112 150 195 239 285 336
#     4  10  21  36  57  83 113 152 188 230 288 340
#     4  10  20  36  58  86 120 150 188 238 290 342
#
# _framework density 20.600331000000001
#
# number of rings (size 3 to 8) (size 9 to 14) (size 15 to 20)
#    0.000    2.133    0.000    5.200    0.000    3.733 
#    0.000    8.000    0.000    1.600    0.000    0.000 
#    0.000    0.000    0.000    0.000    0.000    0.000 
#
# Total GULP energy -371859.978455 kJ/mol
# GULP energy per Si atom -12395.332615 kJ/mol
# Density = 2.055344 g / cm^3
# Si number density = 20.600331 Si / 1000 Ang^3
#
#
#
# Elastic Constant Matrix: (Units=GPa)
#
#
# Indices 1 2 3 4 5 6 
#
# 1 82.4831 23.3611 20.9159 0.0000 0.0000 0.0000
# 2 23.3611 54.7155 35.9338 0.0000 0.0000 0.0000
# 3 20.9159 35.9338 115.7120 0.0000 0.0000 0.0000
# 4 0.0000 0.0000 0.0000 30.5429 0.0000 0.0000
# 5 0.0000 0.0000 0.0000 0.0000 43.3071 0.0000
# 6 0.0000 0.0000 0.0000 0.0000 0.0000 15.1747
#
#
#
# Elastic Compliance Matrix: (Units=1/GPa)
#
#
# Indices 1 2 3 4 5 6 
#
# 1 0.013856 -0.005365 -0.000838 0.000000 0.000000 0.000000
# 2 -0.005365 0.025036 -0.006805 0.000000 0.000000 0.000000
# 3 -0.000838 -0.006805 0.010907 0.000000 0.000000 0.000000
# 4 0.000000 0.000000 0.000000 0.032741 0.000000 0.000000
# 5 0.000000 0.000000 0.000000 0.000000 0.023091 0.000000
# 6 0.000000 0.000000 0.000000 0.000000 0.000000 0.065899
#
#
# Mechanical properties :
#
#
# Convention : Reuss Voigt Hill
#
# Bulk Modulus (GPa) = 42.04926 45.92583 43.98754
# Shear Modulus (GPa) = 24.33393 29.31827 26.82610
#
# Velocity S-wave (km/s) = 3.44065 3.77662 3.61254
# Velocity P-wave (km/s) = 6.01999 6.43112 6.22895
#
# Compressibility (1/GPa) = 0.02378163
#
# Stress axis : x y z
#
# Youngs Moduli (GPa) = 72.17171 39.94215 91.68443
#
# Poissons Ratio (x) = 0.21430 0.07687
# Poissons Ratio (y) = 0.38722 0.62392
# Poissons Ratio (z) = 0.06051 0.27181
#
# Static dielectric constant tensor:
#      x y z
#    x 3.905360 0.000000 0.000000 
#    y 0.000000 3.501530 0.000000 
#    z 0.000000 0.000000 4.203400 
# 
# 
# High freq. dielectric constant tensor:
#      x y z
#    x 1.798230 0.000000 0.000000 
#    y 0.000000 1.771370 0.000000 
#    z 0.000000 0.000000 1.836010 
# 
# From -- ./inp_files/28842.got.cif
#   From: 2010.03.12/outbox.cif.g09.slc.cpg/sg20_15_cif.got.tgz:28842.got - 2010.04.14 01:38:04.
