data_PCOD8158862
_publ_section_title
;
Structure prediction by ZEFSAII (Michael W. Deem and Ramdas Pophale) SiO2 
 PCOD8158862
Probable space group: C 2 2 21
;
_chemical_formula_sum "Si O2"
_cell_formula_units_Z 36
_cell_length_a 10.531829
_cell_length_b 15.346065
_cell_length_c 10.280506
_cell_angle_alpha 90.000000
_cell_angle_beta 90.000000
_cell_angle_gamma 90.000000
_cell_volume 1661.557302
_symmetry_space_group_name_H-M "C 2 2 21"
_symmetry_group_IT_number 20
_symmetry_cell_setting 'orthorhombic'
loop_
_space_group_symop_operation_xyz
x,y,z
-x,-y,1/2+z
x,-y,-z
-x,y,1/2-z
1/2+x,1/2+y,z
1/2-x,1/2-y,1/2+z
1/2+x,1/2-y,-z
1/2-x,1/2+y,1/2-z
loop_
_atom_site_type_symbol
_atom_site_label
_atom_site_fract_x
_atom_site_fract_y
_atom_site_fract_z
Si Si1 0.606517 0.337791 0.648014
Si Si2 0.597795 0.153947 0.565860
Si Si3 0.865723 0.615646 0.219283
Si Si4 0.856957 0.000000 0.000000
Si Si5 0.154405 0.574776 0.822966
O O1 0.500000 0.312109 0.750000
O O2 0.602557 0.258597 0.544896
O O3 0.745459 0.339563 0.713271
O O4 0.564076 0.432031 0.587855
O O5 0.655729 0.110900 0.436239
O O6 0.683385 0.130680 0.692776
O O7 0.455953 0.118375 0.590908
O O8 0.885438 0.520854 0.279359
O O9 0.000000 0.665693 0.250000
O O10 0.776624 0.068452 0.913980
#
# Coordination Sequence:
#
# PCOD8158862 Si02
#       5
#     8   8   8   4   8
#     4  11  25  45  63  95 135 180 210 270 336 392
#     4  11  21  37  69  98 132 163 224 272 324 386
#     4  11  23  40  67 101 129 168 225 270 327 389
#     4  10  24  44  66  86 140 174 222 266 338 388
#     4  10  20  38  69  96 126 171 215 273 326 378
#
# _framework density 21.666419000000001
#
# number of rings (size 3 to 8) (size 9 to 14) (size 15 to 20)
#    0.000    1.333    4.444    3.333    3.111    1.778 
#    8.000    1.111    0.000    0.000    0.000    0.000 
#    0.000    0.000    0.000    0.000    0.000    0.000 
#
# Total GULP energy -223084.729990 kJ/mol
# GULP energy per Si atom -12393.596111 kJ/mol
# Density = 2.161711 g / cm^3
# Si number density = 21.666419 Si / 1000 Ang^3
#
#
#
# Elastic Constant Matrix: (Units=GPa)
#
#
# Indices 1 2 3 4 5 6 
#
# 1 70.4037 35.2416 4.4460 0.0000 0.0000 0.0000
# 2 35.2416 96.3730 17.0102 0.0000 0.0000 0.0000
# 3 4.4460 17.0102 76.9498 0.0000 0.0000 0.0000
# 4 0.0000 0.0000 0.0000 22.2514 0.0000 0.0000
# 5 0.0000 0.0000 0.0000 0.0000 15.4653 0.0000
# 6 0.0000 0.0000 0.0000 0.0000 0.0000 20.4355
#
#
#
# Elastic Compliance Matrix: (Units=1/GPa)
#
#
# Indices 1 2 3 4 5 6 
#
# 1 0.017399 -0.006436 0.000417 0.000000 0.000000 0.000000
# 2 -0.006436 0.013178 -0.002541 0.000000 0.000000 0.000000
# 3 0.000417 -0.002541 0.013533 0.000000 0.000000 0.000000
# 4 0.000000 0.000000 0.000000 0.044941 0.000000 0.000000
# 5 0.000000 0.000000 0.000000 0.000000 0.064661 0.000000
# 6 0.000000 0.000000 0.000000 0.000000 0.000000 0.048935
#
#
# Mechanical properties :
#
#
# Convention : Reuss Voigt Hill
#
# Bulk Modulus (GPa) = 37.04976 39.68022 38.36499
# Shear Modulus (GPa) = 21.85655 24.09900 22.97778
#
# Velocity S-wave (km/s) = 3.17957 3.33870 3.26010
# Velocity P-wave (km/s) = 5.53324 5.76337 5.64948
#
# Compressibility (1/GPa) = 0.02699073
#
# Stress axis : x y z
#
# Youngs Moduli (GPa) = 57.47395 75.88119 73.89268
#
# Poissons Ratio (x) = 0.48839 -0.03085
# Poissons Ratio (y) = 0.36991 0.18778
# Poissons Ratio (z) = -0.02399 0.19284
#
# Static dielectric constant tensor:
#      x y z
#    x 3.895710 0.000000 0.000000 
#    y 0.000000 3.901300 0.000000 
#    z 0.000000 0.000000 4.206520 
# 
# 
# High freq. dielectric constant tensor:
#      x y z
#    x 1.819420 0.000000 0.000000 
#    y 0.000000 1.852260 0.000000 
#    z 0.000000 0.000000 1.861060 
# 
# From -- ./inp_files/13811.got.cif
#   From: 2010.03.12/outbox.cif.g09.slc.cpg/sg20_7_cif.got.tgz:13811.got - 2010.04.14 01:38:04.
