data_PCOD8158750
_publ_section_title
;
Structure prediction by ZEFSAII (Michael W. Deem and Ramdas Pophale) SiO2 
 PCOD8158750
Probable space group: C 2 2 21
;
_chemical_formula_sum "Si O2"
_cell_formula_units_Z 64
_cell_length_a 11.321822
_cell_length_b 20.295530
_cell_length_c 14.524796
_cell_angle_alpha 90.000000
_cell_angle_beta 90.000000
_cell_angle_gamma 90.000000
_cell_volume 3337.542166
_symmetry_space_group_name_H-M "C 2 2 21"
_symmetry_group_IT_number 20
_symmetry_cell_setting 'orthorhombic'
loop_
_space_group_symop_operation_xyz
x,y,z
-x,-y,1/2+z
x,-y,-z
-x,y,1/2-z
1/2+x,1/2+y,z
1/2-x,1/2-y,1/2+z
1/2+x,1/2-y,-z
1/2-x,1/2+y,1/2-z
loop_
_atom_site_type_symbol
_atom_site_label
_atom_site_fract_x
_atom_site_fract_y
_atom_site_fract_z
Si Si1 0.222106 0.652584 0.400672
Si Si2 0.866126 0.126739 0.734524
Si Si3 0.863049 0.339022 0.527316
Si Si4 0.347413 0.701183 0.911651
Si Si5 0.902896 0.813411 0.457806
Si Si6 0.368683 0.897951 0.724533
Si Si7 0.868503 0.549346 0.776407
Si Si8 0.436248 0.070351 0.976062
O O1 0.158333 0.720716 0.427004
O O2 0.350734 0.657327 0.447181
O O3 0.225938 0.639490 0.291004
O O4 0.151163 0.590901 0.441851
O O5 0.857768 0.189354 0.802420
O O6 0.845684 0.151071 0.630516
O O7 0.752958 0.081685 0.762587
O O8 0.000000 0.095185 0.750000
O O9 0.755940 0.340829 0.456711
O O10 0.888008 0.264457 0.555439
O O11 0.838033 0.380869 0.619514
O O12 0.965935 0.373011 0.467421
O O13 0.459557 0.671622 0.964427
O O14 0.500000 0.872078 0.750000
O O15 0.362046 0.975666 0.738844
O O16 0.859174 0.559723 0.885293
O O17 0.000000 0.578761 0.750000
O O18 0.496346 0.000000 0.000000
#
# Coordination Sequence:
#
# PCOD8158750 Si02
#       8
#     8   8   8   8   8   8   8   8
#     4  11  20  35  59  86 112 147 201 243 291 349
#     4  10  21  38  58  82 115 157 195 240 297 364
#     4  11  22  36  59  86 120 154 194 246 304 352
#     4  10  21  37  56  85 118 153 195 246 297 357
#     4  10  20  37  60  84 117 155 198 244 293 362
#     4  11  20  37  58  85 116 154 199 247 294 359
#     4  11  22  36  58  88 118 149 198 251 299 348
#     4  12  20  36  60  86 115 149 191 249 291 342
#
# _framework density 19.175789000000002
#
# number of rings (size 3 to 8) (size 9 to 14) (size 15 to 20)
#    0.000    1.250    5.000    2.250    0.000    1.000 
#    0.000    1.875    0.000    3.750    0.000    0.000 
#    0.000    0.000    0.000    0.000    0.000    0.000 
#
# Total GULP energy -396508.890548 kJ/mol
# GULP energy per Si atom -12390.902830 kJ/mol
# Density = 1.913214 g / cm^3
# Si number density = 19.175789 Si / 1000 Ang^3
#
#
#
# Elastic Constant Matrix: (Units=GPa)
#
#
# Indices 1 2 3 4 5 6 
#
# 1 94.9936 32.6473 10.1125 0.0000 0.0000 0.0000
# 2 32.6473 76.7971 13.6800 0.0000 0.0000 0.0000
# 3 10.1125 13.6800 64.5334 0.0000 0.0000 0.0000
# 4 0.0000 0.0000 0.0000 28.8648 0.0000 0.0000
# 5 0.0000 0.0000 0.0000 0.0000 31.1086 0.0000
# 6 0.0000 0.0000 0.0000 0.0000 0.0000 22.8116
#
#
#
# Elastic Compliance Matrix: (Units=1/GPa)
#
#
# Indices 1 2 3 4 5 6 
#
# 1 0.012374 -0.005108 -0.000856 0.000000 0.000000 0.000000
# 2 -0.005108 0.015641 -0.002515 0.000000 0.000000 0.000000
# 3 -0.000856 -0.002515 0.016163 0.000000 0.000000 0.000000
# 4 0.000000 0.000000 0.000000 0.034644 0.000000 0.000000
# 5 0.000000 0.000000 0.000000 0.000000 0.032145 0.000000
# 6 0.000000 0.000000 0.000000 0.000000 0.000000 0.043837
#
#
# Mechanical properties :
#
#
# Convention : Reuss Voigt Hill
#
# Bulk Modulus (GPa) = 36.73855 38.80040 37.76947
# Shear Modulus (GPa) = 27.64942 28.54930 28.09936
#
# Velocity S-wave (km/s) = 3.80135 3.86271 3.83215
# Velocity P-wave (km/s) = 6.20221 6.33814 6.27054
#
# Compressibility (1/GPa) = 0.02721937
#
# Stress axis : x y z
#
# Youngs Moduli (GPa) = 80.81750 63.93593 61.86892
#
# Poissons Ratio (x) = 0.32656 0.05297
# Poissons Ratio (y) = 0.41278 0.15561
# Poissons Ratio (z) = 0.06920 0.16081
#
# Static dielectric constant tensor:
#      x y z
#    x 3.667280 0.000000 0.000000 
#    y 0.000000 3.401990 0.000000 
#    z 0.000000 0.000000 3.547560 
# 
# 
# High freq. dielectric constant tensor:
#      x y z
#    x 1.737400 0.000000 0.000000 
#    y 0.000000 1.736050 0.000000 
#    z 0.000000 0.000000 1.750950 
# 
# From -- ./inp_files/20297.got.cif
#   From: 2010.03.12/outbox.cif.g09.slc.cpg/sg20_11_cif.got.tgz:20297.got - 2010.04.14 01:38:04.
