data_PCOD8158491
_publ_section_title
;
Structure prediction by ZEFSAII (Michael W. Deem and Ramdas Pophale) SiO2 
 PCOD8158491
Probable space group: C 2 2 21
;
_chemical_formula_sum "Si O2"
_cell_formula_units_Z 32
_cell_length_a 13.127910
_cell_length_b 7.614179
_cell_length_c 18.285182
_cell_angle_alpha 90.000000
_cell_angle_beta 90.000000
_cell_angle_gamma 90.000000
_cell_volume 1827.754915
_symmetry_space_group_name_H-M "C 2 2 21"
_symmetry_group_IT_number 20
_symmetry_cell_setting 'orthorhombic'
loop_
_space_group_symop_operation_xyz
x,y,z
-x,-y,1/2+z
x,-y,-z
-x,y,1/2-z
1/2+x,1/2+y,z
1/2-x,1/2-y,1/2+z
1/2+x,1/2-y,-z
1/2-x,1/2+y,1/2-z
loop_
_atom_site_type_symbol
_atom_site_label
_atom_site_fract_x
_atom_site_fract_y
_atom_site_fract_z
Si Si1 0.831074 0.106619 0.073072
Si Si2 0.497735 0.481835 0.335094
Si Si3 0.029562 0.710320 0.932046
Si Si4 0.395192 0.171005 0.409464
O O1 0.906764 0.271243 0.056145
O O2 0.725163 0.172079 0.106474
O O3 0.887177 0.979941 0.132157
O O4 0.806023 0.000000 0.000000
O O5 0.500000 0.523079 0.250000
O O6 0.433845 0.637710 0.375704
O O7 0.445459 0.295148 0.349079
O O8 0.056522 0.521413 0.899282
O O9 0.084784 0.743770 0.009161
#
# Coordination Sequence:
#
# PCOD8158491 Si02
#       4
#     8   8   8   8
#     4  10  19  39  59  86 114 145 201 241 275 339
#     4  10  22  42  53  85 130 148 183 239 289 357
#     4   9  20  37  60  84 112 145 196 244 278 325
#     4  11  19  39  61  85 108 155 197 240 286 332
#
# _framework density 17.507819000000001
#
# number of rings (size 3 to 8) (size 9 to 14) (size 15 to 20)
#    1.500    0.500    5.000    0.750    0.000    1.000 
#   18.000    0.000    0.000    0.000    0.000    0.000 
#    0.000    0.000    0.000    0.000    0.000    0.000 
#
# Total GULP energy -198294.836498 kJ/mol
# GULP energy per Si atom -12393.427281 kJ/mol
# Density = 1.746797 g / cm^3
# Si number density = 17.507819 Si / 1000 Ang^3
#
#
#
# Elastic Constant Matrix: (Units=GPa)
#
#
# Indices 1 2 3 4 5 6 
#
# 1 133.6433 37.0504 14.5009 0.0000 0.0000 0.0000
# 2 37.0504 77.3872 28.7613 0.0000 0.0000 0.0000
# 3 14.5009 28.7613 82.5936 0.0000 0.0000 0.0000
# 4 0.0000 0.0000 0.0000 21.2133 0.0000 0.0000
# 5 0.0000 0.0000 0.0000 0.0000 5.6410 0.0000
# 6 0.0000 0.0000 0.0000 0.0000 0.0000 29.6702
#
#
#
# Elastic Compliance Matrix: (Units=1/GPa)
#
#
# Indices 1 2 3 4 5 6 
#
# 1 0.008628 -0.004098 -0.000088 0.000000 0.000000 0.000000
# 2 -0.004098 0.016790 -0.005127 0.000000 0.000000 0.000000
# 3 -0.000088 -0.005127 0.013908 0.000000 0.000000 0.000000
# 4 0.000000 0.000000 0.000000 0.047140 0.000000 0.000000
# 5 0.000000 0.000000 0.000000 0.000000 0.177275 0.000000
# 6 0.000000 0.000000 0.000000 0.000000 0.000000 0.033704
#
#
# Mechanical properties :
#
#
# Convention : Reuss Voigt Hill
#
# Bulk Modulus (GPa) = 48.30918 50.47212 49.39065
# Shear Modulus (GPa) = 15.48124 25.52566 20.50345
#
# Velocity S-wave (km/s) = 2.97686 3.82246 3.42585
# Velocity P-wave (km/s) = 6.28239 6.95504 6.62725
#
# Compressibility (1/GPa) = 0.02070000
#
# Stress axis : x y z
#
# Youngs Moduli (GPa) = 115.89740 59.56042 71.89979
#
# Poissons Ratio (x) = 0.24410 0.00631
# Poissons Ratio (y) = 0.47499 0.36863
# Poissons Ratio (z) = 0.01017 0.30537
#
# Static dielectric constant tensor:
#      x y z
#    x 3.195780 0.000000 0.000000 
#    y 0.000000 3.181540 0.000000 
#    z 0.000000 0.000000 2.976170 
# 
# 
# High freq. dielectric constant tensor:
#      x y z
#    x 1.669660 0.000000 0.000000 
#    y 0.000000 1.672140 0.000000 
#    z 0.000000 0.000000 1.657890 
# 
# From -- ./inp_files/18272.got.cif
#   From: 2010.03.12/outbox.cif.g09.slc.cpg/sg20_10_cif.got.tgz:18272.got - 2010.04.14 01:38:04.
