data_PCOD8158177
_publ_section_title
;
Structure prediction by ZEFSAII (Michael W. Deem and Ramdas Pophale) SiO2 
 PCOD8158177
Probable space group: C 2 2 21
;
_chemical_formula_sum "Si O2"
_cell_formula_units_Z 48
_cell_length_a 9.138361
_cell_length_b 22.385158
_cell_length_c 11.857093
_cell_angle_alpha 90.000000
_cell_angle_beta 90.000000
_cell_angle_gamma 90.000000
_cell_volume 2425.530280
_symmetry_space_group_name_H-M "C 2 2 21"
_symmetry_group_IT_number 20
_symmetry_cell_setting 'orthorhombic'
loop_
_space_group_symop_operation_xyz
x,y,z
-x,-y,1/2+z
x,-y,-z
-x,y,1/2-z
1/2+x,1/2+y,z
1/2-x,1/2-y,1/2+z
1/2+x,1/2-y,-z
1/2-x,1/2+y,1/2-z
loop_
_atom_site_type_symbol
_atom_site_label
_atom_site_fract_x
_atom_site_fract_y
_atom_site_fract_z
Si Si1 0.332755 0.377734 0.498592
Si Si2 0.645301 0.661614 0.436593
Si Si3 0.328312 0.419452 0.740151
Si Si4 0.170560 0.943256 0.229011
Si Si5 0.832041 0.657196 0.647947
Si Si6 0.642763 0.792846 0.372438
O O1 0.507359 0.372063 0.509357
O O2 0.267225 0.398361 0.618854
O O3 0.296405 0.426201 0.401270
O O4 0.258991 0.314407 0.466258
O O5 0.731665 0.621293 0.343224
O O6 0.759756 0.677524 0.532655
O O7 0.591906 0.724870 0.386721
O O8 0.500000 0.408241 0.750000
O O9 0.288639 0.488455 0.754545
O O10 0.275910 0.908445 0.315673
O O11 0.000000 0.929445 0.250000
O O12 0.783662 0.702322 0.748328
O O13 0.006272 0.660924 0.627469
#
# Coordination Sequence:
#
# PCOD8158177 Si02
#       6
#     8   8   8   8   8   8
#     4  10  20  37  60  87 114 156 197 245 299 351
#     4  11  21  36  61  89 116 154 200 245 298 353
#     4   9  21  33  60  90 115 147 196 260 294 337
#     4  10  18  37  60  87 113 146 204 248 290 352
#     4  10  22  38  58  84 118 157 193 238 303 347
#     4  10  23  36  60  83 124 155 190 246 296 365
#
# _framework density 19.789487999999999
#
# number of rings (size 3 to 8) (size 9 to 14) (size 15 to 20)
#    0.000    2.000    1.667    1.500    9.333    0.667 
#    0.000    0.833   25.667    0.000    0.000    0.000 
#    0.000    0.000    0.000    0.000    0.000    0.000 
#
# Total GULP energy -297502.918985 kJ/mol
# GULP energy per Si atom -12395.954958 kJ/mol
# Density = 1.974445 g / cm^3
# Si number density = 19.789488 Si / 1000 Ang^3
#
#
#
# Elastic Constant Matrix: (Units=GPa)
#
#
# Indices 1 2 3 4 5 6 
#
# 1 42.3940 30.8648 41.1396 0.0000 0.0000 0.0000
# 2 30.8648 121.7114 58.2462 0.0000 0.0000 0.0000
# 3 41.1396 58.2462 130.2216 0.0000 0.0000 0.0000
# 4 0.0000 0.0000 0.0000 24.8123 0.0000 0.0000
# 5 0.0000 0.0000 0.0000 0.0000 20.4087 0.0000
# 6 0.0000 0.0000 0.0000 0.0000 0.0000 19.1383
#
#
#
# Elastic Compliance Matrix: (Units=1/GPa)
#
#
# Indices 1 2 3 4 5 6 
#
# 1 0.036006 -0.004691 -0.009277 0.000000 0.000000 0.000000
# 2 -0.004691 0.011065 -0.003467 0.000000 0.000000 0.000000
# 3 -0.009277 -0.003467 0.012161 0.000000 0.000000 0.000000
# 4 0.000000 0.000000 0.000000 0.040303 0.000000 0.000000
# 5 0.000000 0.000000 0.000000 0.000000 0.048999 0.000000
# 6 0.000000 0.000000 0.000000 0.000000 0.000000 0.052251
#
#
# Mechanical properties :
#
#
# Convention : Reuss Voigt Hill
#
# Bulk Modulus (GPa) = 41.04848 61.64758 51.34803
# Shear Modulus (GPa) = 20.51074 23.81029 22.16051
#
# Velocity S-wave (km/s) = 3.22288 3.47245 3.34999
# Velocity P-wave (km/s) = 5.88531 6.87725 6.40052
#
# Compressibility (1/GPa) = 0.02436144
#
# Stress axis : x y z
#
# Youngs Moduli (GPa) = 27.77326 90.37447 82.23203
#
# Poissons Ratio (x) = 0.42397 0.76284
# Poissons Ratio (y) = 0.13029 0.28511
# Poissons Ratio (z) = 0.25764 0.31334
#
# Static dielectric constant tensor:
#      x y z
#    x 3.247630 0.000000 0.000000 
#    y 0.000000 3.511680 0.000000 
#    z 0.000000 0.000000 3.946870 
# 
# 
# High freq. dielectric constant tensor:
#      x y z
#    x 1.735800 0.000000 0.000000 
#    y 0.000000 1.766940 0.000000 
#    z 0.000000 0.000000 1.790530 
# 
# From -- ./inp_files/13084.got.cif
#   From: 2010.03.12/outbox.cif.g09.slc.cpg/sg20_7_cif.got.tgz:13084.got - 2010.04.14 01:38:04.
