data_PCOD8158014
_publ_section_title
;
Structure prediction by ZEFSAII (Michael W. Deem and Ramdas Pophale) SiO2 
 PCOD8158014
Probable space group: C 2 2 21
;
_chemical_formula_sum "Si O2"
_cell_formula_units_Z 48
_cell_length_a 8.316813
_cell_length_b 27.392771
_cell_length_c 9.633900
_cell_angle_alpha 90.000000
_cell_angle_beta 90.000000
_cell_angle_gamma 90.000000
_cell_volume 2194.800435
_symmetry_space_group_name_H-M "C 2 2 21"
_symmetry_group_IT_number 20
_symmetry_cell_setting 'orthorhombic'
loop_
_space_group_symop_operation_xyz
x,y,z
-x,-y,1/2+z
x,-y,-z
-x,y,1/2-z
1/2+x,1/2+y,z
1/2-x,1/2-y,1/2+z
1/2+x,1/2-y,-z
1/2-x,1/2+y,1/2-z
loop_
_atom_site_type_symbol
_atom_site_label
_atom_site_fract_x
_atom_site_fract_y
_atom_site_fract_z
Si Si1 0.171621 0.825673 0.689943
Si Si2 0.066936 0.258164 0.903930
Si Si3 0.600233 0.425539 0.610571
Si Si4 0.287695 0.428360 0.458286
Si Si5 0.682739 0.012538 0.281131
Si Si6 0.220393 0.678005 0.483394
O O1 0.258650 0.783667 0.603065
O O2 0.177971 0.872351 0.587418
O O3 0.279383 0.838616 0.823780
O O4 0.000000 0.808443 0.750000
O O5 0.000000 0.247213 0.750000
O O6 0.943055 0.289675 0.999622
O O7 0.114654 0.207403 0.978935
O O8 0.500000 0.418029 0.750000
O O9 0.479831 0.435421 0.483369
O O10 0.729488 0.468313 0.640057
O O11 0.255252 0.459825 0.320875
O O12 0.195423 0.449602 0.592106
O O13 0.227188 0.372805 0.429962
O O14 0.500000 0.003518 0.250000
#
# Coordination Sequence:
#
# PCOD8158014 Si02
#       6
#     8   8   8   8   8   8
#     4  10  17  34  62  89 114 157 204 259 299 363
#     4  10  24  36  59  93 127 162 209 258 318 367
#     4   9  17  35  64  88 118 156 212 253 304 366
#     4  10  21  39  63  90 126 165 209 258 316 380
#     4  10  21  38  62  93 126 159 211 266 315 370
#     4  11  20  38  60  88 129 163 213 252 314 375
#
# _framework density 21.869869000000001
#
# number of rings (size 3 to 8) (size 9 to 14) (size 15 to 20)
#    0.000    2.000    5.000    1.000    2.333    0.000 
#    0.000   18.333    0.000    0.000    0.000    0.000 
#    0.000    0.000    0.000    0.000    0.000    0.000 
#
# Total GULP energy -297377.727972 kJ/mol
# GULP energy per Si atom -12390.738666 kJ/mol
# Density = 2.182009 g / cm^3
# Si number density = 21.869869 Si / 1000 Ang^3
#
#
#
# Elastic Constant Matrix: (Units=GPa)
#
#
# Indices 1 2 3 4 5 6 
#
# 1 131.1046 71.9289 32.2238 0.0000 0.0000 0.0000
# 2 71.9289 156.1956 33.6192 0.0000 0.0000 0.0000
# 3 32.2238 33.6192 32.6541 0.0000 0.0000 0.0000
# 4 0.0000 0.0000 0.0000 17.2227 0.0000 0.0000
# 5 0.0000 0.0000 0.0000 0.0000 25.9955 0.0000
# 6 0.0000 0.0000 0.0000 0.0000 0.0000 32.2159
#
#
#
# Elastic Compliance Matrix: (Units=1/GPa)
#
#
# Indices 1 2 3 4 5 6 
#
# 1 0.011500 -0.003666 -0.007575 0.000000 0.000000 0.000000
# 2 -0.003666 0.009393 -0.006054 0.000000 0.000000 0.000000
# 3 -0.007575 -0.006054 0.044332 0.000000 0.000000 0.000000
# 4 0.000000 0.000000 0.000000 0.058063 0.000000 0.000000
# 5 0.000000 0.000000 0.000000 0.000000 0.038468 0.000000
# 6 0.000000 0.000000 0.000000 0.000000 0.000000 0.031041
#
#
# Mechanical properties :
#
#
# Convention : Reuss Voigt Hill
#
# Bulk Modulus (GPa) = 32.64019 66.16647 49.40333
# Shear Modulus (GPa) = 21.04400 27.23230 24.13815
#
# Velocity S-wave (km/s) = 3.10536 3.53256 3.32583
# Velocity P-wave (km/s) = 5.27397 6.85266 6.11448
#
# Compressibility (1/GPa) = 0.03063708
#
# Stress axis : x y z
#
# Youngs Moduli (GPa) = 86.95364 106.45990 22.55728
#
# Poissons Ratio (x) = 0.39024 0.17087
# Poissons Ratio (y) = 0.31874 0.13655
# Poissons Ratio (z) = 0.65867 0.64446
#
# Static dielectric constant tensor:
#      x y z
#    x 4.084820 0.000000 0.000000 
#    y 0.000000 4.150540 0.000000 
#    z 0.000000 0.000000 3.558120 
# 
# 
# High freq. dielectric constant tensor:
#      x y z
#    x 1.860340 0.000000 0.000000 
#    y 0.000000 1.868080 0.000000 
#    z 0.000000 0.000000 1.811850 
# 
# From -- ./inp_files/13105.got.cif
#   From: 2010.03.12/outbox.cif.g09.slc.cpg/sg20_7_cif.got.tgz:13105.got - 2010.04.14 01:38:04.
