data_PCOD8158781
_publ_section_title
;
Structure prediction by ZEFSAII (Michael W. Deem and Ramdas Pophale) SiO2 
 PCOD8158781
Probable space group: C 2 2 21
;
_chemical_formula_sum "Si O2"
_cell_formula_units_Z 36
_cell_length_a 21.014163
_cell_length_b 7.290297
_cell_length_c 12.050202
_cell_angle_alpha 90.000000
_cell_angle_beta 90.000000
_cell_angle_gamma 90.000000
_cell_volume 1846.084794
_symmetry_space_group_name_H-M "C 2 2 21"
_symmetry_group_IT_number 20
_symmetry_cell_setting 'orthorhombic'
loop_
_space_group_symop_operation_xyz
x,y,z
-x,-y,1/2+z
x,-y,-z
-x,y,1/2-z
1/2+x,1/2+y,z
1/2-x,1/2-y,1/2+z
1/2+x,1/2-y,-z
1/2-x,1/2+y,1/2-z
loop_
_atom_site_type_symbol
_atom_site_label
_atom_site_fract_x
_atom_site_fract_y
_atom_site_fract_z
Si Si1 0.107058 0.507251 0.130810
Si Si2 0.693862 0.107807 0.314952
Si Si3 0.827433 0.224780 0.242731
Si Si4 0.607229 0.404602 0.386059
Si Si5 0.000000 0.717649 0.250000
O O1 0.162211 0.631095 0.190497
O O2 0.116554 0.298272 0.175482
O O3 0.038597 0.586305 0.166103
O O4 0.114834 0.500000 0.000000
O O5 0.765614 0.178675 0.316272
O O6 0.651554 0.224416 0.402464
O O7 0.690062 0.889987 0.344405
O O8 0.849940 0.044457 0.182575
O O9 0.587070 0.500000 0.500000
O O10 0.543197 0.351234 0.323147
#
# Coordination Sequence:
#
# PCOD8158781 Si02
#       5
#     8   8   8   8   4
#     4   9  21  40  62  86 124 161 204 250 303 355
#     4   9  20  38  62  94 123 154 199 252 297 375
#     4  10  20  37  67  88 126 158 191 256 306 357
#     4  11  23  41  62  90 122 163 209 247 305 361
#     4  10  24  42  58  88 126 156 220 256 282 368
#
# _framework density 19.500730000000001
#
# number of rings (size 3 to 8) (size 9 to 14) (size 15 to 20)
#    1.333    0.889    2.222    0.000    0.000    8.889 
#    0.000    3.333    0.000    0.000    0.000    0.000 
#    0.000    0.000    0.000    0.000    0.000    0.000 
#
# Total GULP energy -222994.969877 kJ/mol
# GULP energy per Si atom -12388.609438 kJ/mol
# Density = 1.945635 g / cm^3
# Si number density = 19.500730 Si / 1000 Ang^3
#
#
#
# Elastic Constant Matrix: (Units=GPa)
#
#
# Indices 1 2 3 4 5 6 
#
# 1 110.4153 32.5053 19.7478 0.0000 0.0000 0.0000
# 2 32.5053 66.1697 -1.1129 0.0000 0.0000 0.0000
# 3 19.7478 -1.1129 68.3096 0.0000 0.0000 0.0000
# 4 0.0000 0.0000 0.0000 26.0380 0.0000 0.0000
# 5 0.0000 0.0000 0.0000 0.0000 16.0217 0.0000
# 6 0.0000 0.0000 0.0000 0.0000 0.0000 43.5227
#
#
#
# Elastic Compliance Matrix: (Units=1/GPa)
#
#
# Indices 1 2 3 4 5 6 
#
# 1 0.011310 -0.005613 -0.003361 0.000000 0.000000 0.000000
# 2 -0.005613 0.017902 0.001914 0.000000 0.000000 0.000000
# 3 -0.003361 0.001914 0.015642 0.000000 0.000000 0.000000
# 4 0.000000 0.000000 0.000000 0.038405 0.000000 0.000000
# 5 0.000000 0.000000 0.000000 0.000000 0.062415 0.000000
# 6 0.000000 0.000000 0.000000 0.000000 0.000000 0.022977
#
#
# Mechanical properties :
#
#
# Convention : Reuss Voigt Hill
#
# Bulk Modulus (GPa) = 32.53592 38.57501 35.55547
# Shear Modulus (GPa) = 25.90466 30.03345 27.96905
#
# Velocity S-wave (km/s) = 3.64867 3.92869 3.79127
# Velocity P-wave (km/s) = 5.87121 6.35640 6.11861
#
# Compressibility (1/GPa) = 0.03073526
#
# Stress axis : x y z
#
# Youngs Moduli (GPa) = 88.41636 55.85987 63.93010
#
# Poissons Ratio (x) = 0.31351 0.21488
# Poissons Ratio (y) = 0.49624 -0.12237
# Poissons Ratio (z) = 0.29718 -0.10693
#
# Static dielectric constant tensor:
#      x y z
#    x 3.565950 0.000000 0.000000 
#    y 0.000000 3.674170 0.000000 
#    z 0.000000 0.000000 3.170490 
# 
# 
# High freq. dielectric constant tensor:
#      x y z
#    x 1.762710 0.000000 0.000000 
#    y 0.000000 1.769120 0.000000 
#    z 0.000000 0.000000 1.724380 
# 
# From -- ./inp_files/16132.got.cif
#   From: 2010.03.12/outbox.cif.g09.slc.cpg/sg20_9_cif.got.tgz:16132.got - 2010.04.14 01:38:04.
