data_PCOD8158991
_publ_section_title
;
Structure prediction by ZEFSAII (Michael W. Deem and Ramdas Pophale) SiO2 
 PCOD8158991
Probable space group: C 2 2 21
;
_chemical_formula_sum "Si O2"
_cell_formula_units_Z 40
_cell_length_a 14.808206
_cell_length_b 13.863921
_cell_length_c 7.878498
_cell_angle_alpha 90.000000
_cell_angle_beta 90.000000
_cell_angle_gamma 90.000000
_cell_volume 1617.454049
_symmetry_space_group_name_H-M "C 2 2 21"
_symmetry_group_IT_number 20
_symmetry_cell_setting 'orthorhombic'
loop_
_space_group_symop_operation_xyz
x,y,z
-x,-y,1/2+z
x,-y,-z
-x,y,1/2-z
1/2+x,1/2+y,z
1/2-x,1/2-y,1/2+z
1/2+x,1/2-y,-z
1/2-x,1/2+y,1/2-z
loop_
_atom_site_type_symbol
_atom_site_label
_atom_site_fract_x
_atom_site_fract_y
_atom_site_fract_z
Si Si1 0.239663 0.270839 0.978298
Si Si2 0.500000 0.171127 0.750000
Si Si3 0.691918 0.111567 0.705873
Si Si4 0.308062 0.547575 0.180430
Si Si5 0.965504 0.216567 0.574897
Si Si6 0.000000 0.971041 0.250000
O O1 0.298925 0.172151 0.969536
O O2 0.279191 0.340840 0.828682
O O3 0.139087 0.237083 0.941134
O O4 0.249113 0.323830 0.157971
O O5 0.587561 0.101677 0.764754
O O6 0.516016 0.238747 0.586688
O O7 0.739597 0.007730 0.690312
O O8 0.412032 0.538393 0.237266
O O9 0.290195 0.500000 0.000000
O O10 0.988613 0.100790 0.585236
O O11 0.000000 0.265984 0.750000
#
# Coordination Sequence:
#
# PCOD8158991 Si02
#       6
#     8   4   8   8   8   4
#     4  10  21  39  65  88 127 172 214 270 339 390
#     4  10  22  35  67  98 122 174 224 271 329 398
#     4  10  21  40  62  92 128 169 218 272 335 403
#     4  10  22  40  65  93 130 174 218 278 335 399
#     4   9  20  39  68  92 126 174 218 266 331 393
#     4  10  20  41  63  96 132 168 218 273 325 400
#
# _framework density 24.730224
#
# number of rings (size 3 to 8) (size 9 to 14) (size 15 to 20)
#    0.600    1.600    2.000    0.000    8.400    0.800 
#    5.400    1.000    0.000    0.000    0.000    0.000 
#    0.000    0.000    0.000    0.000    0.000    0.000 
#
# Total GULP energy -247886.629105 kJ/mol
# GULP energy per Si atom -12394.331455 kJ/mol
# Density = 2.467394 g / cm^3
# Si number density = 24.730224 Si / 1000 Ang^3
#
#
#
# Elastic Constant Matrix: (Units=GPa)
#
#
# Indices 1 2 3 4 5 6 
#
# 1 107.5044 27.0330 -7.6775 0.0000 0.0000 0.0000
# 2 27.0330 81.9400 -9.2146 0.0000 0.0000 0.0000
# 3 -7.6775 -9.2146 60.1629 0.0000 0.0000 0.0000
# 4 0.0000 0.0000 0.0000 21.1524 0.0000 0.0000
# 5 0.0000 0.0000 0.0000 0.0000 30.2921 0.0000
# 6 0.0000 0.0000 0.0000 0.0000 0.0000 18.7322
#
#
#
# Elastic Compliance Matrix: (Units=1/GPa)
#
#
# Indices 1 2 3 4 5 6 
#
# 1 0.010181 -0.003269 0.000799 0.000000 0.000000 0.000000
# 2 -0.003269 0.013468 0.001646 0.000000 0.000000 0.000000
# 3 0.000799 0.001646 0.016975 0.000000 0.000000 0.000000
# 4 0.000000 0.000000 0.000000 0.047276 0.000000 0.000000
# 5 0.000000 0.000000 0.000000 0.000000 0.033012 0.000000
# 6 0.000000 0.000000 0.000000 0.000000 0.000000 0.053384
#
#
# Mechanical properties :
#
#
# Convention : Reuss Voigt Hill
#
# Bulk Modulus (GPa) = 25.65802 29.98766 27.82284
# Shear Modulus (GPa) = 26.46382 29.99978 28.23180
#
# Velocity S-wave (km/s) = 3.27479 3.48671 3.38241
# Velocity P-wave (km/s) = 4.96957 5.32558 5.15065
#
# Compressibility (1/GPa) = 0.03897417
#
# Stress axis : x y z
#
# Youngs Moduli (GPa) = 98.22217 74.25235 58.90850
#
# Poissons Ratio (x) = 0.24273 -0.04704
# Poissons Ratio (y) = 0.32109 -0.09694
# Poissons Ratio (z) = -0.07843 -0.12219
#
# Static dielectric constant tensor:
#      x y z
#    x 4.295080 0.000000 0.000000 
#    y 0.000000 4.459250 0.000000 
#    z 0.000000 0.000000 4.696230 
# 
# 
# High freq. dielectric constant tensor:
#      x y z
#    x 1.988560 0.000000 0.000000 
#    y 0.000000 1.965980 0.000000 
#    z 0.000000 0.000000 1.980390 
# 
# From -- ./inp_files/8138.got.cif
#   From: 2010.03.12/outbox.cif.g09.slc.cpg/sg20_5_cif.got.tgz:8138.got - 2010.04.14 01:38:04.
