data_PCOD8158701
_publ_section_title
;
Structure prediction by ZEFSAII (Michael W. Deem and Ramdas Pophale) SiO2 
 PCOD8158701
Probable space group: C 2 2 21
;
_chemical_formula_sum "Si O2"
_cell_formula_units_Z 56
_cell_length_a 15.526012
_cell_length_b 21.046699
_cell_length_c 8.132448
_cell_angle_alpha 90.000000
_cell_angle_beta 90.000000
_cell_angle_gamma 90.000000
_cell_volume 2657.450615
_symmetry_space_group_name_H-M "C 2 2 21"
_symmetry_group_IT_number 20
_symmetry_cell_setting 'orthorhombic'
loop_
_space_group_symop_operation_xyz
x,y,z
-x,-y,1/2+z
x,-y,-z
-x,y,1/2-z
1/2+x,1/2+y,z
1/2-x,1/2-y,1/2+z
1/2+x,1/2-y,-z
1/2-x,1/2+y,1/2-z
loop_
_atom_site_type_symbol
_atom_site_label
_atom_site_fract_x
_atom_site_fract_y
_atom_site_fract_z
Si Si1 0.738763 0.438333 0.099453
Si Si2 0.429801 0.059328 0.889850
Si Si3 0.260254 0.315408 0.616952
Si Si4 0.084219 0.179755 0.362888
Si Si5 0.908740 0.878142 0.202092
Si Si6 0.863569 0.254275 0.640390
Si Si7 0.480829 0.191853 0.941746
O O1 0.832829 0.449491 0.181665
O O2 0.669768 0.422986 0.241003
O O3 0.707160 0.500000 0.000000
O O4 0.752466 0.381770 0.971674
O O5 0.500000 0.061403 0.750000
O O6 0.435728 0.125655 0.993646
O O7 0.454708 0.000000 0.000000
O O8 0.334230 0.324813 0.749095
O O9 0.172768 0.294241 0.706824
O O10 0.287031 0.260327 0.488450
O O11 0.094133 0.127101 0.504848
O O12 0.000000 0.168393 0.250000
O O13 0.082037 0.247513 0.458770
O O14 0.904993 0.811466 0.299466
O O15 0.000000 0.910064 0.250000
O O16 0.934948 0.297444 0.552413
O O17 0.500000 0.187177 0.750000
#
# Coordination Sequence:
#
# PCOD8158701 Si02
#       7
#     8   8   8   8   8   8   8
#     4  10  25  48  65  93 136 176 224 278 319 391
#     4  10  24  44  66  89 128 179 219 265 319 382
#     4  11  23  37  64  93 132 173 213 274 340 397
#     4  11  20  39  60  97 136 167 208 273 342 399
#     4  11  22  39  68  97 129 172 215 272 339 398
#     4  11  22  36  60 100 129 166 217 272 336 402
#     4  10  20  36  61  89 135 167 207 273 328 388
#
# _framework density 21.072827
#
# number of rings (size 3 to 8) (size 9 to 14) (size 15 to 20)
#    0.000    1.429    4.286    1.714    6.000    4.571 
#    0.000    2.857    0.000    0.000    0.000    0.000 
#    0.000    0.000    0.000    0.000    0.000    0.000 
#
# Total GULP energy -347145.977480 kJ/mol
# GULP energy per Si atom -12398.070624 kJ/mol
# Density = 2.102486 g / cm^3
# Si number density = 21.072827 Si / 1000 Ang^3
#
#
#
# Elastic Constant Matrix: (Units=GPa)
#
#
# Indices 1 2 3 4 5 6 
#
# 1 109.0287 27.7627 42.0211 0.0000 0.0000 0.0000
# 2 27.7627 79.9324 32.7674 0.0000 0.0000 0.0000
# 3 42.0211 32.7674 101.5301 0.0000 0.0000 0.0000
# 4 0.0000 0.0000 0.0000 20.2189 0.0000 0.0000
# 5 0.0000 0.0000 0.0000 0.0000 45.9968 0.0000
# 6 0.0000 0.0000 0.0000 0.0000 0.0000 11.5461
#
#
#
# Elastic Compliance Matrix: (Units=1/GPa)
#
#
# Indices 1 2 3 4 5 6 
#
# 1 0.011270 -0.002308 -0.003920 0.000000 0.000000 0.000000
# 2 -0.002308 0.014891 -0.003851 0.000000 0.000000 0.000000
# 3 -0.003920 -0.003851 0.012714 0.000000 0.000000 0.000000
# 4 0.000000 0.000000 0.000000 0.049459 0.000000 0.000000
# 5 0.000000 0.000000 0.000000 0.000000 0.021741 0.000000
# 6 0.000000 0.000000 0.000000 0.000000 0.000000 0.086609
#
#
# Mechanical properties :
#
#
# Convention : Reuss Voigt Hill
#
# Bulk Modulus (GPa) = 53.42129 55.06596 54.24362
# Shear Modulus (GPa) = 22.41357 28.08171 25.24764
#
# Velocity S-wave (km/s) = 3.26486 3.65444 3.46513
# Velocity P-wave (km/s) = 6.29430 6.63284 6.46579
#
# Compressibility (1/GPa) = 0.01871913
#
# Stress axis : x y z
#
# Youngs Moduli (GPa) = 88.72941 67.15644 78.65129
#
# Poissons Ratio (x) = 0.15497 0.30829
# Poissons Ratio (y) = 0.20475 0.30286
# Poissons Ratio (z) = 0.34780 0.25860
#
# Static dielectric constant tensor:
#      x y z
#    x 4.183260 0.000000 0.000000 
#    y 0.000000 4.198340 0.000000 
#    z 0.000000 0.000000 3.923860 
# 
# 
# High freq. dielectric constant tensor:
#      x y z
#    x 1.842920 0.000000 0.000000 
#    y 0.000000 1.804730 0.000000 
#    z 0.000000 0.000000 1.827260 
# 
# From -- ./inp_files/8734.got.cif
#   From: 2010.03.12/outbox.cif.g09.slc.cpg/sg20_5_cif.got.tgz:8734.got - 2010.04.14 01:38:04.
