data_PCOD8158943
_publ_section_title
;
Structure prediction by ZEFSAII (Michael W. Deem and Ramdas Pophale) SiO2 
 PCOD8158943
Probable space group: C 2 2 21
;
_chemical_formula_sum "Si O2"
_cell_formula_units_Z 48
_cell_length_a 18.029554
_cell_length_b 13.384353
_cell_length_c 9.572627
_cell_angle_alpha 90.000000
_cell_angle_beta 90.000000
_cell_angle_gamma 90.000000
_cell_volume 2310.008100
_symmetry_space_group_name_H-M "C 2 2 21"
_symmetry_group_IT_number 20
_symmetry_cell_setting 'orthorhombic'
loop_
_space_group_symop_operation_xyz
x,y,z
-x,-y,1/2+z
x,-y,-z
-x,y,1/2-z
1/2+x,1/2+y,z
1/2-x,1/2-y,1/2+z
1/2+x,1/2-y,-z
1/2-x,1/2+y,1/2-z
loop_
_atom_site_type_symbol
_atom_site_label
_atom_site_fract_x
_atom_site_fract_y
_atom_site_fract_z
Si Si1 0.787026 0.475550 0.724301
Si Si2 0.486776 0.589725 0.410260
Si Si3 0.330374 0.647132 0.367650
Si Si4 0.745907 0.842182 0.041155
Si Si5 0.932196 0.451717 0.143806
Si Si6 0.111701 0.231840 0.419249
O O1 0.733778 0.436578 0.849056
O O2 0.761718 0.586239 0.675891
O O3 0.782733 0.399191 0.595744
O O4 0.870980 0.478103 0.782298
O O5 0.521028 0.500000 0.500000
O O6 0.500000 0.561881 0.250000
O O7 0.400335 0.602202 0.450555
O O8 0.529675 0.691137 0.453790
O O9 0.304092 0.744259 0.449824
O O10 0.359704 0.678154 0.217823
O O11 0.830570 0.802422 0.038566
O O12 0.891734 0.349553 0.102258
O O13 0.000000 0.433907 0.250000
O O14 0.962291 0.500000 0.000000
#
# Coordination Sequence:
#
# PCOD8158943 Si02
#       6
#     8   8   8   8   8   8
#     4  10  23  39  67  99 130 174 224 282 338 401
#     4  10  23  40  64  90 127 166 214 267 337 390
#     4  10  20  40  63  94 128 174 212 274 337 398
#     4  10  21  39  68  96 128 171 230 278 337 401
#     4  12  26  43  68  97 138 181 227 278 339 410
#     4  10  22  39  64  91 129 175 214 271 340 400
#
# _framework density 20.779146999999998
#
# number of rings (size 3 to 8) (size 9 to 14) (size 15 to 20)
#    0.000    1.667    1.667    2.500    9.333    2.000 
#    0.000    2.500    0.000    0.000    0.000    0.000 
#    0.000    0.000    0.000    0.000    0.000    0.000 
#
# Total GULP energy -297587.982170 kJ/mol
# GULP energy per Si atom -12399.499257 kJ/mol
# Density = 2.073185 g / cm^3
# Si number density = 20.779147 Si / 1000 Ang^3
#
#
#
# Elastic Constant Matrix: (Units=GPa)
#
#
# Indices 1 2 3 4 5 6 
#
# 1 123.0888 43.2342 40.0170 0.0000 0.0000 0.0000
# 2 43.2342 103.5798 38.3512 0.0000 0.0000 0.0000
# 3 40.0170 38.3512 54.4287 0.0000 0.0000 0.0000
# 4 0.0000 0.0000 0.0000 28.2538 0.0000 0.0000
# 5 0.0000 0.0000 0.0000 0.0000 20.3010 0.0000
# 6 0.0000 0.0000 0.0000 0.0000 0.0000 38.4013
#
#
#
# Elastic Compliance Matrix: (Units=1/GPa)
#
#
# Indices 1 2 3 4 5 6 
#
# 1 0.011024 -0.002165 -0.006579 0.000000 0.000000 0.000000
# 2 -0.002165 0.013487 -0.007912 0.000000 0.000000 0.000000
# 3 -0.006579 -0.007912 0.028784 0.000000 0.000000 0.000000
# 4 0.000000 0.000000 0.000000 0.035394 0.000000 0.000000
# 5 0.000000 0.000000 0.000000 0.000000 0.049259 0.000000
# 6 0.000000 0.000000 0.000000 0.000000 0.000000 0.026041
#
#
# Mechanical properties :
#
#
# Convention : Reuss Voigt Hill
#
# Bulk Modulus (GPa) = 50.04095 58.25581 54.14838
# Shear Modulus (GPa) = 24.51443 28.02421 26.26932
#
# Velocity S-wave (km/s) = 3.43849 3.67641 3.55944
# Velocity P-wave (km/s) = 6.31656 6.79101 6.55808
#
# Compressibility (1/GPa) = 0.01998363
#
# Stress axis : x y z
#
# Youngs Moduli (GPa) = 90.71379 74.14276 34.74115
#
# Poissons Ratio (x) = 0.16054 0.22857
# Poissons Ratio (y) = 0.19642 0.27485
# Poissons Ratio (z) = 0.59682 0.58658
#
# Static dielectric constant tensor:
#      x y z
#    x 4.163470 0.000000 0.000000 
#    y 0.000000 3.807660 0.000000 
#    z 0.000000 0.000000 3.644040 
# 
# 
# High freq. dielectric constant tensor:
#      x y z
#    x 1.821150 0.000000 0.000000 
#    y 0.000000 1.821440 0.000000 
#    z 0.000000 0.000000 1.794880 
# 
# From -- ./inp_files/15701.got.cif
#   From: 2010.03.12/outbox.cif.g09.slc.cpg/sg20_8_cif.got.tgz:15701.got - 2010.04.14 01:38:04.
