data_PCOD8158722
_publ_section_title
;
Structure prediction by ZEFSAII (Michael W. Deem and Ramdas Pophale) SiO2 
 PCOD8158722
Probable space group: C 2 2 21
;
_chemical_formula_sum "Si O2"
_cell_formula_units_Z 60
_cell_length_a 11.917364
_cell_length_b 25.697323
_cell_length_c 8.849002
_cell_angle_alpha 90.000000
_cell_angle_beta 90.000000
_cell_angle_gamma 90.000000
_cell_volume 2709.956883
_symmetry_space_group_name_H-M "C 2 2 21"
_symmetry_group_IT_number 20
_symmetry_cell_setting 'orthorhombic'
loop_
_space_group_symop_operation_xyz
x,y,z
-x,-y,1/2+z
x,-y,-z
-x,y,1/2-z
1/2+x,1/2+y,z
1/2-x,1/2-y,1/2+z
1/2+x,1/2-y,-z
1/2-x,1/2+y,1/2-z
loop_
_atom_site_type_symbol
_atom_site_label
_atom_site_fract_x
_atom_site_fract_y
_atom_site_fract_z
Si Si1 0.128803 0.887252 0.432489
Si Si2 0.784420 0.318501 0.632126
Si Si3 0.118905 0.868921 0.093425
Si Si4 0.500000 0.793364 0.250000
Si Si5 0.318874 0.727702 0.410955
Si Si6 0.822410 0.443460 0.052299
Si Si7 0.175990 0.547065 0.891839
Si Si8 0.484597 0.129625 0.494032
O O1 0.187463 0.858231 0.574645
O O2 0.136810 0.856830 0.271452
O O3 0.189960 0.943447 0.410565
O O4 0.996817 0.897130 0.456428
O O5 0.770835 0.303003 0.807563
O O6 0.764759 0.269422 0.522499
O O7 0.914635 0.339861 0.636755
O O8 0.216706 0.906223 0.035157
O O9 0.115147 0.813595 0.011781
O O10 0.397954 0.756912 0.292973
O O11 0.459945 0.829407 0.110125
O O12 0.862536 0.459022 0.219971
O O13 0.922286 0.414676 0.955658
O O14 0.787523 0.500000 0.000000
O O15 0.121198 0.601789 0.931036
O O16 0.135336 0.500000 0.000000
#
# Coordination Sequence:
#
# PCOD8158722 Si02
#       8
#     8   8   8   4   8   8   8   8
#     4   9  20  40  62  86 119 162 208 271 328 385
#     4  10  22  37  61  89 121 162 211 263 330 389
#     4  10  22  40  61  88 124 164 214 266 328 390
#     4  10  20  36  66  86 122 172 216 254 332 392
#     4  11  22  37  62  93 125 168 214 266 324 403
#     4  11  23  39  63  88 127 172 209 268 329 391
#     4  10  20  37  63  89 117 158 216 267 324 390
#     4  10  20  38  61  86 122 164 213 262 318 392
#
# _framework density 22.140574000000001
#
# number of rings (size 3 to 8) (size 9 to 14) (size 15 to 20)
#    0.000    1.867    1.333    2.000    3.733    2.667 
#    0.000    2.000    0.000    0.000    0.000    0.000 
#    0.000    0.000    0.000    0.000    0.000    0.000 
#
# Total GULP energy -371656.912073 kJ/mol
# GULP energy per Si atom -12388.563736 kJ/mol
# Density = 2.209018 g / cm^3
# Si number density = 22.140574 Si / 1000 Ang^3
#
#
#
# Elastic Constant Matrix: (Units=GPa)
#
#
# Indices 1 2 3 4 5 6 
#
# 1 100.4434 21.9185 11.3386 0.0000 0.0000 0.0000
# 2 21.9185 83.8078 15.0102 0.0000 0.0000 0.0000
# 3 11.3386 15.0102 45.0616 0.0000 0.0000 0.0000
# 4 0.0000 0.0000 0.0000 25.5484 0.0000 0.0000
# 5 0.0000 0.0000 0.0000 0.0000 22.0706 0.0000
# 6 0.0000 0.0000 0.0000 0.0000 0.0000 20.1185
#
#
#
# Elastic Compliance Matrix: (Units=1/GPa)
#
#
# Indices 1 2 3 4 5 6 
#
# 1 0.010705 -0.002464 -0.001873 0.000000 0.000000 0.000000
# 2 -0.002464 0.013256 -0.003796 0.000000 0.000000 0.000000
# 3 -0.001873 -0.003796 0.023927 0.000000 0.000000 0.000000
# 4 0.000000 0.000000 0.000000 0.039141 0.000000 0.000000
# 5 0.000000 0.000000 0.000000 0.000000 0.045309 0.000000
# 6 0.000000 0.000000 0.000000 0.000000 0.000000 0.049706
#
#
# Mechanical properties :
#
#
# Convention : Reuss Voigt Hill
#
# Bulk Modulus (GPa) = 31.62223 36.20527 33.91375
# Shear Modulus (GPa) = 23.94044 25.61719 24.77882
#
# Velocity S-wave (km/s) = 3.29187 3.40520 3.34901
# Velocity P-wave (km/s) = 5.36302 5.64344 5.50502
#
# Compressibility (1/GPa) = 0.03162333
#
# Stress axis : x y z
#
# Youngs Moduli (GPa) = 93.41415 75.43545 41.79303
#
# Poissons Ratio (x) = 0.18589 0.07827
# Poissons Ratio (y) = 0.23020 0.15863
# Poissons Ratio (z) = 0.17494 0.28633
#
# Static dielectric constant tensor:
#      x y z
#    x 4.047830 0.000000 0.000000 
#    y 0.000000 4.035040 0.000000 
#    z 0.000000 0.000000 4.081690 
# 
# 
# High freq. dielectric constant tensor:
#      x y z
#    x 1.872940 0.000000 0.000000 
#    y 0.000000 1.868050 0.000000 
#    z 0.000000 0.000000 1.860040 
# 
# From -- ./inp_files/7579.got.cif
#   From: 2010.03.12/outbox.cif.g09.slc.cpg/sg20_4_cif.got.tgz:7579.got - 2010.04.14 01:38:04.
