data_PCOD8158808
_publ_section_title
;
Structure prediction by ZEFSAII (Michael W. Deem and Ramdas Pophale) SiO2 
 PCOD8158808
Probable space group: C 2 2 21
;
_chemical_formula_sum "Si O2"
_cell_formula_units_Z 48
_cell_length_a 18.943297
_cell_length_b 11.643517
_cell_length_c 11.333812
_cell_angle_alpha 90.000000
_cell_angle_beta 90.000000
_cell_angle_gamma 90.000000
_cell_volume 2499.860385
_symmetry_space_group_name_H-M "C 2 2 21"
_symmetry_group_IT_number 20
_symmetry_cell_setting 'orthorhombic'
loop_
_space_group_symop_operation_xyz
x,y,z
-x,-y,1/2+z
x,-y,-z
-x,y,1/2-z
1/2+x,1/2+y,z
1/2-x,1/2-y,1/2+z
1/2+x,1/2-y,-z
1/2-x,1/2+y,1/2-z
loop_
_atom_site_type_symbol
_atom_site_label
_atom_site_fract_x
_atom_site_fract_y
_atom_site_fract_z
Si Si1 0.632354 0.920079 0.732819
Si Si2 0.050562 0.616002 0.855324
Si Si3 0.444428 0.000000 0.000000
Si Si4 0.226129 0.008434 0.132755
Si Si5 0.588008 0.645180 0.080322
Si Si6 0.883815 0.841326 0.310394
Si Si7 0.500000 0.498295 0.750000
O O1 0.601249 0.948756 0.605292
O O2 0.716048 0.942300 0.723378
O O3 0.615773 0.790333 0.770165
O O4 0.598191 0.003366 0.830656
O O5 0.099802 0.723030 0.883424
O O6 0.000000 0.648711 0.750000
O O7 0.996896 0.601598 0.963368
O O8 0.158592 0.089680 0.130772
O O9 0.197571 0.885867 0.183489
O O10 0.258095 0.000000 0.000000
O O11 0.519351 0.584821 0.139201
O O12 0.581493 0.636296 0.939393
O O13 0.932697 0.917776 0.222314
#
# Coordination Sequence:
#
# PCOD8158808 Si02
#       7
#     8   8   4   8   8   8   4
#     4  11  22  38  61  89 122 161 203 255 299 373
#     4  10  21  34  58  89 115 154 195 251 307 347
#     4  10  22  38  58  90 122 152 206 246 306 362
#     4   9  20  40  58  84 117 166 202 242 309 352
#     4  10  20  40  61  87 123 158 200 252 300 369
#     4  10  23  36  63  89 121 161 202 248 306 361
#     4  10  20  38  60  88 116 158 198 240 306 356
#
# _framework density 19.201073999999998
#
# number of rings (size 3 to 8) (size 9 to 14) (size 15 to 20)
#    0.000    2.000    1.667    2.500    8.167    0.000 
#    0.000    0.000    0.000    0.000    4.333    0.000 
#    0.000    0.000    0.000    0.000    0.000    0.000 
#
# Total GULP energy -297397.211838 kJ/mol
# GULP energy per Si atom -12391.550493 kJ/mol
# Density = 1.915737 g / cm^3
# Si number density = 19.201074 Si / 1000 Ang^3
#
#
#
# Elastic Constant Matrix: (Units=GPa)
#
#
# Indices 1 2 3 4 5 6 
#
# 1 91.6696 47.6906 42.8896 0.0000 0.0000 0.0000
# 2 47.6906 143.4563 40.1121 0.0000 0.0000 0.0000
# 3 42.8896 40.1121 60.5131 0.0000 0.0000 0.0000
# 4 0.0000 0.0000 0.0000 4.9867 0.0000 0.0000
# 5 0.0000 0.0000 0.0000 0.0000 16.8884 0.0000
# 6 0.0000 0.0000 0.0000 0.0000 0.0000 25.9096
#
#
#
# Elastic Compliance Matrix: (Units=1/GPa)
#
#
# Indices 1 2 3 4 5 6 
#
# 1 0.017213 -0.002837 -0.010319 0.000000 0.000000 0.000000
# 2 -0.002837 0.009024 -0.003971 0.000000 0.000000 0.000000
# 3 -0.010319 -0.003971 0.026472 0.000000 0.000000 0.000000
# 4 0.000000 0.000000 0.000000 0.200534 0.000000 0.000000
# 5 0.000000 0.000000 0.000000 0.000000 0.059212 0.000000
# 6 0.000000 0.000000 0.000000 0.000000 0.000000 0.038596
#
#
# Mechanical properties :
#
#
# Convention : Reuss Voigt Hill
#
# Bulk Modulus (GPa) = 54.18905 61.89150 58.04028
# Shear Modulus (GPa) = 12.77282 20.55339 16.66310
#
# Velocity S-wave (km/s) = 2.58197 3.27529 2.94908
# Velocity P-wave (km/s) = 6.09688 6.82691 6.47220
#
# Compressibility (1/GPa) = 0.01845391
#
# Stress axis : x y z
#
# Youngs Moduli (GPa) = 58.09662 110.81281 37.77612
#
# Poissons Ratio (x) = 0.31435 0.38983
# Poissons Ratio (y) = 0.16481 0.15002
# Poissons Ratio (z) = 0.59952 0.44006
#
# Static dielectric constant tensor:
#      x y z
#    x 3.493640 0.000000 0.000000 
#    y 0.000000 3.699910 0.000000 
#    z 0.000000 0.000000 3.449710 
# 
# 
# High freq. dielectric constant tensor:
#      x y z
#    x 1.740700 0.000000 0.000000 
#    y 0.000000 1.759170 0.000000 
#    z 0.000000 0.000000 1.734480 
# 
# From -- ./inp_files/15754.got.cif
#   From: 2010.03.12/outbox.cif.g09.slc.cpg/sg20_8_cif.got.tgz:15754.got - 2010.04.14 01:38:04.
