data_PCOD8158704
_publ_section_title
;
Structure prediction by ZEFSAII (Michael W. Deem and Ramdas Pophale) SiO2 
 PCOD8158704
Probable space group: C 2 2 21
;
_chemical_formula_sum "Si O2"
_cell_formula_units_Z 60
_cell_length_a 12.593773
_cell_length_b 19.612664
_cell_length_c 11.775091
_cell_angle_alpha 90.000000
_cell_angle_beta 90.000000
_cell_angle_gamma 90.000000
_cell_volume 2908.417313
_symmetry_space_group_name_H-M "C 2 2 21"
_symmetry_group_IT_number 20
_symmetry_cell_setting 'orthorhombic'
loop_
_space_group_symop_operation_xyz
x,y,z
-x,-y,1/2+z
x,-y,-z
-x,y,1/2-z
1/2+x,1/2+y,z
1/2-x,1/2-y,1/2+z
1/2+x,1/2-y,-z
1/2-x,1/2+y,1/2-z
loop_
_atom_site_type_symbol
_atom_site_label
_atom_site_fract_x
_atom_site_fract_y
_atom_site_fract_z
Si Si1 0.316585 0.665067 0.624412
Si Si2 0.667047 0.512424 0.863173
Si Si3 0.598138 0.811008 0.484502
Si Si4 0.000000 0.917697 0.750000
Si Si5 0.730272 0.218192 0.301971
Si Si6 0.512075 0.933270 0.931587
Si Si7 0.165144 0.426784 0.747039
Si Si8 0.450812 0.699163 0.410806
O O1 0.350987 0.591025 0.670647
O O2 0.201166 0.653308 0.569609
O O3 0.308449 0.723199 0.717917
O O4 0.407869 0.686570 0.536879
O O5 0.596624 0.467537 0.777543
O O6 0.782074 0.489580 0.819935
O O7 0.651163 0.500000 0.000000
O O8 0.641229 0.778148 0.600705
O O9 0.502109 0.866313 0.490395
O O10 0.548487 0.751584 0.408369
O O11 0.005587 0.868876 0.639574
O O12 0.733916 0.142557 0.246930
O O13 0.851773 0.230017 0.340067
O O14 0.629758 0.943728 0.877033
O O15 0.436673 0.913607 0.828615
O O16 0.479189 0.000000 0.000000
#
# Coordination Sequence:
#
# PCOD8158704 Si02
#       8
#     8   8   8   4   8   8   8   8
#     4  11  23  40  65  95 132 174 223 277 333 406
#     4  12  23  44  66  93 129 171 220 263 332 395
#     4  10  22  38  65  96 132 176 216 287 332 395
#     4  12  24  42  68  92 122 176 222 270 324 398
#     4  10  21  41  62  93 127 173 218 269 339 391
#     4  10  20  36  61  95 126 169 220 269 334 392
#     4  10  20  38  64  87 127 174 213 266 328 401
#     4  11  22  41  66  96 129 173 222 275 329 398
#
# _framework density 20.629776
#
# number of rings (size 3 to 8) (size 9 to 14) (size 15 to 20)
#    0.000    1.333    2.667    4.400    0.000    3.733 
#    0.000    2.000    0.000    0.000    0.000    0.000 
#    0.000    0.000    0.000    0.000    0.000    0.000 
#
# Total GULP energy -371649.889649 kJ/mol
# GULP energy per Si atom -12388.329655 kJ/mol
# Density = 2.058282 g / cm^3
# Si number density = 20.629776 Si / 1000 Ang^3
#
#
#
# Elastic Constant Matrix: (Units=GPa)
#
#
# Indices 1 2 3 4 5 6 
#
# 1 61.7728 19.7849 30.7673 0.0000 0.0000 0.0000
# 2 19.7849 132.7741 54.9058 0.0000 0.0000 0.0000
# 3 30.7673 54.9058 85.6096 0.0000 0.0000 0.0000
# 4 0.0000 0.0000 0.0000 40.4549 0.0000 0.0000
# 5 0.0000 0.0000 0.0000 0.0000 31.7164 0.0000
# 6 0.0000 0.0000 0.0000 0.0000 0.0000 30.0977
#
#
#
# Elastic Compliance Matrix: (Units=1/GPa)
#
#
# Indices 1 2 3 4 5 6 
#
# 1 0.019718 -0.000011 -0.007080 0.000000 0.000000 0.000000
# 2 -0.000011 0.010250 -0.006570 0.000000 0.000000 0.000000
# 3 -0.007080 -0.006570 0.018439 0.000000 0.000000 0.000000
# 4 0.000000 0.000000 0.000000 0.024719 0.000000 0.000000
# 5 0.000000 0.000000 0.000000 0.000000 0.031529 0.000000
# 6 0.000000 0.000000 0.000000 0.000000 0.000000 0.033225
#
#
# Mechanical properties :
#
#
# Convention : Reuss Voigt Hill
#
# Bulk Modulus (GPa) = 47.42398 54.56362 50.99380
# Shear Modulus (GPa) = 29.03094 32.10035 30.56565
#
# Velocity S-wave (km/s) = 3.75538 3.94892 3.85337
# Velocity P-wave (km/s) = 6.46853 6.87738 6.67609
#
# Compressibility (1/GPa) = 0.02108638
#
# Stress axis : x y z
#
# Youngs Moduli (GPa) = 50.71527 97.56012 54.23273
#
# Poissons Ratio (x) = 0.00103 0.38395
# Poissons Ratio (y) = 0.00054 0.35632
# Poissons Ratio (z) = 0.35905 0.64098
#
# Static dielectric constant tensor:
#      x y z
#    x 3.922850 0.000000 0.000000 
#    y 0.000000 3.710420 0.000000 
#    z 0.000000 0.000000 3.836410 
# 
# 
# High freq. dielectric constant tensor:
#      x y z
#    x 1.804340 0.000000 0.000000 
#    y 0.000000 1.813430 0.000000 
#    z 0.000000 0.000000 1.794940 
# 
# From -- ./inp_files/15307.got.cif
#   From: 2010.03.12/outbox.cif.g09.slc.cpg/sg20_8_cif.got.tgz:15307.got - 2010.04.14 01:38:04.
