data_PCOD8158513
_publ_section_title
;
Structure prediction by ZEFSAII (Michael W. Deem and Ramdas Pophale) SiO2 
 PCOD8158513
Probable space group: C 2 2 21
;
_chemical_formula_sum "Si O2"
_cell_formula_units_Z 48
_cell_length_a 14.948042
_cell_length_b 8.661577
_cell_length_c 18.075821
_cell_angle_alpha 90.000000
_cell_angle_beta 90.000000
_cell_angle_gamma 90.000000
_cell_volume 2340.341921
_symmetry_space_group_name_H-M "C 2 2 21"
_symmetry_group_IT_number 20
_symmetry_cell_setting 'orthorhombic'
loop_
_space_group_symop_operation_xyz
x,y,z
-x,-y,1/2+z
x,-y,-z
-x,y,1/2-z
1/2+x,1/2+y,z
1/2-x,1/2-y,1/2+z
1/2+x,1/2-y,-z
1/2-x,1/2+y,1/2-z
loop_
_atom_site_type_symbol
_atom_site_label
_atom_site_fract_x
_atom_site_fract_y
_atom_site_fract_z
Si Si1 0.242164 0.112954 0.679117
Si Si2 0.392818 0.636639 0.594365
Si Si3 0.634998 0.010744 0.579049
Si Si4 0.448364 0.227965 0.173182
Si Si5 0.270834 0.249947 0.828778
Si Si6 0.317789 0.674386 0.436301
O O1 0.146186 0.191248 0.681141
O O2 0.296805 0.164647 0.752159
O O3 0.305570 0.168241 0.610799
O O4 0.221523 0.932660 0.676235
O O5 0.494860 0.679860 0.611343
O O6 0.332757 0.710459 0.658402
O O7 0.355891 0.710227 0.517643
O O8 0.386842 0.450057 0.598489
O O9 0.665568 0.181638 0.605990
O O10 0.583315 0.000000 0.500000
O O11 0.569826 0.943383 0.641868
O O12 0.721929 0.906898 0.563209
O O13 0.500000 0.215941 0.250000
#
# Coordination Sequence:
#
# PCOD8158513 Si02
#       6
#     8   8   8   8   8   8
#     4  11  23  39  65  93 119 167 215 257 305 379
#     4  10  19  40  61  87 125 164 198 262 307 362
#     4  10  20  43  64  86 122 170 204 253 306 370
#     4  11  23  39  62  91 130 161 199 257 323 362
#     4  11  21  40  67  89 121 164 219 255 302 372
#     4   9  19  40  65  85 120 167 214 243 305 370
#
# _framework density 20.509823000000001
#
# number of rings (size 3 to 8) (size 9 to 14) (size 15 to 20)
#    0.000    1.667    5.000    3.000    0.000    0.667 
#    9.000    0.833    0.000    0.000    0.000    0.000 
#    0.000    0.000    0.000    0.000    0.000    0.000 
#
# Total GULP energy -297409.023651 kJ/mol
# GULP energy per Si atom -12392.042652 kJ/mol
# Density = 2.046314 g / cm^3
# Si number density = 20.509823 Si / 1000 Ang^3
#
#
#
# Elastic Constant Matrix: (Units=GPa)
#
#
# Indices 1 2 3 4 5 6 
#
# 1 54.0645 13.4199 32.7991 0.0000 0.0000 0.0000
# 2 13.4199 132.8126 66.4727 0.0000 0.0000 0.0000
# 3 32.7991 66.4727 138.9246 0.0000 0.0000 0.0000
# 4 0.0000 0.0000 0.0000 31.1215 0.0000 0.0000
# 5 0.0000 0.0000 0.0000 0.0000 22.3295 0.0000
# 6 0.0000 0.0000 0.0000 0.0000 0.0000 21.1924
#
#
#
# Elastic Compliance Matrix: (Units=1/GPa)
#
#
# Indices 1 2 3 4 5 6 
#
# 1 0.021612 0.000487 -0.005335 0.000000 0.000000 0.000000
# 2 0.000487 0.009911 -0.004857 0.000000 0.000000 0.000000
# 3 -0.005335 -0.004857 0.010782 0.000000 0.000000 0.000000
# 4 0.000000 0.000000 0.000000 0.032132 0.000000 0.000000
# 5 0.000000 0.000000 0.000000 0.000000 0.044784 0.000000
# 6 0.000000 0.000000 0.000000 0.000000 0.000000 0.047187
#
#
# Mechanical properties :
#
#
# Convention : Reuss Voigt Hill
#
# Bulk Modulus (GPa) = 43.68045 61.24278 52.46162
# Shear Modulus (GPa) = 25.84625 29.13599 27.49112
#
# Velocity S-wave (km/s) = 3.55377 3.77316 3.66510
# Velocity P-wave (km/s) = 6.17920 6.99338 6.59886
#
# Compressibility (1/GPa) = 0.02289354
#
# Stress axis : x y z
#
# Youngs Moduli (GPa) = 46.26965 100.89504 92.74822
#
# Poissons Ratio (x) = -0.04909 0.49484
# Poissons Ratio (y) = -0.02251 0.45050
# Poissons Ratio (z) = 0.24686 0.49007
#
# Static dielectric constant tensor:
#      x y z
#    x 3.554710 0.000000 0.000000 
#    y 0.000000 3.680080 0.000000 
#    z 0.000000 0.000000 4.109230 
# 
# 
# High freq. dielectric constant tensor:
#      x y z
#    x 1.776150 0.000000 0.000000 
#    y 0.000000 1.787030 0.000000 
#    z 0.000000 0.000000 1.820860 
# 
# From -- ./inp_files/24792.got.cif
#   From: 2010.03.12/outbox.cif.g09.slc.cpg/sg20_13_cif.got.tgz:24792.got - 2010.04.14 01:38:04.
