data_PCOD8158931
_publ_section_title
;
Structure prediction by ZEFSAII (Michael W. Deem and Ramdas Pophale) SiO2 
 PCOD8158931
Probable space group: C 2 2 21
;
_chemical_formula_sum "Si O2"
_cell_formula_units_Z 48
_cell_length_a 12.428492
_cell_length_b 14.754111
_cell_length_c 13.205411
_cell_angle_alpha 90.000000
_cell_angle_beta 90.000000
_cell_angle_gamma 90.000000
_cell_volume 2421.494049
_symmetry_space_group_name_H-M "C 2 2 21"
_symmetry_group_IT_number 20
_symmetry_cell_setting 'orthorhombic'
loop_
_space_group_symop_operation_xyz
x,y,z
-x,-y,1/2+z
x,-y,-z
-x,y,1/2-z
1/2+x,1/2+y,z
1/2-x,1/2-y,1/2+z
1/2+x,1/2-y,-z
1/2-x,1/2+y,1/2-z
loop_
_atom_site_type_symbol
_atom_site_label
_atom_site_fract_x
_atom_site_fract_y
_atom_site_fract_z
Si Si1 0.000000 0.570525 0.250000
Si Si2 0.035779 0.167338 0.416408
Si Si3 0.224550 0.520096 0.791478
Si Si4 0.501690 0.238117 0.113013
Si Si5 0.674549 0.296691 0.251109
Si Si6 0.832506 0.000000 0.000000
Si Si7 0.840467 0.848128 0.720011
O O1 0.100942 0.505526 0.228705
O O2 0.980193 0.635309 0.152019
O O3 0.019973 0.252075 0.493337
O O4 0.917761 0.142297 0.376006
O O5 0.089597 0.082965 0.473004
O O6 0.105804 0.197156 0.319979
O O7 0.250732 0.615760 0.738629
O O8 0.250929 0.526916 0.910347
O O9 0.304965 0.449698 0.741131
O O10 0.625158 0.265969 0.141978
O O11 0.424280 0.309935 0.170930
O O12 0.740347 0.215421 0.303789
#
# Coordination Sequence:
#
# PCOD8158931 Si02
#       7
#     4   8   8   8   8   4   8
#     4  10  22  40  62  90 124 172 204 250 316 378
#     4  10  22  36  62  90 121 156 215 262 309 372
#     4  11  21  40  64  87 131 162 209 260 315 376
#     4  10  20  40  61  87 120 168 213 237 314 384
#     4  10  21  37  62  87 121 169 202 253 314 372
#     4  10  22  36  62  96 114 168 212 256 320 372
#     4  10  22  39  59  92 124 159 207 270 314 363
#
# _framework density 19.822474
#
# number of rings (size 3 to 8) (size 9 to 14) (size 15 to 20)
#    0.000    2.000    5.000    0.000    2.333    5.333 
#    0.000    0.000    0.000    0.000    0.000    0.000 
#    0.000    0.000    0.000    0.000    0.000    0.000 
#
# Total GULP energy -297472.283577 kJ/mol
# GULP energy per Si atom -12394.678482 kJ/mol
# Density = 1.977736 g / cm^3
# Si number density = 19.822474 Si / 1000 Ang^3
#
#
#
# Elastic Constant Matrix: (Units=GPa)
#
#
# Indices 1 2 3 4 5 6 
#
# 1 120.0069 40.5480 41.2435 0.0000 0.0000 0.0000
# 2 40.5480 94.3432 21.4770 0.0000 0.0000 0.0000
# 3 41.2435 21.4770 81.1201 0.0000 0.0000 0.0000
# 4 0.0000 0.0000 0.0000 21.5656 0.0000 0.0000
# 5 0.0000 0.0000 0.0000 0.0000 25.6554 0.0000
# 6 0.0000 0.0000 0.0000 0.0000 0.0000 39.0050
#
#
#
# Elastic Compliance Matrix: (Units=1/GPa)
#
#
# Indices 1 2 3 4 5 6 
#
# 1 0.011219 -0.003749 -0.004711 0.000000 0.000000 0.000000
# 2 -0.003749 0.012532 -0.001412 0.000000 0.000000 0.000000
# 3 -0.004711 -0.001412 0.015097 0.000000 0.000000 0.000000
# 4 0.000000 0.000000 0.000000 0.046370 0.000000 0.000000
# 5 0.000000 0.000000 0.000000 0.000000 0.038978 0.000000
# 6 0.000000 0.000000 0.000000 0.000000 0.000000 0.025638
#
#
# Mechanical properties :
#
#
# Convention : Reuss Voigt Hill
#
# Bulk Modulus (GPa) = 52.34771 55.77858 54.06314
# Shear Modulus (GPa) = 28.41776 30.05863 29.23820
#
# Velocity S-wave (km/s) = 3.79042 3.89831 3.84474
# Velocity P-wave (km/s) = 6.75440 6.96151 6.85874
#
# Compressibility (1/GPa) = 0.01910303
#
# Stress axis : x y z
#
# Youngs Moduli (GPa) = 89.13605 79.79331 66.24038
#
# Poissons Ratio (x) = 0.29916 0.31208
# Poissons Ratio (y) = 0.33419 0.09352
# Poissons Ratio (z) = 0.41995 0.11265
#
# Static dielectric constant tensor:
#      x y z
#    x 3.772860 0.000000 0.000000 
#    y 0.000000 3.351920 0.000000 
#    z 0.000000 0.000000 3.544990 
# 
# 
# High freq. dielectric constant tensor:
#      x y z
#    x 1.784970 0.000000 0.000000 
#    y 0.000000 1.756850 0.000000 
#    z 0.000000 0.000000 1.757730 
# 
# From -- ./inp_files/19990.got.cif
#   From: 2010.03.12/outbox.cif.g09.slc.cpg/sg20_10_cif.got.tgz:19990.got - 2010.04.14 01:38:04.
