data_PCOD8158383
_publ_section_title
;
Structure prediction by ZEFSAII (Michael W. Deem and Ramdas Pophale) SiO2 
 PCOD8158383
Probable space group: C 2 2 21
;
_chemical_formula_sum "Si O2"
_cell_formula_units_Z 52
_cell_length_a 14.529546
_cell_length_b 8.443610
_cell_length_c 19.934169
_cell_angle_alpha 90.000000
_cell_angle_beta 90.000000
_cell_angle_gamma 90.000000
_cell_volume 2445.560131
_symmetry_space_group_name_H-M "C 2 2 21"
_symmetry_group_IT_number 20
_symmetry_cell_setting 'orthorhombic'
loop_
_space_group_symop_operation_xyz
x,y,z
-x,-y,1/2+z
x,-y,-z
-x,y,1/2-z
1/2+x,1/2+y,z
1/2-x,1/2-y,1/2+z
1/2+x,1/2-y,-z
1/2-x,1/2+y,1/2-z
loop_
_atom_site_type_symbol
_atom_site_label
_atom_site_fract_x
_atom_site_fract_y
_atom_site_fract_z
Si Si1 0.807539 0.604257 0.601535
Si Si2 0.500000 0.279732 0.250000
Si Si3 0.806308 0.271108 0.535938
Si Si4 0.012653 0.527159 0.822818
Si Si5 0.621383 0.551533 0.651863
Si Si6 0.382606 0.791616 0.090184
Si Si7 0.005227 0.834056 0.468503
O O1 0.786867 0.447362 0.559690
O O2 0.804970 0.743318 0.545551
O O3 0.903190 0.610840 0.640130
O O4 0.726187 0.614322 0.655922
O O5 0.420780 0.397794 0.223641
O O6 0.469287 0.162136 0.311416
O O7 0.722705 0.168072 0.567956
O O8 0.908790 0.230360 0.560692
O O9 0.000000 0.609164 0.750000
O O10 0.921223 0.559436 0.867256
O O11 0.611627 0.364334 0.637574
O O12 0.574937 0.650136 0.592396
O O13 0.446545 0.776444 0.024167
O O14 0.979717 0.000000 0.500000
#
# Coordination Sequence:
#
# PCOD8158383 Si02
#       7
#     8   4   8   8   8   8   8
#     4  10  19  38  64  85 116 157 199 248 307 362
#     4  10  24  42  56  84 126 166 202 248 302 364
#     4  10  19  35  64  93 116 152 194 252 320 355
#     4  10  23  42  55  87 127 162 202 252 305 372
#     4  10  21  40  62  84 117 161 206 248 295 375
#     4  10  20  39  65  88 118 160 208 253 309 364
#     4  10  19  36  60  90 121 150 199 258 305 364
#
# _framework density 21.263021999999999
#
# number of rings (size 3 to 8) (size 9 to 14) (size 15 to 20)
#    0.462    1.538    3.077    0.923    1.077    0.000 
#   11.077    0.000    0.000    0.000    0.000    0.000 
#    0.000    0.000    0.000    0.000    0.000    0.000 
#
# Total GULP energy -322161.137116 kJ/mol
# GULP energy per Si atom -12390.812966 kJ/mol
# Density = 2.121463 g / cm^3
# Si number density = 21.263022 Si / 1000 Ang^3
#
#
#
# Elastic Constant Matrix: (Units=GPa)
#
#
# Indices 1 2 3 4 5 6 
#
# 1 135.9782 8.4741 28.6636 0.0000 0.0000 0.0000
# 2 8.4741 31.4844 16.0190 0.0000 0.0000 0.0000
# 3 28.6636 16.0190 69.4506 0.0000 0.0000 0.0000
# 4 0.0000 0.0000 0.0000 29.7976 0.0000 0.0000
# 5 0.0000 0.0000 0.0000 0.0000 36.9915 0.0000
# 6 0.0000 0.0000 0.0000 0.0000 0.0000 17.8294
#
#
#
# Elastic Compliance Matrix: (Units=1/GPa)
#
#
# Indices 1 2 3 4 5 6 
#
# 1 0.008063 -0.000540 -0.003203 0.000000 0.000000 0.000000
# 2 -0.000540 0.036021 -0.008085 0.000000 0.000000 0.000000
# 3 -0.003203 -0.008085 0.017586 0.000000 0.000000 0.000000
# 4 0.000000 0.000000 0.000000 0.033560 0.000000 0.000000
# 5 0.000000 0.000000 0.000000 0.000000 0.027033 0.000000
# 6 0.000000 0.000000 0.000000 0.000000 0.000000 0.056087
#
#
# Mechanical properties :
#
#
# Convention : Reuss Voigt Hill
#
# Bulk Modulus (GPa) = 26.30758 38.13630 32.22194
# Shear Modulus (GPa) = 23.29071 29.17414 26.23242
#
# Velocity S-wave (km/s) = 3.31322 3.70815 3.51623
# Velocity P-wave (km/s) = 5.19960 6.02564 5.62779
#
# Compressibility (1/GPa) = 0.03801185
#
# Stress axis : x y z
#
# Youngs Moduli (GPa) = 124.02333 27.76163 56.86475
#
# Poissons Ratio (x) = 0.01500 0.18214
# Poissons Ratio (y) = 0.06703 0.45977
# Poissons Ratio (z) = 0.39726 0.22446
#
# Static dielectric constant tensor:
#      x y z
#    x 3.863770 0.000000 0.000000 
#    y 0.000000 3.525940 0.000000 
#    z 0.000000 0.000000 3.850660 
# 
# 
# High freq. dielectric constant tensor:
#      x y z
#    x 1.839910 0.000000 0.000000 
#    y 0.000000 1.801490 0.000000 
#    z 0.000000 0.000000 1.828190 
# 
# From -- ./inp_files/27527.got.cif
#   From: 2010.03.12/outbox.cif.g09.slc.cpg/sg20_14_cif.got.tgz:27527.got - 2010.04.14 01:38:04.
