data_PCOD8158646
_publ_section_title
;
Structure prediction by ZEFSAII (Michael W. Deem and Ramdas Pophale) SiO2 
 PCOD8158646
Probable space group: C 2 2 21
;
_chemical_formula_sum "Si O2"
_cell_formula_units_Z 48
_cell_length_a 18.453314
_cell_length_b 11.517876
_cell_length_c 11.237796
_cell_angle_alpha 90.000000
_cell_angle_beta 90.000000
_cell_angle_gamma 90.000000
_cell_volume 2388.514678
_symmetry_space_group_name_H-M "C 2 2 21"
_symmetry_group_IT_number 20
_symmetry_cell_setting 'orthorhombic'
loop_
_space_group_symop_operation_xyz
x,y,z
-x,-y,1/2+z
x,-y,-z
-x,y,1/2-z
1/2+x,1/2+y,z
1/2-x,1/2-y,1/2+z
1/2+x,1/2-y,-z
1/2-x,1/2+y,1/2-z
loop_
_atom_site_type_symbol
_atom_site_label
_atom_site_fract_x
_atom_site_fract_y
_atom_site_fract_z
Si Si1 0.001963 0.168889 0.563816
Si Si2 0.982631 0.569988 0.382325
Si Si3 0.797780 0.957683 0.698073
Si Si4 0.168872 0.834442 0.036165
Si Si5 0.556751 0.562139 0.336216
Si Si6 0.312375 0.080896 0.396331
O O1 0.054433 0.140400 0.453571
O O2 0.015283 0.299003 0.612313
O O3 0.917934 0.155053 0.528274
O O4 0.026501 0.070461 0.656088
O O5 0.012892 0.500000 0.500000
O O6 0.897187 0.563216 0.386675
O O7 0.000000 0.517737 0.250000
O O8 0.799166 0.864237 0.592687
O O9 0.861901 0.935223 0.790661
O O10 0.722900 0.948113 0.769422
O O11 0.802739 0.084010 0.640914
O O12 0.202874 0.711973 0.067429
O O13 0.500000 0.626603 0.250000
O O14 0.279352 0.000000 0.500000
#
# Coordination Sequence:
#
# PCOD8158646 Si02
#       6
#     8   8   8   8   8   8
#     4  10  20  35  60  98 124 156 203 260 320 362
#     4  10  23  47  67  88 124 171 218 263 307 374
#     4  11  22  39  62  93 127 164 207 252 319 382
#     4  10  21  41  63  85 129 167 200 264 315 368
#     4  11  18  33  61  98 126 152 200 259 314 378
#     4  10  25  43  62  88 127 170 208 254 318 372
#
# _framework density 20.096171999999999
#
# number of rings (size 3 to 8) (size 9 to 14) (size 15 to 20)
#    0.000    1.667    3.333    1.500    7.000    0.667 
#    9.000    0.000    0.000    0.000    0.000    0.000 
#    0.000    0.000    0.000    0.000    0.000    0.000 
#
# Total GULP energy -297443.541389 kJ/mol
# GULP energy per Si atom -12393.480891 kJ/mol
# Density = 2.005043 g / cm^3
# Si number density = 20.096172 Si / 1000 Ang^3
#
#
#
# Elastic Constant Matrix: (Units=GPa)
#
#
# Indices 1 2 3 4 5 6 
#
# 1 40.9566 28.2351 30.4718 0.0000 0.0000 0.0000
# 2 28.2351 103.7076 56.4318 0.0000 0.0000 0.0000
# 3 30.4718 56.4318 153.1009 0.0000 0.0000 0.0000
# 4 0.0000 0.0000 0.0000 19.1083 0.0000 0.0000
# 5 0.0000 0.0000 0.0000 0.0000 322.9696 0.0000
# 6 0.0000 0.0000 0.0000 0.0000 0.0000 19.8935
#
#
#
# Elastic Compliance Matrix: (Units=1/GPa)
#
#
# Indices 1 2 3 4 5 6 
#
# 1 0.031843 -0.006531 -0.003931 0.000000 0.000000 0.000000
# 2 -0.006531 0.013401 -0.003640 0.000000 0.000000 0.000000
# 3 -0.003931 -0.003640 0.008656 0.000000 0.000000 0.000000
# 4 0.000000 0.000000 0.000000 0.052333 0.000000 0.000000
# 5 0.000000 0.000000 0.000000 0.000000 0.003096 0.000000
# 6 0.000000 0.000000 0.000000 0.000000 0.000000 0.050268
#
#
# Mechanical properties :
#
#
# Convention : Reuss Voigt Hill
#
# Bulk Modulus (GPa) = 38.91440 58.67139 48.79289
# Shear Modulus (GPa) = 25.46294 84.56938 55.01616
#
# Velocity S-wave (km/s) = 3.56343 6.49413 5.23793
# Velocity P-wave (km/s) = 6.02801 9.24609 7.80471
#
# Compressibility (1/GPa) = 0.02569743
#
# Stress axis : x y z
#
# Youngs Moduli (GPa) = 31.40451 74.62125 115.53331
#
# Poissons Ratio (x) = 0.48732 0.45411
# Poissons Ratio (y) = 0.20509 0.42051
# Poissons Ratio (z) = 0.12344 0.27160
#
# Static dielectric constant tensor:
#      x y z
#    x 3.312520 0.000000 0.000000 
#    y 0.000000 3.691950 0.000000 
#    z 0.000000 0.000000 1.572370 
# 
# 
# High freq. dielectric constant tensor:
#      x y z
#    x 1.762080 0.000000 0.000000 
#    y 0.000000 1.776080 0.000000 
#    z 0.000000 0.000000 1.808140 
# 
# From -- ./inp_files/16278.got.cif
#   From: 2010.03.12/outbox.cif.g09.slc.cpg/sg20_9_cif.got.tgz:16278.got - 2010.04.14 01:38:04.
