data_PCOD8158879
_publ_section_title
;
Structure prediction by ZEFSAII (Michael W. Deem and Ramdas Pophale) SiO2 
 PCOD8158879
Probable space group: C 2 2 21
;
_chemical_formula_sum "Si O2"
_cell_formula_units_Z 56
_cell_length_a 14.150731
_cell_length_b 11.597294
_cell_length_c 17.168732
_cell_angle_alpha 90.000000
_cell_angle_beta 90.000000
_cell_angle_gamma 90.000000
_cell_volume 2817.563831
_symmetry_space_group_name_H-M "C 2 2 21"
_symmetry_group_IT_number 20
_symmetry_cell_setting 'orthorhombic'
loop_
_space_group_symop_operation_xyz
x,y,z
-x,-y,1/2+z
x,-y,-z
-x,y,1/2-z
1/2+x,1/2+y,z
1/2-x,1/2-y,1/2+z
1/2+x,1/2-y,-z
1/2-x,1/2+y,1/2-z
loop_
_atom_site_type_symbol
_atom_site_label
_atom_site_fract_x
_atom_site_fract_y
_atom_site_fract_z
Si Si1 0.384068 0.735840 0.886276
Si Si2 0.126855 0.000000 0.000000
Si Si3 0.500000 0.156082 0.250000
Si Si4 0.576935 0.230974 0.817022
Si Si5 0.676790 0.481923 0.586597
Si Si6 0.328602 0.994898 0.707789
Si Si7 0.018475 0.190500 0.462571
Si Si8 0.276461 0.411564 0.646491
O O1 0.450609 0.764409 0.813722
O O2 0.363545 0.600615 0.879066
O O3 0.288804 0.809636 0.886492
O O4 0.433729 0.763962 0.968775
O O5 0.192283 0.003847 0.076836
O O6 0.062187 0.113337 0.996854
O O7 0.574709 0.075732 0.205848
O O8 0.500000 0.224851 0.750000
O O9 0.525608 0.220590 0.900829
O O10 0.632377 0.352540 0.812909
O O11 0.651682 0.128081 0.809891
O O12 0.718290 0.500000 0.500000
O O13 0.760927 0.438998 0.642239
O O14 0.593048 0.388937 0.584094
O O15 0.278949 0.989395 0.791811
#
# Coordination Sequence:
#
# PCOD8158879 Si02
#       8
#     8   4   4   8   8   8   8   8
#     4  10  20  41  59  87 118 154 196 242 295 351
#     4  10  20  40  60  88 116 150 194 244 294 350
#     4  10  24  40  58  84 122 158 200 240 290 356
#     4  11  22  39  61  88 119 157 197 240 295 351
#     4  10  20  39  62  87 118 151 194 248 294 347
#     4  11  22  41  59  87 123 157 199 241 293 351
#     4  10  21  40  62  88 118 150 198 245 293 352
#     4  10  23  39  60  87 120 156 196 243 296 352
#
# _framework density 19.875325
#
# number of rings (size 3 to 8) (size 9 to 14) (size 15 to 20)
#    0.000    1.714    4.286    0.857    0.000    3.429 
#    3.857    0.000    0.000    0.000    0.000    0.000 
#    0.000    0.000    0.000    0.000    0.000    0.000 
#
# Total GULP energy -347297.914882 kJ/mol
# GULP energy per Si atom -12403.496960 kJ/mol
# Density = 1.983009 g / cm^3
# Si number density = 19.875325 Si / 1000 Ang^3
#
#
#
# Elastic Constant Matrix: (Units=GPa)
#
#
# Indices 1 2 3 4 5 6 
#
# 1 107.3170 29.6910 56.6319 0.0000 0.0000 0.0000
# 2 29.6910 68.7053 46.5166 0.0000 0.0000 0.0000
# 3 56.6319 46.5166 105.3293 0.0000 0.0000 0.0000
# 4 0.0000 0.0000 0.0000 28.8851 0.0000 0.0000
# 5 0.0000 0.0000 0.0000 0.0000 48.1945 0.0000
# 6 0.0000 0.0000 0.0000 0.0000 0.0000 8.7643
#
#
#
# Elastic Compliance Matrix: (Units=1/GPa)
#
#
# Indices 1 2 3 4 5 6 
#
# 1 0.013087 -0.001272 -0.006475 0.000000 0.000000 0.000000
# 2 -0.001272 0.020887 -0.008540 0.000000 0.000000 0.000000
# 3 -0.006475 -0.008540 0.016747 0.000000 0.000000 0.000000
# 4 0.000000 0.000000 0.000000 0.034620 0.000000 0.000000
# 5 0.000000 0.000000 0.000000 0.000000 0.020749 0.000000
# 6 0.000000 0.000000 0.000000 0.000000 0.000000 0.114100
#
#
# Mechanical properties :
#
#
# Convention : Reuss Voigt Hill
#
# Bulk Modulus (GPa) = 55.10633 60.78117 57.94375
# Shear Modulus (GPa) = 19.31904 27.06958 23.19431
#
# Velocity S-wave (km/s) = 3.12109 3.69449 3.41983
# Velocity P-wave (km/s) = 6.38549 6.98904 6.69407
#
# Compressibility (1/GPa) = 0.01814674
#
# Stress axis : x y z
#
# Youngs Moduli (GPa) = 76.41312 47.87709 59.71245
#
# Poissons Ratio (x) = 0.06089 0.38662
# Poissons Ratio (y) = 0.09718 0.50997
# Poissons Ratio (z) = 0.49475 0.40889
#
# Static dielectric constant tensor:
#      x y z
#    x 3.838070 0.000000 0.000000 
#    y 0.000000 3.376580 0.000000 
#    z 0.000000 0.000000 3.732890 
# 
# 
# High freq. dielectric constant tensor:
#      x y z
#    x 1.790820 0.000000 0.000000 
#    y 0.000000 1.755500 0.000000 
#    z 0.000000 0.000000 1.782140 
# 
# From -- ./inp_files/20781.got.cif
#   From: 2010.03.12/outbox.cif.g09.slc.cpg/sg20_11_cif.got.tgz:20781.got - 2010.04.14 01:38:04.
