data_PCOD8158056
_publ_section_title
;
Structure prediction by ZEFSAII (Michael W. Deem and Ramdas Pophale) SiO2 
 PCOD8158056
Probable space group: C 2 2 21
;
_chemical_formula_sum "Si O2"
_cell_formula_units_Z 64
_cell_length_a 12.577416
_cell_length_b 17.670337
_cell_length_c 15.782514
_cell_angle_alpha 90.000000
_cell_angle_beta 90.000000
_cell_angle_gamma 90.000000
_cell_volume 3507.619219
_symmetry_space_group_name_H-M "C 2 2 21"
_symmetry_group_IT_number 20
_symmetry_cell_setting 'orthorhombic'
loop_
_space_group_symop_operation_xyz
x,y,z
-x,-y,1/2+z
x,-y,-z
-x,y,1/2-z
1/2+x,1/2+y,z
1/2-x,1/2-y,1/2+z
1/2+x,1/2-y,-z
1/2-x,1/2+y,1/2-z
loop_
_atom_site_type_symbol
_atom_site_label
_atom_site_fract_x
_atom_site_fract_y
_atom_site_fract_z
Si Si1 0.034123 0.871686 0.980067
Si Si2 0.331596 0.693109 0.953831
Si Si3 0.396442 0.213743 0.587254
Si Si4 0.114936 0.774718 0.264558
Si Si5 0.322828 0.403423 0.363434
Si Si6 0.671202 0.291300 0.742857
Si Si7 0.907180 0.947893 0.692186
Si Si8 0.125234 0.689975 0.588162
O O1 0.080062 0.787478 0.969104
O O2 0.046153 0.921738 0.897176
O O3 0.100636 0.909180 0.055586
O O4 0.907123 0.868165 0.999957
O O5 0.206187 0.669720 0.951580
O O6 0.376754 0.699539 0.860405
O O7 0.337868 0.775608 0.998482
O O8 0.372019 0.236848 0.683556
O O9 0.502325 0.160910 0.584038
O O10 0.128076 0.846895 0.204435
O O11 0.201068 0.711239 0.240901
O O12 0.000000 0.737601 0.250000
O O13 0.318390 0.487462 0.322820
O O14 0.202410 0.378893 0.386888
O O15 0.639914 0.377799 0.755367
O O16 0.624836 0.259980 0.654912
O O17 0.000000 0.983533 0.750000
#
# Coordination Sequence:
#
# PCOD8158056 Si02
#       8
#     8   8   8   8   8   8   8   8
#     4  10  19  33  52  81 114 143 182 231 281 337
#     4  10  18  30  54  80 114 137 180 233 283 332
#     4   9  17  31  51  80 111 136 176 233 283 325
#     4  10  19  33  54  81 113 143 185 240 281 324
#     4  11  21  35  53  81 115 147 187 233 285 336
#     4   9  19  33  54  78 109 148 186 228 283 337
#     4  11  22  36  54  80 115 153 185 229 290 349
#     4  10  19  32  55  81 114 141 188 236 279 335
#
# _framework density 18.245994
#
# number of rings (size 3 to 8) (size 9 to 14) (size 15 to 20)
#    0.000    2.000    2.500    3.375    0.000    0.000 
#    0.000    0.000    0.000    4.500    0.000    1.750 
#    0.000    0.000    0.000    0.000    0.000    0.000 
#
# Total GULP energy -396680.850839 kJ/mol
# GULP energy per Si atom -12396.276589 kJ/mol
# Density = 1.820446 g / cm^3
# Si number density = 18.245994 Si / 1000 Ang^3
#
#
#
# Elastic Constant Matrix: (Units=GPa)
#
#
# Indices 1 2 3 4 5 6 
#
# 1 175.5071 39.9542 32.5278 0.0000 0.0000 0.0000
# 2 39.9542 60.8790 17.6715 0.0000 0.0000 0.0000
# 3 32.5278 17.6715 85.2031 0.0000 0.0000 0.0000
# 4 0.0000 0.0000 0.0000 10.1837 0.0000 0.0000
# 5 0.0000 0.0000 0.0000 0.0000 26.8535 0.0000
# 6 0.0000 0.0000 0.0000 0.0000 0.0000 23.3115
#
#
#
# Elastic Compliance Matrix: (Units=1/GPa)
#
#
# Indices 1 2 3 4 5 6 
#
# 1 0.006953 -0.004036 -0.001818 0.000000 0.000000 0.000000
# 2 -0.004036 0.019821 -0.002570 0.000000 0.000000 0.000000
# 3 -0.001818 -0.002570 0.012964 0.000000 0.000000 0.000000
# 4 0.000000 0.000000 0.000000 0.098196 0.000000 0.000000
# 5 0.000000 0.000000 0.000000 0.000000 0.037239 0.000000
# 6 0.000000 0.000000 0.000000 0.000000 0.000000 0.042897
#
#
# Mechanical properties :
#
#
# Convention : Reuss Voigt Hill
#
# Bulk Modulus (GPa) = 43.68592 55.76626 49.72609
# Shear Modulus (GPa) = 20.61456 27.49880 24.05668
#
# Velocity S-wave (km/s) = 3.36492 3.88637 3.63500
# Velocity P-wave (km/s) = 6.25233 7.12519 6.70298
#
# Compressibility (1/GPa) = 0.02289067
#
# Stress axis : x y z
#
# Youngs Moduli (GPa) = 143.81476 50.45218 77.13912
#
# Poissons Ratio (x) = 0.20362 0.14020
# Poissons Ratio (y) = 0.58041 0.19826
# Poissons Ratio (z) = 0.26139 0.12967
#
# Static dielectric constant tensor:
#      x y z
#    x 3.739500 0.000000 0.000000 
#    y 0.000000 2.938750 0.000000 
#    z 0.000000 0.000000 3.570480 
# 
# 
# High freq. dielectric constant tensor:
#      x y z
#    x 1.718400 0.000000 0.000000 
#    y 0.000000 1.650310 0.000000 
#    z 0.000000 0.000000 1.728340 
# 
# From -- ./inp_files/20279.got.cif
#   From: 2010.03.12/outbox.cif.g09.slc.cpg/sg20_11_cif.got.tgz:20279.got - 2010.04.14 01:38:04.
