data_PCOD8158829
_publ_section_title
;
Structure prediction by ZEFSAII (Michael W. Deem and Ramdas Pophale) SiO2 
 PCOD8158829
Probable space group: C 2 2 21
;
_chemical_formula_sum "Si O2"
_cell_formula_units_Z 52
_cell_length_a 15.599960
_cell_length_b 7.847952
_cell_length_c 20.705998
_cell_angle_alpha 90.000000
_cell_angle_beta 90.000000
_cell_angle_gamma 90.000000
_cell_volume 2534.988483
_symmetry_space_group_name_H-M "C 2 2 21"
_symmetry_group_IT_number 20
_symmetry_cell_setting 'orthorhombic'
loop_
_space_group_symop_operation_xyz
x,y,z
-x,-y,1/2+z
x,-y,-z
-x,y,1/2-z
1/2+x,1/2+y,z
1/2-x,1/2-y,1/2+z
1/2+x,1/2-y,-z
1/2-x,1/2+y,1/2-z
loop_
_atom_site_type_symbol
_atom_site_label
_atom_site_fract_x
_atom_site_fract_y
_atom_site_fract_z
Si Si1 0.585357 0.456961 0.788436
Si Si2 0.013542 0.252643 0.951934
Si Si3 0.151742 0.700451 0.158465
Si Si4 0.397077 0.903244 0.246848
Si Si5 0.377131 0.000000 0.000000
Si Si6 0.000369 0.118528 0.414547
Si Si7 0.168335 0.314232 0.380833
O O1 0.500000 0.510413 0.750000
O O2 0.638963 0.631028 0.796757
O O3 0.633074 0.296421 0.754875
O O4 0.569089 0.377232 0.858634
O O5 0.937105 0.387915 0.952755
O O6 0.088631 0.309415 0.903397
O O7 0.974122 0.074156 0.930560
O O8 0.043044 0.225274 0.026715
O O9 0.141062 0.530619 0.200484
O O10 0.247906 0.703079 0.132788
O O11 0.500000 0.915360 0.250000
O O12 0.356605 0.948125 0.176666
O O13 0.315249 0.095467 0.949861
O O14 0.088070 0.192359 0.388644
#
# Coordination Sequence:
#
# PCOD8158829 Si02
#       7
#     8   8   8   8   4   8   8
#     4  10  20  38  63  87 122 168 210 249 313 378
#     4   9  20  38  65  87 118 165 214 250 307 383
#     4  11  25  39  62  99 125 162 209 271 317 365
#     4  11  22  41  64  90 124 172 211 256 310 394
#     4  10  22  42  66  88 124 176 208 258 308 392
#     4   9  18  39  63  85 120 166 207 253 308 387
#     4  11  23  40  61  93 132 158 214 263 327 367
#
# _framework density 20.512913000000001
#
# number of rings (size 3 to 8) (size 9 to 14) (size 15 to 20)
#    0.000    1.846    3.077    1.385    4.308    3.692 
#    2.769    3.077    0.000    0.000    0.000    0.000 
#    0.000    0.000    0.000    0.000    0.000    0.000 
#
# Total GULP energy -322174.274757 kJ/mol
# GULP energy per Si atom -12391.318260 kJ/mol
# Density = 2.046622 g / cm^3
# Si number density = 20.512913 Si / 1000 Ang^3
#
#
#
# Elastic Constant Matrix: (Units=GPa)
#
#
# Indices 1 2 3 4 5 6 
#
# 1 63.5616 19.2183 38.3844 0.0000 0.0000 0.0000
# 2 19.2183 68.6661 32.0734 0.0000 0.0000 0.0000
# 3 38.3844 32.0734 109.1354 0.0000 0.0000 0.0000
# 4 0.0000 0.0000 0.0000 27.2531 0.0000 0.0000
# 5 0.0000 0.0000 0.0000 0.0000 25.1450 0.0000
# 6 0.0000 0.0000 0.0000 0.0000 0.0000 15.8830
#
#
#
# Elastic Compliance Matrix: (Units=1/GPa)
#
#
# Indices 1 2 3 4 5 6 
#
# 1 0.020409 -0.002735 -0.006374 0.000000 0.000000 0.000000
# 2 -0.002735 0.017247 -0.004107 0.000000 0.000000 0.000000
# 3 -0.006374 -0.004107 0.012612 0.000000 0.000000 0.000000
# 4 0.000000 0.000000 0.000000 0.036693 0.000000 0.000000
# 5 0.000000 0.000000 0.000000 0.000000 0.039769 0.000000
# 6 0.000000 0.000000 0.000000 0.000000 0.000000 0.062960
#
#
# Mechanical properties :
#
#
# Convention : Reuss Voigt Hill
#
# Bulk Modulus (GPa) = 41.95342 46.74615 44.34978
# Shear Modulus (GPa) = 22.31468 23.76869 23.04169
#
# Velocity S-wave (km/s) = 3.30181 3.40769 3.35517
# Velocity P-wave (km/s) = 5.91883 6.19041 6.05615
#
# Compressibility (1/GPa) = 0.02383596
#
# Stress axis : x y z
#
# Youngs Moduli (GPa) = 48.99772 57.98161 79.29044
#
# Poissons Ratio (x) = 0.15856 0.50544
# Poissons Ratio (y) = 0.13399 0.32563
# Poissons Ratio (z) = 0.31234 0.23812
#
# Static dielectric constant tensor:
#      x y z
#    x 3.332130 0.000000 0.000000 
#    y 0.000000 3.944560 0.000000 
#    z 0.000000 0.000000 4.404450 
# 
# 
# High freq. dielectric constant tensor:
#      x y z
#    x 1.767520 0.000000 0.000000 
#    y 0.000000 1.802590 0.000000 
#    z 0.000000 0.000000 1.828720 
# 
# From -- ./inp_files/27511.got.cif
#   From: 2010.03.12/outbox.cif.g09.slc.cpg/sg20_14_cif.got.tgz:27511.got - 2010.04.14 01:38:04.
