data_PCOD8158495
_publ_section_title
;
Structure prediction by ZEFSAII (Michael W. Deem and Ramdas Pophale) SiO2 
 PCOD8158495
Probable space group: C 2 2 21
;
_chemical_formula_sum "Si O2"
_cell_formula_units_Z 32
_cell_length_a 9.571596
_cell_length_b 9.895646
_cell_length_c 16.851319
_cell_angle_alpha 90.000000
_cell_angle_beta 90.000000
_cell_angle_gamma 90.000000
_cell_volume 1596.108499
_symmetry_space_group_name_H-M "C 2 2 21"
_symmetry_group_IT_number 20
_symmetry_cell_setting 'orthorhombic'
loop_
_space_group_symop_operation_xyz
x,y,z
-x,-y,1/2+z
x,-y,-z
-x,y,1/2-z
1/2+x,1/2+y,z
1/2-x,1/2-y,1/2+z
1/2+x,1/2-y,-z
1/2-x,1/2+y,1/2-z
loop_
_atom_site_type_symbol
_atom_site_label
_atom_site_fract_x
_atom_site_fract_y
_atom_site_fract_z
Si Si1 0.291752 0.302211 0.431035
Si Si2 0.931843 0.206814 0.835345
Si Si3 0.593443 0.444328 0.589377
Si Si4 0.785853 0.101392 0.394512
O O1 0.449854 0.271042 0.403050
O O2 0.199167 0.178091 0.402136
O O3 0.236010 0.445383 0.397833
O O4 0.278443 0.311828 0.525091
O O5 0.000000 0.197631 0.750000
O O6 0.817719 0.326394 0.832822
O O7 0.850489 0.067776 0.856516
O O8 0.566789 0.500000 0.500000
O O9 0.448107 0.396846 0.629552
#
# Coordination Sequence:
#
# PCOD8158495 Si02
#       4
#     8   8   8   8
#     4  10  20  37  61  89 115 158 205 242 297 361
#     4  11  24  40  59  90 128 157 196 258 308 345
#     4  11  20  39  64  92 117 156 207 246 294 362
#     4  10  19  39  60  86 122 153 203 252 292 361
#
# _framework density 20.048762
#
# number of rings (size 3 to 8) (size 9 to 14) (size 15 to 20)
#    0.000    1.500    7.500    0.000    0.000    6.000 
#    4.500    1.250    0.000    0.000    0.000    0.000 
#    0.000    0.000    0.000    0.000    0.000    0.000 
#
# Total GULP energy -198307.432415 kJ/mol
# GULP energy per Si atom -12394.214526 kJ/mol
# Density = 2.000313 g / cm^3
# Si number density = 20.048762 Si / 1000 Ang^3
#
#
#
# Elastic Constant Matrix: (Units=GPa)
#
#
# Indices 1 2 3 4 5 6 
#
# 1 74.6907 60.1450 6.0784 0.0000 0.0000 0.0000
# 2 60.1450 116.4061 6.5611 0.0000 0.0000 0.0000
# 3 6.0784 6.5611 25.8042 0.0000 0.0000 0.0000
# 4 0.0000 0.0000 0.0000 18.2160 0.0000 0.0000
# 5 0.0000 0.0000 0.0000 0.0000 13.7561 0.0000
# 6 0.0000 0.0000 0.0000 0.0000 0.0000 37.9251
#
#
#
# Elastic Compliance Matrix: (Units=1/GPa)
#
#
# Indices 1 2 3 4 5 6 
#
# 1 0.023078 -0.011787 -0.002439 0.000000 0.000000 0.000000
# 2 -0.011787 0.014735 -0.000970 0.000000 0.000000 0.000000
# 3 -0.002439 -0.000970 0.039575 0.000000 0.000000 0.000000
# 4 0.000000 0.000000 0.000000 0.054897 0.000000 0.000000
# 5 0.000000 0.000000 0.000000 0.000000 0.072695 0.000000
# 6 0.000000 0.000000 0.000000 0.000000 0.000000 0.026368
#
#
# Mechanical properties :
#
#
# Convention : Reuss Voigt Hill
#
# Bulk Modulus (GPa) = 21.27852 40.27444 30.77648
# Shear Modulus (GPa) = 18.02414 23.58720 20.80567
#
# Velocity S-wave (km/s) = 3.00161 3.43372 3.22491
# Velocity P-wave (km/s) = 4.75913 5.98769 5.40841
#
# Compressibility (1/GPa) = 0.04699574
#
# Stress axis : x y z
#
# Youngs Moduli (GPa) = 43.33068 67.86438 25.26870
#
# Poissons Ratio (x) = 0.79990 0.06164
# Poissons Ratio (y) = 0.51072 0.02451
# Poissons Ratio (z) = 0.10570 0.06584
#
# Static dielectric constant tensor:
#      x y z
#    x 3.611420 0.000000 0.000000 
#    y 0.000000 3.843630 0.000000 
#    z 0.000000 0.000000 3.417600 
# 
# 
# High freq. dielectric constant tensor:
#      x y z
#    x 1.771530 0.000000 0.000000 
#    y 0.000000 1.795430 0.000000 
#    z 0.000000 0.000000 1.758600 
# 
# From -- ./inp_files/18214.got.cif
#   From: 2010.03.12/outbox.cif.g09.slc.cpg/sg20_10_cif.got.tgz:18214.got - 2010.04.14 01:38:04.
