data_PCOD8158565
_publ_section_title
;
Structure prediction by ZEFSAII (Michael W. Deem and Ramdas Pophale) SiO2 
 PCOD8158565
Probable space group: C 2 2 21
;
_chemical_formula_sum "Si O2"
_cell_formula_units_Z 60
_cell_length_a 29.739620
_cell_length_b 10.586067
_cell_length_c 9.517846
_cell_angle_alpha 90.000000
_cell_angle_beta 90.000000
_cell_angle_gamma 90.000000
_cell_volume 2996.461672
_symmetry_space_group_name_H-M "C 2 2 21"
_symmetry_group_IT_number 20
_symmetry_cell_setting 'orthorhombic'
loop_
_space_group_symop_operation_xyz
x,y,z
-x,-y,1/2+z
x,-y,-z
-x,y,1/2-z
1/2+x,1/2+y,z
1/2-x,1/2-y,1/2+z
1/2+x,1/2-y,-z
1/2-x,1/2+y,1/2-z
loop_
_atom_site_type_symbol
_atom_site_label
_atom_site_fract_x
_atom_site_fract_y
_atom_site_fract_z
Si Si1 0.417745 0.779280 0.945731
Si Si2 0.442080 0.165266 0.545313
Si Si3 0.518600 0.000000 0.500000
Si Si4 0.723505 0.855188 0.856389
Si Si5 0.877054 0.620355 0.306299
Si Si6 0.128159 0.656023 0.725732
Si Si7 0.227797 0.355676 0.177590
Si Si8 0.000129 0.121562 0.915450
O O1 0.390533 0.766814 0.800045
O O2 0.450189 0.660404 0.967191
O O3 0.449804 0.901814 0.919430
O O4 0.382013 0.787089 0.072418
O O5 0.483964 0.078833 0.600794
O O6 0.411180 0.091564 0.432380
O O7 0.411319 0.210812 0.674300
O O8 0.461512 0.280409 0.456447
O O9 0.670187 0.845125 0.874612
O O10 0.739933 0.737556 0.763736
O O11 0.735540 0.993873 0.788985
O O12 0.741215 0.838502 0.014773
O O13 0.874544 0.494313 0.212737
O O14 0.177435 0.691743 0.783504
O O15 0.000000 0.097220 0.750000
O O16 0.014373 0.000000 0.000000
#
# Coordination Sequence:
#
# PCOD8158565 Si02
#       8
#     8   8   4   8   8   8   8   8
#     4  11  23  36  58  92 126 154 203 255 304 361
#     4  11  21  36  63  84 123 159 199 252 307 363
#     4  10  20  32  58  94 124 154 190 242 302 370
#     4  10  23  42  68  94 131 167 210 265 331 396
#     4  11  19  39  61  95 126 159 196 259 320 372
#     4  11  21  37  63  98 125 154 203 253 322 381
#     4  10  23  43  66  97 129 168 209 266 328 402
#     4  11  26  43  57  78 119 171 216 253 301 362
#
# _framework density 20.023616000000001
#
# number of rings (size 3 to 8) (size 9 to 14) (size 15 to 20)
#    0.000    1.333    5.333    0.000    3.733    3.200 
#    0.000    2.667    0.000    0.000    0.000    0.000 
#    0.000    0.000    0.000    0.000    0.000    0.000 
#
# Total GULP energy -371773.110684 kJ/mol
# GULP energy per Si atom -12392.437023 kJ/mol
# Density = 1.997804 g / cm^3
# Si number density = 20.023616 Si / 1000 Ang^3
#
#
#
# Elastic Constant Matrix: (Units=GPa)
#
#
# Indices 1 2 3 4 5 6 
#
# 1 62.7163 32.2391 24.4464 0.0000 0.0000 0.0000
# 2 32.2391 80.6421 31.4000 0.0000 0.0000 0.0000
# 3 24.4464 31.4000 102.7585 0.0000 0.0000 0.0000
# 4 0.0000 0.0000 0.0000 32.5022 0.0000 0.0000
# 5 0.0000 0.0000 0.0000 0.0000 35.6469 0.0000
# 6 0.0000 0.0000 0.0000 0.0000 0.0000 10.9886
#
#
#
# Elastic Compliance Matrix: (Units=1/GPa)
#
#
# Indices 1 2 3 4 5 6 
#
# 1 0.020719 -0.007223 -0.002722 0.000000 0.000000 0.000000
# 2 -0.007223 0.016593 -0.003352 0.000000 0.000000 0.000000
# 3 -0.002722 -0.003352 0.011403 0.000000 0.000000 0.000000
# 4 0.000000 0.000000 0.000000 0.030767 0.000000 0.000000
# 5 0.000000 0.000000 0.000000 0.000000 0.028053 0.000000
# 6 0.000000 0.000000 0.000000 0.000000 0.000000 0.091004
#
#
# Mechanical properties :
#
#
# Convention : Reuss Voigt Hill
#
# Bulk Modulus (GPa) = 45.20504 46.92091 46.06298
# Shear Modulus (GPa) = 21.50472 26.36295 23.93384
#
# Velocity S-wave (km/s) = 3.28070 3.63243 3.46103
# Velocity P-wave (km/s) = 6.08075 6.40908 6.24707
#
# Compressibility (1/GPa) = 0.02212143
#
# Stress axis : x y z
#
# Youngs Moduli (GPa) = 48.26531 60.26513 87.69327
#
# Poissons Ratio (x) = 0.43530 0.23869
# Poissons Ratio (y) = 0.34863 0.29395
# Poissons Ratio (z) = 0.13137 0.20201
#
# Static dielectric constant tensor:
#      x y z
#    x 3.719020 0.000000 0.000000 
#    y 0.000000 3.462160 0.000000 
#    z 0.000000 0.000000 3.495290 
# 
# 
# High freq. dielectric constant tensor:
#      x y z
#    x 1.784400 0.000000 0.000000 
#    y 0.000000 1.753000 0.000000 
#    z 0.000000 0.000000 1.781580 
# 
# From -- ./inp_files/11569.got.cif
#   From: 2010.03.12/outbox.cif.g09.slc.cpg/sg20_6_cif.got.tgz:11569.got - 2010.04.14 01:38:04.
