data_PCOD8158616
_publ_section_title
;
Structure prediction by ZEFSAII (Michael W. Deem and Ramdas Pophale) SiO2 
 PCOD8158616
Probable space group: C 2 2 21
;
_chemical_formula_sum "Si O2"
_cell_formula_units_Z 52
_cell_length_a 8.376786
_cell_length_b 11.347184
_cell_length_c 25.817629
_cell_angle_alpha 90.000000
_cell_angle_beta 90.000000
_cell_angle_gamma 90.000000
_cell_volume 2454.041336
_symmetry_space_group_name_H-M "C 2 2 21"
_symmetry_group_IT_number 20
_symmetry_cell_setting 'orthorhombic'
loop_
_space_group_symop_operation_xyz
x,y,z
-x,-y,1/2+z
x,-y,-z
-x,y,1/2-z
1/2+x,1/2+y,z
1/2-x,1/2-y,1/2+z
1/2+x,1/2-y,-z
1/2-x,1/2+y,1/2-z
loop_
_atom_site_type_symbol
_atom_site_label
_atom_site_fract_x
_atom_site_fract_y
_atom_site_fract_z
Si Si1 0.103359 0.583372 0.156656
Si Si2 0.991133 0.944234 0.417940
Si Si3 0.017649 0.729087 0.484849
Si Si4 0.221328 0.135562 0.443584
Si Si5 0.204085 0.149620 0.667711
Si Si6 0.000000 0.261116 0.750000
Si Si7 0.782501 0.629510 0.103918
O O1 0.215009 0.653749 0.115236
O O2 0.169040 0.454926 0.171496
O O3 0.092490 0.659425 0.208325
O O4 0.930043 0.564654 0.131587
O O5 0.140655 0.007617 0.446052
O O6 0.852609 0.034584 0.405173
O O7 0.936272 0.843277 0.457347
O O8 0.046907 0.886025 0.364494
O O9 0.087276 0.764985 0.541233
O O10 0.166486 0.680641 0.451790
O O11 0.869227 0.637355 0.485198
O O12 0.138274 0.181168 0.724557
O O13 0.282969 0.264323 0.640225
#
# Coordination Sequence:
#
# PCOD8158616 Si02
#       7
#     8   8   8   8   8   4   8
#     4   9  20  38  59  86 118 152 198 249 295 351
#     4  10  20  36  57  81 112 150 190 234 286 347
#     4  10  20  35  55  81 115 151 187 235 287 344
#     4  10  20  36  57  83 114 151 193 235 290 356
#     4   9  20  37  58  82 114 150 186 239 292 341
#     4  10  20  38  60  84 118 154 196 248 302 346
#     4   9  19  36  58  86 116 149 191 235 287 350
#
# _framework density 21.189537000000001
#
# number of rings (size 3 to 8) (size 9 to 14) (size 15 to 20)
#    0.000    2.462    0.000    2.308    0.000    3.692 
#    0.000    9.231    0.000    0.000    0.000    0.000 
#    0.000    0.000    0.000    0.000    0.000    0.000 
#
# Total GULP energy -322292.520776 kJ/mol
# GULP energy per Si atom -12395.866184 kJ/mol
# Density = 2.114131 g / cm^3
# Si number density = 21.189537 Si / 1000 Ang^3
#
#
#
# Elastic Constant Matrix: (Units=GPa)
#
#
# Indices 1 2 3 4 5 6 
#
# 1 86.6967 60.8358 47.3811 0.0000 0.0000 0.0000
# 2 60.8358 109.7587 48.5536 0.0000 0.0000 0.0000
# 3 47.3811 48.5536 89.5517 0.0000 0.0000 0.0000
# 4 0.0000 0.0000 0.0000 27.1180 0.0000 0.0000
# 5 0.0000 0.0000 0.0000 0.0000 31.5544 0.0000
# 6 0.0000 0.0000 0.0000 0.0000 0.0000 49.5906
#
#
#
# Elastic Compliance Matrix: (Units=1/GPa)
#
#
# Indices 1 2 3 4 5 6 
#
# 1 0.021357 -0.008997 -0.006422 0.000000 0.000000 0.000000
# 2 -0.008997 0.015775 -0.003793 0.000000 0.000000 0.000000
# 3 -0.006422 -0.003793 0.016621 0.000000 0.000000 0.000000
# 4 0.000000 0.000000 0.000000 0.036876 0.000000 0.000000
# 5 0.000000 0.000000 0.000000 0.000000 0.031691 0.000000
# 6 0.000000 0.000000 0.000000 0.000000 0.000000 0.020165
#
#
# Mechanical properties :
#
#
# Convention : Reuss Voigt Hill
#
# Bulk Modulus (GPa) = 65.23133 66.61645 65.92389
# Shear Modulus (GPa) = 26.87877 30.26837 28.57357
#
# Velocity S-wave (km/s) = 3.56545 3.78360 3.67614
# Velocity P-wave (km/s) = 6.91386 7.11295 7.01411
#
# Compressibility (1/GPa) = 0.01533006
#
# Stress axis : x y z
#
# Youngs Moduli (GPa) = 46.82216 63.38947 60.16422
#
# Poissons Ratio (x) = 0.57030 0.38638
# Poissons Ratio (y) = 0.42125 0.22821
# Poissons Ratio (z) = 0.30070 0.24044
#
# Static dielectric constant tensor:
#      x y z
#    x 3.794950 0.000000 0.000000 
#    y 0.000000 3.907290 0.000000 
#    z 0.000000 0.000000 3.849380 
# 
# 
# High freq. dielectric constant tensor:
#      x y z
#    x 1.825200 0.000000 0.000000 
#    y 0.000000 1.832270 0.000000 
#    z 0.000000 0.000000 1.820740 
# 
# From -- ./inp_files/30103.got.cif
#   From: 2010.03.12/outbox.cif.g09.slc.cpg/sg20_16_cif.got.tgz:30103.got - 2010.04.14 01:38:04.
