data_PCOD8158288
_publ_section_title
;
Structure prediction by ZEFSAII (Michael W. Deem and Ramdas Pophale) SiO2 
 PCOD8158288
Probable space group: C 2 2 21
;
_chemical_formula_sum "Si O2"
_cell_formula_units_Z 40
_cell_length_a 26.238474
_cell_length_b 9.209085
_cell_length_c 8.202493
_cell_angle_alpha 90.000000
_cell_angle_beta 90.000000
_cell_angle_gamma 90.000000
_cell_volume 1981.987556
_symmetry_space_group_name_H-M "C 2 2 21"
_symmetry_group_IT_number 20
_symmetry_cell_setting 'orthorhombic'
loop_
_space_group_symop_operation_xyz
x,y,z
-x,-y,1/2+z
x,-y,-z
-x,y,1/2-z
1/2+x,1/2+y,z
1/2-x,1/2-y,1/2+z
1/2+x,1/2-y,-z
1/2-x,1/2+y,1/2-z
loop_
_atom_site_type_symbol
_atom_site_label
_atom_site_fract_x
_atom_site_fract_y
_atom_site_fract_z
Si Si1 0.072075 0.500000 0.500000
Si Si2 0.500000 0.145453 0.250000
Si Si3 0.086795 0.670762 0.033097
Si Si4 0.141851 0.334068 0.282953
Si Si5 0.315815 0.851760 0.718634
Si Si6 0.783203 0.835413 0.973080
O O1 0.039968 0.543994 0.342786
O O2 0.107676 0.366794 0.442979
O O3 0.533401 0.233201 0.112455
O O4 0.129871 0.712441 0.164719
O O5 0.079431 0.500000 0.000000
O O6 0.104645 0.731475 0.858121
O O7 0.175577 0.475871 0.238557
O O8 0.182474 0.210216 0.319841
O O9 0.276290 0.825266 0.571711
O O10 0.294773 0.772338 0.878004
O O11 0.799624 0.000000 0.000000
#
# Coordination Sequence:
#
# PCOD8158288 Si02
#       6
#     4   4   8   8   8   8
#     4  12  18  34  56  88 126 144 190 240 298 342
#     4  12  18  30  56  96 122 142 192 244 310 338
#     4  10  19  33  55  84 122 145 185 246 303 342
#     4  11  21  39  57  84 125 157 188 247 297 341
#     4  11  21  39  55  81 118 155 193 250 292 339
#     4  12  23  36  58  84 114 162 206 234 290 357
#
# _framework density 20.181763
#
# number of rings (size 3 to 8) (size 9 to 14) (size 15 to 20)
#    0.000    0.800    7.000    4.200    0.000    0.000 
#    0.000    3.000    0.000    0.000    0.000   28.000 
#    0.000    0.000    0.000    0.000    0.000    0.000 
#
# Total GULP energy -247796.656734 kJ/mol
# GULP energy per Si atom -12389.832837 kJ/mol
# Density = 2.013583 g / cm^3
# Si number density = 20.181763 Si / 1000 Ang^3
#
#
#
# Elastic Constant Matrix: (Units=GPa)
#
#
# Indices 1 2 3 4 5 6 
#
# 1 141.9148 35.6907 57.0819 0.0000 0.0000 0.0000
# 2 35.6907 50.0266 26.6545 0.0000 0.0000 0.0000
# 3 57.0819 26.6545 108.7478 0.0000 0.0000 0.0000
# 4 0.0000 0.0000 0.0000 17.4979 0.0000 0.0000
# 5 0.0000 0.0000 0.0000 0.0000 60.8429 0.0000
# 6 0.0000 0.0000 0.0000 0.0000 0.0000 12.2201
#
#
#
# Elastic Compliance Matrix: (Units=1/GPa)
#
#
# Indices 1 2 3 4 5 6 
#
# 1 0.009889 -0.004934 -0.003981 0.000000 0.000000 0.000000
# 2 -0.004934 0.025453 -0.003649 0.000000 0.000000 0.000000
# 3 -0.003981 -0.003649 0.012180 0.000000 0.000000 0.000000
# 4 0.000000 0.000000 0.000000 0.057150 0.000000 0.000000
# 5 0.000000 0.000000 0.000000 0.000000 0.016436 0.000000
# 6 0.000000 0.000000 0.000000 0.000000 0.000000 0.081832
#
#
# Mechanical properties :
#
#
# Convention : Reuss Voigt Hill
#
# Bulk Modulus (GPa) = 44.65514 59.94927 52.30221
# Shear Modulus (GPa) = 21.22852 30.19632 25.71242
#
# Velocity S-wave (km/s) = 3.24677 3.87229 3.57324
# Velocity P-wave (km/s) = 6.01912 7.05422 6.55713
#
# Compressibility (1/GPa) = 0.02239384
#
# Stress axis : x y z
#
# Youngs Moduli (GPa) = 101.12603 39.28746 82.10326
#
# Poissons Ratio (x) = 0.19383 0.32688
# Poissons Ratio (y) = 0.49892 0.29960
# Poissons Ratio (z) = 0.40261 0.14336
#
# Static dielectric constant tensor:
#      x y z
#    x 4.138420 0.000000 0.000000 
#    y 0.000000 3.087390 0.000000 
#    z 0.000000 0.000000 4.137040 
# 
# 
# High freq. dielectric constant tensor:
#      x y z
#    x 1.810820 0.000000 0.000000 
#    y 0.000000 1.706340 0.000000 
#    z 0.000000 0.000000 1.817510 
# 
# From -- ./inp_files/6142.got.cif
#   From: 2010.03.12/outbox.cif.g09.slc.cpg/sg20_4_cif.got.tgz:6142.got - 2010.04.14 01:38:04.
