data_PCOD8158971
_publ_section_title
;
Structure prediction by ZEFSAII (Michael W. Deem and Ramdas Pophale) SiO2 
 PCOD8158971
Probable space group: C 2 2 21
;
_chemical_formula_sum "Si O2"
_cell_formula_units_Z 52
_cell_length_a 9.653863
_cell_length_b 13.691524
_cell_length_c 18.770710
_cell_angle_alpha 90.000000
_cell_angle_beta 90.000000
_cell_angle_gamma 90.000000
_cell_volume 2481.039185
_symmetry_space_group_name_H-M "C 2 2 21"
_symmetry_group_IT_number 20
_symmetry_cell_setting 'orthorhombic'
loop_
_space_group_symop_operation_xyz
x,y,z
-x,-y,1/2+z
x,-y,-z
-x,y,1/2-z
1/2+x,1/2+y,z
1/2-x,1/2-y,1/2+z
1/2+x,1/2-y,-z
1/2-x,1/2+y,1/2-z
loop_
_atom_site_type_symbol
_atom_site_label
_atom_site_fract_x
_atom_site_fract_y
_atom_site_fract_z
Si Si1 0.624609 0.757269 0.198272
Si Si2 0.984515 0.186411 0.445864
Si Si3 0.363858 0.010251 0.104353
Si Si4 0.867586 0.000000 0.000000
Si Si5 0.172049 0.458076 0.127440
Si Si6 0.160287 0.394482 0.749405
Si Si7 0.791099 0.342401 0.012311
O O1 0.500000 0.786515 0.250000
O O2 0.565690 0.688946 0.135649
O O3 0.690672 0.856782 0.169115
O O4 0.743324 0.699901 0.241465
O O5 0.104564 0.263106 0.458135
O O6 0.854491 0.210855 0.497126
O O7 0.034829 0.078240 0.462363
O O8 0.319189 0.028697 0.185225
O O9 0.518026 0.967929 0.096902
O O10 0.265579 0.926632 0.071317
O O11 0.350923 0.110812 0.060451
O O12 0.774609 0.951682 0.061056
O O13 0.204279 0.550276 0.178379
O O14 0.000000 0.360262 0.750000
#
# Coordination Sequence:
#
# PCOD8158971 Si02
#       7
#     8   8   8   4   8   8   8
#     4  12  24  46  70 103 136 185 235 286 352 417
#     4  12  26  42  69 102 139 184 225 296 341 424
#     4  10  20  40  69  96 136 178 229 278 341 413
#     4  12  26  44  64 106 146 176 238 292 356 398
#     4  11  24  44  71 103 135 187 226 287 344 419
#     4  10  23  45  71  98 136 182 229 283 345 416
#     4  11  23  41  67 102 134 179 230 281 347 403
#
# _framework density 20.958957999999999
#
# number of rings (size 3 to 8) (size 9 to 14) (size 15 to 20)
#    0.000    0.923    3.077    5.077    2.154    0.000 
#    0.000    2.308    0.000    0.000    0.000    0.000 
#    0.000    0.000    0.000    0.000    0.000    0.000 
#
# Total GULP energy -322530.386910 kJ/mol
# GULP energy per Si atom -12405.014881 kJ/mol
# Density = 2.091125 g / cm^3
# Si number density = 20.958958 Si / 1000 Ang^3
#
#
#
# Elastic Constant Matrix: (Units=GPa)
#
#
# Indices 1 2 3 4 5 6 
#
# 1 87.3753 39.9569 34.7540 0.0000 0.0000 0.0000
# 2 39.9569 109.5227 29.5428 0.0000 0.0000 0.0000
# 3 34.7540 29.5428 94.9867 0.0000 0.0000 0.0000
# 4 0.0000 0.0000 0.0000 37.2356 0.0000 0.0000
# 5 0.0000 0.0000 0.0000 0.0000 36.4635 0.0000
# 6 0.0000 0.0000 0.0000 0.0000 0.0000 29.5317
#
#
#
# Elastic Compliance Matrix: (Units=1/GPa)
#
#
# Indices 1 2 3 4 5 6 
#
# 1 0.015108 -0.004389 -0.004163 0.000000 0.000000 0.000000
# 2 -0.004389 0.011242 -0.001891 0.000000 0.000000 0.000000
# 3 -0.004163 -0.001891 0.012639 0.000000 0.000000 0.000000
# 4 0.000000 0.000000 0.000000 0.026856 0.000000 0.000000
# 5 0.000000 0.000000 0.000000 0.000000 0.027425 0.000000
# 6 0.000000 0.000000 0.000000 0.000000 0.000000 0.033862
#
#
# Mechanical properties :
#
#
# Convention : Reuss Voigt Hill
#
# Bulk Modulus (GPa) = 55.23626 55.59912 55.41769
# Shear Modulus (GPa) = 32.45712 33.15490 32.80601
#
# Velocity S-wave (km/s) = 3.93950 3.98162 3.96062
# Velocity P-wave (km/s) = 6.86328 6.90818 6.88577
#
# Compressibility (1/GPa) = 0.01810405
#
# Stress axis : x y z
#
# Youngs Moduli (GPa) = 66.19187 88.95484 79.12127
#
# Poissons Ratio (x) = 0.39041 0.32935
# Poissons Ratio (y) = 0.29051 0.14959
# Poissons Ratio (z) = 0.27553 0.16818
#
# Static dielectric constant tensor:
#      x y z
#    x 3.845060 0.000000 0.000000 
#    y 0.000000 3.766020 0.000000 
#    z 0.000000 0.000000 3.965480 
# 
# 
# High freq. dielectric constant tensor:
#      x y z
#    x 1.818300 0.000000 0.000000 
#    y 0.000000 1.822870 0.000000 
#    z 0.000000 0.000000 1.831760 
# 
# From -- ./inp_files/26631.got.cif
#   From: 2010.03.12/outbox.cif.g09.slc.cpg/sg20_14_cif.got.tgz:26631.got - 2010.04.14 01:38:04.
