data_PCOD8158715
_publ_section_title
;
Structure prediction by ZEFSAII (Michael W. Deem and Ramdas Pophale) SiO2 
 PCOD8158715
Probable space group: C 2 2 21
;
_chemical_formula_sum "Si O2"
_cell_formula_units_Z 60
_cell_length_a 22.838749
_cell_length_b 14.302460
_cell_length_c 9.357565
_cell_angle_alpha 90.000000
_cell_angle_beta 90.000000
_cell_angle_gamma 90.000000
_cell_volume 3056.651359
_symmetry_space_group_name_H-M "C 2 2 21"
_symmetry_group_IT_number 20
_symmetry_cell_setting 'orthorhombic'
loop_
_space_group_symop_operation_xyz
x,y,z
-x,-y,1/2+z
x,-y,-z
-x,y,1/2-z
1/2+x,1/2+y,z
1/2-x,1/2-y,1/2+z
1/2+x,1/2-y,-z
1/2-x,1/2+y,1/2-z
loop_
_atom_site_type_symbol
_atom_site_label
_atom_site_fract_x
_atom_site_fract_y
_atom_site_fract_z
Si Si1 0.503371 0.191805 0.421382
Si Si2 0.875734 0.718116 0.431924
Si Si3 0.189251 0.847107 0.275846
Si Si4 0.690260 0.743063 0.210192
Si Si5 0.626717 0.245359 0.503082
Si Si6 0.272326 0.468413 0.661235
Si Si7 0.143229 0.427124 0.694189
Si Si8 0.447951 0.000000 0.000000
O O1 0.500000 0.181490 0.250000
O O2 0.442994 0.235514 0.479267
O O3 0.557421 0.257999 0.469905
O O4 0.511771 0.091433 0.497521
O O5 0.857098 0.805825 0.336384
O O6 0.834129 0.708539 0.568028
O O7 0.873307 0.620924 0.344010
O O8 0.250595 0.795137 0.244497
O O9 0.164851 0.829230 0.434785
O O10 0.193141 0.958313 0.260073
O O11 0.640497 0.755553 0.329723
O O12 0.702400 0.634121 0.184694
O O13 0.648937 0.149485 0.431677
O O14 0.281136 0.500000 0.500000
O O15 0.204932 0.478110 0.708293
O O16 0.093040 0.499836 0.643633
#
# Coordination Sequence:
#
# PCOD8158715 Si02
#       8
#     8   8   8   8   8   8   8   4
#     4  11  21  43  68  87 125 183 216 260 329 396
#     4  11  22  43  64  92 128 177 223 265 326 404
#     4  11  22  39  67  92 129 176 216 269 342 400
#     4  12  24  41  62  98 138 165 227 282 335 394
#     4  10  22  41  64  90 130 176 215 271 329 399
#     4  12  22  36  68  97 130 173 218 274 340 398
#     4  10  20  38  64  91 131 175 215 259 333 402
#     4  10  20  36  64  92 126 164 224 256 312 400
#
# _framework density 19.629324
#
# number of rings (size 3 to 8) (size 9 to 14) (size 15 to 20)
#    0.000    1.067    8.667    1.600    1.867    1.067 
#    7.200    0.000    0.000    4.800    0.000    0.000 
#    0.000    0.000    0.000    0.000    0.000    0.000 
#
# Total GULP energy -371994.578168 kJ/mol
# GULP energy per Si atom -12399.819272 kJ/mol
# Density = 1.958465 g / cm^3
# Si number density = 19.629324 Si / 1000 Ang^3
#
#
#
# Elastic Constant Matrix: (Units=GPa)
#
#
# Indices 1 2 3 4 5 6 
#
# 1 123.9423 42.9527 28.9409 0.0000 0.0000 0.0000
# 2 42.9527 77.1451 29.6567 0.0000 0.0000 0.0000
# 3 28.9409 29.6567 91.8062 0.0000 0.0000 0.0000
# 4 0.0000 0.0000 0.0000 32.0078 0.0000 0.0000
# 5 0.0000 0.0000 0.0000 0.0000 25.4930 0.0000
# 6 0.0000 0.0000 0.0000 0.0000 0.0000 31.1774
#
#
#
# Elastic Compliance Matrix: (Units=1/GPa)
#
#
# Indices 1 2 3 4 5 6 
#
# 1 0.010193 -0.005070 -0.001576 0.000000 0.000000 0.000000
# 2 -0.005070 0.017322 -0.003997 0.000000 0.000000 0.000000
# 3 -0.001576 -0.003997 0.012681 0.000000 0.000000 0.000000
# 4 0.000000 0.000000 0.000000 0.031242 0.000000 0.000000
# 5 0.000000 0.000000 0.000000 0.000000 0.039226 0.000000
# 6 0.000000 0.000000 0.000000 0.000000 0.000000 0.032075
#
#
# Mechanical properties :
#
#
# Convention : Reuss Voigt Hill
#
# Bulk Modulus (GPa) = 52.88138 55.11045 53.99592
# Shear Modulus (GPa) = 29.35519 30.49185 29.92352
#
# Velocity S-wave (km/s) = 3.87133 3.94557 3.90863
# Velocity P-wave (km/s) = 6.85430 6.99237 6.92368
#
# Compressibility (1/GPa) = 0.01891025
#
# Stress axis : x y z
#
# Youngs Moduli (GPa) = 98.10600 57.73023 78.86105
#
# Poissons Ratio (x) = 0.29267 0.12425
# Poissons Ratio (y) = 0.49735 0.31525
# Poissons Ratio (z) = 0.15458 0.23078
#
# Static dielectric constant tensor:
#      x y z
#    x 3.833290 0.000000 0.000000 
#    y 0.000000 3.551790 0.000000 
#    z 0.000000 0.000000 3.611330 
# 
# 
# High freq. dielectric constant tensor:
#      x y z
#    x 1.770140 0.000000 0.000000 
#    y 0.000000 1.740810 0.000000 
#    z 0.000000 0.000000 1.761190 
# 
# From -- ./inp_files/10761.got.cif
#   From: 2010.03.12/outbox.cif.g09.slc.cpg/sg20_6_cif.got.tgz:10761.got - 2010.04.14 01:38:04.
