data_PCOD8158301
_publ_section_title
;
Structure prediction by ZEFSAII (Michael W. Deem and Ramdas Pophale) SiO2 
 PCOD8158301
Probable space group: C 2 2 21
;
_chemical_formula_sum "Si O2"
_cell_formula_units_Z 56
_cell_length_a 17.456226
_cell_length_b 14.674803
_cell_length_c 11.145639
_cell_angle_alpha 90.000000
_cell_angle_beta 90.000000
_cell_angle_gamma 90.000000
_cell_volume 2855.141313
_symmetry_space_group_name_H-M "C 2 2 21"
_symmetry_group_IT_number 20
_symmetry_cell_setting 'orthorhombic'
loop_
_space_group_symop_operation_xyz
x,y,z
-x,-y,1/2+z
x,-y,-z
-x,y,1/2-z
1/2+x,1/2+y,z
1/2-x,1/2-y,1/2+z
1/2+x,1/2-y,-z
1/2-x,1/2+y,1/2-z
loop_
_atom_site_type_symbol
_atom_site_label
_atom_site_fract_x
_atom_site_fract_y
_atom_site_fract_z
Si Si1 0.665664 0.833698 0.095983
Si Si2 0.447713 0.994019 0.361131
Si Si3 0.666937 0.340199 0.314776
Si Si4 0.930652 0.825742 0.671216
Si Si5 0.101121 0.694414 0.158925
Si Si6 0.616193 0.516587 0.862705
Si Si7 0.005389 0.153527 0.583768
O O1 0.755948 0.844151 0.110014
O O2 0.632830 0.752899 0.178487
O O3 0.625260 0.928611 0.128350
O O4 0.650360 0.802743 0.961484
O O5 0.500000 0.956094 0.250000
O O6 0.420962 0.091419 0.310995
O O7 0.483656 0.000000 0.500000
O O8 0.655334 0.239095 0.259963
O O9 0.673612 0.416209 0.209024
O O10 0.596631 0.358838 0.406494
O O11 0.000000 0.791421 0.750000
O O12 0.973870 0.843659 0.548254
O O13 0.889907 0.920597 0.707850
O O14 0.023113 0.753940 0.148984
O O15 0.533452 0.565547 0.855188
O O16 0.645346 0.500000 0.000000
#
# Coordination Sequence:
#
# PCOD8158301 Si02
#       7
#     8   8   8   8   8   8   8
#     4  10  23  35  50  82 118 141 175 238 284 315
#     4  10  20  39  61  81 109 148 191 233 275 324
#     4  11  20  35  57  82 111 142 180 223 279 338
#     4  10  19  34  52  75 110 147 179 218 270 325
#     4   9  19  38  58  76 105 145 187 231 273 323
#     4   9  18  34  55  78 104 138 180 226 269 322
#     4   9  18  33  57  82 100 135 189 227 262 325
#
# _framework density 19.613741000000001
#
# number of rings (size 3 to 8) (size 9 to 14) (size 15 to 20)
#    0.000    2.286    0.000    4.714    0.000    2.286 
#    0.000   11.429    0.000    0.000    0.000    0.000 
#    0.000    0.000    0.000    0.000    0.000    0.000 
#
# Total GULP energy -346937.487414 kJ/mol
# GULP energy per Si atom -12390.624551 kJ/mol
# Density = 1.956910 g / cm^3
# Si number density = 19.613741 Si / 1000 Ang^3
#
#
#
# Elastic Constant Matrix: (Units=GPa)
#
#
# Indices 1 2 3 4 5 6 
#
# 1 105.0667 15.4219 26.8835 0.0000 0.0000 0.0000
# 2 15.4219 110.6904 1.9121 0.0000 0.0000 0.0000
# 3 26.8835 1.9121 49.7301 0.0000 0.0000 0.0000
# 4 0.0000 0.0000 0.0000 -37.5366 0.0000 0.0000
# 5 0.0000 0.0000 0.0000 0.0000 26.4596 0.0000
# 6 0.0000 0.0000 0.0000 0.0000 0.0000 -3.2934
#
#
#
# Elastic Compliance Matrix: (Units=1/GPa)
#
#
# Indices 1 2 3 4 5 6 
#
# 1 0.011279 -0.001467 -0.006041 0.000000 0.000000 0.000000
# 2 -0.001467 0.009231 0.000438 0.000000 0.000000 0.000000
# 3 -0.006041 0.000438 0.023357 0.000000 0.000000 0.000000
# 4 0.000000 0.000000 0.000000 -0.026641 0.000000 0.000000
# 5 0.000000 0.000000 0.000000 0.000000 0.037793 0.000000
# 6 0.000000 0.000000 0.000000 0.000000 0.000000 -0.303637
#
#
# Mechanical properties :
#
#
# Convention : Reuss Voigt Hill
#
# Bulk Modulus (GPa) = 33.63863 39.32469 36.48166
# Shear Modulus (GPa) = -22.26492 11.87723 -5.19384
#
# Velocity S-wave (km/s) = -3.37288 2.46348 -1.62905
# Velocity P-wave (km/s) = 1.42103 5.30893 3.88613
#
# Compressibility (1/GPa) = 0.02972772
#
# Stress axis : x y z
#
# Youngs Moduli (GPa) = 88.66223 108.33024 42.81320
#
# Poissons Ratio (x) = 0.15893 0.25862
# Poissons Ratio (y) = 0.13007 -0.01876
# Poissons Ratio (z) = 0.53559 -0.04746
#
# Static dielectric constant tensor:
#      x y z
#    x 3.149990 0.000000 0.000000 
#    y 0.000000 3.838020 0.000000 
#    z 0.000000 0.000000 3.311590 
# 
# 
# High freq. dielectric constant tensor:
#      x y z
#    x 1.728180 0.000000 0.000000 
#    y 0.000000 1.781060 0.000000 
#    z 0.000000 0.000000 1.763470 
# 
# From -- ./inp_files/15155.got.cif
#   From: 2010.03.12/outbox.cif.g09.slc.cpg/sg20_8_cif.got.tgz:15155.got - 2010.04.14 01:38:04.
