data_PCOD8158610
_publ_section_title
;
Structure prediction by ZEFSAII (Michael W. Deem and Ramdas Pophale) SiO2 
 PCOD8158610
Probable space group: C 2 2 21
;
_chemical_formula_sum "Si O2"
_cell_formula_units_Z 48
_cell_length_a 15.331860
_cell_length_b 13.475087
_cell_length_c 10.731231
_cell_angle_alpha 90.000000
_cell_angle_beta 90.000000
_cell_angle_gamma 90.000000
_cell_volume 2217.052444
_symmetry_space_group_name_H-M "C 2 2 21"
_symmetry_group_IT_number 20
_symmetry_cell_setting 'orthorhombic'
loop_
_space_group_symop_operation_xyz
x,y,z
-x,-y,1/2+z
x,-y,-z
-x,y,1/2-z
1/2+x,1/2+y,z
1/2-x,1/2-y,1/2+z
1/2+x,1/2-y,-z
1/2-x,1/2+y,1/2-z
loop_
_atom_site_type_symbol
_atom_site_label
_atom_site_fract_x
_atom_site_fract_y
_atom_site_fract_z
Si Si1 0.374753 0.063611 0.118441
Si Si2 0.230430 0.189882 0.214814
Si Si3 0.000523 0.714343 0.517528
Si Si4 0.804437 0.298412 0.529494
Si Si5 0.208673 0.000000 0.500000
Si Si6 0.000000 0.577634 0.750000
Si Si7 0.424429 0.396186 0.834366
O O1 0.290078 0.093256 0.196861
O O2 0.420251 0.993190 0.218272
O O3 0.433809 0.157931 0.076511
O O4 0.345490 0.000000 0.000000
O O5 0.241541 0.247387 0.087192
O O6 0.261683 0.243755 0.342648
O O7 0.128508 0.167881 0.232675
O O8 0.906693 0.724274 0.451437
O O9 0.976499 0.646936 0.635126
O O10 0.040273 0.821643 0.557083
O O11 0.776422 0.410335 0.499022
O O12 0.140070 0.981399 0.613704
O O13 0.500000 0.446139 0.750000
#
# Coordination Sequence:
#
# PCOD8158610 Si02
#       7
#     8   8   8   8   4   4   8
#     4  10  22  35  59 101 138 166 225 283 327 403
#     4  11  23  44  66  98 137 180 225 279 340 409
#     4  11  21  40  68  94 135 179 216 275 353 402
#     4  11  24  43  71  98 133 176 228 281 343 403
#     4  10  26  42  68 100 134 172 236 284 332 410
#     4  10  20  34  62 100 132 174 214 274 344 400
#     4  11  22  47  66  91 135 185 229 270 348 410
#
# _framework density 21.650368
#
# number of rings (size 3 to 8) (size 9 to 14) (size 15 to 20)
#    0.000    1.333    2.500    3.000    8.167    1.333 
#    4.500    0.000    0.000    0.000    0.000    0.000 
#    0.000    0.000    0.000    0.000    0.000    0.000 
#
# Total GULP energy -297355.953964 kJ/mol
# GULP energy per Si atom -12389.831415 kJ/mol
# Density = 2.160109 g / cm^3
# Si number density = 21.650368 Si / 1000 Ang^3
#
#
#
# Elastic Constant Matrix: (Units=GPa)
#
#
# Indices 1 2 3 4 5 6 
#
# 1 113.0846 8.4594 27.9700 0.0000 0.0000 0.0000
# 2 8.4594 29.3690 11.3895 0.0000 0.0000 0.0000
# 3 27.9700 11.3895 104.2938 0.0000 0.0000 0.0000
# 4 0.0000 0.0000 0.0000 15.0147 0.0000 0.0000
# 5 0.0000 0.0000 0.0000 0.0000 31.1423 0.0000
# 6 0.0000 0.0000 0.0000 0.0000 0.0000 24.1131
#
#
#
# Elastic Compliance Matrix: (Units=1/GPa)
#
#
# Indices 1 2 3 4 5 6 
#
# 1 0.009565 -0.001838 -0.002365 0.000000 0.000000 0.000000
# 2 -0.001838 0.035908 -0.003428 0.000000 0.000000 0.000000
# 3 -0.002365 -0.003428 0.010597 0.000000 0.000000 0.000000
# 4 0.000000 0.000000 0.000000 0.066601 0.000000 0.000000
# 5 0.000000 0.000000 0.000000 0.000000 0.032111 0.000000
# 6 0.000000 0.000000 0.000000 0.000000 0.000000 0.041471
#
#
# Mechanical properties :
#
#
# Convention : Reuss Voigt Hill
#
# Bulk Modulus (GPa) = 24.50481 38.04280 31.27380
# Shear Modulus (GPa) = 22.21048 27.31593 24.76320
#
# Velocity S-wave (km/s) = 3.20640 3.55587 3.38565
# Velocity P-wave (km/s) = 5.00509 5.87099 5.45525
#
# Compressibility (1/GPa) = 0.04080832
#
# Stress axis : x y z
#
# Youngs Moduli (GPa) = 104.54483 27.84857 94.36789
#
# Poissons Ratio (x) = 0.05119 0.22313
# Poissons Ratio (y) = 0.19217 0.32353
# Poissons Ratio (z) = 0.24720 0.09548
#
# Static dielectric constant tensor:
#      x y z
#    x 4.001140 0.000000 0.000000 
#    y 0.000000 3.780340 0.000000 
#    z 0.000000 0.000000 4.065550 
# 
# 
# High freq. dielectric constant tensor:
#      x y z
#    x 1.868720 0.000000 0.000000 
#    y 0.000000 1.822150 0.000000 
#    z 0.000000 0.000000 1.858870 
# 
# From -- ./inp_files/15072.got.cif
#   From: 2010.03.12/outbox.cif.g09.slc.cpg/sg20_8_cif.got.tgz:15072.got - 2010.04.14 01:38:04.
