data_PCOD8158856
_publ_section_title
;
Structure prediction by ZEFSAII (Michael W. Deem and Ramdas Pophale) SiO2 
 PCOD8158856
Probable space group: C 2 2 21
;
_chemical_formula_sum "Si O2"
_cell_formula_units_Z 48
_cell_length_a 13.914153
_cell_length_b 13.379525
_cell_length_c 13.304733
_cell_angle_alpha 90.000000
_cell_angle_beta 90.000000
_cell_angle_gamma 90.000000
_cell_volume 2476.872398
_symmetry_space_group_name_H-M "C 2 2 21"
_symmetry_group_IT_number 20
_symmetry_cell_setting 'orthorhombic'
loop_
_space_group_symop_operation_xyz
x,y,z
-x,-y,1/2+z
x,-y,-z
-x,y,1/2-z
1/2+x,1/2+y,z
1/2-x,1/2-y,1/2+z
1/2+x,1/2-y,-z
1/2-x,1/2+y,1/2-z
loop_
_atom_site_type_symbol
_atom_site_label
_atom_site_fract_x
_atom_site_fract_y
_atom_site_fract_z
Si Si1 0.322252 0.020991 0.335968
Si Si2 0.137090 0.155762 0.978204
Si Si3 0.436999 0.685690 0.895244
Si Si4 0.500000 0.522946 0.750000
Si Si5 0.680437 0.482563 0.844487
Si Si6 0.000000 0.639977 0.250000
Si Si7 0.231815 0.357188 0.022468
O O1 0.267587 0.029266 0.231018
O O2 0.426618 0.068185 0.312093
O O3 0.261368 0.073364 0.424329
O O4 0.323786 0.907479 0.381116
O O5 0.020972 0.163049 0.976750
O O6 0.171829 0.099345 0.876820
O O7 0.190751 0.094388 0.064983
O O8 0.168580 0.268265 0.980732
O O9 0.434512 0.592156 0.820946
O O10 0.449468 0.789680 0.833574
O O11 0.335927 0.686363 0.951541
O O12 0.576708 0.450362 0.801253
#
# Coordination Sequence:
#
# PCOD8158856 Si02
#       7
#     8   8   8   4   8   4   8
#     4  11  24  40  65  92 130 171 215 268 322 391
#     4  10  22  39  60  94 124 162 219 268 315 389
#     4  10  20  38  67  87 125 171 208 262 325 382
#     4   9  18  34  61  90 116 158 207 256 319 372
#     4  10  21  37  61  91 124 160 211 269 322 377
#     4  11  22  44  65  90 132 182 213 260 337 388
#     4  11  23  41  62  94 126 169 221 261 318 388
#
# _framework density 19.379279
#
# number of rings (size 3 to 8) (size 9 to 14) (size 15 to 20)
#    0.000    1.667    3.333    1.000    2.333    2.667 
#    3.000    2.500    0.000    0.000    0.000    0.000 
#    0.000    0.000    0.000    0.000    0.000    0.000 
#
# Total GULP energy -297343.477510 kJ/mol
# GULP energy per Si atom -12389.311563 kJ/mol
# Density = 1.933517 g / cm^3
# Si number density = 19.379279 Si / 1000 Ang^3
#
#
#
# Elastic Constant Matrix: (Units=GPa)
#
#
# Indices 1 2 3 4 5 6 
#
# 1 98.4280 28.9496 46.7639 0.0000 0.0000 0.0000
# 2 28.9496 63.5474 20.0447 0.0000 0.0000 0.0000
# 3 46.7639 20.0447 87.1691 0.0000 0.0000 0.0000
# 4 0.0000 0.0000 0.0000 8.6637 0.0000 0.0000
# 5 0.0000 0.0000 0.0000 0.0000 38.6845 0.0000
# 6 0.0000 0.0000 0.0000 0.0000 0.0000 26.2412
#
#
#
# Elastic Compliance Matrix: (Units=1/GPa)
#
#
# Indices 1 2 3 4 5 6 
#
# 1 0.014766 -0.004559 -0.006873 0.000000 0.000000 0.000000
# 2 -0.004559 0.018374 -0.001780 0.000000 0.000000 0.000000
# 3 -0.006873 -0.001780 0.015569 0.000000 0.000000 0.000000
# 4 0.000000 0.000000 0.000000 0.115424 0.000000 0.000000
# 5 0.000000 0.000000 0.000000 0.000000 0.025850 0.000000
# 6 0.000000 0.000000 0.000000 0.000000 0.000000 0.038108
#
#
# Mechanical properties :
#
#
# Convention : Reuss Voigt Hill
#
# Bulk Modulus (GPa) = 44.87185 48.96233 46.91709
# Shear Modulus (GPa) = 19.08809 24.94363 22.01586
#
# Velocity S-wave (km/s) = 3.14183 3.59155 3.37419
# Velocity P-wave (km/s) = 6.03045 6.52067 6.28034
#
# Compressibility (1/GPa) = 0.02228569
#
# Stress axis : x y z
#
# Youngs Moduli (GPa) = 67.72268 54.42353 64.23220
#
# Poissons Ratio (x) = 0.24810 0.44149
# Poissons Ratio (y) = 0.30873 0.11431
# Poissons Ratio (z) = 0.46548 0.09685
#
# Static dielectric constant tensor:
#      x y z
#    x 3.404290 0.000000 0.000000 
#    y 0.000000 3.635890 0.000000 
#    z 0.000000 0.000000 3.647520 
# 
# 
# High freq. dielectric constant tensor:
#      x y z
#    x 1.746370 0.000000 0.000000 
#    y 0.000000 1.749960 0.000000 
#    z 0.000000 0.000000 1.759690 
# 
# From -- ./inp_files/19997.got.cif
#   From: 2010.03.12/outbox.cif.g09.slc.cpg/sg20_10_cif.got.tgz:19997.got - 2010.04.14 01:38:04.
