data_PCOD8158300
_publ_section_title
;
Structure prediction by ZEFSAII (Michael W. Deem and Ramdas Pophale) SiO2 
 PCOD8158300
Probable space group: C 2 2 21
;
_chemical_formula_sum "Si O2"
_cell_formula_units_Z 52
_cell_length_a 8.888772
_cell_length_b 10.561753
_cell_length_c 30.031500
_cell_angle_alpha 90.000000
_cell_angle_beta 90.000000
_cell_angle_gamma 90.000000
_cell_volume 2819.387682
_symmetry_space_group_name_H-M "C 2 2 21"
_symmetry_group_IT_number 20
_symmetry_cell_setting 'orthorhombic'
loop_
_space_group_symop_operation_xyz
x,y,z
-x,-y,1/2+z
x,-y,-z
-x,y,1/2-z
1/2+x,1/2+y,z
1/2-x,1/2-y,1/2+z
1/2+x,1/2-y,-z
1/2-x,1/2+y,1/2-z
loop_
_atom_site_type_symbol
_atom_site_label
_atom_site_fract_x
_atom_site_fract_y
_atom_site_fract_z
Si Si1 0.491313 0.508691 0.895498
Si Si2 0.914426 0.851233 0.686093
Si Si3 0.293946 0.615432 0.824862
Si Si4 0.771507 0.877715 0.775674
Si Si5 0.500000 0.294202 0.250000
Si Si6 0.150207 0.875722 0.524377
Si Si7 0.652833 0.376513 0.025525
O O1 0.584855 0.438133 0.857297
O O2 0.366781 0.601388 0.873657
O O3 0.396949 0.409752 0.925390
O O4 0.614939 0.586611 0.923556
O O5 0.825708 0.725272 0.673397
O O6 0.824078 0.921349 0.726039
O O7 0.083816 0.812775 0.700508
O O8 0.209643 0.490511 0.806854
O O9 0.432206 0.623819 0.789898
O O10 0.632505 0.784679 0.772605
O O11 0.248770 0.749537 0.524085
O O12 0.002091 0.839352 0.497529
O O13 0.225813 0.000000 0.500000
O O14 0.725095 0.500000 0.000000
#
# Coordination Sequence:
#
# PCOD8158300 Si02
#       7
#     8   8   8   8   4   8   8
#     4   9  19  33  53  80 107 133 170 216 264 312
#     4   9  18  34  52  72 104 139 174 217 262 305
#     4  10  19  34  52  72 105 139 171 218 264 306
#     4   9  19  34  50  72  99 138 182 217 256 304
#     4  10  20  32  52  74  98 138 184 218 256 308
#     4   9  20  38  58  80 108 137 172 216 263 317
#     4   9  20  38  59  80 105 139 175 212 260 321
#
# _framework density 18.443721
#
# number of rings (size 3 to 8) (size 9 to 14) (size 15 to 20)
#    0.000    3.077    0.000    1.846    0.000   10.462 
#    0.000    4.615    0.000    0.000    0.000    0.000 
#    0.000    0.000    0.000    0.000    0.000    0.000 
#
# Total GULP energy -322162.607049 kJ/mol
# GULP energy per Si atom -12390.869502 kJ/mol
# Density = 1.840174 g / cm^3
# Si number density = 18.443721 Si / 1000 Ang^3
#
#
#
# Elastic Constant Matrix: (Units=GPa)
#
#
# Indices 1 2 3 4 5 6 
#
# 1 61.3212 38.2983 24.0872 0.0000 0.0000 0.0000
# 2 38.2983 102.3913 38.7380 0.0000 0.0000 0.0000
# 3 24.0872 38.7380 105.1962 0.0000 0.0000 0.0000
# 4 0.0000 0.0000 0.0000 14.8621 0.0000 0.0000
# 5 0.0000 0.0000 0.0000 0.0000 17.0329 0.0000
# 6 0.0000 0.0000 0.0000 0.0000 0.0000 33.3883
#
#
#
# Elastic Compliance Matrix: (Units=1/GPa)
#
#
# Indices 1 2 3 4 5 6 
#
# 1 0.021749 -0.007263 -0.002306 0.000000 0.000000 0.000000
# 2 -0.007263 0.013773 -0.003409 0.000000 0.000000 0.000000
# 3 -0.002306 -0.003409 0.011289 0.000000 0.000000 0.000000
# 4 0.000000 0.000000 0.000000 0.067285 0.000000 0.000000
# 5 0.000000 0.000000 0.000000 0.000000 0.058710 0.000000
# 6 0.000000 0.000000 0.000000 0.000000 0.000000 0.029951
#
#
# Mechanical properties :
#
#
# Convention : Reuss Voigt Hill
#
# Bulk Modulus (GPa) = 47.94557 52.35064 50.14810
# Shear Modulus (GPa) = 21.21673 24.24235 22.72954
#
# Velocity S-wave (km/s) = 3.39536 3.62939 3.51433
# Velocity P-wave (km/s) = 6.43610 6.78299 6.61182
#
# Compressibility (1/GPa) = 0.02085698
#
# Stress axis : x y z
#
# Youngs Moduli (GPa) = 45.97877 72.60767 88.58029
#
# Poissons Ratio (x) = 0.52733 0.20422
# Poissons Ratio (y) = 0.33393 0.30195
# Poissons Ratio (z) = 0.10600 0.24750
#
# Static dielectric constant tensor:
#      x y z
#    x 3.225530 0.000000 0.000000 
#    y 0.000000 3.372300 0.000000 
#    z 0.000000 0.000000 3.703240 
# 
# 
# High freq. dielectric constant tensor:
#      x y z
#    x 1.699240 0.000000 0.000000 
#    y 0.000000 1.712290 0.000000 
#    z 0.000000 0.000000 1.726540 
# 
# From -- ./inp_files/30275.got.cif
#   From: 2010.03.12/outbox.cif.g09.slc.cpg/sg20_16_cif.got.tgz:30275.got - 2010.04.14 01:38:04.
