data_PCOD8158966
_publ_section_title
;
Structure prediction by ZEFSAII (Michael W. Deem and Ramdas Pophale) SiO2 
 PCOD8158966
Probable space group: C 2 2 21
;
_chemical_formula_sum "Si O2"
_cell_formula_units_Z 48
_cell_length_a 8.672164
_cell_length_b 31.631540
_cell_length_c 8.164987
_cell_angle_alpha 90.000000
_cell_angle_beta 90.000000
_cell_angle_gamma 90.000000
_cell_volume 2239.769447
_symmetry_space_group_name_H-M "C 2 2 21"
_symmetry_group_IT_number 20
_symmetry_cell_setting 'orthorhombic'
loop_
_space_group_symop_operation_xyz
x,y,z
-x,-y,1/2+z
x,-y,-z
-x,y,1/2-z
1/2+x,1/2+y,z
1/2-x,1/2-y,1/2+z
1/2+x,1/2-y,-z
1/2-x,1/2+y,1/2-z
loop_
_atom_site_type_symbol
_atom_site_label
_atom_site_fract_x
_atom_site_fract_y
_atom_site_fract_z
Si Si1 0.331943 0.882302 0.194442
Si Si2 0.779686 0.133455 0.046904
Si Si3 0.115672 0.296095 0.502051
Si Si4 0.000000 0.598410 0.250000
Si Si5 0.231628 0.452357 0.540593
Si Si6 0.000000 0.924061 0.750000
Si Si7 0.212723 0.718970 0.129170
O O1 0.500000 0.897549 0.250000
O O2 0.231632 0.872105 0.353173
O O3 0.348949 0.843068 0.067167
O O4 0.241299 0.921902 0.114882
O O5 0.616378 0.127395 0.144017
O O6 0.830375 0.181994 0.074105
O O7 0.912321 0.103924 0.116587
O O8 0.175670 0.289885 0.683576
O O9 0.204758 0.263958 0.382918
O O10 0.934041 0.285230 0.505741
O O11 0.085682 0.567551 0.371713
O O12 0.187516 0.500000 0.500000
O O13 0.381946 0.454034 0.654962
#
# Coordination Sequence:
#
# PCOD8158966 Si02
#       7
#     8   8   8   4   8   4   8
#     4  12  23  42  71  99 132 176 227 286 334 398
#     4  11  22  42  69  96 135 176 222 268 340 393
#     4  11  24  40  64  96 134 172 226 274 344 384
#     4  10  20  40  68  96 132 174 222 272 328 408
#     4  11  25  43  69 101 135 175 227 278 346 407
#     4  10  26  46  64  98 138 182 208 278 352 418
#     4  11  23  40  63  95 133 176 221 281 321 408
#
# _framework density 21.430779000000001
#
# number of rings (size 3 to 8) (size 9 to 14) (size 15 to 20)
#    0.000    1.000    3.333    4.000    1.167    4.667 
#    0.000    3.333    0.000    0.000    0.000    0.000 
#    0.000    0.000    0.000    0.000    0.000    0.000 
#
# Total GULP energy -297585.942872 kJ/mol
# GULP energy per Si atom -12399.414286 kJ/mol
# Density = 2.138200 g / cm^3
# Si number density = 21.430779 Si / 1000 Ang^3
#
#
#
# Elastic Constant Matrix: (Units=GPa)
#
#
# Indices 1 2 3 4 5 6 
#
# 1 45.9363 15.6004 15.0324 0.0000 0.0000 0.0000
# 2 15.6004 141.9373 36.3441 0.0000 0.0000 0.0000
# 3 15.0324 36.3441 103.1557 0.0000 0.0000 0.0000
# 4 0.0000 0.0000 0.0000 23.5732 0.0000 0.0000
# 5 0.0000 0.0000 0.0000 0.0000 26.5806 0.0000
# 6 0.0000 0.0000 0.0000 0.0000 0.0000 11.5072
#
#
#
# Elastic Compliance Matrix: (Units=1/GPa)
#
#
# Indices 1 2 3 4 5 6 
#
# 1 0.023297 -0.001859 -0.002740 0.000000 0.000000 0.000000
# 2 -0.001859 0.007892 -0.002510 0.000000 0.000000 0.000000
# 3 -0.002740 -0.002510 0.010978 0.000000 0.000000 0.000000
# 4 0.000000 0.000000 0.000000 0.042421 0.000000 0.000000
# 5 0.000000 0.000000 0.000000 0.000000 0.037621 0.000000
# 6 0.000000 0.000000 0.000000 0.000000 0.000000 0.086902
#
#
# Mechanical properties :
#
#
# Convention : Reuss Voigt Hill
#
# Bulk Modulus (GPa) = 35.77861 47.22034 41.49947
# Shear Modulus (GPa) = 21.49192 27.26905 24.38048
#
# Velocity S-wave (km/s) = 3.17022 3.57098 3.37655
# Velocity P-wave (km/s) = 5.48923 6.25174 5.88285
#
# Compressibility (1/GPa) = 0.02794966
#
# Stress axis : x y z
#
# Youngs Moduli (GPa) = 42.92348 126.70539 91.09452
#
# Poissons Ratio (x) = 0.23555 0.24960
# Poissons Ratio (y) = 0.07980 0.22862
# Poissons Ratio (z) = 0.11761 0.31800
#
# Static dielectric constant tensor:
#      x y z
#    x 4.042720 0.000000 0.000000 
#    y 0.000000 3.848250 0.000000 
#    z 0.000000 0.000000 4.211890 
# 
# 
# High freq. dielectric constant tensor:
#      x y z
#    x 1.828950 0.000000 0.000000 
#    y 0.000000 1.840360 0.000000 
#    z 0.000000 0.000000 1.861050 
# 
# From -- ./inp_files/6587.got.cif
#   From: 2010.03.12/outbox.cif.g09.slc.cpg/sg20_4_cif.got.tgz:6587.got - 2010.04.14 01:38:04.
