data_PCOD8158549
_publ_section_title
;
Structure prediction by ZEFSAII (Michael W. Deem and Ramdas Pophale) SiO2 
 PCOD8158549
Probable space group: C 2 2 21
;
_chemical_formula_sum "Si O2"
_cell_formula_units_Z 56
_cell_length_a 6.139086
_cell_length_b 21.672869
_cell_length_c 22.335032
_cell_angle_alpha 90.000000
_cell_angle_beta 90.000000
_cell_angle_gamma 90.000000
_cell_volume 2971.711892
_symmetry_space_group_name_H-M "C 2 2 21"
_symmetry_group_IT_number 20
_symmetry_cell_setting 'orthorhombic'
loop_
_space_group_symop_operation_xyz
x,y,z
-x,-y,1/2+z
x,-y,-z
-x,y,1/2-z
1/2+x,1/2+y,z
1/2-x,1/2-y,1/2+z
1/2+x,1/2-y,-z
1/2-x,1/2+y,1/2-z
loop_
_atom_site_type_symbol
_atom_site_label
_atom_site_fract_x
_atom_site_fract_y
_atom_site_fract_z
Si Si1 0.410265 0.105928 0.483727
Si Si2 0.121550 0.250068 0.190873
Si Si3 0.621075 0.875381 0.308803
Si Si4 0.728028 0.423181 0.074698
Si Si5 0.218474 0.692474 0.422852
Si Si6 0.411623 0.500000 0.000000
Si Si7 0.041842 0.815145 0.467695
Si Si8 0.500000 0.311920 0.250000
O O1 0.579117 0.073914 0.527595
O O2 0.553265 0.133371 0.427808
O O3 0.231822 0.053502 0.467934
O O4 0.284630 0.161095 0.517309
O O5 0.148726 0.197714 0.139784
O O6 0.365457 0.267220 0.207433
O O7 0.000000 0.223126 0.250000
O O8 0.003765 0.313237 0.168261
O O9 0.500000 0.903345 0.250000
O O10 0.652301 0.927524 0.360339
O O11 0.861725 0.856713 0.291144
O O12 0.559018 0.476893 0.055927
O O13 0.592976 0.359621 0.075975
O O14 0.064360 0.751379 0.432869
O O15 0.406636 0.690095 0.471649
#
# Coordination Sequence:
#
# PCOD8158549 Si02
#       8
#     8   8   8   8   8   4   8   4
#     4  10  21  35  53  78 115 148 187 231 282 341
#     4   9  19  30  47  74 118 160 187 217 266 343
#     4   9  18  30  49  78 113 153 187 221 280 343
#     4  10  20  35  54  76 117 150 186 234 282 346
#     4  11  19  31  50  81 118 153 188 222 282 339
#     4  10  22  38  54  78 112 152 198 230 296 328
#     4  10  20  29  49  82 113 154 179 227 282 336
#     4   8  16  32  46  74 114 156 182 212 278 330
#
# _framework density 18.844358
#
# number of rings (size 3 to 8) (size 9 to 14) (size 15 to 20)
#    0.000    2.571    1.429    2.143    2.000    5.714 
#    0.000    0.000    0.000    0.000    0.000    0.000 
#  192.857    0.000    0.857    0.000    0.000    0.000 
#
# Total GULP energy -346873.604316 kJ/mol
# GULP energy per Si atom -12388.343011 kJ/mol
# Density = 1.880147 g / cm^3
# Si number density = 18.844358 Si / 1000 Ang^3
#
#
#
# Elastic Constant Matrix: (Units=GPa)
#
#
# Indices 1 2 3 4 5 6 
#
# 1 110.7250 35.3496 44.4674 0.0000 0.0000 0.0000
# 2 35.3496 72.5767 47.8666 0.0000 0.0000 0.0000
# 3 44.4674 47.8666 120.4936 0.0000 0.0000 0.0000
# 4 0.0000 0.0000 0.0000 15.1531 0.0000 0.0000
# 5 0.0000 0.0000 0.0000 0.0000 20.4605 0.0000
# 6 0.0000 0.0000 0.0000 0.0000 0.0000 32.9203
#
#
#
# Elastic Compliance Matrix: (Units=1/GPa)
#
#
# Indices 1 2 3 4 5 6 
#
# 1 0.011303 -0.003732 -0.002689 0.000000 0.000000 0.000000
# 2 -0.003732 0.019902 -0.006529 0.000000 0.000000 0.000000
# 3 -0.002689 -0.006529 0.011885 0.000000 0.000000 0.000000
# 4 0.000000 0.000000 0.000000 0.065993 0.000000 0.000000
# 5 0.000000 0.000000 0.000000 0.000000 0.048875 0.000000
# 6 0.000000 0.000000 0.000000 0.000000 0.000000 0.030376
#
#
# Mechanical properties :
#
#
# Convention : Reuss Voigt Hill
#
# Bulk Modulus (GPa) = 58.17037 62.12916 60.14977
# Shear Modulus (GPa) = 22.73105 25.44757 24.08931
#
# Velocity S-wave (km/s) = 3.47688 3.67878 3.57925
# Velocity P-wave (km/s) = 6.85960 7.14743 7.00499
#
# Compressibility (1/GPa) = 0.01719088
#
# Stress axis : x y z
#
# Youngs Moduli (GPa) = 88.47551 50.24549 84.13875
#
# Poissons Ratio (x) = 0.18751 0.22622
# Poissons Ratio (y) = 0.33018 0.54935
# Poissons Ratio (z) = 0.23788 0.32806
#
# Static dielectric constant tensor:
#      x y z
#    x 3.747430 0.000000 0.000000 
#    y 0.000000 3.237770 0.000000 
#    z 0.000000 0.000000 3.328030 
# 
# 
# High freq. dielectric constant tensor:
#      x y z
#    x 1.761180 0.000000 0.000000 
#    y 0.000000 1.688600 0.000000 
#    z 0.000000 0.000000 1.708680 
# 
# From -- ./inp_files/26204.got.cif
#   From: 2010.03.12/outbox.cif.g09.slc.cpg/sg20_14_cif.got.tgz:26204.got - 2010.04.14 01:38:04.
