data_PCOD8158452
_publ_section_title
;
Structure prediction by ZEFSAII (Michael W. Deem and Ramdas Pophale) SiO2 
 PCOD8158452
Probable space group: C 2 2 21
;
_chemical_formula_sum "Si O2"
_cell_formula_units_Z 48
_cell_length_a 8.592237
_cell_length_b 28.016248
_cell_length_c 9.386791
_cell_angle_alpha 90.000000
_cell_angle_beta 90.000000
_cell_angle_gamma 90.000000
_cell_volume 2259.609381
_symmetry_space_group_name_H-M "C 2 2 21"
_symmetry_group_IT_number 20
_symmetry_cell_setting 'orthorhombic'
loop_
_space_group_symop_operation_xyz
x,y,z
-x,-y,1/2+z
x,-y,-z
-x,y,1/2-z
1/2+x,1/2+y,z
1/2-x,1/2-y,1/2+z
1/2+x,1/2-y,-z
1/2-x,1/2+y,1/2-z
loop_
_atom_site_type_symbol
_atom_site_label
_atom_site_fract_x
_atom_site_fract_y
_atom_site_fract_z
Si Si1 0.500000 0.831784 0.250000
Si Si2 0.155406 0.007752 0.663724
Si Si3 0.315199 0.694447 0.276496
Si Si4 0.676091 0.406032 0.705671
Si Si5 0.259139 0.892747 0.386477
Si Si6 0.732758 0.725534 0.913858
Si Si7 0.000000 0.169061 0.750000
O O1 0.423758 0.866401 0.368698
O O2 0.621108 0.798970 0.335080
O O3 0.246347 0.959878 0.724036
O O4 0.000000 0.020160 0.750000
O O5 0.103957 0.000000 0.500000
O O6 0.271832 0.052802 0.671735
O O7 0.500000 0.693269 0.250000
O O8 0.254675 0.639036 0.294575
O O9 0.259190 0.723999 0.414978
O O10 0.234244 0.719552 0.139868
O O11 0.500000 0.414262 0.750000
O O12 0.694081 0.389746 0.544304
O O13 0.139649 0.864317 0.291606
O O14 0.566256 0.702146 0.876510
#
# Coordination Sequence:
#
# PCOD8158452 Si02
#       7
#     4   8   8   8   8   8   4
#     4  10  24  42  60  90 132 168 210 250 322 382
#     4   9  17  33  60  93 118 157 207 263 308 358
#     4  11  24  41  63  92 128 162 212 261 318 368
#     4   9  19  35  61  87 124 154 205 259 309 358
#     4  10  19  37  63  88 124 160 206 257 311 373
#     4  11  25  40  65  91 128 169 214 260 314 377
#     4  10  20  34  60  90 118 162 210 252 308 362
#
# _framework density 21.242611
#
# number of rings (size 3 to 8) (size 9 to 14) (size 15 to 20)
#    0.000    2.000    1.667    2.000    7.000    0.000 
#    0.000    0.000   11.000    0.000    0.000    0.000 
#    0.000    0.000    0.000    0.000    0.000    0.000 
#
# Total GULP energy -297317.624530 kJ/mol
# GULP energy per Si atom -12388.234355 kJ/mol
# Density = 2.119426 g / cm^3
# Si number density = 21.242611 Si / 1000 Ang^3
#
#
#
# Elastic Constant Matrix: (Units=GPa)
#
#
# Indices 1 2 3 4 5 6 
#
# 1 44.3505 23.6371 14.8079 0.0000 0.0000 0.0000
# 2 23.6371 137.4053 14.7797 0.0000 0.0000 0.0000
# 3 14.8079 14.7797 69.3201 0.0000 0.0000 0.0000
# 4 0.0000 0.0000 0.0000 28.8356 0.0000 0.0000
# 5 0.0000 0.0000 0.0000 0.0000 30.1660 0.0000
# 6 0.0000 0.0000 0.0000 0.0000 0.0000 18.2229
#
#
#
# Elastic Compliance Matrix: (Units=1/GPa)
#
#
# Indices 1 2 3 4 5 6 
#
# 1 0.026272 -0.004008 -0.004758 0.000000 0.000000 0.000000
# 2 -0.004008 0.008060 -0.000862 0.000000 0.000000 0.000000
# 3 -0.004758 -0.000862 0.015626 0.000000 0.000000 0.000000
# 4 0.000000 0.000000 0.000000 0.034679 0.000000 0.000000
# 5 0.000000 0.000000 0.000000 0.000000 0.033150 0.000000
# 6 0.000000 0.000000 0.000000 0.000000 0.000000 0.054876
#
#
# Mechanical properties :
#
#
# Convention : Reuss Voigt Hill
#
# Bulk Modulus (GPa) = 32.57051 39.72502 36.14777
# Shear Modulus (GPa) = 24.73373 28.63498 26.68435
#
# Velocity S-wave (km/s) = 3.41595 3.67549 3.54810
# Velocity P-wave (km/s) = 5.56096 6.06247 5.81712
#
# Compressibility (1/GPa) = 0.03070262
#
# Stress axis : x y z
#
# Youngs Moduli (GPa) = 38.06314 124.07068 63.99588
#
# Poissons Ratio (x) = 0.49724 0.30447
# Poissons Ratio (y) = 0.15255 0.05519
# Poissons Ratio (z) = 0.18109 0.10699
#
# Static dielectric constant tensor:
#      x y z
#    x 3.870710 0.000000 0.000000 
#    y 0.000000 4.632560 0.000000 
#    z 0.000000 0.000000 3.826500 
# 
# 
# High freq. dielectric constant tensor:
#      x y z
#    x 1.789700 0.000000 0.000000 
#    y 0.000000 1.866850 0.000000 
#    z 0.000000 0.000000 1.824440 
# 
# From -- ./inp_files/6581.got.cif
#   From: 2010.03.12/outbox.cif.g09.slc.cpg/sg20_4_cif.got.tgz:6581.got - 2010.04.14 01:38:04.
