data_PCOD8158920
_publ_section_title
;
Structure prediction by ZEFSAII (Michael W. Deem and Ramdas Pophale) SiO2 
 PCOD8158920
Probable space group: C 2 2 21
;
_chemical_formula_sum "Si O2"
_cell_formula_units_Z 48
_cell_length_a 9.354268
_cell_length_b 24.945383
_cell_length_c 9.138846
_cell_angle_alpha 90.000000
_cell_angle_beta 90.000000
_cell_angle_gamma 90.000000
_cell_volume 2132.511312
_symmetry_space_group_name_H-M "C 2 2 21"
_symmetry_group_IT_number 20
_symmetry_cell_setting 'orthorhombic'
loop_
_space_group_symop_operation_xyz
x,y,z
-x,-y,1/2+z
x,-y,-z
-x,y,1/2-z
1/2+x,1/2+y,z
1/2-x,1/2-y,1/2+z
1/2+x,1/2-y,-z
1/2-x,1/2+y,1/2-z
loop_
_atom_site_type_symbol
_atom_site_label
_atom_site_fract_x
_atom_site_fract_y
_atom_site_fract_z
Si Si1 0.857783 0.496891 0.325611
Si Si2 0.011737 0.128408 0.973076
Si Si3 0.928442 0.243869 0.594179
Si Si4 0.887892 0.967034 0.645958
Si Si5 0.615298 0.219953 0.641250
Si Si6 0.735537 0.384006 0.268410
O O1 0.858120 0.500000 0.500000
O O2 0.748751 0.538370 0.250288
O O3 0.833124 0.435774 0.279779
O O4 0.000000 0.517054 0.250000
O O5 0.055661 0.189948 0.003519
O O6 0.115200 0.104116 0.850240
O O7 0.845172 0.127115 0.922713
O O8 0.042065 0.091281 0.113553
O O9 0.758085 0.256534 0.611689
O O10 0.000000 0.232079 0.750000
O O11 0.023260 0.288973 0.509891
O O12 0.000000 0.999009 0.750000
O O13 0.854866 0.000000 0.500000
O O14 0.500000 0.248030 0.750000
O O15 0.663866 0.164696 0.715964
#
# Coordination Sequence:
#
# PCOD8158920 Si02
#       6
#     8   8   8   8   8   8
#     4  12  26  44  68 103 145 195 244 306 372 452
#     4  10  20  39  69 101 138 184 239 299 356 448
#     4  11  22  42  69 103 140 184 246 301 376 448
#     4  12  23  39  69 101 141 187 241 298 364 440
#     4  11  23  41  71 100 138 191 237 306 378 449
#     4  10  20  42  69  99 134 190 240 294 378 437
#
# _framework density 22.508673999999999
#
# number of rings (size 3 to 8) (size 9 to 14) (size 15 to 20)
#    0.000    1.000    5.000    4.500    0.000    0.667 
#    0.000    0.000   14.667    0.000    0.000    0.000 
#    0.000    0.000    0.000    0.000    0.000    0.000 
#
# Total GULP energy -297340.880980 kJ/mol
# GULP energy per Si atom -12389.203374 kJ/mol
# Density = 2.245744 g / cm^3
# Si number density = 22.508674 Si / 1000 Ang^3
#
#
#
# Elastic Constant Matrix: (Units=GPa)
#
#
# Indices 1 2 3 4 5 6 
#
# 1 184.4675 33.5931 68.9065 0.0000 0.0000 0.0000
# 2 33.5931 68.5694 41.3197 0.0000 0.0000 0.0000
# 3 68.9065 41.3197 139.2954 0.0000 0.0000 0.0000
# 4 0.0000 0.0000 0.0000 33.5917 0.0000 0.0000
# 5 0.0000 0.0000 0.0000 0.0000 53.5252 0.0000
# 6 0.0000 0.0000 0.0000 0.0000 0.0000 12.8627
#
#
#
# Elastic Compliance Matrix: (Units=1/GPa)
#
#
# Indices 1 2 3 4 5 6 
#
# 1 0.006788 -0.001586 -0.002888 0.000000 0.000000 0.000000
# 2 -0.001586 0.018128 -0.004593 0.000000 0.000000 0.000000
# 3 -0.002888 -0.004593 0.009970 0.000000 0.000000 0.000000
# 4 0.000000 0.000000 0.000000 0.029769 0.000000 0.000000
# 5 0.000000 0.000000 0.000000 0.000000 0.018683 0.000000
# 6 0.000000 0.000000 0.000000 0.000000 0.000000 0.077744
#
#
# Mechanical properties :
#
#
# Convention : Reuss Voigt Hill
#
# Bulk Modulus (GPa) = 59.68782 75.55230 67.62006
# Shear Modulus (GPa) = 27.05618 36.56344 31.80981
#
# Velocity S-wave (km/s) = 3.47080 4.03478 3.76337
# Velocity P-wave (km/s) = 6.52971 7.43940 6.99935
#
# Compressibility (1/GPa) = 0.01675384
#
# Stress axis : x y z
#
# Youngs Moduli (GPa) = 147.30870 55.16215 100.30107
#
# Poissons Ratio (x) = 0.08747 0.28965
# Poissons Ratio (y) = 0.23357 0.46070
# Poissons Ratio (z) = 0.42539 0.25337
#
# Static dielectric constant tensor:
#      x y z
#    x 4.347360 0.000000 0.000000 
#    y 0.000000 3.712920 0.000000 
#    z 0.000000 0.000000 4.200800 
# 
# 
# High freq. dielectric constant tensor:
#      x y z
#    x 1.902470 0.000000 0.000000 
#    y 0.000000 1.853990 0.000000 
#    z 0.000000 0.000000 1.890790 
# 
# From -- ./inp_files/6503.got.cif
#   From: 2010.03.12/outbox.cif.g09.slc.cpg/sg20_4_cif.got.tgz:6503.got - 2010.04.14 01:38:04.
