data_PCOD8158599
_publ_section_title
;
Structure prediction by ZEFSAII (Michael W. Deem and Ramdas Pophale) SiO2 
 PCOD8158599
Probable space group: C 2 2 21
;
_chemical_formula_sum "Si O2"
_cell_formula_units_Z 40
_cell_length_a 13.848919
_cell_length_b 27.169708
_cell_length_c 5.097851
_cell_angle_alpha 90.000000
_cell_angle_beta 90.000000
_cell_angle_gamma 90.000000
_cell_volume 1918.173929
_symmetry_space_group_name_H-M "C 2 2 21"
_symmetry_group_IT_number 20
_symmetry_cell_setting 'orthorhombic'
loop_
_space_group_symop_operation_xyz
x,y,z
-x,-y,1/2+z
x,-y,-z
-x,y,1/2-z
1/2+x,1/2+y,z
1/2-x,1/2-y,1/2+z
1/2+x,1/2-y,-z
1/2-x,1/2+y,1/2-z
loop_
_atom_site_type_symbol
_atom_site_label
_atom_site_fract_x
_atom_site_fract_y
_atom_site_fract_z
Si Si1 0.268060 0.125387 0.877876
Si Si2 0.942048 0.876846 0.492549
Si Si3 0.094586 0.767476 0.890784
Si Si4 0.113614 0.530771 0.747653
Si Si5 0.778797 0.309773 0.632166
O O1 0.166522 0.101882 0.976595
O O2 0.338465 0.083835 0.770131
O O3 0.253418 0.162069 0.635564
O O4 0.310595 0.154386 0.129420
O O5 0.935927 0.817818 0.467424
O O6 0.000000 0.899007 0.250000
O O7 0.000000 0.893850 0.750000
O O8 0.182041 0.778848 0.690618
O O9 0.000000 0.745134 0.750000
O O10 0.131094 0.727085 0.098276
O O11 0.147942 0.500000 0.500000
O O12 0.000000 0.539845 0.750000
O O13 0.148004 0.500000 0.000000
#
# Coordination Sequence:
#
# PCOD8158599 Si02
#       5
#     8   8   8   8   8
#     4  11  22  39  60  87 118 150 194 253 298 341
#     4  10  20  34  56  83 113 155 200 233 275 341
#     4  10  21  38  56  79 119 166 203 240 286 332
#     4  10  22  42  66  89 115 150 191 236 298 372
#     4  11  23  37  57  86 120 157 206 248 287 344
#
# _framework density 20.853165000000001
#
# number of rings (size 3 to 8) (size 9 to 14) (size 15 to 20)
#    0.000    1.600    0.000    7.200    0.000    4.000 
#    0.000    4.000    0.000    2.400    0.000    0.000 
#    0.000    0.000    0.000    0.000    0.000    0.000 
#
# Total GULP energy -247982.614639 kJ/mol
# GULP energy per Si atom -12399.130732 kJ/mol
# Density = 2.080570 g / cm^3
# Si number density = 20.853165 Si / 1000 Ang^3
#
#
#
# Elastic Constant Matrix: (Units=GPa)
#
#
# Indices 1 2 3 4 5 6 
#
# 1 84.0009 39.9278 37.4601 0.0000 0.0000 0.0000
# 2 39.9278 67.0516 38.9974 0.0000 0.0000 0.0000
# 3 37.4601 38.9974 152.9975 0.0000 0.0000 0.0000
# 4 0.0000 0.0000 0.0000 32.0926 0.0000 0.0000
# 5 0.0000 0.0000 0.0000 0.0000 101.0067 0.0000
# 6 0.0000 0.0000 0.0000 0.0000 0.0000 27.8977
#
#
#
# Elastic Compliance Matrix: (Units=1/GPa)
#
#
# Indices 1 2 3 4 5 6 
#
# 1 0.017045 -0.009067 -0.001862 0.000000 0.000000 0.000000
# 2 -0.009067 0.022332 -0.003472 0.000000 0.000000 0.000000
# 3 -0.001862 -0.003472 0.007877 0.000000 0.000000 0.000000
# 4 0.000000 0.000000 0.000000 0.031160 0.000000 0.000000
# 5 0.000000 0.000000 0.000000 0.000000 0.009900 0.000000
# 6 0.000000 0.000000 0.000000 0.000000 0.000000 0.035845
#
#
# Mechanical properties :
#
#
# Convention : Reuss Voigt Hill
#
# Bulk Modulus (GPa) = 54.19585 59.64674 56.92129
# Shear Modulus (GPa) = 31.42424 44.71039 38.06732
#
# Velocity S-wave (km/s) = 3.88613 4.63542 4.27721
# Velocity P-wave (km/s) = 6.79571 7.57065 7.19363
#
# Compressibility (1/GPa) = 0.01845160
#
# Stress axis : x y z
#
# Youngs Moduli (GPa) = 58.66909 44.77790 126.95044
#
# Poissons Ratio (x) = 0.40599 0.23642
# Poissons Ratio (y) = 0.53193 0.44082
# Poissons Ratio (z) = 0.10926 0.15549
#
# Static dielectric constant tensor:
#      x y z
#    x 4.009440 0.000000 0.000000 
#    y 0.000000 2.957160 0.000000 
#    z 0.000000 0.000000 3.958770 
# 
# 
# High freq. dielectric constant tensor:
#      x y z
#    x 1.820880 0.000000 0.000000 
#    y 0.000000 1.775560 0.000000 
#    z 0.000000 0.000000 1.835490 
# 
# From -- ./inp_files/1877.got.cif
#   From: 2010.03.12/outbox.cif.g09.slc.cpg/sg20_1_cif.got.tgz:1877.got - 2010.04.14 01:38:04.
