data_PCOD8158428
_publ_section_title
;
Structure prediction by ZEFSAII (Michael W. Deem and Ramdas Pophale) SiO2 
 PCOD8158428
Probable space group: C 2 2 21
;
_chemical_formula_sum "Si O2"
_cell_formula_units_Z 32
_cell_length_a 5.144330
_cell_length_b 18.615180
_cell_length_c 14.949371
_cell_angle_alpha 90.000000
_cell_angle_beta 90.000000
_cell_angle_gamma 90.000000
_cell_volume 1431.591068
_symmetry_space_group_name_H-M "C 2 2 21"
_symmetry_group_IT_number 20
_symmetry_cell_setting 'orthorhombic'
loop_
_space_group_symop_operation_xyz
x,y,z
-x,-y,1/2+z
x,-y,-z
-x,y,1/2-z
1/2+x,1/2+y,z
1/2-x,1/2-y,1/2+z
1/2+x,1/2-y,-z
1/2-x,1/2+y,1/2-z
loop_
_atom_site_type_symbol
_atom_site_label
_atom_site_fract_x
_atom_site_fract_y
_atom_site_fract_z
Si Si1 0.428168 0.064193 0.928992
Si Si2 0.757145 0.861013 0.805079
Si Si3 0.423341 0.492820 0.106033
Si Si4 0.041500 0.709869 0.023818
O O1 0.185530 0.048381 0.862978
O O2 0.686552 0.059806 0.868272
O O3 0.414436 0.139663 0.979210
O O4 0.468300 0.000000 0.000000
O O5 0.500000 0.883400 0.750000
O O6 0.657976 0.804322 0.878050
O O7 0.000000 0.826039 0.750000
O O8 0.891105 0.930077 0.849676
O O9 0.466799 0.500000 0.000000
O O10 0.291371 0.737686 0.967311
#
# Coordination Sequence:
#
# PCOD8158428 Si02
#       4
#     8   8   8   8
#     4  10  19  36  67  95 134 161 239 281 318 397
#     4  12  25  42  68 108 146 179 231 302 358 408
#     4  10  19  36  67  95 135 168 227 279 331 405
#     4  12  25  42  68 108 135 192 243 280 343 433
#
# _framework density 22.352751000000001
#
# number of rings (size 3 to 8) (size 9 to 14) (size 15 to 20)
#    0.000    1.000    5.000    4.500    7.000    0.000 
#    0.000    0.000    0.000   22.500    0.000    0.000 
#    0.000    0.000    0.000    0.000    0.000    0.000 
#
# Total GULP energy -198219.148201 kJ/mol
# GULP energy per Si atom -12388.696763 kJ/mol
# Density = 2.230188 g / cm^3
# Si number density = 22.352751 Si / 1000 Ang^3
#
#
#
# Elastic Constant Matrix: (Units=GPa)
#
#
# Indices 1 2 3 4 5 6 
#
# 1 197.6389 43.5170 28.7532 0.0000 0.0000 0.0000
# 2 43.5170 98.7337 34.9246 0.0000 0.0000 0.0000
# 3 28.7532 34.9246 59.9929 0.0000 0.0000 0.0000
# 4 0.0000 0.0000 0.0000 16.1915 0.0000 0.0000
# 5 0.0000 0.0000 0.0000 0.0000 31.5598 0.0000
# 6 0.0000 0.0000 0.0000 0.0000 0.0000 30.3404
#
#
#
# Elastic Compliance Matrix: (Units=1/GPa)
#
#
# Indices 1 2 3 4 5 6 
#
# 1 0.005724 -0.001955 -0.001605 0.000000 0.000000 0.000000
# 2 -0.001955 0.013422 -0.006877 0.000000 0.000000 0.000000
# 3 -0.001605 -0.006877 0.021441 0.000000 0.000000 0.000000
# 4 0.000000 0.000000 0.000000 0.061761 0.000000 0.000000
# 5 0.000000 0.000000 0.000000 0.000000 0.031686 0.000000
# 6 0.000000 0.000000 0.000000 0.000000 0.000000 0.032959
#
#
# Mechanical properties :
#
#
# Convention : Reuss Voigt Hill
#
# Bulk Modulus (GPa) = 50.72668 63.41722 57.07195
# Shear Modulus (GPa) = 25.71508 32.22971 28.97240
#
# Velocity S-wave (km/s) = 3.39547 3.80131 3.60411
# Velocity P-wave (km/s) = 6.17375 6.90647 6.55036
#
# Compressibility (1/GPa) = 0.01971349
#
# Stress axis : x y z
#
# Youngs Moduli (GPa) = 174.71197 74.50225 46.63894
#
# Poissons Ratio (x) = 0.14565 0.07486
# Poissons Ratio (y) = 0.34155 0.32073
# Poissons Ratio (z) = 0.28045 0.51234
#
# Static dielectric constant tensor:
#      x y z
#    x 7.184820 0.000000 0.000000 
#    y 0.000000 3.770070 0.000000 
#    z 0.000000 0.000000 3.763960 
# 
# 
# High freq. dielectric constant tensor:
#      x y z
#    x 1.934580 0.000000 0.000000 
#    y 0.000000 1.853940 0.000000 
#    z 0.000000 0.000000 1.838900 
# 
# From -- ./inp_files/17444.got.cif
#   From: 2010.03.12/outbox.cif.g09.slc.cpg/sg20_9_cif.got.tgz:17444.got - 2010.04.14 01:38:04.
