data_PCOD8158002
_publ_section_title
;
Structure prediction by ZEFSAII (Michael W. Deem and Ramdas Pophale) SiO2 
 PCOD8158002
Probable space group: C 2 2 21
;
_chemical_formula_sum "Si O2"
_cell_formula_units_Z 64
_cell_length_a 18.508093
_cell_length_b 13.638079
_cell_length_c 14.457273
_cell_angle_alpha 90.000000
_cell_angle_beta 90.000000
_cell_angle_gamma 90.000000
_cell_volume 3649.230171
_symmetry_space_group_name_H-M "C 2 2 21"
_symmetry_group_IT_number 20
_symmetry_cell_setting 'orthorhombic'
loop_
_space_group_symop_operation_xyz
x,y,z
-x,-y,1/2+z
x,-y,-z
-x,y,1/2-z
1/2+x,1/2+y,z
1/2-x,1/2-y,1/2+z
1/2+x,1/2-y,-z
1/2-x,1/2+y,1/2-z
loop_
_atom_site_type_symbol
_atom_site_label
_atom_site_fract_x
_atom_site_fract_y
_atom_site_fract_z
Si Si1 0.293778 0.977101 0.599908
Si Si2 0.142489 0.669977 0.869904
Si Si3 0.841396 0.747675 0.828268
Si Si4 0.623792 0.561902 0.909558
Si Si5 0.660418 0.472414 0.721969
Si Si6 0.299082 0.761468 0.555913
Si Si7 0.029653 0.990662 0.599444
Si Si8 0.504053 0.726171 0.357983
O O1 0.232815 0.007787 0.672821
O O2 0.320541 0.864078 0.607113
O O3 0.258994 0.000000 0.500000
O O4 0.360169 0.052193 0.615561
O O5 0.170293 0.684933 0.764896
O O6 0.061777 0.706934 0.892763
O O7 0.197253 0.721200 0.944506
O O8 0.846020 0.856731 0.788217
O O9 0.780647 0.732013 0.906709
O O10 0.917767 0.724223 0.879813
O O11 0.665628 0.507302 0.826983
O O12 0.646967 0.675169 0.915645
O O13 0.537897 0.564196 0.891810
O O14 0.645131 0.500000 0.000000
O O15 0.587754 0.517961 0.677181
O O16 0.995996 0.881550 0.600047
O O17 0.068518 0.000000 0.500000
O O18 0.500000 0.711981 0.250000
#
# Coordination Sequence:
#
# PCOD8158002 Si02
#       8
#     8   8   8   8   8   8   8   8
#     4   9  19  32  49  70  92 126 162 196 234 279
#     4  10  17  32  52  71  96 127 163 201 241 278
#     4   9  18  32  52  76  97 123 162 206 239 278
#     4  11  20  30  47  72  99 128 156 190 241 295
#     4  10  18  31  48  70  99 123 155 196 239 285
#     4  10  20  32  47  73 102 125 157 196 242 294
#     4  10  18  28  46  72  98 124 153 191 239 290
#     4   9  17  31  52  74  93 122 168 210 236 269
#
# _framework density 17.537946000000002
#
# number of rings (size 3 to 8) (size 9 to 14) (size 15 to 20)
#    0.000    2.250    0.000    6.000    0.000    1.000 
#    0.000    0.000    0.000    6.750    0.000    8.750 
#    0.000    0.000    0.000    0.000    0.000    0.000 
#
# Total GULP energy -396540.847453 kJ/mol
# GULP energy per Si atom -12391.901483 kJ/mol
# Density = 1.749803 g / cm^3
# Si number density = 17.537946 Si / 1000 Ang^3
#
#
#
# Elastic Constant Matrix: (Units=GPa)
#
#
# Indices 1 2 3 4 5 6 
#
# 1 102.0964 61.3899 48.9766 0.0000 0.0000 0.0000
# 2 61.3899 86.7407 34.5404 0.0000 0.0000 0.0000
# 3 48.9766 34.5404 87.7192 0.0000 0.0000 0.0000
# 4 0.0000 0.0000 0.0000 17.8133 0.0000 0.0000
# 5 0.0000 0.0000 0.0000 0.0000 -5.8525 0.0000
# 6 0.0000 0.0000 0.0000 0.0000 0.0000 26.4371
#
#
#
# Elastic Compliance Matrix: (Units=1/GPa)
#
#
# Indices 1 2 3 4 5 6 
#
# 1 0.019797 -0.011397 -0.006566 0.000000 0.000000 0.000000
# 2 -0.011397 0.020233 -0.001604 0.000000 0.000000 0.000000
# 3 -0.006566 -0.001604 0.015697 0.000000 0.000000 0.000000
# 4 0.000000 0.000000 0.000000 0.056138 0.000000 0.000000
# 5 0.000000 0.000000 0.000000 0.000000 -0.170866 0.000000
# 6 0.000000 0.000000 0.000000 0.000000 0.000000 0.037826
#
#
# Mechanical properties :
#
#
# Convention : Reuss Voigt Hill
#
# Bulk Modulus (GPa) = 60.25915 62.93000 61.59458
# Shear Modulus (GPa) = 212.85973 16.45619 114.65796
#
# Velocity S-wave (km/s) = 11.02880 3.06652 8.09438
# Velocity P-wave (km/s) = 14.02188 6.96406 11.07049
#
# Compressibility (1/GPa) = 0.01659499
#
# Stress axis : x y z
#
# Youngs Moduli (GPa) = 50.51237 49.42369 63.70451
#
# Poissons Ratio (x) = 0.56327 0.41827
# Poissons Ratio (y) = 0.57568 0.10217
# Poissons Ratio (z) = 0.33166 0.07927
#
# Static dielectric constant tensor:
#      x y z
#    x 3.800800 0.000000 0.000000 
#    y 0.000000 4.154720 0.000000 
#    z 0.000000 0.000000 3.383040 
# 
# 
# High freq. dielectric constant tensor:
#      x y z
#    x 1.666960 0.000000 0.000000 
#    y 0.000000 1.663350 0.000000 
#    z 0.000000 0.000000 1.681720 
# 
# From -- ./inp_files/21555.got.cif
#   From: 2010.03.12/outbox.cif.g09.slc.cpg/sg20_11_cif.got.tgz:21555.got - 2010.04.14 01:38:04.
