data_PCOD8158431
_publ_section_title
;
Structure prediction by ZEFSAII (Michael W. Deem and Ramdas Pophale) SiO2 
 PCOD8158431
Probable space group: C 2 2 21
;
_chemical_formula_sum "Si O2"
_cell_formula_units_Z 40
_cell_length_a 29.006193
_cell_length_b 9.777782
_cell_length_c 7.236145
_cell_angle_alpha 90.000000
_cell_angle_beta 90.000000
_cell_angle_gamma 90.000000
_cell_volume 2052.288178
_symmetry_space_group_name_H-M "C 2 2 21"
_symmetry_group_IT_number 20
_symmetry_cell_setting 'orthorhombic'
loop_
_space_group_symop_operation_xyz
x,y,z
-x,-y,1/2+z
x,-y,-z
-x,y,1/2-z
1/2+x,1/2+y,z
1/2-x,1/2-y,1/2+z
1/2+x,1/2-y,-z
1/2-x,1/2+y,1/2-z
loop_
_atom_site_type_symbol
_atom_site_label
_atom_site_fract_x
_atom_site_fract_y
_atom_site_fract_z
Si Si1 0.747680 0.500000 0.000000
Si Si2 0.673995 0.788462 0.468976
Si Si3 0.333897 0.427299 0.265330
Si Si4 0.452950 0.107065 0.663422
Si Si5 0.369926 0.696817 0.381926
Si Si6 0.600755 0.000000 0.500000
O O1 0.777917 0.362449 0.988008
O O2 0.715339 0.495189 0.181489
O O3 0.671496 0.637668 0.562058
O O4 0.664919 0.783057 0.248705
O O5 0.632176 0.872117 0.557725
O O6 0.373128 0.545598 0.285062
O O7 0.347102 0.309877 0.415082
O O8 0.500000 0.168779 0.750000
O O9 0.420294 0.233791 0.603518
O O10 0.463092 0.000000 0.500000
O O11 0.429838 0.019353 0.821917
#
# Coordination Sequence:
#
# PCOD8158431 Si02
#       6
#     4   8   8   8   8   4
#     4   9  22  32  54  90 106 144 200 230 268 341
#     4  10  19  37  57  78 116 147 186 234 278 332
#     4  10  21  38  56  78 115 153 186 231 279 335
#     4  11  20  35  61  86 113 140 182 239 282 335
#     4   9  21  37  56  79 112 150 184 226 284 344
#     4   9  20  36  56  88 108 144 190 226 288 335
#
# _framework density 19.49044
#
# number of rings (size 3 to 8) (size 9 to 14) (size 15 to 20)
#    0.000    2.400    1.000    1.800    5.600    0.000 
#    0.000    0.000   17.600    0.000    0.000    0.000 
#    0.000    0.000    0.000    0.000    0.000    0.000 
#
# Total GULP energy -247862.950930 kJ/mol
# GULP energy per Si atom -12393.147547 kJ/mol
# Density = 1.944608 g / cm^3
# Si number density = 19.490440 Si / 1000 Ang^3
#
#
#
# Elastic Constant Matrix: (Units=GPa)
#
#
# Indices 1 2 3 4 5 6 
#
# 1 118.5502 38.3693 26.5883 0.0000 0.0000 0.0000
# 2 38.3693 83.0387 7.0680 0.0000 0.0000 0.0000
# 3 26.5883 7.0680 48.5398 0.0000 0.0000 0.0000
# 4 0.0000 0.0000 0.0000 31.2756 0.0000 0.0000
# 5 0.0000 0.0000 0.0000 0.0000 18.3395 0.0000
# 6 0.0000 0.0000 0.0000 0.0000 0.0000 -22.5990
#
#
#
# Elastic Compliance Matrix: (Units=1/GPa)
#
#
# Indices 1 2 3 4 5 6 
#
# 1 0.011176 -0.004701 -0.005437 0.000000 0.000000 0.000000
# 2 -0.004701 0.014171 0.000512 0.000000 0.000000 0.000000
# 3 -0.005437 0.000512 0.023506 0.000000 0.000000 0.000000
# 4 0.000000 0.000000 0.000000 0.031974 0.000000 0.000000
# 5 0.000000 0.000000 0.000000 0.000000 0.054527 0.000000
# 6 0.000000 0.000000 0.000000 0.000000 0.000000 -0.044250
#
#
# Mechanical properties :
#
#
# Convention : Reuss Voigt Hill
#
# Bulk Modulus (GPa) = 33.78481 43.79778 38.79130
# Shear Modulus (GPa) = 41.58868 17.27676 29.43272
#
# Velocity S-wave (km/s) = 4.62432 2.98051 3.89023
# Velocity P-wave (km/s) = 6.77378 5.86215 6.33439
#
# Compressibility (1/GPa) = 0.02959910
#
# Stress axis : x y z
#
# Youngs Moduli (GPa) = 89.47448 70.56481 42.54314
#
# Poissons Ratio (x) = 0.33175 0.23132
# Poissons Ratio (y) = 0.42066 -0.02177
# Poissons Ratio (z) = 0.48651 -0.03611
#
# Static dielectric constant tensor:
#      x y z
#    x 3.551490 0.000000 0.000000 
#    y 0.000000 3.691870 0.000000 
#    z 0.000000 0.000000 3.749250 
# 
# 
# High freq. dielectric constant tensor:
#      x y z
#    x 1.744980 0.000000 0.000000 
#    y 0.000000 1.754760 0.000000 
#    z 0.000000 0.000000 1.763200 
# 
# From -- ./inp_files/10994.got.cif
#   From: 2010.03.12/outbox.cif.g09.slc.cpg/sg20_6_cif.got.tgz:10994.got - 2010.04.14 01:38:04.
