data_PCOD8158179
_publ_section_title
;
Structure prediction by ZEFSAII (Michael W. Deem and Ramdas Pophale) SiO2 
 PCOD8158179
Probable space group: C 2 2 21
;
_chemical_formula_sum "Si O2"
_cell_formula_units_Z 48
_cell_length_a 19.624091
_cell_length_b 12.085433
_cell_length_c 9.335299
_cell_angle_alpha 90.000000
_cell_angle_beta 90.000000
_cell_angle_gamma 90.000000
_cell_volume 2214.012134
_symmetry_space_group_name_H-M "C 2 2 21"
_symmetry_group_IT_number 20
_symmetry_cell_setting 'orthorhombic'
loop_
_space_group_symop_operation_xyz
x,y,z
-x,-y,1/2+z
x,-y,-z
-x,y,1/2-z
1/2+x,1/2+y,z
1/2-x,1/2-y,1/2+z
1/2+x,1/2-y,-z
1/2-x,1/2+y,1/2-z
loop_
_atom_site_type_symbol
_atom_site_label
_atom_site_fract_x
_atom_site_fract_y
_atom_site_fract_z
Si Si1 0.297731 0.051554 0.660566
Si Si2 0.979727 0.380499 0.547497
Si Si3 0.163806 0.155631 0.771760
Si Si4 0.935280 0.973982 0.662635
Si Si5 0.386685 0.872649 0.815302
Si Si6 0.872660 0.236487 0.425119
O O1 0.223689 0.072685 0.726786
O O2 0.331473 0.171842 0.661330
O O3 0.295024 0.000000 0.500000
O O4 0.337482 0.974531 0.775333
O O5 0.950920 0.500000 0.500000
O O6 0.943472 0.353394 0.695870
O O7 0.949924 0.284488 0.445574
O O8 0.063025 0.386654 0.546853
O O9 0.157759 0.260651 0.664231
O O10 0.095467 0.082735 0.763462
O O11 0.170264 0.207053 0.931299
O O12 0.879818 0.874903 0.667254
O O13 0.000000 0.934769 0.750000
O O14 0.956313 0.000000 0.500000
#
# Coordination Sequence:
#
# PCOD8158179 Si02
#       6
#     8   8   8   8   8   8
#     4  12  22  43  65  87 123 170 219 259 328 392
#     4  10  18  37  63  92 122 156 210 260 327 367
#     4  10  24  40  62  87 127 169 209 267 319 388
#     4  10  24  42  65  94 129 172 216 264 329 397
#     4  10  21  38  64  90 120 164 208 266 321 375
#     4  10  21  42  64  90 126 168 208 272 325 382
#
# _framework density 21.680098000000001
#
# number of rings (size 3 to 8) (size 9 to 14) (size 15 to 20)
#    0.000    1.667    5.000    0.000    9.333    2.000 
#    3.000    0.000    0.000    0.000    0.000    0.000 
#    0.000    0.000    0.000    0.000    0.000    0.000 
#
# Total GULP energy -297368.211078 kJ/mol
# GULP energy per Si atom -12390.342128 kJ/mol
# Density = 2.163075 g / cm^3
# Si number density = 21.680098 Si / 1000 Ang^3
#
#
#
# Elastic Constant Matrix: (Units=GPa)
#
#
# Indices 1 2 3 4 5 6 
#
# 1 95.4098 20.3137 28.9913 0.0000 0.0000 0.0000
# 2 20.3137 113.1555 20.6611 0.0000 0.0000 0.0000
# 3 28.9913 20.6611 30.2635 0.0000 0.0000 0.0000
# 4 0.0000 0.0000 0.0000 16.5064 0.0000 0.0000
# 5 0.0000 0.0000 0.0000 0.0000 23.1654 0.0000
# 6 0.0000 0.0000 0.0000 0.0000 0.0000 16.7068
#
#
#
# Elastic Compliance Matrix: (Units=1/GPa)
#
#
# Indices 1 2 3 4 5 6 
#
# 1 0.014785 -0.000078 -0.014111 0.000000 0.000000 0.000000
# 2 -0.000078 0.010096 -0.006818 0.000000 0.000000 0.000000
# 3 -0.014111 -0.006818 0.051216 0.000000 0.000000 0.000000
# 4 0.000000 0.000000 0.000000 0.060583 0.000000 0.000000
# 5 0.000000 0.000000 0.000000 0.000000 0.043168 0.000000
# 6 0.000000 0.000000 0.000000 0.000000 0.000000 0.059856
#
#
# Mechanical properties :
#
#
# Convention : Reuss Voigt Hill
#
# Bulk Modulus (GPa) = 29.33966 42.08457 35.71211
# Shear Modulus (GPa) = 17.06028 22.53324 19.79676
#
# Velocity S-wave (km/s) = 2.80823 3.22739 3.02508
# Velocity P-wave (km/s) = 4.90686 5.77424 5.35813
#
# Compressibility (1/GPa) = 0.03408356
#
# Stress axis : x y z
#
# Youngs Moduli (GPa) = 67.63446 99.04600 19.52533
#
# Poissons Ratio (x) = 0.00770 0.27552
# Poissons Ratio (y) = 0.00526 0.13313
# Poissons Ratio (z) = 0.95437 0.67533
#
# Static dielectric constant tensor:
#      x y z
#    x 4.069210 0.000000 0.000000 
#    y 0.000000 4.124890 0.000000 
#    z 0.000000 0.000000 3.839600 
# 
# 
# High freq. dielectric constant tensor:
#      x y z
#    x 1.842760 0.000000 0.000000 
#    y 0.000000 1.875080 0.000000 
#    z 0.000000 0.000000 1.809340 
# 
# From -- ./inp_files/15700.got.cif
#   From: 2010.03.12/outbox.cif.g09.slc.cpg/sg20_8_cif.got.tgz:15700.got - 2010.04.14 01:38:04.
