data_PCOD8158350
_publ_section_title
;
Structure prediction by ZEFSAII (Michael W. Deem and Ramdas Pophale) SiO2 
 PCOD8158350
Probable space group: C 2 2 21
;
_chemical_formula_sum "Si O2"
_cell_formula_units_Z 48
_cell_length_a 18.199743
_cell_length_b 8.470358
_cell_length_c 14.749801
_cell_angle_alpha 90.000000
_cell_angle_beta 90.000000
_cell_angle_gamma 90.000000
_cell_volume 2273.804819
_symmetry_space_group_name_H-M "C 2 2 21"
_symmetry_group_IT_number 20
_symmetry_cell_setting 'orthorhombic'
loop_
_space_group_symop_operation_xyz
x,y,z
-x,-y,1/2+z
x,-y,-z
-x,y,1/2-z
1/2+x,1/2+y,z
1/2-x,1/2-y,1/2+z
1/2+x,1/2-y,-z
1/2-x,1/2+y,1/2-z
loop_
_atom_site_type_symbol
_atom_site_label
_atom_site_fract_x
_atom_site_fract_y
_atom_site_fract_z
Si Si1 0.095943 0.062240 0.600762
Si Si2 0.736300 0.740212 0.651127
Si Si3 0.695936 0.899314 0.321161
Si Si4 0.957827 0.738234 0.841399
Si Si5 0.804457 0.180245 0.529975
Si Si6 0.534067 0.686423 0.981817
O O1 0.163057 0.137086 0.654375
O O2 0.031939 0.198174 0.592050
O O3 0.117696 0.000000 0.500000
O O4 0.069595 0.918769 0.664070
O O5 0.795295 0.670528 0.720942
O O6 0.772375 0.719669 0.552831
O O7 0.716655 0.918587 0.675509
O O8 0.612349 0.876284 0.354102
O O9 0.751126 0.798288 0.384695
O O10 0.000000 0.692340 0.750000
O O11 0.012414 0.716776 0.927259
O O12 0.886559 0.244467 0.554153
O O13 0.808582 0.000000 0.500000
O O14 0.538212 0.500000 0.000000
#
# Coordination Sequence:
#
# PCOD8158350 Si02
#       6
#     8   8   8   8   8   8
#     4   9  19  35  57  82 109 148 195 239 289 347
#     4  11  22  37  59  86 120 155 193 245 293 345
#     4  11  23  37  58  87 116 153 198 241 293 350
#     4  10  19  35  57  79 109 150 193 237 289 345
#     4   9  18  35  58  83 112 148 192 236 282 340
#     4   8  16  31  53  79 104 140 188 232 279 339
#
# _framework density 21.109991000000001
#
# number of rings (size 3 to 8) (size 9 to 14) (size 15 to 20)
#    0.000    2.667    0.000    4.000    0.000    5.333 
#    0.000    2.500    0.000    6.000    0.000    0.000 
#    0.000    0.000    0.000    0.000    0.000    0.000 
#
# Total GULP energy -297510.875136 kJ/mol
# GULP energy per Si atom -12396.286464 kJ/mol
# Density = 2.106194 g / cm^3
# Si number density = 21.109991 Si / 1000 Ang^3
#
#
#
# Elastic Constant Matrix: (Units=GPa)
#
#
# Indices 1 2 3 4 5 6 
#
# 1 122.9604 13.5682 18.8881 0.0000 0.0000 0.0000
# 2 13.5682 35.3865 8.7344 0.0000 0.0000 0.0000
# 3 18.8881 8.7344 51.0898 0.0000 0.0000 0.0000
# 4 0.0000 0.0000 0.0000 21.8132 0.0000 0.0000
# 5 0.0000 0.0000 0.0000 0.0000 40.6413 0.0000
# 6 0.0000 0.0000 0.0000 0.0000 0.0000 25.8392
#
#
#
# Elastic Compliance Matrix: (Units=1/GPa)
#
#
# Indices 1 2 3 4 5 6 
#
# 1 0.008863 -0.002704 -0.002815 0.000000 0.000000 0.000000
# 2 -0.002704 0.030329 -0.004186 0.000000 0.000000 0.000000
# 3 -0.002815 -0.004186 0.021330 0.000000 0.000000 0.000000
# 4 0.000000 0.000000 0.000000 0.045844 0.000000 0.000000
# 5 0.000000 0.000000 0.000000 0.000000 0.024606 0.000000
# 6 0.000000 0.000000 0.000000 0.000000 0.000000 0.038701
#
#
# Mechanical properties :
#
#
# Convention : Reuss Voigt Hill
#
# Bulk Modulus (GPa) = 24.32244 32.42422 28.37333
# Shear Modulus (GPa) = 24.65667 28.87514 26.76591
#
# Velocity S-wave (km/s) = 3.42132 3.70245 3.56466
# Velocity P-wave (km/s) = 5.21095 5.80263 5.51473
#
# Compressibility (1/GPa) = 0.04111430
#
# Stress axis : x y z
#
# Youngs Moduli (GPa) = 112.82352 32.97153 46.88337
#
# Poissons Ratio (x) = 0.08915 0.13196
# Poissons Ratio (y) = 0.30505 0.19623
# Poissons Ratio (z) = 0.31755 0.13800
#
# Static dielectric constant tensor:
#      x y z
#    x 4.368510 0.000000 0.000000 
#    y 0.000000 3.397950 0.000000 
#    z 0.000000 0.000000 3.655680 
# 
# 
# High freq. dielectric constant tensor:
#      x y z
#    x 1.845190 0.000000 0.000000 
#    y 0.000000 1.790990 0.000000 
#    z 0.000000 0.000000 1.813060 
# 
# From -- ./inp_files/21296.got.cif
#   From: 2010.03.12/outbox.cif.g09.slc.cpg/sg20_11_cif.got.tgz:21296.got - 2010.04.14 01:38:04.
