data_PCOD8158625
_publ_section_title
;
Structure prediction by ZEFSAII (Michael W. Deem and Ramdas Pophale) SiO2 
 PCOD8158625
Probable space group: C 2 2 21
;
_chemical_formula_sum "Si O2"
_cell_formula_units_Z 48
_cell_length_a 13.430182
_cell_length_b 17.716906
_cell_length_c 9.740447
_cell_angle_alpha 90.000000
_cell_angle_beta 90.000000
_cell_angle_gamma 90.000000
_cell_volume 2317.654350
_symmetry_space_group_name_H-M "C 2 2 21"
_symmetry_group_IT_number 20
_symmetry_cell_setting 'orthorhombic'
loop_
_space_group_symop_operation_xyz
x,y,z
-x,-y,1/2+z
x,-y,-z
-x,y,1/2-z
1/2+x,1/2+y,z
1/2-x,1/2-y,1/2+z
1/2+x,1/2-y,-z
1/2-x,1/2+y,1/2-z
loop_
_atom_site_type_symbol
_atom_site_label
_atom_site_fract_x
_atom_site_fract_y
_atom_site_fract_z
Si Si1 0.922965 0.680367 0.364108
Si Si2 0.628549 0.335184 0.021296
Si Si3 0.252390 0.952640 0.132683
Si Si4 0.733634 0.604984 0.252249
Si Si5 0.435234 0.684235 0.113709
Si Si6 0.445099 0.853554 0.106418
O O1 0.861874 0.747500 0.438235
O O2 0.845628 0.628986 0.282825
O O3 0.000000 0.711604 0.250000
O O4 0.978717 0.630268 0.480861
O O5 0.669715 0.386347 0.146820
O O6 0.696544 0.354435 0.887927
O O7 0.510433 0.350318 0.999850
O O8 0.361214 0.917219 0.113807
O O9 0.239421 0.013409 0.254239
O O10 0.224407 0.000000 0.000000
O O11 0.659825 0.629928 0.374604
O O12 0.500000 0.687847 0.250000
O O13 0.399671 0.769639 0.078945
O O14 0.500000 0.856175 0.250000
#
# Coordination Sequence:
#
# PCOD8158625 Si02
#       6
#     8   8   8   8   8   8
#     4  11  22  37  62  93 117 153 207 251 293 359
#     4   9  19  36  57  83 117 156 197 247 304 356
#     4  10  20  35  56  84 119 157 191 240 309 361
#     4  10  20  36  60  87 118 155 197 248 306 362
#     4   8  16  34  59  81 105 149 200 242 289 348
#     4  10  21  38  61  86 120 160 197 246 303 358
#
# _framework density 20.710592999999999
#
# number of rings (size 3 to 8) (size 9 to 14) (size 15 to 20)
#    0.000    2.333    0.000    4.000    0.000    3.333 
#    0.000    5.833    0.000    4.000    0.000    0.000 
#    0.000    0.000    0.000    0.000    0.000    0.000 
#
# Total GULP energy -297389.124904 kJ/mol
# GULP energy per Si atom -12391.213538 kJ/mol
# Density = 2.066345 g / cm^3
# Si number density = 20.710593 Si / 1000 Ang^3
#
#
#
# Elastic Constant Matrix: (Units=GPa)
#
#
# Indices 1 2 3 4 5 6 
#
# 1 95.7928 57.7600 27.8903 0.0000 0.0000 0.0000
# 2 57.7600 99.5775 20.2193 0.0000 0.0000 0.0000
# 3 27.8903 20.2193 61.1754 0.0000 0.0000 0.0000
# 4 0.0000 0.0000 0.0000 24.0750 0.0000 0.0000
# 5 0.0000 0.0000 0.0000 0.0000 32.3684 0.0000
# 6 0.0000 0.0000 0.0000 0.0000 0.0000 33.9993
#
#
#
# Elastic Compliance Matrix: (Units=1/GPa)
#
#
# Indices 1 2 3 4 5 6 
#
# 1 0.017327 -0.009054 -0.004907 0.000000 0.000000 0.000000
# 2 -0.009054 0.015496 -0.000994 0.000000 0.000000 0.000000
# 3 -0.004907 -0.000994 0.018912 0.000000 0.000000 0.000000
# 4 0.000000 0.000000 0.000000 0.041537 0.000000 0.000000
# 5 0.000000 0.000000 0.000000 0.000000 0.030894 0.000000
# 6 0.000000 0.000000 0.000000 0.000000 0.000000 0.029412
#
#
# Mechanical properties :
#
#
# Convention : Reuss Voigt Hill
#
# Bulk Modulus (GPa) = 45.81853 52.03166 48.92509
# Shear Modulus (GPa) = 26.21026 28.13359 27.17193
#
# Velocity S-wave (km/s) = 3.56131 3.68967 3.62606
# Velocity P-wave (km/s) = 6.25155 6.58250 6.41916
#
# Compressibility (1/GPa) = 0.02182523
#
# Stress axis : x y z
#
# Youngs Moduli (GPa) = 57.71201 64.53187 52.87628
#
# Poissons Ratio (x) = 0.58430 0.25947
# Poissons Ratio (y) = 0.52255 0.05255
# Poissons Ratio (z) = 0.28320 0.06413
#
# Static dielectric constant tensor:
#      x y z
#    x 3.875490 0.000000 0.000000 
#    y 0.000000 4.129520 0.000000 
#    z 0.000000 0.000000 3.853790 
# 
# 
# High freq. dielectric constant tensor:
#      x y z
#    x 1.813150 0.000000 0.000000 
#    y 0.000000 1.801590 0.000000 
#    z 0.000000 0.000000 1.788710 
# 
# From -- ./inp_files/8381.got.cif
#   From: 2010.03.12/outbox.cif.g09.slc.cpg/sg20_5_cif.got.tgz:8381.got - 2010.04.14 01:38:04.
