data_PCOD8158460
_publ_section_title
;
Structure prediction by ZEFSAII (Michael W. Deem and Ramdas Pophale) SiO2 
 PCOD8158460
Probable space group: C 2 2 21
;
_chemical_formula_sum "Si O2"
_cell_formula_units_Z 64
_cell_length_a 11.872978
_cell_length_b 16.475399
_cell_length_c 15.436067
_cell_angle_alpha 90.000000
_cell_angle_beta 90.000000
_cell_angle_gamma 90.000000
_cell_volume 3019.480708
_symmetry_space_group_name_H-M "C 2 2 21"
_symmetry_group_IT_number 20
_symmetry_cell_setting 'orthorhombic'
loop_
_space_group_symop_operation_xyz
x,y,z
-x,-y,1/2+z
x,-y,-z
-x,y,1/2-z
1/2+x,1/2+y,z
1/2-x,1/2-y,1/2+z
1/2+x,1/2-y,-z
1/2-x,1/2+y,1/2-z
loop_
_atom_site_type_symbol
_atom_site_label
_atom_site_fract_x
_atom_site_fract_y
_atom_site_fract_z
Si Si1 0.624577 0.631822 0.000597
Si Si2 0.696419 0.953000 0.605223
Si Si3 0.012900 0.659480 0.092133
Si Si4 0.027800 0.841846 0.348997
Si Si5 0.120091 0.534639 0.212480
Si Si6 0.315576 0.138558 0.883192
Si Si7 0.547758 0.216370 0.911837
Si Si8 0.773367 0.373587 0.313268
O O1 0.681527 0.561513 0.059908
O O2 0.555191 0.688360 0.066306
O O3 0.542204 0.604908 0.920628
O O4 0.727550 0.678524 0.950803
O O5 0.602672 0.888930 0.573190
O O6 0.704001 0.940997 0.709262
O O7 0.659683 0.045831 0.583592
O O8 0.989287 0.746108 0.135596
O O9 0.100514 0.612356 0.152858
O O10 0.073025 0.667663 0.999989
O O11 0.157823 0.863114 0.364585
O O12 0.000000 0.865795 0.250000
O O13 0.173437 0.460300 0.159581
O O14 0.000000 0.503752 0.250000
O O15 0.424993 0.194308 0.875745
O O16 0.255989 0.133626 0.789789
O O17 0.641409 0.196919 0.841243
#
# Coordination Sequence:
#
# PCOD8158460 Si02
#       8
#     8   8   8   8   8   8   8   8
#     4  11  23  38  60  94 125 168 216 257 310 388
#     4  10  19  37  66  92 118 164 212 262 306 382
#     4  10  20  35  61  95 126 156 209 261 323 373
#     4  11  22  39  60  88 123 172 213 255 315 396
#     4   9  19  36  64  97 125 154 211 266 324 378
#     4  11  22  41  65  95 120 166 218 261 321 386
#     4  11  23  35  62  97 132 155 211 275 323 375
#     4  11  22  38  63  92 127 164 208 271 327 375
#
# _framework density 21.195696999999999
#
# number of rings (size 3 to 8) (size 9 to 14) (size 15 to 20)
#    0.000    1.500    2.500    4.875    1.750    1.500 
#    0.000    0.000    5.500    0.000   13.000    0.000 
#    0.000    0.000    0.000    0.000    0.000    0.000 
#
# Total GULP energy -396619.137691 kJ/mol
# GULP energy per Si atom -12394.348053 kJ/mol
# Density = 2.114745 g / cm^3
# Si number density = 21.195697 Si / 1000 Ang^3
#
#
#
# Elastic Constant Matrix: (Units=GPa)
#
#
# Indices 1 2 3 4 5 6 
#
# 1 102.2244 11.8709 35.4066 0.0000 0.0000 0.0000
# 2 11.8709 53.8414 30.2826 0.0000 0.0000 0.0000
# 3 35.4066 30.2826 79.3034 0.0000 0.0000 0.0000
# 4 0.0000 0.0000 0.0000 22.6759 0.0000 0.0000
# 5 0.0000 0.0000 0.0000 0.0000 46.3570 0.0000
# 6 0.0000 0.0000 0.0000 0.0000 0.0000 26.3449
#
#
#
# Elastic Compliance Matrix: (Units=1/GPa)
#
#
# Indices 1 2 3 4 5 6 
#
# 1 0.011580 0.000452 -0.005343 0.000000 0.000000 0.000000
# 2 0.000452 0.023671 -0.009241 0.000000 0.000000 0.000000
# 3 -0.005343 -0.009241 0.018524 0.000000 0.000000 0.000000
# 4 0.000000 0.000000 0.000000 0.044100 0.000000 0.000000
# 5 0.000000 0.000000 0.000000 0.000000 0.021572 0.000000
# 6 0.000000 0.000000 0.000000 0.000000 0.000000 0.037958
#
#
# Mechanical properties :
#
#
# Convention : Reuss Voigt Hill
#
# Bulk Modulus (GPa) = 39.19763 43.38772 41.29268
# Shear Modulus (GPa) = 25.75044 29.59618 27.67331
#
# Velocity S-wave (km/s) = 3.48931 3.74080 3.61724
# Velocity P-wave (km/s) = 5.89636 6.25881 6.08028
#
# Compressibility (1/GPa) = 0.02551175
#
# Stress axis : x y z
#
# Youngs Moduli (GPa) = 86.35213 42.24632 53.98463
#
# Poissons Ratio (x) = -0.01909 0.28843
# Poissons Ratio (y) = -0.03901 0.49885
# Poissons Ratio (z) = 0.46137 0.39038
#
# Static dielectric constant tensor:
#      x y z
#    x 3.824320 0.000000 0.000000 
#    y 0.000000 3.682020 0.000000 
#    z 0.000000 0.000000 4.123330 
# 
# 
# High freq. dielectric constant tensor:
#      x y z
#    x 1.817610 0.000000 0.000000 
#    y 0.000000 1.806570 0.000000 
#    z 0.000000 0.000000 1.846210 
# 
# From -- ./inp_files/24527.got.cif
#   From: 2010.03.12/outbox.cif.g09.slc.cpg/sg20_13_cif.got.tgz:24527.got - 2010.04.14 01:38:04.
