data_PCOD8158620
_publ_section_title
;
Structure prediction by ZEFSAII (Michael W. Deem and Ramdas Pophale) SiO2 
 PCOD8158620
Probable space group: C 2 2 21
;
_chemical_formula_sum "Si O2"
_cell_formula_units_Z 64
_cell_length_a 8.836411
_cell_length_b 22.737977
_cell_length_c 16.088671
_cell_angle_alpha 90.000000
_cell_angle_beta 90.000000
_cell_angle_gamma 90.000000
_cell_volume 3232.569726
_symmetry_space_group_name_H-M "C 2 2 21"
_symmetry_group_IT_number 20
_symmetry_cell_setting 'orthorhombic'
loop_
_space_group_symop_operation_xyz
x,y,z
-x,-y,1/2+z
x,-y,-z
-x,y,1/2-z
1/2+x,1/2+y,z
1/2-x,1/2-y,1/2+z
1/2+x,1/2-y,-z
1/2-x,1/2+y,1/2-z
loop_
_atom_site_type_symbol
_atom_site_label
_atom_site_fract_x
_atom_site_fract_y
_atom_site_fract_z
Si Si1 0.175179 0.356937 0.250000
Si Si2 0.820915 0.982023 0.250000
Si Si3 0.329529 0.329873 0.933650
Si Si4 0.169203 0.780865 0.117837
Si Si5 0.330797 0.280865 0.117837
Si Si6 0.319686 0.462599 0.578404
Si Si7 0.819686 0.962599 0.921596
Si Si8 0.670471 0.329873 0.933650
O O1 0.275782 0.414658 0.250000
O O2 0.213559 0.319135 0.330571
O O3 0.213559 0.319135 0.169429
O O4 0.000000 0.374111 0.250000
O O5 0.000000 0.986658 0.250000
O O6 0.756725 0.012318 0.333986
O O7 0.756725 0.012318 0.166014
O O8 0.223898 0.286818 0.879983
O O9 0.262360 0.395607 0.929635
O O10 0.500000 0.328518 0.897173
O O11 0.330351 0.307920 0.027191
O O12 0.000000 0.783313 0.155759
O O13 0.169649 0.807920 0.027191
O O14 0.276102 0.213182 0.120017
O O15 0.255261 0.500000 0.500000
O O16 0.500000 0.465215 0.576167
O O17 0.262360 0.395607 0.570365
O O18 0.755261 0.000000 0.000000
#
# Coordination Sequence:
#
# PCOD8158620 Si02
#       8
#     8   8   8   8   8   8   8   8
#     4  12  24  37  54  77 107 140 180 228 277 326
#     4  10  20  35  56  79 103 138 184 226 271 328
#     4   9  18  34  56  82 111 142 179 222 269 324
#     4  10  20  35  56  80 108 142 179 222 273 327
#     4  10  20  35  56  80 108 142 179 222 273 327
#     4   9  17  31  53  80 110 145 183 222 264 319
#     4   9  17  31  53  80 110 145 183 222 264 319
#     4   9  18  34  56  82 111 142 179 222 269 324
#
# _framework density 19.798490000000001
#
# number of rings (size 3 to 8) (size 9 to 14) (size 15 to 20)
#    0.000    2.250    0.000    3.375    0.000    6.000 
#    0.000    3.750    0.000    3.000    0.000    0.000 
#    0.000    0.000    0.000    0.000    0.000    0.000 
#
# Total GULP energy -396780.609958 kJ/mol
# GULP energy per Si atom -12399.394061 kJ/mol
# Density = 1.975343 g / cm^3
# Si number density = 19.798490 Si / 1000 Ang^3
#
#
#
# Elastic Constant Matrix: (Units=GPa)
#
#
# Indices 1 2 3 4 5 6 
#
# 1 31.8414 7.4391 17.7080 0.0000 0.0000 0.0000
# 2 7.4391 172.4977 58.1374 0.0000 0.0000 0.0000
# 3 17.7080 58.1374 90.9377 0.0000 0.0000 0.0000
# 4 0.0000 0.0000 0.0000 58.1600 0.0000 0.0000
# 5 0.0000 0.0000 0.0000 0.0000 17.7189 0.0000
# 6 0.0000 0.0000 0.0000 0.0000 0.0000 31.2308
#
#
#
# Elastic Compliance Matrix: (Units=1/GPa)
#
#
# Indices 1 2 3 4 5 6 
#
# 1 0.035358 0.001014 -0.007534 0.000000 0.000000 0.000000
# 2 0.001014 0.007418 -0.004940 0.000000 0.000000 0.000000
# 3 -0.007534 -0.004940 0.015622 0.000000 0.000000 0.000000
# 4 0.000000 0.000000 0.000000 0.017194 0.000000 0.000000
# 5 0.000000 0.000000 0.000000 0.000000 0.056437 0.000000
# 6 0.000000 0.000000 0.000000 0.000000 0.000000 0.032020
#
#
# Mechanical properties :
#
#
# Convention : Reuss Voigt Hill
#
# Bulk Modulus (GPa) = 28.18531 51.31620 39.75076
# Shear Modulus (GPa) = 25.15157 35.55475 30.35316
#
# Velocity S-wave (km/s) = 3.56810 4.24232 3.91974
# Velocity P-wave (km/s) = 5.58947 7.06908 6.37236
#
# Compressibility (1/GPa) = 0.03547947
#
# Stress axis : x y z
#
# Youngs Moduli (GPa) = 28.28188 134.79916 64.01298
#
# Poissons Ratio (x) = -0.13671 0.48225
# Poissons Ratio (y) = -0.02868 0.31624
# Poissons Ratio (z) = 0.21306 0.66593
#
# Static dielectric constant tensor:
#      x y z
#    x 3.395630 0.000000 0.000000 
#    y 0.000000 3.781060 0.000000 
#    z 0.000000 0.000000 3.680010 
# 
# 
# High freq. dielectric constant tensor:
#      x y z
#    x 1.737360 0.000000 0.000000 
#    y 0.000000 1.786580 0.000000 
#    z 0.000000 0.000000 1.772060 
# 
# From -- ./inp_files/23932.got.cif
#   From: 2010.03.12/outbox.cif.g09.slc.cpg/sg20_12_cif.got.tgz:23932.got - 2010.04.14 01:38:04.
