data_PCOD8158676
_publ_section_title
;
Structure prediction by ZEFSAII (Michael W. Deem and Ramdas Pophale) SiO2 
 PCOD8158676
Probable space group: C 2 2 21
;
_chemical_formula_sum "Si O2"
_cell_formula_units_Z 48
_cell_length_a 8.598736
_cell_length_b 31.979094
_cell_length_c 9.018839
_cell_angle_alpha 90.000000
_cell_angle_beta 90.000000
_cell_angle_gamma 90.000000
_cell_volume 2479.998426
_symmetry_space_group_name_H-M "C 2 2 21"
_symmetry_group_IT_number 20
_symmetry_cell_setting 'orthorhombic'
loop_
_space_group_symop_operation_xyz
x,y,z
-x,-y,1/2+z
x,-y,-z
-x,y,1/2-z
1/2+x,1/2+y,z
1/2-x,1/2-y,1/2+z
1/2+x,1/2-y,-z
1/2-x,1/2+y,1/2-z
loop_
_atom_site_type_symbol
_atom_site_label
_atom_site_fract_x
_atom_site_fract_y
_atom_site_fract_z
Si Si1 0.077764 0.290214 0.096177
Si Si2 0.339949 0.882555 0.432398
Si Si3 0.559507 0.958675 0.410215
Si Si4 0.151022 0.911798 0.158327
Si Si5 0.531805 0.361183 0.577398
Si Si6 0.432272 0.277935 0.091696
O O1 0.065088 0.339426 0.062112
O O2 0.250272 0.273176 0.109584
O O3 0.000000 0.278151 0.250000
O O4 0.996365 0.266713 0.959633
O O5 0.458951 0.919621 0.473250
O O6 0.265713 0.886048 0.267515
O O7 0.199981 0.882213 0.550292
O O8 0.500000 0.970025 0.250000
O O9 0.745093 0.949452 0.407930
O O10 0.524832 0.000000 0.500000
O O11 0.000000 0.928353 0.250000
O O12 0.099892 0.883811 0.019864
O O13 0.500000 0.366051 0.750000
O O14 0.528494 0.312849 0.530711
O O15 0.500000 0.291876 0.250000
#
# Coordination Sequence:
#
# PCOD8158676 Si02
#       6
#     8   8   8   8   8   8
#     4  11  21  37  58  82 111 147 195 239 279 333
#     4   9  20  39  60  83 110 150 189 230 285 337
#     4  10  21  38  60  86 115 147 187 234 284 339
#     4   9  18  37  61  82 112 151 187 225 284 344
#     4  10  20  36  58  85 115 149 191 234 276 331
#     4  11  23  37  55  82 116 154 190 234 287 336
#
# _framework density 19.354851
#
# number of rings (size 3 to 8) (size 9 to 14) (size 15 to 20)
#    0.000    2.000    0.000    5.500    0.000    4.000 
#    0.000    9.167    0.000    0.000    0.000    1.167 
#    0.000    0.000    0.000    0.000    0.000    0.000 
#
# Total GULP energy -297606.276987 kJ/mol
# GULP energy per Si atom -12400.261541 kJ/mol
# Density = 1.931080 g / cm^3
# Si number density = 19.354851 Si / 1000 Ang^3
#
#
#
# Elastic Constant Matrix: (Units=GPa)
#
#
# Indices 1 2 3 4 5 6 
#
# 1 123.7109 76.9892 48.9166 0.0000 0.0000 0.0000
# 2 76.9892 126.8265 49.2844 0.0000 0.0000 0.0000
# 3 48.9166 49.2844 112.2426 0.0000 0.0000 0.0000
# 4 0.0000 0.0000 0.0000 22.3074 0.0000 0.0000
# 5 0.0000 0.0000 0.0000 0.0000 26.7978 0.0000
# 6 0.0000 0.0000 0.0000 0.0000 0.0000 22.0307
#
#
#
# Elastic Compliance Matrix: (Units=1/GPa)
#
#
# Indices 1 2 3 4 5 6 
#
# 1 0.013680 -0.007220 -0.002792 0.000000 0.000000 0.000000
# 2 -0.007220 0.013317 -0.002701 0.000000 0.000000 0.000000
# 3 -0.002792 -0.002701 0.011312 0.000000 0.000000 0.000000
# 4 0.000000 0.000000 0.000000 0.044828 0.000000 0.000000
# 5 0.000000 0.000000 0.000000 0.000000 0.037317 0.000000
# 6 0.000000 0.000000 0.000000 0.000000 0.000000 0.045391
#
#
# Mechanical properties :
#
#
# Convention : Reuss Voigt Hill
#
# Bulk Modulus (GPa) = 77.61425 79.24005 78.42715
# Shear Modulus (GPa) = 25.56695 26.73317 26.15006
#
# Velocity S-wave (km/s) = 3.63844 3.72050 3.67970
# Velocity P-wave (km/s) = 7.60518 7.71270 7.65913
#
# Compressibility (1/GPa) = 0.01288423
#
# Stress axis : x y z
#
# Youngs Moduli (GPa) = 73.09761 75.09210 88.40152
#
# Poissons Ratio (x) = 0.54213 0.24682
# Poissons Ratio (y) = 0.52774 0.23877
# Poissons Ratio (z) = 0.20409 0.20282
#
# Static dielectric constant tensor:
#      x y z
#    x 3.826280 0.000000 0.000000 
#    y 0.000000 3.403260 0.000000 
#    z 0.000000 0.000000 3.395980 
# 
# 
# High freq. dielectric constant tensor:
#      x y z
#    x 1.769670 0.000000 0.000000 
#    y 0.000000 1.741120 0.000000 
#    z 0.000000 0.000000 1.745710 
# 
# From -- ./inp_files/6444.got.cif
#   From: 2010.03.12/outbox.cif.g09.slc.cpg/sg20_4_cif.got.tgz:6444.got - 2010.04.14 01:38:04.
