data_PCOD8158493
_publ_section_title
;
Structure prediction by ZEFSAII (Michael W. Deem and Ramdas Pophale) SiO2 
 PCOD8158493
Probable space group: C 2 2 21
;
_chemical_formula_sum "Si O2"
_cell_formula_units_Z 60
_cell_length_a 8.099726
_cell_length_b 15.714293
_cell_length_c 25.608449
_cell_angle_alpha 90.000000
_cell_angle_beta 90.000000
_cell_angle_gamma 90.000000
_cell_volume 3259.480971
_symmetry_space_group_name_H-M "C 2 2 21"
_symmetry_group_IT_number 20
_symmetry_cell_setting 'orthorhombic'
loop_
_space_group_symop_operation_xyz
x,y,z
-x,-y,1/2+z
x,-y,-z
-x,y,1/2-z
1/2+x,1/2+y,z
1/2-x,1/2-y,1/2+z
1/2+x,1/2-y,-z
1/2-x,1/2+y,1/2-z
loop_
_atom_site_type_symbol
_atom_site_label
_atom_site_fract_x
_atom_site_fract_y
_atom_site_fract_z
Si Si1 0.027633 0.838078 0.959388
Si Si2 0.699821 0.795268 0.801727
Si Si3 0.160255 0.712983 0.315493
Si Si4 0.341635 0.173647 0.487883
Si Si5 0.975554 0.572665 0.928547
Si Si6 0.508088 0.234100 0.859471
Si Si7 0.202431 0.000000 0.000000
Si Si8 0.039190 0.395352 0.882092
O O1 0.849966 0.839646 0.984242
O O2 0.014404 0.814651 0.898299
O O3 0.134220 0.767974 0.989887
O O4 0.099252 0.931912 0.967044
O O5 0.524410 0.742721 0.811717
O O6 0.711031 0.823084 0.741392
O O7 0.866535 0.745009 0.815743
O O8 0.684943 0.878299 0.839456
O O9 0.307866 0.775310 0.334407
O O10 0.136921 0.633651 0.356203
O O11 0.398583 0.099191 0.526460
O O12 0.435228 0.163592 0.432961
O O13 0.951512 0.649847 0.889053
O O14 0.046397 0.493773 0.896192
O O15 0.804866 0.549853 0.956226
#
# Coordination Sequence:
#
# PCOD8158493 Si02
#       8
#     8   8   8   8   8   8   4   8
#     4  11  24  36  56  89 117 167 200 243 303 364
#     4   9  20  38  62  86 112 148 207 257 297 362
#     4   9  20  37  64  86 108 156 202 251 313 351
#     4  11  22  37  58  84 127 161 203 241 301 370
#     4  11  24  37  57  92 124 164 194 247 302 372
#     4  11  21  38  62  87 118 159 204 246 310 364
#     4  12  24  36  54  84 136 154 204 250 286 360
#     4  10  19  39  60  81 123 156 195 252 299 361
#
# _framework density 18.407838999999999
#
# number of rings (size 3 to 8) (size 9 to 14) (size 15 to 20)
#    0.800    0.800    2.667    2.800    5.600    0.000 
#    0.000    2.667    0.000    0.000    0.000    0.000 
#    0.000    0.000    0.000    0.000    0.000    0.000 
#
# Total GULP energy -371671.090315 kJ/mol
# GULP energy per Si atom -12389.036344 kJ/mol
# Density = 1.836594 g / cm^3
# Si number density = 18.407839 Si / 1000 Ang^3
#
#
#
# Elastic Constant Matrix: (Units=GPa)
#
#
# Indices 1 2 3 4 5 6 
#
# 1 126.4315 36.4533 35.4721 0.0000 0.0000 0.0000
# 2 36.4533 71.8808 29.5309 0.0000 0.0000 0.0000
# 3 35.4721 29.5309 87.2690 0.0000 0.0000 0.0000
# 4 0.0000 0.0000 0.0000 14.7737 0.0000 0.0000
# 5 0.0000 0.0000 0.0000 0.0000 24.8521 0.0000
# 6 0.0000 0.0000 0.0000 0.0000 0.0000 25.3930
#
#
#
# Elastic Compliance Matrix: (Units=1/GPa)
#
#
# Indices 1 2 3 4 5 6 
#
# 1 0.009770 -0.003860 -0.002665 0.000000 0.000000 0.000000
# 2 -0.003860 0.017683 -0.004415 0.000000 0.000000 0.000000
# 3 -0.002665 -0.004415 0.014036 0.000000 0.000000 0.000000
# 4 0.000000 0.000000 0.000000 0.067688 0.000000 0.000000
# 5 0.000000 0.000000 0.000000 0.000000 0.040238 0.000000
# 6 0.000000 0.000000 0.000000 0.000000 0.000000 0.039381
#
#
# Mechanical properties :
#
#
# Convention : Reuss Voigt Hill
#
# Bulk Modulus (GPa) = 50.99535 54.27708 52.63621
# Shear Modulus (GPa) = 23.01895 25.27875 24.14885
#
# Velocity S-wave (km/s) = 3.54007 3.70977 3.62592
# Velocity P-wave (km/s) = 6.66879 6.92096 6.79604
#
# Compressibility (1/GPa) = 0.01960963
#
# Stress axis : x y z
#
# Youngs Moduli (GPa) = 102.35389 56.55103 71.24510
#
# Poissons Ratio (x) = 0.21828 0.18987
# Poissons Ratio (y) = 0.39507 0.31454
# Poissons Ratio (z) = 0.27278 0.24967
#
# Static dielectric constant tensor:
#      x y z
#    x 3.491060 0.000000 0.000000 
#    y 0.000000 2.782790 0.000000 
#    z 0.000000 0.000000 3.567150 
# 
# 
# High freq. dielectric constant tensor:
#      x y z
#    x 1.722530 0.000000 0.000000 
#    y 0.000000 1.676900 0.000000 
#    z 0.000000 0.000000 1.727020 
# 
# From -- ./inp_files/30182.got.cif
#   From: 2010.03.12/outbox.cif.g09.slc.cpg/sg20_16_cif.got.tgz:30182.got - 2010.04.14 01:38:04.
