data_PCOD8158028
_publ_section_title
;
Structure prediction by ZEFSAII (Michael W. Deem and Ramdas Pophale) SiO2 
 PCOD8158028
Probable space group: C 2 2 21
;
_chemical_formula_sum "Si O2"
_cell_formula_units_Z 44
_cell_length_a 25.776840
_cell_length_b 8.710165
_cell_length_c 9.293313
_cell_angle_alpha 90.000000
_cell_angle_beta 90.000000
_cell_angle_gamma 90.000000
_cell_volume 2086.539556
_symmetry_space_group_name_H-M "C 2 2 21"
_symmetry_group_IT_number 20
_symmetry_cell_setting 'orthorhombic'
loop_
_space_group_symop_operation_xyz
x,y,z
-x,-y,1/2+z
x,-y,-z
-x,y,1/2-z
1/2+x,1/2+y,z
1/2-x,1/2-y,1/2+z
1/2+x,1/2-y,-z
1/2-x,1/2+y,1/2-z
loop_
_atom_site_type_symbol
_atom_site_label
_atom_site_fract_x
_atom_site_fract_y
_atom_site_fract_z
Si Si1 0.041069 0.666668 0.543755
Si Si2 0.859067 0.426471 0.157002
Si Si3 0.181112 0.269828 0.758733
Si Si4 0.237090 0.676233 0.526776
Si Si5 0.910217 0.092053 0.855188
Si Si6 0.500000 0.611613 0.250000
O O1 0.018196 0.500000 0.500000
O O2 0.085047 0.656035 0.673773
O O3 0.064104 0.745796 0.400906
O O4 0.996872 0.778447 0.608692
O O5 0.846791 0.563416 0.268254
O O6 0.810529 0.308920 0.143202
O O7 0.865512 0.500000 0.000000
O O8 0.220730 0.249779 0.624812
O O9 0.212266 0.257084 0.908040
O O10 0.139581 0.132246 0.742257
O O11 0.251026 0.500000 0.500000
O O12 0.949160 0.994626 0.756235
O O13 0.894548 0.000000 0.000000
#
# Coordination Sequence:
#
# PCOD8158028 Si02
#       6
#     8   8   8   8   8   4
#     4  10  17  39  65  80 112 166 222 255 314 392
#     4   8  15  33  58  83 104 155 221 248 295 395
#     4  10  18  36  62  88 124 167 213 265 326 388
#     4   9  19  34  56  93 122 162 216 262 309 396
#     4  10  20  36  60  89 123 162 214 268 331 396
#     4  10  24  34  56  98 116 152 226 268 316 382
#
# _framework density 21.087547000000001
#
# number of rings (size 3 to 8) (size 9 to 14) (size 15 to 20)
#    0.000    2.909    5.455    0.000    0.000    3.636 
#    0.000    2.727    0.000    0.000    0.000    0.000 
#    0.000    0.000    0.000    0.000    0.000    0.000 
#
# Total GULP energy -272542.368718 kJ/mol
# GULP energy per Si atom -12388.289487 kJ/mol
# Density = 2.103955 g / cm^3
# Si number density = 21.087547 Si / 1000 Ang^3
#
#
#
# Elastic Constant Matrix: (Units=GPa)
#
#
# Indices 1 2 3 4 5 6 
#
# 1 88.8349 39.6827 42.0282 0.0000 0.0000 0.0000
# 2 39.6827 97.2080 26.8452 0.0000 0.0000 0.0000
# 3 42.0282 26.8452 45.5436 0.0000 0.0000 0.0000
# 4 0.0000 0.0000 0.0000 32.1854 0.0000 0.0000
# 5 0.0000 0.0000 0.0000 0.0000 40.0236 0.0000
# 6 0.0000 0.0000 0.0000 0.0000 0.0000 27.9035
#
#
#
# Elastic Compliance Matrix: (Units=1/GPa)
#
#
# Indices 1 2 3 4 5 6 
#
# 1 0.021133 -0.003872 -0.017220 0.000000 0.000000 0.000000
# 2 -0.003872 0.012997 -0.004088 0.000000 0.000000 0.000000
# 3 -0.017220 -0.004088 0.040257 0.000000 0.000000 0.000000
# 4 0.000000 0.000000 0.000000 0.031070 0.000000 0.000000
# 5 0.000000 0.000000 0.000000 0.000000 0.024985 0.000000
# 6 0.000000 0.000000 0.000000 0.000000 0.000000 0.035838
#
#
# Mechanical properties :
#
#
# Convention : Reuss Voigt Hill
#
# Bulk Modulus (GPa) = 41.61776 49.85543 45.73659
# Shear Modulus (GPa) = 22.25704 28.22452 25.24078
#
# Velocity S-wave (km/s) = 3.25231 3.66245 3.46345
# Velocity P-wave (km/s) = 5.82082 6.44811 6.14248
#
# Compressibility (1/GPa) = 0.02402820
#
# Stress axis : x y z
#
# Youngs Moduli (GPa) = 47.31930 76.94289 24.84030
#
# Poissons Ratio (x) = 0.29789 0.42774
# Poissons Ratio (y) = 0.18320 0.10155
# Poissons Ratio (z) = 0.81483 0.31454
#
# Static dielectric constant tensor:
#      x y z
#    x 4.380730 0.000000 0.000000 
#    y 0.000000 3.944920 0.000000 
#    z 0.000000 0.000000 3.278860 
# 
# 
# High freq. dielectric constant tensor:
#      x y z
#    x 1.815620 0.000000 0.000000 
#    y 0.000000 1.831920 0.000000 
#    z 0.000000 0.000000 1.770490 
# 
# From -- ./inp_files/16592.got.cif
#   From: 2010.03.12/outbox.cif.g09.slc.cpg/sg20_9_cif.got.tgz:16592.got - 2010.04.14 01:38:04.
