data_PCOD8158007
_publ_section_title
;
Structure prediction by ZEFSAII (Michael W. Deem and Ramdas Pophale) SiO2 
 PCOD8158007
Probable space group: C 2 2 21
;
_chemical_formula_sum "Si O2"
_cell_formula_units_Z 56
_cell_length_a 8.934105
_cell_length_b 17.809175
_cell_length_c 20.590104
_cell_angle_alpha 90.000000
_cell_angle_beta 90.000000
_cell_angle_gamma 90.000000
_cell_volume 3276.071669
_symmetry_space_group_name_H-M "C 2 2 21"
_symmetry_group_IT_number 20
_symmetry_cell_setting 'orthorhombic'
loop_
_space_group_symop_operation_xyz
x,y,z
-x,-y,1/2+z
x,-y,-z
-x,y,1/2-z
1/2+x,1/2+y,z
1/2-x,1/2-y,1/2+z
1/2+x,1/2-y,-z
1/2-x,1/2+y,1/2-z
loop_
_atom_site_type_symbol
_atom_site_label
_atom_site_fract_x
_atom_site_fract_y
_atom_site_fract_z
Si Si1 0.130012 0.181593 0.710830
Si Si2 0.144632 0.741060 0.165009
Si Si3 0.285904 0.093406 0.396016
Si Si4 0.731027 0.922201 0.109793
Si Si5 0.898746 0.845919 0.001328
Si Si6 0.272015 0.297287 0.472029
Si Si7 0.480300 0.084355 0.990303
O O1 0.216556 0.230260 0.766481
O O2 0.246606 0.128796 0.673677
O O3 0.000000 0.133611 0.750000
O O4 0.034913 0.238733 0.663747
O O5 0.173279 0.651232 0.161608
O O6 0.224788 0.782110 0.104972
O O7 0.130217 0.114126 0.431950
O O8 0.414745 0.105427 0.449602
O O9 0.269206 0.009353 0.368777
O O10 0.866690 0.904742 0.059741
O O11 0.572736 0.904411 0.076407
O O12 0.066556 0.816911 0.000183
O O13 0.786160 0.775621 0.010226
O O14 0.165927 0.366230 0.487630
O O15 0.424108 0.000000 0.000000
#
# Coordination Sequence:
#
# PCOD8158007 Si02
#       7
#     8   8   8   8   8   8   8
#     4   8  17  32  56  74  95 141 191 214 254 315
#     4   8  17  32  52  74  97 136 182 222 247 317
#     4   9  18  32  52  78 108 133 171 217 277 315
#     4  10  17  33  53  77 104 143 173 215 268 322
#     4  10  18  28  50  80 101 138 168 215 267 333
#     4  11  18  32  50  77 108 136 181 215 270 322
#     4   9  20  31  48  78 115 138 166 223 276 324
#
# _framework density 17.093644000000001
#
# number of rings (size 3 to 8) (size 9 to 14) (size 15 to 20)
#    0.857    1.714    1.429    3.857    0.000    1.143 
#    0.000    0.714   12.571    5.143    0.000    0.000 
#    0.000    0.000    0.000    0.000    0.000    0.000 
#
# Total GULP energy -346889.177652 kJ/mol
# GULP energy per Si atom -12388.899202 kJ/mol
# Density = 1.705474 g / cm^3
# Si number density = 17.093644 Si / 1000 Ang^3
#
#
#
# Elastic Constant Matrix: (Units=GPa)
#
#
# Indices 1 2 3 4 5 6 
#
# 1 71.8915 47.4412 22.8044 0.0000 0.0000 0.0000
# 2 47.4412 126.7903 57.9293 0.0000 0.0000 0.0000
# 3 22.8044 57.9293 83.5985 0.0000 0.0000 0.0000
# 4 0.0000 0.0000 0.0000 29.0678 0.0000 0.0000
# 5 0.0000 0.0000 0.0000 0.0000 15.7209 0.0000
# 6 0.0000 0.0000 0.0000 0.0000 0.0000 28.8576
#
#
#
# Elastic Compliance Matrix: (Units=1/GPa)
#
#
# Indices 1 2 3 4 5 6 
#
# 1 0.018478 -0.006747 -0.000365 0.000000 0.000000 0.000000
# 2 -0.006747 0.014005 -0.007864 0.000000 0.000000 0.000000
# 3 -0.000365 -0.007864 0.017511 0.000000 0.000000 0.000000
# 4 0.000000 0.000000 0.000000 0.034402 0.000000 0.000000
# 5 0.000000 0.000000 0.000000 0.000000 0.063610 0.000000
# 6 0.000000 0.000000 0.000000 0.000000 0.000000 0.034653
#
#
# Mechanical properties :
#
#
# Convention : Reuss Voigt Hill
#
# Bulk Modulus (GPa) = 49.89737 59.84777 54.87257
# Shear Modulus (GPa) = 22.80077 25.00298 23.90187
#
# Velocity S-wave (km/s) = 3.65619 3.82868 3.74343
# Velocity P-wave (km/s) = 6.86131 7.39140 7.13128
#
# Compressibility (1/GPa) = 0.02004113
#
# Stress axis : x y z
#
# Youngs Moduli (GPa) = 54.11810 71.40536 57.10761
#
# Poissons Ratio (x) = 0.48178 0.02085
# Poissons Ratio (y) = 0.36514 0.44909
# Poissons Ratio (z) = 0.01976 0.56152
#
# Static dielectric constant tensor:
#      x y z
#    x 2.961290 0.000000 0.000000 
#    y 0.000000 3.282270 0.000000 
#    z 0.000000 0.000000 3.035290 
# 
# 
# High freq. dielectric constant tensor:
#      x y z
#    x 1.636780 0.000000 0.000000 
#    y 0.000000 1.662200 0.000000 
#    z 0.000000 0.000000 1.640300 
# 
# From -- ./inp_files/26818.got.cif
#   From: 2010.03.12/outbox.cif.g09.slc.cpg/sg20_14_cif.got.tgz:26818.got - 2010.04.14 01:38:04.
