data_PCOD8158809
_publ_section_title
;
Structure prediction by ZEFSAII (Michael W. Deem and Ramdas Pophale) SiO2 
 PCOD8158809
Probable space group: C 2 2 21
;
_chemical_formula_sum "Si O2"
_cell_formula_units_Z 40
_cell_length_a 12.879801
_cell_length_b 12.601060
_cell_length_c 13.555527
_cell_angle_alpha 90.000000
_cell_angle_beta 90.000000
_cell_angle_gamma 90.000000
_cell_volume 2200.050445
_symmetry_space_group_name_H-M "C 2 2 21"
_symmetry_group_IT_number 20
_symmetry_cell_setting 'orthorhombic'
loop_
_space_group_symop_operation_xyz
x,y,z
-x,-y,1/2+z
x,-y,-z
-x,y,1/2-z
1/2+x,1/2+y,z
1/2-x,1/2-y,1/2+z
1/2+x,1/2-y,-z
1/2-x,1/2+y,1/2-z
loop_
_atom_site_type_symbol
_atom_site_label
_atom_site_fract_x
_atom_site_fract_y
_atom_site_fract_z
Si Si1 0.578749 0.248665 0.464296
Si Si2 0.740808 0.222795 0.836197
Si Si3 0.676773 0.338211 0.644031
Si Si4 0.590238 0.432979 0.328301
Si Si5 0.624795 0.876168 0.986469
O O1 0.676407 0.205694 0.398810
O O2 0.610990 0.254580 0.579129
O O3 0.554578 0.369417 0.427039
O O4 0.482278 0.172171 0.446965
O O5 0.685957 0.293564 0.754080
O O6 0.804021 0.123588 0.787494
O O7 0.653452 0.177865 0.909800
O O8 0.612750 0.446401 0.645915
O O9 0.788898 0.356114 0.596154
O O10 0.500000 0.423465 0.250000
O O11 0.608199 0.000000 0.000000
#
# Coordination Sequence:
#
# PCOD8158809 Si02
#       5
#     8   8   8   8   8
#     4   9  22  38  59  87 120 161 200 245 313 356
#     4   9  22  38  59  92 110 167 202 248 308 360
#     4  11  20  40  62  86 125 154 207 255 302 373
#     4  10  20  38  60  88 116 159 205 246 306 355
#     4  11  20  41  62  84 125 163 197 254 314 364
#
# _framework density 18.1814
#
# number of rings (size 3 to 8) (size 9 to 14) (size 15 to 20)
#    1.200    0.800    2.000    1.800    2.800    0.000 
#    3.600    2.000    0.000    0.000    0.000    0.000 
#    0.000    0.000    0.000    0.000    0.000    0.000 
#
# Total GULP energy -247862.551047 kJ/mol
# GULP energy per Si atom -12393.127552 kJ/mol
# Density = 1.814002 g / cm^3
# Si number density = 18.181400 Si / 1000 Ang^3
#
#
#
# Elastic Constant Matrix: (Units=GPa)
#
#
# Indices 1 2 3 4 5 6 
#
# 1 69.0541 23.9594 38.9819 0.0000 0.0000 0.0000
# 2 23.9594 69.9971 42.9390 0.0000 0.0000 0.0000
# 3 38.9819 42.9390 114.7791 0.0000 0.0000 0.0000
# 4 0.0000 0.0000 0.0000 29.9928 0.0000 0.0000
# 5 0.0000 0.0000 0.0000 0.0000 26.1587 0.0000
# 6 0.0000 0.0000 0.0000 0.0000 0.0000 38.1489
#
#
#
# Elastic Compliance Matrix: (Units=1/GPa)
#
#
# Indices 1 2 3 4 5 6 
#
# 1 0.018455 -0.003208 -0.005068 0.000000 0.000000 0.000000
# 2 -0.003208 0.019099 -0.006055 0.000000 0.000000 0.000000
# 3 -0.005068 -0.006055 0.012699 0.000000 0.000000 0.000000
# 4 0.000000 0.000000 0.000000 0.033341 0.000000 0.000000
# 5 0.000000 0.000000 0.000000 0.000000 0.038228 0.000000
# 6 0.000000 0.000000 0.000000 0.000000 0.000000 0.026213
#
#
# Mechanical properties :
#
#
# Convention : Reuss Voigt Hill
#
# Bulk Modulus (GPa) = 46.31674 51.73233 49.02453
# Shear Modulus (GPa) = 27.18935 28.72341 27.95638
#
# Velocity S-wave (km/s) = 3.87130 3.97901 3.92552
# Velocity P-wave (km/s) = 6.74631 7.04452 6.89703
#
# Compressibility (1/GPa) = 0.02159047
#
# Stress axis : x y z
#
# Youngs Moduli (GPa) = 54.18476 52.35847 78.74768
#
# Poissons Ratio (x) = 0.16799 0.39906
# Poissons Ratio (y) = 0.17385 0.47684
# Poissons Ratio (z) = 0.27459 0.31705
#
# Static dielectric constant tensor:
#      x y z
#    x 3.318120 0.000000 0.000000 
#    y 0.000000 3.106740 0.000000 
#    z 0.000000 0.000000 3.281610 
# 
# 
# High freq. dielectric constant tensor:
#      x y z
#    x 1.705500 0.000000 0.000000 
#    y 0.000000 1.685810 0.000000 
#    z 0.000000 0.000000 1.702230 
# 
# From -- ./inp_files/19697.got.cif
#   From: 2010.03.12/outbox.cif.g09.slc.cpg/sg20_10_cif.got.tgz:19697.got - 2010.04.14 01:38:04.
