data_PCOD8158480
_publ_section_title
;
Structure prediction by ZEFSAII (Michael W. Deem and Ramdas Pophale) SiO2 
 PCOD8158480
Probable space group: C 2 2 21
;
_chemical_formula_sum "Si O2"
_cell_formula_units_Z 48
_cell_length_a 27.325390
_cell_length_b 8.909195
_cell_length_c 9.280976
_cell_angle_alpha 90.000000
_cell_angle_beta 90.000000
_cell_angle_gamma 90.000000
_cell_volume 2259.427880
_symmetry_space_group_name_H-M "C 2 2 21"
_symmetry_group_IT_number 20
_symmetry_cell_setting 'orthorhombic'
loop_
_space_group_symop_operation_xyz
x,y,z
-x,-y,1/2+z
x,-y,-z
-x,y,1/2-z
1/2+x,1/2+y,z
1/2-x,1/2-y,1/2+z
1/2+x,1/2-y,-z
1/2-x,1/2+y,1/2-z
loop_
_atom_site_type_symbol
_atom_site_label
_atom_site_fract_x
_atom_site_fract_y
_atom_site_fract_z
Si Si1 0.490504 0.147301 0.415406
Si Si2 0.228368 0.751446 0.837331
Si Si3 0.809433 0.825419 0.967872
Si Si4 0.332386 0.500000 0.500000
Si Si5 0.325724 0.000000 0.500000
Si Si6 0.596741 0.174601 0.468146
Si Si7 0.110267 0.246739 0.856937
O O1 0.500000 0.099869 0.250000
O O2 0.539394 0.218863 0.489926
O O3 0.445041 0.261486 0.420970
O O4 0.474203 0.000000 0.500000
O O5 0.225869 0.780008 0.666064
O O6 0.284847 0.754573 0.891796
O O7 0.207747 0.586979 0.882598
O O8 0.199791 0.886238 0.910458
O O9 0.864336 0.764060 0.932617
O O10 0.812878 0.000000 0.000000
O O11 0.366134 0.414462 0.385009
O O12 0.359933 0.879419 0.572459
O O13 0.611684 0.220358 0.309798
O O14 0.602909 0.000000 0.500000
#
# Coordination Sequence:
#
# PCOD8158480 Si02
#       7
#     8   8   8   4   4   8   8
#     4   9  18  36  62  92 121 161 208 260 314 375
#     4  11  26  41  65  92 125 169 217 266 321 387
#     4  12  27  43  64  93 130 169 217 265 329 380
#     4  10  24  40  62  90 130 166 214 260 330 376
#     4  10  20  38  62  90 120 160 212 258 314 372
#     4  10  22  38  64  90 127 164 211 259 322 371
#     4  10  19  38  64  89 124 163 208 261 313 383
#
# _framework density 21.244315
#
# number of rings (size 3 to 8) (size 9 to 14) (size 15 to 20)
#    0.000    1.667    1.667    2.000    8.167    0.000 
#    1.500    0.000    0.000    0.000    0.000    0.000 
#    0.000    0.000    0.000    0.000    0.000    0.000 
#
# Total GULP energy -297490.370568 kJ/mol
# GULP energy per Si atom -12395.432107 kJ/mol
# Density = 2.119596 g / cm^3
# Si number density = 21.244315 Si / 1000 Ang^3
#
#
#
# Elastic Constant Matrix: (Units=GPa)
#
#
# Indices 1 2 3 4 5 6 
#
# 1 127.6010 47.9166 9.5173 0.0000 0.0000 0.0000
# 2 47.9166 112.6682 20.4299 0.0000 0.0000 0.0000
# 3 9.5173 20.4299 45.1524 0.0000 0.0000 0.0000
# 4 0.0000 0.0000 0.0000 30.7546 0.0000 0.0000
# 5 0.0000 0.0000 0.0000 0.0000 32.2973 0.0000
# 6 0.0000 0.0000 0.0000 0.0000 0.0000 2.4056
#
#
#
# Elastic Compliance Matrix: (Units=1/GPa)
#
#
# Indices 1 2 3 4 5 6 
#
# 1 0.009328 -0.003933 -0.000187 0.000000 0.000000 0.000000
# 2 -0.003933 0.011327 -0.004296 0.000000 0.000000 0.000000
# 3 -0.000187 -0.004296 0.024130 0.000000 0.000000 0.000000
# 4 0.000000 0.000000 0.000000 0.032515 0.000000 0.000000
# 5 0.000000 0.000000 0.000000 0.000000 0.030962 0.000000
# 6 0.000000 0.000000 0.000000 0.000000 0.000000 0.415693
#
#
# Mechanical properties :
#
#
# Convention : Reuss Voigt Hill
#
# Bulk Modulus (GPa) = 35.77330 49.01658 42.39494
# Shear Modulus (GPa) = 9.08915 26.92870 18.00892
#
# Velocity S-wave (km/s) = 2.07067 3.56416 2.91470
# Velocity P-wave (km/s) = 4.75315 6.32934 5.59701
#
# Compressibility (1/GPa) = 0.02795381
#
# Stress axis : x y z
#
# Youngs Moduli (GPa) = 107.20600 88.28160 41.44152
#
# Poissons Ratio (x) = 0.34723 0.00773
# Poissons Ratio (y) = 0.42166 0.17804
# Poissons Ratio (z) = 0.01999 0.37927
#
# Static dielectric constant tensor:
#      x y z
#    x 4.381750 0.000000 0.000000 
#    y 0.000000 3.817840 0.000000 
#    z 0.000000 0.000000 4.022890 
# 
# 
# High freq. dielectric constant tensor:
#      x y z
#    x 1.855380 0.000000 0.000000 
#    y 0.000000 1.821240 0.000000 
#    z 0.000000 0.000000 1.826770 
# 
# From -- ./inp_files/11492.got.cif
#   From: 2010.03.12/outbox.cif.g09.slc.cpg/sg20_6_cif.got.tgz:11492.got - 2010.04.14 01:38:04.
