data_PCOD8158325
_publ_section_title
;
Structure prediction by ZEFSAII (Michael W. Deem and Ramdas Pophale) SiO2 
 PCOD8158325
Probable space group: C 2 2 21
;
_chemical_formula_sum "Si O2"
_cell_formula_units_Z 64
_cell_length_a 23.840281
_cell_length_b 9.010364
_cell_length_c 15.403496
_cell_angle_alpha 90.000000
_cell_angle_beta 90.000000
_cell_angle_gamma 90.000000
_cell_volume 3308.818963
_symmetry_space_group_name_H-M "C 2 2 21"
_symmetry_group_IT_number 20
_symmetry_cell_setting 'orthorhombic'
loop_
_space_group_symop_operation_xyz
x,y,z
-x,-y,1/2+z
x,-y,-z
-x,y,1/2-z
1/2+x,1/2+y,z
1/2-x,1/2-y,1/2+z
1/2+x,1/2-y,-z
1/2-x,1/2+y,1/2-z
loop_
_atom_site_type_symbol
_atom_site_label
_atom_site_fract_x
_atom_site_fract_y
_atom_site_fract_z
Si Si1 0.303089 0.676584 1.000000
Si Si2 0.676908 0.176340 1.000000
Si Si3 0.391368 0.175880 0.666512
Si Si4 0.378052 0.674919 0.158382
Si Si5 0.378052 0.674919 0.841618
Si Si6 0.997660 0.827340 0.600211
Si Si7 0.502340 0.672660 0.899789
Si Si8 0.608632 0.175880 0.166512
O O1 0.334744 0.733603 0.914028
O O2 0.304266 0.500000 0.000000
O O3 0.240028 0.740161 1.000000
O O4 0.334744 0.733603 0.085972
O O5 0.644891 0.234771 0.085193
O O6 0.644891 0.234771 0.914807
O O7 0.678239 0.000000 0.000000
O O8 0.363161 0.241167 0.752891
O O9 0.454827 0.234087 0.658403
O O10 0.391936 1.000000 0.671490
O O11 0.372285 0.500000 0.173247
O O12 0.440050 0.718235 0.127210
O O13 0.440050 0.718235 0.872790
O O14 0.363161 0.758833 0.752891
O O15 0.988523 0.786770 0.500000
O O16 0.986759 1.000000 0.618098
O O17 0.545173 0.765913 0.841597
#
# Coordination Sequence:
#
# PCOD8158325 Si02
#       8
#     8   8   8   8   8   8   8   8
#     4   9  18  37  61  79 103 143 186 227 274 318
#     4   9  20  37  55  77 109 147 184 221 266 324
#     4  11  22  36  54  81 115 150 179 212 268 332
#     4  10  20  36  59  85 107 137 183 230 272 318
#     4  10  20  36  59  85 107 137 183 230 272 318
#     4  10  19  34  57  83 109 138 179 229 272 316
#     4  10  19  34  57  83 109 138 179 229 272 316
#     4  11  22  36  54  81 115 150 179 212 268 332
#
# _framework density 19.342248999999999
#
# number of rings (size 3 to 8) (size 9 to 14) (size 15 to 20)
#    0.000    2.000    2.500    1.500    0.000    5.000 
#    0.000    0.625    0.000    4.500    0.000    0.000 
#    0.000    0.000    0.000    0.000    0.000    0.000 
#
# Total GULP energy -396916.922289 kJ/mol
# GULP energy per Si atom -12403.653822 kJ/mol
# Density = 1.929823 g / cm^3
# Si number density = 19.342249 Si / 1000 Ang^3
#
#
#
# Elastic Constant Matrix: (Units=GPa)
#
#
# Indices 1 2 3 4 5 6 
#
# 1 128.2157 30.5869 52.7791 0.0000 0.0000 0.0000
# 2 30.5869 39.1429 36.4550 0.0000 0.0000 0.0000
# 3 52.7791 36.4550 132.0846 0.0000 0.0000 0.0000
# 4 0.0000 0.0000 0.0000 30.6329 0.0000 0.0000
# 5 0.0000 0.0000 0.0000 0.0000 16.7702 0.0000
# 6 0.0000 0.0000 0.0000 0.0000 0.0000 17.7523
#
#
#
# Elastic Compliance Matrix: (Units=1/GPa)
#
#
# Indices 1 2 3 4 5 6 
#
# 1 0.010173 -0.005604 -0.002518 0.000000 0.000000 0.000000
# 2 -0.005604 0.037473 -0.008103 0.000000 0.000000 0.000000
# 3 -0.002518 -0.008103 0.010814 0.000000 0.000000 0.000000
# 4 0.000000 0.000000 0.000000 0.032645 0.000000 0.000000
# 5 0.000000 0.000000 0.000000 0.000000 0.059629 0.000000
# 6 0.000000 0.000000 0.000000 0.000000 0.000000 0.056331
#
#
# Mechanical properties :
#
#
# Convention : Reuss Voigt Hill
#
# Bulk Modulus (GPa) = 38.44846 59.89837 49.17342
# Shear Modulus (GPa) = 20.14628 25.00592 22.57610
#
# Velocity S-wave (km/s) = 3.23084 3.59947 3.42012
# Velocity P-wave (km/s) = 5.81712 6.95052 6.40893
#
# Compressibility (1/GPa) = 0.02600884
#
# Stress axis : x y z
#
# Youngs Moduli (GPa) = 98.30109 26.68575 92.47569
#
# Poissons Ratio (x) = 0.14954 0.23288
# Poissons Ratio (y) = 0.55087 0.74936
# Poissons Ratio (z) = 0.24755 0.21624
#
# Static dielectric constant tensor:
#      x y z
#    x 3.609670 0.000000 0.000000 
#    y 0.000000 3.149120 0.000000 
#    z 0.000000 0.000000 3.763790 
# 
# 
# High freq. dielectric constant tensor:
#      x y z
#    x 1.751320 0.000000 0.000000 
#    y 0.000000 1.718550 0.000000 
#    z 0.000000 0.000000 1.771490 
# 
# From -- ./inp_files/22057.got.cif
#   From: 2010.03.12/outbox.cif.g09.slc.cpg/sg20_12_cif.got.tgz:22057.got - 2010.04.14 01:38:04.
