data_PCOD8158568
_publ_section_title
;
Structure prediction by ZEFSAII (Michael W. Deem and Ramdas Pophale) SiO2 
 PCOD8158568
Probable space group: C 2 2 21
;
_chemical_formula_sum "Si O2"
_cell_formula_units_Z 64
_cell_length_a 9.220611
_cell_length_b 22.183977
_cell_length_c 16.423000
_cell_angle_alpha 90.000000
_cell_angle_beta 90.000000
_cell_angle_gamma 90.000000
_cell_volume 3359.321732
_symmetry_space_group_name_H-M "C 2 2 21"
_symmetry_group_IT_number 20
_symmetry_cell_setting 'orthorhombic'
loop_
_space_group_symop_operation_xyz
x,y,z
-x,-y,1/2+z
x,-y,-z
-x,y,1/2-z
1/2+x,1/2+y,z
1/2-x,1/2-y,1/2+z
1/2+x,1/2-y,-z
1/2-x,1/2+y,1/2-z
loop_
_atom_site_type_symbol
_atom_site_label
_atom_site_fract_x
_atom_site_fract_y
_atom_site_fract_z
Si Si1 0.675320 0.966139 0.920382
Si Si2 0.833345 0.519240 0.746740
Si Si3 0.167024 0.794000 0.094933
Si Si4 0.835957 0.528876 0.083752
Si Si5 0.658323 0.711716 0.621554
Si Si6 0.165775 0.336495 0.550093
Si Si7 0.159691 0.333018 0.971109
Si Si8 0.164360 0.659290 0.739374
O O1 0.506753 0.983642 0.917423
O O2 0.706795 0.895003 0.927729
O O3 0.742043 0.988825 0.833355
O O4 0.743216 0.000000 0.000000
O O5 0.764216 0.499891 0.834323
O O6 0.816741 0.590260 0.736102
O O7 0.000000 0.498655 0.750000
O O8 0.186601 0.721371 0.092685
O O9 0.288545 0.826722 0.148143
O O10 0.005720 0.812958 0.120508
O O11 0.198044 0.820545 0.006095
O O12 0.801792 0.599597 0.090727
O O13 0.769775 0.500000 0.000000
O O14 0.657817 0.784089 0.617053
O O15 0.747706 0.677578 0.551822
O O16 0.727909 0.698843 0.707567
O O17 0.010174 0.337391 0.503149
O O18 0.000000 0.680840 0.750000
#
# Coordination Sequence:
#
# PCOD8158568 Si02
#       8
#     8   8   8   8   8   8   8   8
#     4   9  16  28  49  76 103 130 167 216 261 300
#     4   9  18  30  49  77 101 127 170 223 266 302
#     4  10  20  33  51  76 105 134 166 207 254 306
#     4   9  16  28  49  76 103 130 167 216 261 300
#     4  10  20  33  51  76 105 134 166 207 254 306
#     4   9  18  33  53  76 101 131 168 208 254 308
#     4   9  18  33  53  76 101 131 168 208 254 308
#     4  11  21  34  53  75 101 133 172 213 256 304
#
# _framework density 19.051466000000001
#
# number of rings (size 3 to 8) (size 9 to 14) (size 15 to 20)
#    0.000    2.500    0.000    2.625    0.000    6.000 
#    0.000    3.750    0.000    8.250    0.000    0.000 
#    0.000    0.000    0.000    0.000    0.000    0.000 
#
# Total GULP energy -396646.980255 kJ/mol
# GULP energy per Si atom -12395.218133 kJ/mol
# Density = 1.900810 g / cm^3
# Si number density = 19.051466 Si / 1000 Ang^3
#
#
#
# Elastic Constant Matrix: (Units=GPa)
#
#
# Indices 1 2 3 4 5 6 
#
# 1 55.9289 19.3452 10.6470 0.0000 0.0000 0.0000
# 2 19.3452 82.1163 33.0946 0.0000 0.0000 0.0000
# 3 10.6470 33.0946 104.5026 0.0000 0.0000 0.0000
# 4 0.0000 0.0000 0.0000 29.0942 0.0000 0.0000
# 5 0.0000 0.0000 0.0000 0.0000 25.2403 0.0000
# 6 0.0000 0.0000 0.0000 0.0000 0.0000 20.3448
#
#
#
# Elastic Compliance Matrix: (Units=1/GPa)
#
#
# Indices 1 2 3 4 5 6 
#
# 1 0.019500 -0.004348 -0.000610 0.000000 0.000000 0.000000
# 2 -0.004348 0.014929 -0.004285 0.000000 0.000000 0.000000
# 3 -0.000610 -0.004285 0.010988 0.000000 0.000000 0.000000
# 4 0.000000 0.000000 0.000000 0.034371 0.000000 0.000000
# 5 0.000000 0.000000 0.000000 0.000000 0.039619 0.000000
# 6 0.000000 0.000000 0.000000 0.000000 0.000000 0.049153
#
#
# Mechanical properties :
#
#
# Convention : Reuss Voigt Hill
#
# Bulk Modulus (GPa) = 37.13077 40.96903 39.04990
# Shear Modulus (GPa) = 25.50725 26.89992 26.20359
#
# Velocity S-wave (km/s) = 3.66301 3.76168 3.71268
# Velocity P-wave (km/s) = 6.11737 6.35752 6.23860
#
# Compressibility (1/GPa) = 0.02693184
#
# Stress axis : x y z
#
# Youngs Moduli (GPa) = 51.28236 66.98343 91.00663
#
# Poissons Ratio (x) = 0.29125 0.05549
# Poissons Ratio (y) = 0.22298 0.38995
# Poissons Ratio (z) = 0.03127 0.28701
#
# Static dielectric constant tensor:
#      x y z
#    x 3.156010 0.000000 0.000000 
#    y 0.000000 3.515570 0.000000 
#    z 0.000000 0.000000 3.577310 
# 
# 
# High freq. dielectric constant tensor:
#      x y z
#    x 1.697560 0.000000 0.000000 
#    y 0.000000 1.748200 0.000000 
#    z 0.000000 0.000000 1.741160 
# 
# From -- ./inp_files/19370.got.cif
#   From: 2010.03.12/outbox.cif.g09.slc.cpg/sg20_10_cif.got.tgz:19370.got - 2010.04.14 01:38:04.
