data_PCOD8158162
_publ_section_title
;
Structure prediction by ZEFSAII (Michael W. Deem and Ramdas Pophale) SiO2 
 PCOD8158162
Probable space group: C 2 2 21
;
_chemical_formula_sum "Si O2"
_cell_formula_units_Z 48
_cell_length_a 16.927285
_cell_length_b 8.211140
_cell_length_c 17.596336
_cell_angle_alpha 90.000000
_cell_angle_beta 90.000000
_cell_angle_gamma 90.000000
_cell_volume 2445.755335
_symmetry_space_group_name_H-M "C 2 2 21"
_symmetry_group_IT_number 20
_symmetry_cell_setting 'orthorhombic'
loop_
_space_group_symop_operation_xyz
x,y,z
-x,-y,1/2+z
x,-y,-z
-x,y,1/2-z
1/2+x,1/2+y,z
1/2-x,1/2-y,1/2+z
1/2+x,1/2-y,-z
1/2-x,1/2+y,1/2-z
loop_
_atom_site_type_symbol
_atom_site_label
_atom_site_fract_x
_atom_site_fract_y
_atom_site_fract_z
Si Si1 0.903450 0.745736 0.949586
Si Si2 0.439446 0.317980 0.361784
Si Si3 0.337111 0.369004 0.806558
Si Si4 0.500000 0.578417 0.250000
Si Si5 0.528555 0.500000 0.000000
Si Si6 0.912351 0.391141 0.891685
Si Si7 0.182891 0.762387 0.262683
O O1 0.833983 0.821662 0.896257
O O2 0.928774 0.578732 0.909022
O O3 0.974745 0.874555 0.951761
O O4 0.875511 0.705693 0.035567
O O5 0.483636 0.463559 0.320702
O O6 0.415777 0.393802 0.443939
O O7 0.501284 0.172826 0.370582
O O8 0.363549 0.252926 0.317208
O O9 0.422752 0.315455 0.771903
O O10 0.273254 0.275474 0.755898
O O11 0.324411 0.561615 0.800474
O O12 0.851616 0.369795 0.821781
#
# Coordination Sequence:
#
# PCOD8158162 Si02
#       7
#     8   8   8   4   4   8   8
#     4  10  20  34  61  84 116 158 206 240 304 372
#     4  10  18  37  60  87 118 157 198 248 300 355
#     4  11  21  39  57  86 118 158 197 247 298 358
#     4  10  18  38  60  82 114 156 206 228 298 364
#     4  10  18  36  62  86 116 164 204 244 296 372
#     4  10  19  36  59  88 116 156 200 253 302 366
#     4  11  22  38  59  88 126 153 202 256 306 354
#
# _framework density 19.62584
#
# number of rings (size 3 to 8) (size 9 to 14) (size 15 to 20)
#    0.000    1.667    5.000    2.000    0.000    0.000 
#    6.000    5.000    0.000    4.000    0.000    0.000 
#    0.000    0.000    0.000    0.000    0.000    0.000 
#
# Total GULP energy -297463.439877 kJ/mol
# GULP energy per Si atom -12394.309995 kJ/mol
# Density = 1.958117 g / cm^3
# Si number density = 19.625840 Si / 1000 Ang^3
#
#
#
# Elastic Constant Matrix: (Units=GPa)
#
#
# Indices 1 2 3 4 5 6 
#
# 1 109.1547 38.8309 48.0299 0.0000 0.0000 0.0000
# 2 38.8309 56.8007 43.7614 0.0000 0.0000 0.0000
# 3 48.0299 43.7614 105.7809 0.0000 0.0000 0.0000
# 4 0.0000 0.0000 0.0000 39.9981 0.0000 0.0000
# 5 0.0000 0.0000 0.0000 0.0000 27.5895 0.0000
# 6 0.0000 0.0000 0.0000 0.0000 0.0000 24.2764
#
#
#
# Elastic Compliance Matrix: (Units=1/GPa)
#
#
# Indices 1 2 3 4 5 6 
#
# 1 0.012811 -0.006277 -0.003220 0.000000 0.000000 0.000000
# 2 -0.006277 0.028918 -0.009113 0.000000 0.000000 0.000000
# 3 -0.003220 -0.009113 0.014686 0.000000 0.000000 0.000000
# 4 0.000000 0.000000 0.000000 0.025001 0.000000 0.000000
# 5 0.000000 0.000000 0.000000 0.000000 0.036246 0.000000
# 6 0.000000 0.000000 0.000000 0.000000 0.000000 0.041192
#
#
# Mechanical properties :
#
#
# Convention : Reuss Voigt Hill
#
# Bulk Modulus (GPa) = 52.09996 59.22008 55.66002
# Shear Modulus (GPa) = 24.69467 27.78041 26.23754
#
# Velocity S-wave (km/s) = 3.55106 3.76640 3.66031
# Velocity P-wave (km/s) = 6.58921 7.01102 6.80338
#
# Compressibility (1/GPa) = 0.01919387
#
# Stress axis : x y z
#
# Youngs Moduli (GPa) = 78.05599 34.58063 68.09390
#
# Poissons Ratio (x) = 0.21708 0.21926
# Poissons Ratio (y) = 0.48999 0.62054
# Poissons Ratio (z) = 0.25134 0.31513
#
# Static dielectric constant tensor:
#      x y z
#    x 3.292720 0.000000 0.000000 
#    y 0.000000 3.670750 0.000000 
#    z 0.000000 0.000000 3.915800 
# 
# 
# High freq. dielectric constant tensor:
#      x y z
#    x 1.724390 0.000000 0.000000 
#    y 0.000000 1.768330 0.000000 
#    z 0.000000 0.000000 1.784000 
# 
# From -- ./inp_files/23645.got.cif
#   From: 2010.03.12/outbox.cif.g09.slc.cpg/sg20_12_cif.got.tgz:23645.got - 2010.04.14 01:38:04.
