data_PCOD8158283
_publ_section_title
;
Structure prediction by ZEFSAII (Michael W. Deem and Ramdas Pophale) SiO2 
 PCOD8158283
Probable space group: C 2 2 21
;
_chemical_formula_sum "Si O2"
_cell_formula_units_Z 48
_cell_length_a 9.016371
_cell_length_b 15.929067
_cell_length_c 18.092676
_cell_angle_alpha 90.000000
_cell_angle_beta 90.000000
_cell_angle_gamma 90.000000
_cell_volume 2598.513147
_symmetry_space_group_name_H-M "C 2 2 21"
_symmetry_group_IT_number 20
_symmetry_cell_setting 'orthorhombic'
loop_
_space_group_symop_operation_xyz
x,y,z
-x,-y,1/2+z
x,-y,-z
-x,y,1/2-z
1/2+x,1/2+y,z
1/2-x,1/2-y,1/2+z
1/2+x,1/2-y,-z
1/2-x,1/2+y,1/2-z
loop_
_atom_site_type_symbol
_atom_site_label
_atom_site_fract_x
_atom_site_fract_y
_atom_site_fract_z
Si Si1 0.581017 0.999341 0.327472
Si Si2 0.911143 0.659868 0.923507
Si Si3 0.425350 0.511528 0.324842
Si Si4 0.398297 0.918251 0.545968
Si Si5 0.108692 0.913168 0.037180
Si Si6 0.411732 0.649620 0.088226
O O1 0.500000 0.010315 0.250000
O O2 0.564585 0.903677 0.355435
O O3 0.750626 0.025859 0.315490
O O4 0.514940 0.060183 0.389816
O O5 0.747770 0.648411 0.957632
O O6 0.926955 0.752968 0.891317
O O7 0.029162 0.647262 0.989118
O O8 0.500000 0.480003 0.250000
O O9 0.458416 0.437125 0.383059
O O10 0.500045 0.598838 0.349342
O O11 0.258878 0.877136 0.586416
O O12 0.348038 0.000000 0.500000
O O13 0.979476 0.867907 0.992466
O O14 0.165412 0.000000 0.000000
#
# Coordination Sequence:
#
# PCOD8158283 Si02
#       6
#     8   8   8   8   8   8
#     4  10  21  37  55  74 102 140 178 211 252 311
#     4  10  20  34  54  79 108 136 167 216 264 303
#     4  10  20  35  56  76 102 138 177 214 255 307
#     4  10  19  33  54  79 104 137 177 210 251 310
#     4   9  18  35  54  75 103 139 176 209 253 309
#     4  11  20  32  55  83 107 132 169 218 263 304
#
# _framework density 18.472103000000001
#
# number of rings (size 3 to 8) (size 9 to 14) (size 15 to 20)
#    0.000    2.000    0.000    7.000    0.000    2.000 
#    0.000    0.000    0.000   23.000    0.000    0.000 
#    0.000    0.000    0.000    0.000    0.000    0.000 
#
# Total GULP energy -297665.003680 kJ/mol
# GULP energy per Si atom -12402.708487 kJ/mol
# Density = 1.843006 g / cm^3
# Si number density = 18.472103 Si / 1000 Ang^3
#
#
#
# Elastic Constant Matrix: (Units=GPa)
#
#
# Indices 1 2 3 4 5 6 
#
# 1 98.5255 28.8845 33.0663 0.0000 0.0000 0.0000
# 2 28.8845 81.0990 14.6103 0.0000 0.0000 0.0000
# 3 33.0663 14.6103 96.8772 0.0000 0.0000 0.0000
# 4 0.0000 0.0000 0.0000 15.3926 0.0000 0.0000
# 5 0.0000 0.0000 0.0000 0.0000 34.9123 0.0000
# 6 0.0000 0.0000 0.0000 0.0000 0.0000 15.1319
#
#
#
# Elastic Compliance Matrix: (Units=1/GPa)
#
#
# Indices 1 2 3 4 5 6 
#
# 1 0.012500 -0.003786 -0.003695 0.000000 0.000000 0.000000
# 2 -0.003786 0.013822 -0.000792 0.000000 0.000000 0.000000
# 3 -0.003695 -0.000792 0.011703 0.000000 0.000000 0.000000
# 4 0.000000 0.000000 0.000000 0.064966 0.000000 0.000000
# 5 0.000000 0.000000 0.000000 0.000000 0.028643 0.000000
# 6 0.000000 0.000000 0.000000 0.000000 0.000000 0.066086
#
#
# Mechanical properties :
#
#
# Convention : Reuss Voigt Hill
#
# Bulk Modulus (GPa) = 46.56123 47.73600 47.14861
# Shear Modulus (GPa) = 22.58081 26.41672 24.49876
#
# Velocity S-wave (km/s) = 3.50012 3.78575 3.64573
# Velocity P-wave (km/s) = 6.44945 6.70877 6.58038
#
# Compressibility (1/GPa) = 0.02147710
#
# Stress axis : x y z
#
# Youngs Moduli (GPa) = 80.00050 72.34915 85.44691
#
# Poissons Ratio (x) = 0.27393 0.31577
# Poissons Ratio (y) = 0.30290 0.06769
# Poissons Ratio (z) = 0.29564 0.05731
#
# Static dielectric constant tensor:
#      x y z
#    x 3.415070 0.000000 0.000000 
#    y 0.000000 3.234010 0.000000 
#    z 0.000000 0.000000 3.430150 
# 
# 
# High freq. dielectric constant tensor:
#      x y z
#    x 1.728050 0.000000 0.000000 
#    y 0.000000 1.699320 0.000000 
#    z 0.000000 0.000000 1.713900 
# 
# From -- ./inp_files/23460.got.cif
#   From: 2010.03.12/outbox.cif.g09.slc.cpg/sg20_12_cif.got.tgz:23460.got - 2010.04.14 01:38:04.
