data_PCOD8158784
_publ_section_title
;
Structure prediction by ZEFSAII (Michael W. Deem and Ramdas Pophale) SiO2 
 PCOD8158784
Probable space group: C 2 2 21
;
_chemical_formula_sum "Si O2"
_cell_formula_units_Z 40
_cell_length_a 22.986036
_cell_length_b 8.575735
_cell_length_c 9.440905
_cell_angle_alpha 90.000000
_cell_angle_beta 90.000000
_cell_angle_gamma 90.000000
_cell_volume 1861.011524
_symmetry_space_group_name_H-M "C 2 2 21"
_symmetry_group_IT_number 20
_symmetry_cell_setting 'orthorhombic'
loop_
_space_group_symop_operation_xyz
x,y,z
-x,-y,1/2+z
x,-y,-z
-x,y,1/2-z
1/2+x,1/2+y,z
1/2-x,1/2-y,1/2+z
1/2+x,1/2-y,-z
1/2-x,1/2+y,1/2-z
loop_
_atom_site_type_symbol
_atom_site_label
_atom_site_fract_x
_atom_site_fract_y
_atom_site_fract_z
Si Si1 0.570032 0.500000 0.000000
Si Si2 0.478174 0.273144 0.900503
Si Si3 0.192666 0.335416 0.349199
Si Si4 0.121746 0.033296 0.290974
Si Si5 0.777183 0.137007 0.906024
Si Si6 0.098463 0.500000 0.500000
O O1 0.532942 0.659403 0.014717
O O2 0.611100 0.471848 0.133598
O O3 0.500000 0.197239 0.750000
O O4 0.438818 0.424136 0.865616
O O5 0.444051 0.150393 0.001734
O O6 0.162895 0.183421 0.284682
O O7 0.222218 0.298271 0.504072
O O8 0.243353 0.374565 0.240855
O O9 0.143238 0.471523 0.366784
O O10 0.154211 0.896683 0.377370
O O11 0.748958 0.000000 0.000000
#
# Coordination Sequence:
#
# PCOD8158784 Si02
#       6
#     4   8   8   8   8   4
#     4  10  20  37  70  88 118 171 218 260 306 378
#     4   9  20  41  61  92 125 164 211 265 311 374
#     4  10  23  39  65  92 130 167 201 261 317 377
#     4   9  21  39  62  90 125 158 214 262 305 377
#     4  10  23  40  62  94 126 166 210 253 308 385
#     4  10  22  39  64  88 132 165 202 266 328 360
#
# _framework density 21.493686
#
# number of rings (size 3 to 8) (size 9 to 14) (size 15 to 20)
#    0.000    2.400    0.000    0.000   15.400    0.000 
#    3.600    0.000   15.400    0.000    0.000    0.000 
#    0.000    0.000    0.000    0.000    0.000    0.000 
#
# Total GULP energy -247788.056114 kJ/mol
# GULP energy per Si atom -12389.402806 kJ/mol
# Density = 2.144477 g / cm^3
# Si number density = 21.493686 Si / 1000 Ang^3
#
#
#
# Elastic Constant Matrix: (Units=GPa)
#
#
# Indices 1 2 3 4 5 6 
#
# 1 84.9393 24.0159 53.6931 0.0000 0.0000 0.0000
# 2 24.0159 59.2830 49.4520 0.0000 0.0000 0.0000
# 3 53.6931 49.4520 131.1444 0.0000 0.0000 0.0000
# 4 0.0000 0.0000 0.0000 31.0456 0.0000 0.0000
# 5 0.0000 0.0000 0.0000 0.0000 40.2064 0.0000
# 6 0.0000 0.0000 0.0000 0.0000 0.0000 23.5605
#
#
#
# Elastic Compliance Matrix: (Units=1/GPa)
#
#
# Indices 1 2 3 4 5 6 
#
# 1 0.015973 -0.001482 -0.005981 0.000000 0.000000 0.000000
# 2 -0.001482 0.024746 -0.008725 0.000000 0.000000 0.000000
# 3 -0.005981 -0.008725 0.013364 0.000000 0.000000 0.000000
# 4 0.000000 0.000000 0.000000 0.032211 0.000000 0.000000
# 5 0.000000 0.000000 0.000000 0.000000 0.024872 0.000000
# 6 0.000000 0.000000 0.000000 0.000000 0.000000 0.042444
#
#
# Mechanical properties :
#
#
# Convention : Reuss Voigt Hill
#
# Bulk Modulus (GPa) = 46.06504 58.85430 52.45967
# Shear Modulus (GPa) = 25.87723 28.84286 27.36004
#
# Velocity S-wave (km/s) = 3.47356 3.66720 3.57169
# Velocity P-wave (km/s) = 6.12910 6.73593 6.43967
#
# Compressibility (1/GPa) = 0.02170843
#
# Stress axis : x y z
#
# Youngs Moduli (GPa) = 62.60666 40.40988 74.82894
#
# Poissons Ratio (x) = 0.05987 0.44754
# Poissons Ratio (y) = 0.09276 0.65287
# Poissons Ratio (z) = 0.37444 0.35257
#
# Static dielectric constant tensor:
#      x y z
#    x 3.958620 0.000000 0.000000 
#    y 0.000000 3.737910 0.000000 
#    z 0.000000 0.000000 3.928060 
# 
# 
# High freq. dielectric constant tensor:
#      x y z
#    x 1.848670 0.000000 0.000000 
#    y 0.000000 1.820790 0.000000 
#    z 0.000000 0.000000 1.838680 
# 
# From -- ./inp_files/11007.got.cif
#   From: 2010.03.12/outbox.cif.g09.slc.cpg/sg20_6_cif.got.tgz:11007.got - 2010.04.14 01:38:04.
