data_PCOD8158303
_publ_section_title
;
Structure prediction by ZEFSAII (Michael W. Deem and Ramdas Pophale) SiO2 
 PCOD8158303
Probable space group: C 2 2 21
;
_chemical_formula_sum "Si O2"
_cell_formula_units_Z 52
_cell_length_a 25.475793
_cell_length_b 12.497311
_cell_length_c 9.374907
_cell_angle_alpha 90.000000
_cell_angle_beta 90.000000
_cell_angle_gamma 90.000000
_cell_volume 2984.772654
_symmetry_space_group_name_H-M "C 2 2 21"
_symmetry_group_IT_number 20
_symmetry_cell_setting 'orthorhombic'
loop_
_space_group_symop_operation_xyz
x,y,z
-x,-y,1/2+z
x,-y,-z
-x,y,1/2-z
1/2+x,1/2+y,z
1/2-x,1/2-y,1/2+z
1/2+x,1/2-y,-z
1/2-x,1/2+y,1/2-z
loop_
_atom_site_type_symbol
_atom_site_label
_atom_site_fract_x
_atom_site_fract_y
_atom_site_fract_z
Si Si1 0.331976 0.811402 0.856924
Si Si2 0.053465 0.611331 0.077998
Si Si3 0.642850 0.272754 0.059035
Si Si4 0.754621 0.473604 0.740863
Si Si5 0.437010 0.104567 0.091170
Si Si6 0.175173 0.000000 0.000000
Si Si7 0.745259 0.164233 0.965820
O O1 0.344028 0.734322 0.725227
O O2 0.386380 0.822628 0.945877
O O3 0.289345 0.754624 0.954682
O O4 0.309227 0.927632 0.806705
O O5 0.090180 0.706848 0.020877
O O6 0.065626 0.581490 0.240737
O O7 0.993939 0.654839 0.054165
O O8 0.064635 0.500000 0.000000
O O9 0.637030 0.398087 0.021658
O O10 0.689806 0.222451 0.969439
O O11 0.710594 0.478030 0.861570
O O12 0.738751 0.396823 0.609871
O O13 0.760594 0.591238 0.674766
O O14 0.429999 0.000000 0.000000
#
# Coordination Sequence:
#
# PCOD8158303 Si02
#       7
#     8   8   8   8   8   4   8
#     4  10  19  34  53  80 108 136 178 212 267 322
#     4   9  19  37  55  78 108 134 175 221 272 318
#     4  10  21  32  54  78 107 144 174 219 262 316
#     4  10  22  33  51  75 114 138 175 218 260 320
#     4   9  19  34  55  81 102 138 170 220 273 310
#     4  12  20  36  50  78 108 140 184 214 252 320
#     4  10  20  36  50  77 109 147 173 211 272 315
#
# _framework density 17.421762000000001
#
# number of rings (size 3 to 8) (size 9 to 14) (size 15 to 20)
#    0.000    2.154    3.077    0.000    7.538    0.000 
#    2.769    0.000    0.000    1.846    0.000    0.000 
#    0.000    0.000    0.000    0.000    0.000    0.000 
#
# Total GULP energy -322220.279152 kJ/mol
# GULP energy per Si atom -12393.087660 kJ/mol
# Density = 1.738211 g / cm^3
# Si number density = 17.421762 Si / 1000 Ang^3
#
#
#
# Elastic Constant Matrix: (Units=GPa)
#
#
# Indices 1 2 3 4 5 6 
#
# 1 152.8604 80.1787 41.0682 0.0000 0.0000 0.0000
# 2 80.1787 115.9908 36.5020 0.0000 0.0000 0.0000
# 3 41.0682 36.5020 48.9055 0.0000 0.0000 0.0000
# 4 0.0000 0.0000 0.0000 16.5268 0.0000 0.0000
# 5 0.0000 0.0000 0.0000 0.0000 20.6010 0.0000
# 6 0.0000 0.0000 0.0000 0.0000 0.0000 13.3544
#
#
#
# Elastic Compliance Matrix: (Units=1/GPa)
#
#
# Indices 1 2 3 4 5 6 
#
# 1 0.011021 -0.006150 -0.004664 0.000000 0.000000 0.000000
# 2 -0.006150 0.014700 -0.005807 0.000000 0.000000 0.000000
# 3 -0.004664 -0.005807 0.028699 0.000000 0.000000 0.000000
# 4 0.000000 0.000000 0.000000 0.060508 0.000000 0.000000
# 5 0.000000 0.000000 0.000000 0.000000 0.048541 0.000000
# 6 0.000000 0.000000 0.000000 0.000000 0.000000 0.074881
#
#
# Mechanical properties :
#
#
# Convention : Reuss Voigt Hill
#
# Bulk Modulus (GPa) = 47.22269 70.36162 58.79215
# Shear Modulus (GPa) = 17.94341 20.76365 19.35353
#
# Velocity S-wave (km/s) = 3.21275 3.45602 3.33661
# Velocity P-wave (km/s) = 6.39741 7.51002 6.97593
#
# Compressibility (1/GPa) = 0.02117626
#
# Stress axis : x y z
#
# Youngs Moduli (GPa) = 90.73475 68.02528 34.84459
#
# Poissons Ratio (x) = 0.41839 0.16253
# Poissons Ratio (y) = 0.55806 0.20235
# Poissons Ratio (z) = 0.42322 0.39504
#
# Static dielectric constant tensor:
#      x y z
#    x 3.498390 0.000000 0.000000 
#    y 0.000000 3.322710 0.000000 
#    z 0.000000 0.000000 3.260480 
# 
# 
# High freq. dielectric constant tensor:
#      x y z
#    x 1.667880 0.000000 0.000000 
#    y 0.000000 1.661210 0.000000 
#    z 0.000000 0.000000 1.673800 
# 
# From -- ./inp_files/11071.got.cif
#   From: 2010.03.12/outbox.cif.g09.slc.cpg/sg20_6_cif.got.tgz:11071.got - 2010.04.14 01:38:04.
