data_PCOD8158528
_publ_section_title
;
Structure prediction by ZEFSAII (Michael W. Deem and Ramdas Pophale) SiO2 
 PCOD8158528
Probable space group: C 2 2 21
;
_chemical_formula_sum "Si O2"
_cell_formula_units_Z 40
_cell_length_a 8.616406
_cell_length_b 14.343902
_cell_length_c 13.859042
_cell_angle_alpha 90.000000
_cell_angle_beta 90.000000
_cell_angle_gamma 90.000000
_cell_volume 1712.878960
_symmetry_space_group_name_H-M "C 2 2 21"
_symmetry_group_IT_number 20
_symmetry_cell_setting 'orthorhombic'
loop_
_space_group_symop_operation_xyz
x,y,z
-x,-y,1/2+z
x,-y,-z
-x,y,1/2-z
1/2+x,1/2+y,z
1/2-x,1/2-y,1/2+z
1/2+x,1/2-y,-z
1/2-x,1/2+y,1/2-z
loop_
_atom_site_type_symbol
_atom_site_label
_atom_site_fract_x
_atom_site_fract_y
_atom_site_fract_z
Si Si1 0.245619 0.515465 0.216971
Si Si2 0.180920 0.803805 0.618526
Si Si3 0.170517 0.810923 0.274872
Si Si4 0.887612 0.712920 0.563015
Si Si5 0.544533 0.024076 0.606977
O O1 0.343486 0.607776 0.191129
O O2 0.340455 0.420560 0.196454
O O3 0.191411 0.503084 0.327345
O O4 0.101534 0.533704 0.145287
O O5 0.219759 0.712666 0.683542
O O6 0.321267 0.813292 0.541586
O O7 0.016943 0.794869 0.561319
O O8 0.242987 0.758498 0.368050
O O9 0.000000 0.771723 0.250000
O O10 0.985572 0.629992 0.612439
O O11 0.596893 0.000000 0.500000
#
# Coordination Sequence:
#
# PCOD8158528 Si02
#       5
#     8   8   8   8   8
#     4  10  23  40  71  98 142 193 238 305 371 434
#     4  12  24  44  73 107 143 192 248 306 379 432
#     4  11  25  44  66 100 147 189 245 300 362 442
#     4  11  24  44  72 106 147 189 246 311 361 453
#     4  10  19  41  69 101 138 190 242 294 372 442
#
# _framework density 23.352497
#
# number of rings (size 3 to 8) (size 9 to 14) (size 15 to 20)
#    0.000    1.200    4.000    1.800    2.800    3.200 
#    0.000    0.000    0.000    0.000    0.000    0.000 
#    0.000    0.000    0.000    0.000    0.000    0.000 
#
# Total GULP energy -247793.104532 kJ/mol
# GULP energy per Si atom -12389.655227 kJ/mol
# Density = 2.329935 g / cm^3
# Si number density = 23.352497 Si / 1000 Ang^3
#
#
#
# Elastic Constant Matrix: (Units=GPa)
#
#
# Indices 1 2 3 4 5 6 
#
# 1 77.4451 37.8083 34.6823 0.0000 0.0000 0.0000
# 2 37.8083 92.9570 32.9313 0.0000 0.0000 0.0000
# 3 34.6823 32.9313 148.8867 0.0000 0.0000 0.0000
# 4 0.0000 0.0000 0.0000 36.8816 0.0000 0.0000
# 5 0.0000 0.0000 0.0000 0.0000 28.0624 0.0000
# 6 0.0000 0.0000 0.0000 0.0000 0.0000 20.6159
#
#
#
# Elastic Compliance Matrix: (Units=1/GPa)
#
#
# Indices 1 2 3 4 5 6 
#
# 1 0.017017 -0.005986 -0.002640 0.000000 0.000000 0.000000
# 2 -0.005986 0.013778 -0.001653 0.000000 0.000000 0.000000
# 3 -0.002640 -0.001653 0.007697 0.000000 0.000000 0.000000
# 4 0.000000 0.000000 0.000000 0.027114 0.000000 0.000000
# 5 0.000000 0.000000 0.000000 0.000000 0.035635 0.000000
# 6 0.000000 0.000000 0.000000 0.000000 0.000000 0.048506
#
#
# Mechanical properties :
#
#
# Convention : Reuss Voigt Hill
#
# Bulk Modulus (GPa) = 55.76029 58.90361 57.33195
# Shear Modulus (GPa) = 28.36344 31.36977 29.86661
#
# Velocity S-wave (km/s) = 3.48886 3.66910 3.58012
# Velocity P-wave (km/s) = 6.33712 6.57482 6.45706
#
# Compressibility (1/GPa) = 0.01793391
#
# Stress axis : x y z
#
# Youngs Moduli (GPa) = 58.76472 72.57960 129.91883
#
# Poissons Ratio (x) = 0.43447 0.34299
# Poissons Ratio (y) = 0.35177 0.21476
# Poissons Ratio (z) = 0.15514 0.11998
#
# Static dielectric constant tensor:
#      x y z
#    x 4.022720 0.000000 0.000000 
#    y 0.000000 3.968300 0.000000 
#    z 0.000000 0.000000 4.112300 
# 
# 
# High freq. dielectric constant tensor:
#      x y z
#    x 1.911880 0.000000 0.000000 
#    y 0.000000 1.908300 0.000000 
#    z 0.000000 0.000000 1.927110 
# 
# From -- ./inp_files/18500.got.cif
#   From: 2010.03.12/outbox.cif.g09.slc.cpg/sg20_10_cif.got.tgz:18500.got - 2010.04.14 01:38:04.
