data_PCOD8158224
_publ_section_title
;
Structure prediction by ZEFSAII (Michael W. Deem and Ramdas Pophale) SiO2 
 PCOD8158224
Probable space group: C 2 2 21
;
_chemical_formula_sum "Si O2"
_cell_formula_units_Z 44
_cell_length_a 23.747806
_cell_length_b 10.320773
_cell_length_c 9.574951
_cell_angle_alpha 90.000000
_cell_angle_beta 90.000000
_cell_angle_gamma 90.000000
_cell_volume 2346.779461
_symmetry_space_group_name_H-M "C 2 2 21"
_symmetry_group_IT_number 20
_symmetry_cell_setting 'orthorhombic'
loop_
_space_group_symop_operation_xyz
x,y,z
-x,-y,1/2+z
x,-y,-z
-x,y,1/2-z
1/2+x,1/2+y,z
1/2-x,1/2-y,1/2+z
1/2+x,1/2-y,-z
1/2-x,1/2+y,1/2-z
loop_
_atom_site_type_symbol
_atom_site_label
_atom_site_fract_x
_atom_site_fract_y
_atom_site_fract_z
Si Si1 0.910243 0.640422 0.932409
Si Si2 0.904722 0.954004 0.654891
Si Si3 0.741775 0.360535 0.471079
Si Si4 0.616803 0.614902 0.603687
Si Si5 0.500000 0.269654 0.750000
Si Si6 0.684529 0.257152 0.735876
O O1 0.967360 0.672788 0.851664
O O2 0.856932 0.646730 0.826531
O O3 0.913888 0.500000 0.000000
O O4 0.904996 0.746458 0.054130
O O5 0.958969 0.861301 0.658857
O O6 0.851801 0.883817 0.728376
O O7 0.891213 0.000000 0.500000
O O8 0.912017 0.084277 0.747233
O O9 0.769393 0.500000 0.500000
O O10 0.684302 0.379394 0.385002
O O11 0.731054 0.288287 0.618065
O O12 0.786251 0.283147 0.378847
O O13 0.597277 0.500000 0.500000
#
# Coordination Sequence:
#
# PCOD8158224 Si02
#       6
#     8   8   8   8   4   8
#     4  10  22  43  63  88 129 165 199 256 316 374
#     4  11  23  39  64  96 120 154 215 267 296 364
#     4  10  20  36  59  86 123 167 200 249 302 368
#     4  10  18  42  64  83 124 162 201 252 308 356
#     4  10  22  42  64  90 124 156 208 266 310 360
#     4  10  22  38  59  90 125 163 207 253 303 362
#
# _framework density 18.749099000000001
#
# number of rings (size 3 to 8) (size 9 to 14) (size 15 to 20)
#    0.000    1.818    7.273    0.000    5.091    2.909 
#    3.273    1.818    0.000    0.000    0.000    0.000 
#    0.000    0.000    0.000    0.000    0.000    0.000 
#
# Total GULP energy -272758.845143 kJ/mol
# GULP energy per Si atom -12398.129325 kJ/mol
# Density = 1.870643 g / cm^3
# Si number density = 18.749099 Si / 1000 Ang^3
#
#
#
# Elastic Constant Matrix: (Units=GPa)
#
#
# Indices 1 2 3 4 5 6 
#
# 1 71.3805 41.0642 50.5520 0.0000 0.0000 0.0000
# 2 41.0642 122.9837 57.1522 0.0000 0.0000 0.0000
# 3 50.5520 57.1522 136.1064 0.0000 0.0000 0.0000
# 4 0.0000 0.0000 0.0000 38.8566 0.0000 0.0000
# 5 0.0000 0.0000 0.0000 0.0000 23.4506 0.0000
# 6 0.0000 0.0000 0.0000 0.0000 0.0000 6.8056
#
#
#
# Elastic Compliance Matrix: (Units=1/GPa)
#
#
# Indices 1 2 3 4 5 6 
#
# 1 0.020564 -0.004121 -0.005907 0.000000 0.000000 0.000000
# 2 -0.004121 0.010928 -0.003058 0.000000 0.000000 0.000000
# 3 -0.005907 -0.003058 0.010825 0.000000 0.000000 0.000000
# 4 0.000000 0.000000 0.000000 0.025736 0.000000 0.000000
# 5 0.000000 0.000000 0.000000 0.000000 0.042643 0.000000
# 6 0.000000 0.000000 0.000000 0.000000 0.000000 0.146937
#
#
# Mechanical properties :
#
#
# Convention : Reuss Voigt Hill
#
# Bulk Modulus (GPa) = 61.94092 69.77860 65.85976
# Shear Modulus (GPa) = 17.28980 25.93603 21.61291
#
# Velocity S-wave (km/s) = 3.04001 3.72334 3.39889
# Velocity P-wave (km/s) = 6.74023 7.46875 7.11382
#
# Compressibility (1/GPa) = 0.01614442
#
# Stress axis : x y z
#
# Youngs Moduli (GPa) = 48.62928 91.50454 92.37504
#
# Poissons Ratio (x) = 0.37710 0.54568
# Poissons Ratio (y) = 0.20040 0.28251
# Poissons Ratio (z) = 0.28726 0.27985
#
# Static dielectric constant tensor:
#      x y z
#    x 3.365970 0.000000 0.000000 
#    y 0.000000 3.385270 0.000000 
#    z 0.000000 0.000000 3.442760 
# 
# 
# High freq. dielectric constant tensor:
#      x y z
#    x 1.719010 0.000000 0.000000 
#    y 0.000000 1.720300 0.000000 
#    z 0.000000 0.000000 1.728660 
# 
# From -- ./inp_files/10592.got.cif
#   From: 2010.03.12/outbox.cif.g09.slc.cpg/sg20_6_cif.got.tgz:10592.got - 2010.04.14 01:38:04.
