data_PCOD8158259
_publ_section_title
;
Structure prediction by ZEFSAII (Michael W. Deem and Ramdas Pophale) SiO2 
 PCOD8158259
Probable space group: C 2 2 21
;
_chemical_formula_sum "Si O2"
_cell_formula_units_Z 60
_cell_length_a 21.326595
_cell_length_b 31.066340
_cell_length_c 5.045636
_cell_angle_alpha 90.000000
_cell_angle_beta 90.000000
_cell_angle_gamma 90.000000
_cell_volume 3342.931898
_symmetry_space_group_name_H-M "C 2 2 21"
_symmetry_group_IT_number 20
_symmetry_cell_setting 'orthorhombic'
loop_
_space_group_symop_operation_xyz
x,y,z
-x,-y,1/2+z
x,-y,-z
-x,y,1/2-z
1/2+x,1/2+y,z
1/2-x,1/2-y,1/2+z
1/2+x,1/2-y,-z
1/2-x,1/2+y,1/2-z
loop_
_atom_site_type_symbol
_atom_site_label
_atom_site_fract_x
_atom_site_fract_y
_atom_site_fract_z
Si Si1 0.955866 0.705710 0.001846
Si Si2 0.268721 0.394773 0.531704
Si Si3 0.236274 0.950500 0.486847
Si Si4 0.667818 0.746988 0.416991
Si Si5 0.786896 0.800634 0.417840
Si Si6 0.463566 0.000000 0.500000
Si Si7 0.624135 0.072154 0.014739
Si Si8 0.126668 0.377579 0.499637
O O1 0.000000 0.716486 0.250000
O O2 0.905776 0.743740 0.957362
O O3 0.913106 0.664511 0.058029
O O4 0.000000 0.698719 0.750000
O O5 0.275571 0.429608 0.298544
O O6 0.305119 0.350642 0.465017
O O7 0.199147 0.376442 0.589361
O O8 0.295703 0.419634 0.790343
O O9 0.309746 0.951525 0.549253
O O10 0.210932 0.000000 0.500000
O O11 0.712006 0.789773 0.443151
O O12 0.690196 0.711017 0.624114
O O13 0.674575 0.728217 0.123292
O O14 0.422446 0.038476 0.617965
O O15 0.500000 0.018423 0.250000
O O16 0.597847 0.086624 0.301822
O O17 0.625260 0.112126 0.811981
#
# Coordination Sequence:
#
# PCOD8158259 Si02
#       8
#     8   8   8   8   8   4   8   8
#     4  12  24  37  53  74 104 135 170 208 261 319
#     4  10  19  32  53  76  96 126 171 212 257 300
#     4  10  19  32  50  70  97 128 161 203 254 314
#     4  10  21  35  53  78 101 132 168 213 270 297
#     4  10  19  35  57  75 102 127 170 224 255 304
#     4  12  24  34  46  58  76 106 160 210 258 310
#     4  10  21  35  47  61  85 118 158 211 261 301
#     4  10  21  35  50  67  92 120 165 209 254 307
#
# _framework density 17.948318
#
# number of rings (size 3 to 8) (size 9 to 14) (size 15 to 20)
#    0.000    1.600    2.000    3.600    0.000    3.200 
#    0.000    0.000    0.000    0.000    0.000    0.000 
#    0.000    0.000    0.000    0.000    0.000  168.000 
#
# Total GULP energy -371833.616671 kJ/mol
# GULP energy per Si atom -12394.453889 kJ/mol
# Density = 1.790747 g / cm^3
# Si number density = 17.948318 Si / 1000 Ang^3
#
#
#
# Elastic Constant Matrix: (Units=GPa)
#
#
# Indices 1 2 3 4 5 6 
#
# 1 35.0169 4.9953 2.2548 0.0000 0.0000 0.0000
# 2 4.9953 82.6452 2.2420 0.0000 0.0000 0.0000
# 3 2.2548 2.2420 77.6865 0.0000 0.0000 0.0000
# 4 0.0000 0.0000 0.0000 22.2802 0.0000 0.0000
# 5 0.0000 0.0000 0.0000 0.0000 15.1616 0.0000
# 6 0.0000 0.0000 0.0000 0.0000 0.0000 15.5220
#
#
#
# Elastic Compliance Matrix: (Units=1/GPa)
#
#
# Indices 1 2 3 4 5 6 
#
# 1 0.028854 -0.001723 -0.000788 0.000000 0.000000 0.000000
# 2 -0.001723 0.012212 -0.000302 0.000000 0.000000 0.000000
# 3 -0.000788 -0.000302 0.012904 0.000000 0.000000 0.000000
# 4 0.000000 0.000000 0.000000 0.044883 0.000000 0.000000
# 5 0.000000 0.000000 0.000000 0.000000 0.065956 0.000000
# 6 0.000000 0.000000 0.000000 0.000000 0.000000 0.064425
#
#
# Mechanical properties :
#
#
# Convention : Reuss Voigt Hill
#
# Bulk Modulus (GPa) = 20.68490 23.81478 22.24984
# Shear Modulus (GPa) = 19.92235 22.98319 21.45277
#
# Velocity S-wave (km/s) = 3.33526 3.58232 3.46099
# Velocity P-wave (km/s) = 5.13631 5.51435 5.32868
#
# Compressibility (1/GPa) = 0.04834444
#
# Stress axis : x y z
#
# Youngs Moduli (GPa) = 34.65714 81.88502 77.49635
#
# Poissons Ratio (x) = 0.14106 0.06105
# Poissons Ratio (y) = 0.05970 0.02344
# Poissons Ratio (z) = 0.02730 0.02477
#
# Static dielectric constant tensor:
#      x y z
#    x 2.920540 0.000000 0.000000 
#    y 0.000000 3.246640 0.000000 
#    z 0.000000 0.000000 3.392440 
# 
# 
# High freq. dielectric constant tensor:
#      x y z
#    x 1.632580 0.000000 0.000000 
#    y 0.000000 1.691940 0.000000 
#    z 0.000000 0.000000 1.716040 
# 
# From -- ./inp_files/3442.got.cif
#   From: 2010.03.12/outbox.cif.g09.slc.cpg/sg20_2_cif.got.tgz:3442.got - 2010.04.14 01:38:04.
