data_PCOD8158980
_publ_section_title
;
Structure prediction by ZEFSAII (Michael W. Deem and Ramdas Pophale) SiO2 
 PCOD8158980
Probable space group: C 2 2 21
;
_chemical_formula_sum "Si O2"
_cell_formula_units_Z 48
_cell_length_a 11.596080
_cell_length_b 8.236483
_cell_length_c 22.713369
_cell_angle_alpha 90.000000
_cell_angle_beta 90.000000
_cell_angle_gamma 90.000000
_cell_volume 2169.374674
_symmetry_space_group_name_H-M "C 2 2 21"
_symmetry_group_IT_number 20
_symmetry_cell_setting 'orthorhombic'
loop_
_space_group_symop_operation_xyz
x,y,z
-x,-y,1/2+z
x,-y,-z
-x,y,1/2-z
1/2+x,1/2+y,z
1/2-x,1/2-y,1/2+z
1/2+x,1/2-y,-z
1/2-x,1/2+y,1/2-z
loop_
_atom_site_type_symbol
_atom_site_label
_atom_site_fract_x
_atom_site_fract_y
_atom_site_fract_z
Si Si1 0.326586 0.304476 0.707290
Si Si2 0.489787 0.703981 0.900624
Si Si3 0.849005 0.510511 0.145678
Si Si4 0.251349 0.309038 0.902815
Si Si5 0.000000 0.414913 0.250000
Si Si6 0.128737 0.000000 0.500000
Si Si7 0.843509 0.962007 0.189789
O O1 0.282651 0.418242 0.653817
O O2 0.436126 0.187113 0.697340
O O3 0.217309 0.188766 0.722306
O O4 0.372009 0.401864 0.763495
O O5 0.419257 0.873671 0.898469
O O6 0.623698 0.739726 0.905112
O O7 0.453452 0.600981 0.957052
O O8 0.461368 0.598907 0.841697
O O9 0.839506 0.331764 0.118471
O O10 0.906815 0.515373 0.211614
O O11 0.289803 0.370815 0.966818
O O12 0.257173 0.462686 0.859094
#
# Coordination Sequence:
#
# PCOD8158980 Si02
#       7
#     8   8   8   8   4   4   8
#     4  11  21  37  59  90 134 173 208 249 298 380
#     4  10  25  43  69  93 127 171 213 275 332 377
#     4  11  25  40  63  98 132 171 217 254 317 391
#     4  11  23  45  68  94 128 165 218 278 321 392
#     4  12  22  36  62  90 136 174 204 252 308 372
#     4  10  26  46  68  96 124 158 226 282 334 384
#     4  10  20  41  58  94 131 168 214 256 307 380
#
# _framework density 22.126190999999999
#
# number of rings (size 3 to 8) (size 9 to 14) (size 15 to 20)
#    0.000    1.333    3.333    1.000    2.333    3.333 
#    0.000    0.000    0.000    0.000    0.000    0.000 
#    0.000    0.000    0.000    0.000    0.000    0.000 
#
# Total GULP energy -297445.782384 kJ/mol
# GULP energy per Si atom -12393.574266 kJ/mol
# Density = 2.207583 g / cm^3
# Si number density = 22.126191 Si / 1000 Ang^3
#
#
#
# Elastic Constant Matrix: (Units=GPa)
#
#
# Indices 1 2 3 4 5 6 
#
# 1 107.6668 39.1821 26.1387 0.0000 0.0000 0.0000
# 2 39.1821 114.5624 42.5542 0.0000 0.0000 0.0000
# 3 26.1387 42.5542 61.8774 0.0000 0.0000 0.0000
# 4 0.0000 0.0000 0.0000 42.5548 0.0000 0.0000
# 5 0.0000 0.0000 0.0000 0.0000 16.4424 0.0000
# 6 0.0000 0.0000 0.0000 0.0000 0.0000 27.8078
#
#
#
# Elastic Compliance Matrix: (Units=1/GPa)
#
#
# Indices 1 2 3 4 5 6 
#
# 1 0.010947 -0.002721 -0.002753 0.000000 0.000000 0.000000
# 2 -0.002721 0.012400 -0.007378 0.000000 0.000000 0.000000
# 3 -0.002753 -0.007378 0.022398 0.000000 0.000000 0.000000
# 4 0.000000 0.000000 0.000000 0.023499 0.000000 0.000000
# 5 0.000000 0.000000 0.000000 0.000000 0.060818 0.000000
# 6 0.000000 0.000000 0.000000 0.000000 0.000000 0.035961
#
#
# Mechanical properties :
#
#
# Convention : Reuss Voigt Hill
#
# Bulk Modulus (GPa) = 49.89968 55.53962 52.71965
# Shear Modulus (GPa) = 25.20059 29.10978 27.15518
#
# Velocity S-wave (km/s) = 3.37849 3.63109 3.50707
# Velocity P-wave (km/s) = 6.14981 6.53724 6.34649
#
# Compressibility (1/GPa) = 0.02004021
#
# Stress axis : x y z
#
# Youngs Moduli (GPa) = 91.35295 80.64313 44.64702
#
# Poissons Ratio (x) = 0.21947 0.12289
# Poissons Ratio (y) = 0.24861 0.32942
# Poissons Ratio (z) = 0.25145 0.59501
#
# Static dielectric constant tensor:
#      x y z
#    x 3.820010 0.000000 0.000000 
#    y 0.000000 4.340420 0.000000 
#    z 0.000000 0.000000 3.753860 
# 
# 
# High freq. dielectric constant tensor:
#      x y z
#    x 1.873360 0.000000 0.000000 
#    y 0.000000 1.896780 0.000000 
#    z 0.000000 0.000000 1.835670 
# 
# From -- ./inp_files/29114.got.cif
#   From: 2010.03.12/outbox.cif.g09.slc.cpg/sg20_15_cif.got.tgz:29114.got - 2010.04.14 01:38:04.
