data_PCOD8158416
_publ_section_title
;
Structure prediction by ZEFSAII (Michael W. Deem and Ramdas Pophale) SiO2 
 PCOD8158416
Probable space group: C 2 2 21
;
_chemical_formula_sum "Si O2"
_cell_formula_units_Z 36
_cell_length_a 12.216883
_cell_length_b 20.849178
_cell_length_c 7.483302
_cell_angle_alpha 90.000000
_cell_angle_beta 90.000000
_cell_angle_gamma 90.000000
_cell_volume 1906.086582
_symmetry_space_group_name_H-M "C 2 2 21"
_symmetry_group_IT_number 20
_symmetry_cell_setting 'orthorhombic'
loop_
_space_group_symop_operation_xyz
x,y,z
-x,-y,1/2+z
x,-y,-z
-x,y,1/2-z
1/2+x,1/2+y,z
1/2-x,1/2-y,1/2+z
1/2+x,1/2-y,-z
1/2-x,1/2+y,1/2-z
loop_
_atom_site_type_symbol
_atom_site_label
_atom_site_fract_x
_atom_site_fract_y
_atom_site_fract_z
Si Si1 0.112234 0.500000 0.500000
Si Si2 0.289395 0.828888 0.790275
Si Si3 0.726703 0.594623 0.864386
Si Si4 0.175875 0.187511 0.573679
Si Si5 0.000000 0.884915 0.250000
Si Si6 0.500000 0.903490 0.750000
O O1 0.191658 0.466330 0.351656
O O2 0.032155 0.447496 0.582886
O O3 0.202891 0.822290 0.632429
O O4 0.316427 0.761620 0.879572
O O5 0.398127 0.858442 0.700874
O O6 0.239374 0.875316 0.939436
O O7 0.754941 0.646374 0.708519
O O8 0.598538 0.572831 0.837641
O O9 0.051603 0.162322 0.599379
#
# Coordination Sequence:
#
# PCOD8158416 Si02
#       6
#     4   8   8   8   4   4
#     4  10  22  42  60  82 128 150 214 240 294 350
#     4  11  20  37  60  89 123 154 198 241 309 346
#     4   9  21  39  56  87 117 156 197 251 284 360
#     4  10  19  36  61  85 124 152 191 250 297 358
#     4   8  19  36  56  82 112 145 200 230 304 340
#     4  10  25  38  62  90 116 167 202 248 292 370
#
# _framework density 18.886866000000001
#
# number of rings (size 3 to 8) (size 9 to 14) (size 15 to 20)
#    1.333    0.889    2.222    0.667    3.111    0.889 
#    0.000    4.444    0.000    0.000    0.000    0.000 
#    0.000    0.000    0.000    0.000    0.000    0.000 
#
# Total GULP energy -223003.345062 kJ/mol
# GULP energy per Si atom -12389.074726 kJ/mol
# Density = 1.884388 g / cm^3
# Si number density = 18.886866 Si / 1000 Ang^3
#
#
#
# Elastic Constant Matrix: (Units=GPa)
#
#
# Indices 1 2 3 4 5 6 
#
# 1 77.3548 8.7055 18.6526 0.0000 0.0000 0.0000
# 2 8.7055 63.4478 10.3539 0.0000 0.0000 0.0000
# 3 18.6526 10.3539 78.2915 0.0000 0.0000 0.0000
# 4 0.0000 0.0000 0.0000 26.1720 0.0000 0.0000
# 5 0.0000 0.0000 0.0000 0.0000 32.5284 0.0000
# 6 0.0000 0.0000 0.0000 0.0000 0.0000 14.8643
#
#
#
# Elastic Compliance Matrix: (Units=1/GPa)
#
#
# Indices 1 2 3 4 5 6 
#
# 1 0.013834 -0.001390 -0.003112 0.000000 0.000000 0.000000
# 2 -0.001390 0.016248 -0.001818 0.000000 0.000000 0.000000
# 3 -0.003112 -0.001818 0.013755 0.000000 0.000000 0.000000
# 4 0.000000 0.000000 0.000000 0.038209 0.000000 0.000000
# 5 0.000000 0.000000 0.000000 0.000000 0.030742 0.000000
# 6 0.000000 0.000000 0.000000 0.000000 0.000000 0.067275
#
#
# Mechanical properties :
#
#
# Convention : Reuss Voigt Hill
#
# Bulk Modulus (GPa) = 32.05405 32.72422 32.38914
# Shear Modulus (GPa) = 24.61808 26.80509 25.71159
#
# Velocity S-wave (km/s) = 3.61425 3.77137 3.69365
# Velocity P-wave (km/s) = 5.86733 6.02731 5.94785
#
# Compressibility (1/GPa) = 0.03119731
#
# Stress axis : x y z
#
# Youngs Moduli (GPa) = 72.28398 61.54470 72.70304
#
# Poissons Ratio (x) = 0.08557 0.22626
# Poissons Ratio (y) = 0.10050 0.13214
# Poissons Ratio (z) = 0.22495 0.11186
#
# Static dielectric constant tensor:
#      x y z
#    x 3.467580 0.000000 0.000000 
#    y 0.000000 3.472930 0.000000 
#    z 0.000000 0.000000 3.228210 
# 
# 
# High freq. dielectric constant tensor:
#      x y z
#    x 1.729050 0.000000 0.000000 
#    y 0.000000 1.732770 0.000000 
#    z 0.000000 0.000000 1.721310 
# 
# From -- ./inp_files/7201.got.cif
#   From: 2010.03.12/outbox.cif.g09.slc.cpg/sg20_4_cif.got.tgz:7201.got - 2010.04.14 01:38:04.
