data_PCOD8158297
_publ_section_title
;
Structure prediction by ZEFSAII (Michael W. Deem and Ramdas Pophale) SiO2 
 PCOD8158297
Probable space group: C 2 2 21
;
_chemical_formula_sum "Si O2"
_cell_formula_units_Z 52
_cell_length_a 16.135025
_cell_length_b 10.646883
_cell_length_c 15.813370
_cell_angle_alpha 90.000000
_cell_angle_beta 90.000000
_cell_angle_gamma 90.000000
_cell_volume 2716.542831
_symmetry_space_group_name_H-M "C 2 2 21"
_symmetry_group_IT_number 20
_symmetry_cell_setting 'orthorhombic'
loop_
_space_group_symop_operation_xyz
x,y,z
-x,-y,1/2+z
x,-y,-z
-x,y,1/2-z
1/2+x,1/2+y,z
1/2-x,1/2-y,1/2+z
1/2+x,1/2-y,-z
1/2-x,1/2+y,1/2-z
loop_
_atom_site_type_symbol
_atom_site_label
_atom_site_fract_x
_atom_site_fract_y
_atom_site_fract_z
Si Si1 0.730396 0.875644 0.357318
Si Si2 0.895326 0.255496 0.435794
Si Si3 0.798067 0.359770 0.579680
Si Si4 0.767251 0.607540 0.664951
Si Si5 0.435832 0.136082 0.956535
Si Si6 0.861951 0.128756 0.964579
Si Si7 0.659219 0.500000 0.000000
O O1 0.775195 0.740633 0.348117
O O2 0.733644 0.928595 0.262997
O O3 0.635268 0.869302 0.386257
O O4 0.780736 0.956319 0.424934
O O5 0.877802 0.324810 0.524870
O O6 0.825447 0.274373 0.362148
O O7 0.898776 0.107601 0.459494
O O8 0.982892 0.314078 0.406592
O O9 0.814712 0.493441 0.619590
O O10 0.721836 0.354734 0.515982
O O11 0.671266 0.618536 0.632668
O O12 0.417239 0.245997 0.026181
O O13 0.447231 0.000000 0.000000
O O14 0.906157 0.000000 0.000000
#
# Coordination Sequence:
#
# PCOD8158297 Si02
#       7
#     8   8   8   8   8   8   4
#     4  10  21  34  59  87 112 152 202 251 289 344
#     4  10  21  36  58  81 117 155 192 237 299 362
#     4   8  17  35  52  79 109 148 192 229 284 357
#     4  10  19  33  60  83 115 150 196 251 292 345
#     4  11  21  34  57  86 119 153 193 244 302 360
#     4   8  17  34  54  78 108 150 197 230 282 354
#     4  10  22  42  58  84 116 162 204 236 294 368
#
# _framework density 19.141977000000001
#
# number of rings (size 3 to 8) (size 9 to 14) (size 15 to 20)
#    0.000    2.462    0.769    3.231    3.231    0.615 
#    0.000    0.000    0.000    7.385    0.000    0.000 
#    0.000    0.000    0.000    0.000    0.000    0.000 
#
# Total GULP energy -322125.491037 kJ/mol
# GULP energy per Si atom -12389.441963 kJ/mol
# Density = 1.909841 g / cm^3
# Si number density = 19.141977 Si / 1000 Ang^3
#
#
#
# Elastic Constant Matrix: (Units=GPa)
#
#
# Indices 1 2 3 4 5 6 
#
# 1 61.6352 24.1391 18.1005 0.0000 0.0000 0.0000
# 2 24.1391 121.7680 18.5127 0.0000 0.0000 0.0000
# 3 18.1005 18.5127 79.5127 0.0000 0.0000 0.0000
# 4 0.0000 0.0000 0.0000 12.6215 0.0000 0.0000
# 5 0.0000 0.0000 0.0000 0.0000 14.7736 0.0000
# 6 0.0000 0.0000 0.0000 0.0000 0.0000 25.2351
#
#
#
# Elastic Compliance Matrix: (Units=1/GPa)
#
#
# Indices 1 2 3 4 5 6 
#
# 1 0.018472 -0.003134 -0.003476 0.000000 0.000000 0.000000
# 2 -0.003134 0.009045 -0.001393 0.000000 0.000000 0.000000
# 3 -0.003476 -0.001393 0.013692 0.000000 0.000000 0.000000
# 4 0.000000 0.000000 0.000000 0.079230 0.000000 0.000000
# 5 0.000000 0.000000 0.000000 0.000000 0.067688 0.000000
# 6 0.000000 0.000000 0.000000 0.000000 0.000000 0.039627
#
#
# Mechanical properties :
#
#
# Convention : Reuss Voigt Hill
#
# Bulk Modulus (GPa) = 39.67275 42.71340 41.19308
# Shear Modulus (GPa) = 19.82862 24.00361 21.91611
#
# Velocity S-wave (km/s) = 3.22199 3.54500 3.38734
# Velocity P-wave (km/s) = 5.88321 6.25447 6.07168
#
# Compressibility (1/GPa) = 0.02520622
#
# Stress axis : x y z
#
# Youngs Moduli (GPa) = 54.13482 110.55516 73.03511
#
# Poissons Ratio (x) = 0.34643 0.25384
# Poissons Ratio (y) = 0.16963 0.10171
# Poissons Ratio (z) = 0.18815 0.15397
#
# Static dielectric constant tensor:
#      x y z
#    x 3.337830 0.000000 0.000000 
#    y 0.000000 4.076490 0.000000 
#    z 0.000000 0.000000 3.470790 
# 
# 
# High freq. dielectric constant tensor:
#      x y z
#    x 1.723730 0.000000 0.000000 
#    y 0.000000 1.763300 0.000000 
#    z 0.000000 0.000000 1.713210 
# 
# From -- ./inp_files/21428.got.cif
#   From: 2010.03.12/outbox.cif.g09.slc.cpg/sg20_11_cif.got.tgz:21428.got - 2010.04.14 01:38:04.
