data_PCOD8158024
_publ_section_title
;
Structure prediction by ZEFSAII (Michael W. Deem and Ramdas Pophale) SiO2 
 PCOD8158024
Probable space group: C 2 2 21
;
_chemical_formula_sum "Si O2"
_cell_formula_units_Z 48
_cell_length_a 8.532707
_cell_length_b 15.754145
_cell_length_c 18.505383
_cell_angle_alpha 90.000000
_cell_angle_beta 90.000000
_cell_angle_gamma 90.000000
_cell_volume 2487.595424
_symmetry_space_group_name_H-M "C 2 2 21"
_symmetry_group_IT_number 20
_symmetry_cell_setting 'orthorhombic'
loop_
_space_group_symop_operation_xyz
x,y,z
-x,-y,1/2+z
x,-y,-z
-x,y,1/2-z
1/2+x,1/2+y,z
1/2-x,1/2-y,1/2+z
1/2+x,1/2-y,-z
1/2-x,1/2+y,1/2-z
loop_
_atom_site_type_symbol
_atom_site_label
_atom_site_fract_x
_atom_site_fract_y
_atom_site_fract_z
Si Si1 0.400026 0.504786 0.423928
Si Si2 0.434713 0.175349 0.173314
Si Si3 0.439340 0.078764 0.037243
Si Si4 0.599933 0.245600 0.547569
Si Si5 0.064832 0.157462 0.169932
Si Si6 0.432620 0.313413 0.416730
O O1 0.496688 0.500000 0.500000
O O2 0.236986 0.549430 0.445205
O O3 0.480284 0.565241 0.364142
O O4 0.383540 0.408788 0.393736
O O5 0.500000 0.146164 0.250000
O O6 0.509398 0.111293 0.113381
O O7 0.248835 0.172570 0.172566
O O8 0.487854 0.270911 0.153571
O O9 0.447449 0.151955 0.977746
O O10 0.532138 0.000000 0.000000
O O11 0.512386 0.268512 0.621912
O O12 0.553441 0.312670 0.484585
O O13 0.785638 0.245085 0.560210
O O14 0.000000 0.162563 0.250000
#
# Coordination Sequence:
#
# PCOD8158024 Si02
#       6
#     8   8   8   8   8   8
#     4  10  17  37  61  89 114 158 194 243 292 356
#     4  10  22  39  61  85 121 157 199 246 306 354
#     4   9  17  34  62  87 111 154 195 239 295 347
#     4  11  19  34  61  91 114 154 197 239 290 351
#     4  11  23  39  62  84 121 159 202 244 306 357
#     4  11  20  34  66  87 120 151 198 240 292 356
#
# _framework density 19.295742000000001
#
# number of rings (size 3 to 8) (size 9 to 14) (size 15 to 20)
#    0.000    1.667    5.000    3.000    0.000    0.667 
#    0.000    0.833   36.667    0.000    0.000    0.000 
#    0.000    0.000    0.000    0.000    0.000    0.000 
#
# Total GULP energy -297379.379098 kJ/mol
# GULP energy per Si atom -12390.807462 kJ/mol
# Density = 1.925182 g / cm^3
# Si number density = 19.295742 Si / 1000 Ang^3
#
#
#
# Elastic Constant Matrix: (Units=GPa)
#
#
# Indices 1 2 3 4 5 6 
#
# 1 71.5598 38.1601 35.1753 0.0000 0.0000 0.0000
# 2 38.1601 143.9216 78.8043 0.0000 0.0000 0.0000
# 3 35.1753 78.8043 161.3442 0.0000 0.0000 0.0000
# 4 0.0000 0.0000 0.0000 30.2926 0.0000 0.0000
# 5 0.0000 0.0000 0.0000 0.0000 29.5748 0.0000
# 6 0.0000 0.0000 0.0000 0.0000 0.0000 58.0148
#
#
#
# Elastic Compliance Matrix: (Units=1/GPa)
#
#
# Indices 1 2 3 4 5 6 
#
# 1 0.016746 -0.003332 -0.002023 0.000000 0.000000 0.000000
# 2 -0.003332 0.010148 -0.004230 0.000000 0.000000 0.000000
# 3 -0.002023 -0.004230 0.008705 0.000000 0.000000 0.000000
# 4 0.000000 0.000000 0.000000 0.033011 0.000000 0.000000
# 5 0.000000 0.000000 0.000000 0.000000 0.033813 0.000000
# 6 0.000000 0.000000 0.000000 0.000000 0.000000 0.017237
#
#
# Mechanical properties :
#
#
# Convention : Reuss Voigt Hill
#
# Bulk Modulus (GPa) = 60.87260 75.67836 68.27548
# Shear Modulus (GPa) = 34.64843 38.55548 36.60196
#
# Velocity S-wave (km/s) = 4.24211 4.47490 4.36006
# Velocity P-wave (km/s) = 7.45719 8.12435 7.79791
#
# Compressibility (1/GPa) = 0.01642775
#
# Stress axis : x y z
#
# Youngs Moduli (GPa) = 59.71640 98.54269 114.87568
#
# Poissons Ratio (x) = 0.32837 0.23243
# Poissons Ratio (y) = 0.19899 0.48592
# Poissons Ratio (z) = 0.12082 0.41683
#
# Static dielectric constant tensor:
#      x y z
#    x 3.352130 0.000000 0.000000 
#    y 0.000000 3.905860 0.000000 
#    z 0.000000 0.000000 -0.154560 
# 
# 
# High freq. dielectric constant tensor:
#      x y z
#    x 1.725440 0.000000 0.000000 
#    y 0.000000 1.755150 0.000000 
#    z 0.000000 0.000000 1.750610 
# 
# From -- ./inp_files/26583.got.cif
#   From: 2010.03.12/outbox.cif.g09.slc.cpg/sg20_14_cif.got.tgz:26583.got - 2010.04.14 01:38:04.
