data_PCOD8158214
_publ_section_title
;
Structure prediction by ZEFSAII (Michael W. Deem and Ramdas Pophale) SiO2 
 PCOD8158214
Probable space group: C 2 2 21
;
_chemical_formula_sum "Si O2"
_cell_formula_units_Z 52
_cell_length_a 10.891010
_cell_length_b 14.855086
_cell_length_c 16.567705
_cell_angle_alpha 90.000000
_cell_angle_beta 90.000000
_cell_angle_gamma 90.000000
_cell_volume 2680.437469
_symmetry_space_group_name_H-M "C 2 2 21"
_symmetry_group_IT_number 20
_symmetry_cell_setting 'orthorhombic'
loop_
_space_group_symop_operation_xyz
x,y,z
-x,-y,1/2+z
x,-y,-z
-x,y,1/2-z
1/2+x,1/2+y,z
1/2-x,1/2-y,1/2+z
1/2+x,1/2-y,-z
1/2-x,1/2+y,1/2-z
loop_
_atom_site_type_symbol
_atom_site_label
_atom_site_fract_x
_atom_site_fract_y
_atom_site_fract_z
Si Si1 0.724532 0.402657 0.206342
Si Si2 0.757984 0.102863 0.253202
Si Si3 0.084819 0.251229 0.324954
Si Si4 0.000000 0.312870 0.750000
Si Si5 0.875245 0.810226 0.138063
Si Si6 0.069525 0.911978 0.051038
Si Si7 0.350988 0.699987 0.408982
O O1 0.750634 0.495058 0.254675
O O2 0.834673 0.342714 0.168060
O O3 0.657097 0.342359 0.271797
O O4 0.638655 0.432318 0.133422
O O5 0.838508 0.157813 0.186678
O O6 0.618876 0.127671 0.236991
O O7 0.813800 0.127880 0.340597
O O8 0.000000 0.270762 0.250000
O O9 0.990049 0.238846 0.399153
O O10 0.020214 0.261645 0.663722
O O11 0.752222 0.776909 0.093735
O O12 0.933584 0.878710 0.074835
O O13 0.150138 0.843264 0.997603
O O14 0.045964 0.000000 0.000000
#
# Coordination Sequence:
#
# PCOD8158214 Si02
#       7
#     8   8   8   4   8   8   8
#     4  12  22  39  66  93 122 167 215 254 305 387
#     4  10  21  35  63  91 125 156 211 257 305 371
#     4  10  20  40  62  90 124 162 208 257 317 368
#     4  10  18  40  60  92 118 162 212 260 298 364
#     4  11  22  42  64  87 122 168 214 256 309 384
#     4  12  25  39  59  91 127 165 208 260 323 366
#     4  10  23  41  57  89 126 161 207 258 322 377
#
# _framework density 19.399816999999999
#
# number of rings (size 3 to 8) (size 9 to 14) (size 15 to 20)
#    0.000    1.231    7.692    0.000    5.385    1.231 
#    0.000    0.000    0.000    0.923    0.000    0.000 
#    0.000    0.000    0.000    0.000    0.000    0.000 
#
# Total GULP energy -322099.261152 kJ/mol
# GULP energy per Si atom -12388.433121 kJ/mol
# Density = 1.935566 g / cm^3
# Si number density = 19.399817 Si / 1000 Ang^3
#
#
#
# Elastic Constant Matrix: (Units=GPa)
#
#
# Indices 1 2 3 4 5 6 
#
# 1 134.2078 57.8128 40.8564 0.0000 0.0000 0.0000
# 2 57.8128 115.0280 27.7236 0.0000 0.0000 0.0000
# 3 40.8564 27.7236 71.3847 0.0000 0.0000 0.0000
# 4 0.0000 0.0000 0.0000 23.9919 0.0000 0.0000
# 5 0.0000 0.0000 0.0000 0.0000 19.6636 0.0000
# 6 0.0000 0.0000 0.0000 0.0000 0.0000 -5.9458
#
#
#
# Elastic Compliance Matrix: (Units=1/GPa)
#
#
# Indices 1 2 3 4 5 6 
#
# 1 0.010644 -0.004282 -0.004429 0.000000 0.000000 0.000000
# 2 -0.004282 0.011314 -0.001943 0.000000 0.000000 0.000000
# 3 -0.004429 -0.001943 0.017298 0.000000 0.000000 0.000000
# 4 0.000000 0.000000 0.000000 0.041681 0.000000 0.000000
# 5 0.000000 0.000000 0.000000 0.000000 0.050855 0.000000
# 6 0.000000 0.000000 0.000000 0.000000 0.000000 -0.168187
#
#
# Mechanical properties :
#
#
# Convention : Reuss Voigt Hill
#
# Bulk Modulus (GPa) = 55.71760 63.71178 59.71469
# Shear Modulus (GPa) = -549.24704 20.49047 -264.37828
#
# Velocity S-wave (km/s) = -16.84442 3.25348 -11.68651
# Velocity P-wave (km/s) = 18.69571 6.85757 12.29844
#
# Compressibility (1/GPa) = 0.01794765
#
# Stress axis : x y z
#
# Youngs Moduli (GPa) = 93.94886 88.38517 57.80968
#
# Poissons Ratio (x) = 0.37849 0.25604
# Poissons Ratio (y) = 0.40231 0.11233
# Poissons Ratio (z) = 0.41610 0.17175
#
# Static dielectric constant tensor:
#      x y z
#    x 4.088720 0.000000 0.000000 
#    y 0.000000 3.655080 0.000000 
#    z 0.000000 0.000000 3.899130 
# 
# 
# High freq. dielectric constant tensor:
#      x y z
#    x 1.765750 0.000000 0.000000 
#    y 0.000000 1.751450 0.000000 
#    z 0.000000 0.000000 1.736880 
# 
# From -- ./inp_files/24383.got.cif
#   From: 2010.03.12/outbox.cif.g09.slc.cpg/sg20_13_cif.got.tgz:24383.got - 2010.04.14 01:38:04.
