data_PCOD8158848
_publ_section_title
;
Structure prediction by ZEFSAII (Michael W. Deem and Ramdas Pophale) SiO2 
 PCOD8158848
Probable space group: C 2 2 21
;
_chemical_formula_sum "Si O2"
_cell_formula_units_Z 64
_cell_length_a 14.854761
_cell_length_b 11.504463
_cell_length_c 17.907760
_cell_angle_alpha 90.000000
_cell_angle_beta 90.000000
_cell_angle_gamma 90.000000
_cell_volume 3060.365418
_symmetry_space_group_name_H-M "C 2 2 21"
_symmetry_group_IT_number 20
_symmetry_cell_setting 'orthorhombic'
loop_
_space_group_symop_operation_xyz
x,y,z
-x,-y,1/2+z
x,-y,-z
-x,y,1/2-z
1/2+x,1/2+y,z
1/2-x,1/2-y,1/2+z
1/2+x,1/2-y,-z
1/2-x,1/2+y,1/2-z
loop_
_atom_site_type_symbol
_atom_site_label
_atom_site_fract_x
_atom_site_fract_y
_atom_site_fract_z
Si Si1 0.227139 0.223874 0.537317
Si Si2 0.346797 0.211464 0.393127
Si Si3 0.975118 0.183068 0.957894
Si Si4 0.759149 0.485847 0.362313
Si Si5 0.987322 0.053601 0.396509
Si Si6 0.701676 0.577384 0.141409
Si Si7 0.620740 0.349771 0.702088
Si Si8 0.772426 0.636581 0.795383
O O1 0.275301 0.243110 0.458369
O O2 0.120210 0.247802 0.535006
O O3 0.251005 0.094226 0.564749
O O4 0.261851 0.316201 0.596290
O O5 0.449343 0.238244 0.417326
O O6 0.315376 0.286631 0.320250
O O7 0.344525 0.073615 0.371779
O O8 0.957941 0.064390 0.911465
O O9 0.004627 0.152615 0.041272
O O10 0.674381 0.573979 0.359694
O O11 0.764343 0.401315 0.290750
O O12 0.017458 0.114791 0.317500
O O13 0.882964 0.015680 0.398233
O O14 0.660557 0.621147 0.218502
O O15 0.778152 0.480226 0.154388
O O16 0.637265 0.211762 0.690209
#
# Coordination Sequence:
#
# PCOD8158848 Si02
#       8
#     8   8   8   8   8   8   8   8
#     4  12  23  42  68  97 131 176 220 273 330 400
#     4  11  23  41  68  97 134 170 222 284 332 389
#     4  11  23  39  64  98 130 168 222 273 333 390
#     4  10  21  39  66  94 129 173 216 265 326 399
#     4  11  21  39  62  98 129 161 219 279 319 394
#     4  11  22  38  65  92 132 169 215 273 331 389
#     4  10  20  38  65  95 127 168 219 268 326 381
#     4  10  21  39  64  95 127 172 215 265 327 392
#
# _framework density 20.912537
#
# number of rings (size 3 to 8) (size 9 to 14) (size 15 to 20)
#    0.000    1.250    5.000    2.250    1.750    0.500 
#    0.000    1.875    2.750    0.000    0.000    0.000 
#    0.000    0.000    0.000    0.000    0.000    0.000 
#
# Total GULP energy -396563.899080 kJ/mol
# GULP energy per Si atom -12392.621846 kJ/mol
# Density = 2.086494 g / cm^3
# Si number density = 20.912537 Si / 1000 Ang^3
#
#
#
# Elastic Constant Matrix: (Units=GPa)
#
#
# Indices 1 2 3 4 5 6 
#
# 1 91.7426 26.3782 20.4222 0.0000 0.0000 0.0000
# 2 26.3782 95.8751 29.4087 0.0000 0.0000 0.0000
# 3 20.4222 29.4087 83.0715 0.0000 0.0000 0.0000
# 4 0.0000 0.0000 0.0000 35.0688 0.0000 0.0000
# 5 0.0000 0.0000 0.0000 0.0000 27.1803 0.0000
# 6 0.0000 0.0000 0.0000 0.0000 0.0000 29.4513
#
#
#
# Elastic Compliance Matrix: (Units=1/GPa)
#
#
# Indices 1 2 3 4 5 6 
#
# 1 0.012131 -0.002718 -0.002020 0.000000 0.000000 0.000000
# 2 -0.002718 0.012310 -0.003690 0.000000 0.000000 0.000000
# 3 -0.002020 -0.003690 0.013841 0.000000 0.000000 0.000000
# 4 0.000000 0.000000 0.000000 0.028515 0.000000 0.000000
# 5 0.000000 0.000000 0.000000 0.000000 0.036791 0.000000
# 6 0.000000 0.000000 0.000000 0.000000 0.000000 0.033954
#
#
# Mechanical properties :
#
#
# Convention : Reuss Voigt Hill
#
# Bulk Modulus (GPa) = 46.67210 47.01194 46.84202
# Shear Modulus (GPa) = 30.95201 31.30543 31.12872
#
# Velocity S-wave (km/s) = 3.85134 3.87327 3.86232
# Velocity P-wave (km/s) = 6.49179 6.52166 6.50674
#
# Compressibility (1/GPa) = 0.02142608
#
# Stress axis : x y z
#
# Youngs Moduli (GPa) = 82.43184 81.23594 72.25092
#
# Poissons Ratio (x) = 0.22080 0.14595
# Poissons Ratio (y) = 0.22405 0.26658
# Poissons Ratio (z) = 0.16652 0.29974
#
# Static dielectric constant tensor:
#      x y z
#    x 3.824650 0.000000 0.000000 
#    y 0.000000 3.890650 0.000000 
#    z 0.000000 0.000000 3.862760 
# 
# 
# High freq. dielectric constant tensor:
#      x y z
#    x 1.796520 0.000000 0.000000 
#    y 0.000000 1.818570 0.000000 
#    z 0.000000 0.000000 1.830670 
# 
# From -- ./inp_files/24971.got.cif
#   From: 2010.03.12/outbox.cif.g09.slc.cpg/sg20_13_cif.got.tgz:24971.got - 2010.04.14 01:38:04.
