data_PCOD8158933
_publ_section_title
;
Structure prediction by ZEFSAII (Michael W. Deem and Ramdas Pophale) SiO2 
 PCOD8158933
Probable space group: C 2 2 21
;
_chemical_formula_sum "Si O2"
_cell_formula_units_Z 44
_cell_length_a 14.544306
_cell_length_b 28.773361
_cell_length_c 4.870346
_cell_angle_alpha 90.000000
_cell_angle_beta 90.000000
_cell_angle_gamma 90.000000
_cell_volume 2038.184118
_symmetry_space_group_name_H-M "C 2 2 21"
_symmetry_group_IT_number 20
_symmetry_cell_setting 'orthorhombic'
loop_
_space_group_symop_operation_xyz
x,y,z
-x,-y,1/2+z
x,-y,-z
-x,y,1/2-z
1/2+x,1/2+y,z
1/2-x,1/2-y,1/2+z
1/2+x,1/2-y,-z
1/2-x,1/2+y,1/2-z
loop_
_atom_site_type_symbol
_atom_site_label
_atom_site_fract_x
_atom_site_fract_y
_atom_site_fract_z
Si Si1 0.056484 0.785822 0.999121
Si Si2 0.098183 0.467197 0.755168
Si Si3 0.208339 0.921559 0.695963
Si Si4 0.795725 0.270677 0.211939
Si Si5 0.934113 0.000000 0.000000
Si Si6 0.698689 0.359525 0.198230
O O1 0.111415 0.743013 0.864308
O O2 0.000000 0.808371 0.750000
O O3 0.112603 0.828295 0.121967
O O4 0.000000 0.763559 0.250000
O O5 0.124926 0.500000 0.500000
O O6 0.186446 0.437193 0.840912
O O7 0.000000 0.438242 0.750000
O O8 0.072284 0.500000 0.000000
O O9 0.191296 0.876328 0.510353
O O10 0.132180 0.959933 0.619646
O O11 0.199937 0.905606 0.011283
O O12 0.711992 0.255229 0.417553
O O13 0.788917 0.326429 0.166105
O O14 0.000000 0.017476 0.750000
#
# Coordination Sequence:
#
# PCOD8158933 Si02
#       6
#     8   8   8   8   4   8
#     4  11  22  38  63  92 124 168 219 263 311 384
#     4  10  21  40  68  93 116 157 214 272 331 399
#     4  12  24  42  66  93 132 173 217 278 330 386
#     4  10  20  40  62  87 121 163 207 257 321 383
#     4  12  28  44  64  92 136 186 228 266 324 390
#     4  11  24  39  64  92 127 168 213 265 323 387
#
# _framework density 21.587845000000002
#
# number of rings (size 3 to 8) (size 9 to 14) (size 15 to 20)
#    0.000    1.091    0.909    7.636    1.273    4.364 
#    0.000    2.727    0.000    0.000    0.000    0.000 
#    0.000    0.000    0.000    0.000    0.000    0.000 
#
# Total GULP energy -272600.981871 kJ/mol
# GULP energy per Si atom -12390.953721 kJ/mol
# Density = 2.153871 g / cm^3
# Si number density = 21.587845 Si / 1000 Ang^3
#
#
#
# Elastic Constant Matrix: (Units=GPa)
#
#
# Indices 1 2 3 4 5 6 
#
# 1 142.1971 39.0489 26.6774 0.0000 0.0000 0.0000
# 2 39.0489 86.5904 16.2044 0.0000 0.0000 0.0000
# 3 26.6774 16.2044 99.8880 0.0000 0.0000 0.0000
# 4 0.0000 0.0000 0.0000 38.7266 0.0000 0.0000
# 5 0.0000 0.0000 0.0000 0.0000 39.4411 0.0000
# 6 0.0000 0.0000 0.0000 0.0000 0.0000 -72.3798
#
#
#
# Elastic Compliance Matrix: (Units=1/GPa)
#
#
# Indices 1 2 3 4 5 6 
#
# 1 0.008284 -0.003426 -0.001657 0.000000 0.000000 0.000000
# 2 -0.003426 0.013327 -0.001247 0.000000 0.000000 0.000000
# 3 -0.001657 -0.001247 0.010656 0.000000 0.000000 0.000000
# 4 0.000000 0.000000 0.000000 0.025822 0.000000 0.000000
# 5 0.000000 0.000000 0.000000 0.000000 0.025354 0.000000
# 6 0.000000 0.000000 0.000000 0.000000 0.000000 -0.013816
#
#
# Mechanical properties :
#
#
# Convention : Reuss Voigt Hill
#
# Bulk Modulus (GPa) = 50.99978 54.72631 52.86304
# Shear Modulus (GPa) = 56.29225 17.60723 36.94974
#
# Velocity S-wave (km/s) = 5.11200 2.85898 4.14164
# Velocity P-wave (km/s) = 7.64977 6.02528 6.88560
#
# Compressibility (1/GPa) = 0.01960793
#
# Stress axis : x y z
#
# Youngs Moduli (GPa) = 120.71380 75.03634 93.84404
#
# Poissons Ratio (x) = 0.25706 0.15547
# Poissons Ratio (y) = 0.41354 0.11703
# Poissons Ratio (z) = 0.19999 0.09357
#
# Static dielectric constant tensor:
#      x y z
#    x 4.175010 0.000000 0.000000 
#    y 0.000000 3.570070 0.000000 
#    z 0.000000 0.000000 5.154890 
# 
# 
# High freq. dielectric constant tensor:
#      x y z
#    x 1.853670 0.000000 0.000000 
#    y 0.000000 1.817550 0.000000 
#    z 0.000000 0.000000 1.880070 
# 
# From -- ./inp_files/1946.got.cif
#   From: 2010.03.12/outbox.cif.g09.slc.cpg/sg20_1_cif.got.tgz:1946.got - 2010.04.14 01:38:04.
