data_PCOD8158001
_publ_section_title
;
Structure prediction by ZEFSAII (Michael W. Deem and Ramdas Pophale) SiO2 
 PCOD8158001
Probable space group: C 2 2 21
;
_chemical_formula_sum "Si O2"
_cell_formula_units_Z 60
_cell_length_a 20.208051
_cell_length_b 14.491129
_cell_length_c 11.392721
_cell_angle_alpha 90.000000
_cell_angle_beta 90.000000
_cell_angle_gamma 90.000000
_cell_volume 3336.215638
_symmetry_space_group_name_H-M "C 2 2 21"
_symmetry_group_IT_number 20
_symmetry_cell_setting 'orthorhombic'
loop_
_space_group_symop_operation_xyz
x,y,z
-x,-y,1/2+z
x,-y,-z
-x,y,1/2-z
1/2+x,1/2+y,z
1/2-x,1/2-y,1/2+z
1/2+x,1/2-y,-z
1/2-x,1/2+y,1/2-z
loop_
_atom_site_type_symbol
_atom_site_label
_atom_site_fract_x
_atom_site_fract_y
_atom_site_fract_z
Si Si1 0.770391 0.482231 0.750926
Si Si2 0.184935 0.323446 0.306143
Si Si3 0.652815 0.572018 0.406046
Si Si4 0.215661 0.000000 0.000000
Si Si5 0.703247 0.248394 0.463775
Si Si6 0.923499 0.193342 0.268508
Si Si7 0.681742 0.789714 0.784005
Si Si8 0.845493 0.187669 0.497030
O O1 0.803434 0.582242 0.736126
O O2 0.704829 0.483897 0.672855
O O3 0.818766 0.400981 0.705829
O O4 0.756513 0.462781 0.888236
O O5 0.183058 0.336385 0.448369
O O6 0.114699 0.286210 0.264873
O O7 0.243112 0.247455 0.294300
O O8 0.621727 0.500000 0.500000
O O9 0.688423 0.654308 0.475315
O O10 0.596789 0.609119 0.317041
O O11 0.171848 0.914202 0.044757
O O12 0.658712 0.240409 0.346340
O O13 0.782414 0.239029 0.435218
O O14 0.905708 0.175825 0.405482
O O15 0.000000 0.212344 0.250000
O O16 0.635121 0.746760 0.886031
#
# Coordination Sequence:
#
# PCOD8158001 Si02
#       8
#     8   8   8   4   8   8   8   8
#     4  12  18  30  55  92 122 147 182 254 315 351
#     4  10  19  32  54  85 117 152 191 233 310 356
#     4  11  22  34  56  86 113 148 191 248 314 346
#     4  12  18  30  56  86 124 152 182 238 316 372
#     4  10  17  32  51  83 126 141 179 251 307 354
#     4  11  23  43  57  75 119 166 202 237 281 373
#     4  11  18  31  53  88 121 142 185 258 308 354
#     4  11  20  33  54  85 117 157 197 240 299 359
#
# _framework density 17.984449000000001
#
# number of rings (size 3 to 8) (size 9 to 14) (size 15 to 20)
#    0.000    1.067   10.667    0.800    0.000    0.000 
#    1.200    0.000    0.000    2.400   17.333    0.000 
#    0.000    0.000    0.000    0.000    0.000    0.000 
#
# Total GULP energy -371754.947831 kJ/mol
# GULP energy per Si atom -12391.831594 kJ/mol
# Density = 1.794352 g / cm^3
# Si number density = 17.984449 Si / 1000 Ang^3
#
#
#
# Elastic Constant Matrix: (Units=GPa)
#
#
# Indices 1 2 3 4 5 6 
#
# 1 69.5657 34.8572 24.8641 0.0000 0.0000 0.0000
# 2 34.8572 113.2801 32.4378 0.0000 0.0000 0.0000
# 3 24.8641 32.4378 104.5177 0.0000 0.0000 0.0000
# 4 0.0000 0.0000 0.0000 37.7304 0.0000 0.0000
# 5 0.0000 0.0000 0.0000 0.0000 15.3925 0.0000
# 6 0.0000 0.0000 0.0000 0.0000 0.0000 12.8025
#
#
#
# Elastic Compliance Matrix: (Units=1/GPa)
#
#
# Indices 1 2 3 4 5 6 
#
# 1 0.017695 -0.004653 -0.002765 0.000000 0.000000 0.000000
# 2 -0.004653 0.010912 -0.002280 0.000000 0.000000 0.000000
# 3 -0.002765 -0.002280 0.010933 0.000000 0.000000 0.000000
# 4 0.000000 0.000000 0.000000 0.026504 0.000000 0.000000
# 5 0.000000 0.000000 0.000000 0.000000 0.064967 0.000000
# 6 0.000000 0.000000 0.000000 0.000000 0.000000 0.078110
#
#
# Mechanical properties :
#
#
# Convention : Reuss Voigt Hill
#
# Bulk Modulus (GPa) = 49.64277 52.40907 51.02592
# Shear Modulus (GPa) = 21.25570 26.19872 23.72721
#
# Velocity S-wave (km/s) = 3.44160 3.82087 3.63618
# Velocity P-wave (km/s) = 6.59211 6.97639 6.78697
#
# Compressibility (1/GPa) = 0.02014392
#
# Stress axis : x y z
#
# Youngs Moduli (GPa) = 56.51395 91.64016 91.46475
#
# Poissons Ratio (x) = 0.42640 0.25294
# Poissons Ratio (y) = 0.26296 0.20852
# Poissons Ratio (z) = 0.15628 0.20892
#
# Static dielectric constant tensor:
#      x y z
#    x 2.609560 0.000000 0.000000 
#    y 0.000000 3.424500 0.000000 
#    z 0.000000 0.000000 3.931840 
# 
# 
# High freq. dielectric constant tensor:
#      x y z
#    x 1.605500 0.000000 0.000000 
#    y 0.000000 1.707320 0.000000 
#    z 0.000000 0.000000 1.727540 
# 
# From -- ./inp_files/15889.got.cif
#   From: 2010.03.12/outbox.cif.g09.slc.cpg/sg20_8_cif.got.tgz:15889.got - 2010.04.14 01:38:04.
