data_PCOD8158445
_publ_section_title
;
Structure prediction by ZEFSAII (Michael W. Deem and Ramdas Pophale) SiO2 
 PCOD8158445
Probable space group: C 2 2 21
;
_chemical_formula_sum "Si O2"
_cell_formula_units_Z 64
_cell_length_a 19.334892
_cell_length_b 9.271018
_cell_length_c 18.276422
_cell_angle_alpha 90.000000
_cell_angle_beta 90.000000
_cell_angle_gamma 90.000000
_cell_volume 3276.124157
_symmetry_space_group_name_H-M "C 2 2 21"
_symmetry_group_IT_number 20
_symmetry_cell_setting 'orthorhombic'
loop_
_space_group_symop_operation_xyz
x,y,z
-x,-y,1/2+z
x,-y,-z
-x,y,1/2-z
1/2+x,1/2+y,z
1/2-x,1/2-y,1/2+z
1/2+x,1/2-y,-z
1/2-x,1/2+y,1/2-z
loop_
_atom_site_type_symbol
_atom_site_label
_atom_site_fract_x
_atom_site_fract_y
_atom_site_fract_z
Si Si1 0.538853 0.939128 0.420254
Si Si2 0.668446 0.891455 0.318160
Si Si3 0.295448 0.781685 0.653862
Si Si4 0.678660 0.212822 0.318526
Si Si5 0.922257 0.789474 0.567202
Si Si6 0.085729 0.104709 0.904876
Si Si7 0.480643 0.798493 0.831634
Si Si8 0.310302 0.885545 0.350582
O O1 0.599748 0.892054 0.365931
O O2 0.492513 0.797715 0.422163
O O3 0.563284 0.000000 0.500000
O O4 0.495797 0.068086 0.382540
O O5 0.715478 0.764747 0.351178
O O6 0.656771 0.863945 0.230808
O O7 0.704427 0.047842 0.328087
O O8 0.324531 0.749870 0.733830
O O9 0.339123 0.674267 0.604525
O O10 0.303622 0.946528 0.629176
O O11 0.600407 0.234693 0.347473
O O12 0.733615 0.316744 0.358052
O O13 0.929802 0.851061 0.486746
O O14 0.857898 0.686721 0.587303
O O15 0.914436 0.934831 0.615003
O O16 0.026239 0.161651 0.851385
O O17 0.500000 0.846172 0.750000
#
# Coordination Sequence:
#
# PCOD8158445 Si02
#       8
#     8   8   8   8   8   8   8   8
#     4  11  23  41  64  88 125 163 203 252 306 369
#     4   9  21  38  60  91 122 163 197 253 308 359
#     4  10  19  37  62  85 122 155 201 248 302 360
#     4   9  19  36  59  89 123 155 198 250 298 355
#     4  11  25  40  60  87 124 159 206 257 307 363
#     4  11  23  42  59  88 122 165 202 254 308 370
#     4  11  21  39  67  91 120 160 205 246 307 367
#     4  10  21  38  63  92 120 159 210 254 298 365
#
# _framework density 19.535278999999999
#
# number of rings (size 3 to 8) (size 9 to 14) (size 15 to 20)
#    0.000    1.750    2.500    1.500    3.500    2.000 
#    9.000    0.000    0.000    0.000    0.000    0.000 
#    0.000    0.000    0.000    0.000    0.000    0.000 
#
# Total GULP energy -396606.956957 kJ/mol
# GULP energy per Si atom -12393.967405 kJ/mol
# Density = 1.949082 g / cm^3
# Si number density = 19.535279 Si / 1000 Ang^3
#
#
#
# Elastic Constant Matrix: (Units=GPa)
#
#
# Indices 1 2 3 4 5 6 
#
# 1 75.8297 38.1007 15.7295 0.0000 0.0000 0.0000
# 2 38.1007 118.9828 20.4582 0.0000 0.0000 0.0000
# 3 15.7295 20.4582 52.1840 0.0000 0.0000 0.0000
# 4 0.0000 0.0000 0.0000 28.9584 0.0000 0.0000
# 5 0.0000 0.0000 0.0000 0.0000 25.6018 0.0000
# 6 0.0000 0.0000 0.0000 0.0000 0.0000 36.9383
#
#
#
# Elastic Compliance Matrix: (Units=1/GPa)
#
#
# Indices 1 2 3 4 5 6 
#
# 1 0.016156 -0.004649 -0.003047 0.000000 0.000000 0.000000
# 2 -0.004649 0.010350 -0.002656 0.000000 0.000000 0.000000
# 3 -0.003047 -0.002656 0.021123 0.000000 0.000000 0.000000
# 4 0.000000 0.000000 0.000000 0.034532 0.000000 0.000000
# 5 0.000000 0.000000 0.000000 0.000000 0.039060 0.000000
# 6 0.000000 0.000000 0.000000 0.000000 0.000000 0.027072
#
#
# Mechanical properties :
#
#
# Convention : Reuss Voigt Hill
#
# Bulk Modulus (GPa) = 37.14256 43.95260 40.54758
# Shear Modulus (GPa) = 28.09428 29.81359 28.95393
#
# Velocity S-wave (km/s) = 3.79638 3.91082 3.85403
# Velocity P-wave (km/s) = 6.18636 6.55291 6.37227
#
# Compressibility (1/GPa) = 0.02692329
#
# Stress axis : x y z
#
# Youngs Moduli (GPa) = 61.89800 96.61704 47.34245
#
# Poissons Ratio (x) = 0.44922 0.14425
# Poissons Ratio (y) = 0.28779 0.12575
# Poissons Ratio (z) = 0.18860 0.25663
#
# Static dielectric constant tensor:
#      x y z
#    x 3.520730 0.000000 0.000000 
#    y 0.000000 4.080970 0.000000 
#    z 0.000000 0.000000 3.532900 
# 
# 
# High freq. dielectric constant tensor:
#      x y z
#    x 1.757880 0.000000 0.000000 
#    y 0.000000 1.771060 0.000000 
#    z 0.000000 0.000000 1.751220 
# 
# From -- ./inp_files/25502.got.cif
#   From: 2010.03.12/outbox.cif.g09.slc.cpg/sg20_13_cif.got.tgz:25502.got - 2010.04.14 01:38:04.
