data_PCOD8158147
_publ_section_title
;
Structure prediction by ZEFSAII (Michael W. Deem and Ramdas Pophale) SiO2 
 PCOD8158147
Probable space group: C 2 2 21
;
_chemical_formula_sum "Si O2"
_cell_formula_units_Z 40
_cell_length_a 11.925781
_cell_length_b 8.373918
_cell_length_c 19.351407
_cell_angle_alpha 90.000000
_cell_angle_beta 90.000000
_cell_angle_gamma 90.000000
_cell_volume 1932.538171
_symmetry_space_group_name_H-M "C 2 2 21"
_symmetry_group_IT_number 20
_symmetry_cell_setting 'orthorhombic'
loop_
_space_group_symop_operation_xyz
x,y,z
-x,-y,1/2+z
x,-y,-z
-x,y,1/2-z
1/2+x,1/2+y,z
1/2-x,1/2-y,1/2+z
1/2+x,1/2-y,-z
1/2-x,1/2+y,1/2-z
loop_
_atom_site_type_symbol
_atom_site_label
_atom_site_fract_x
_atom_site_fract_y
_atom_site_fract_z
Si Si1 0.079950 0.780683 0.433698
Si Si2 0.729445 0.183375 0.835729
Si Si3 0.383865 0.057829 0.426324
Si Si4 0.120702 0.908466 0.725258
Si Si5 0.369831 0.644397 0.077888
O O1 0.194024 0.728412 0.393954
O O2 0.084129 0.741836 0.516790
O O3 0.973937 0.689488 0.399990
O O4 0.069498 0.971487 0.425686
O O5 0.680149 0.314841 0.786133
O O6 0.626380 0.087896 0.871693
O O7 0.806124 0.062901 0.792017
O O8 0.262411 0.134957 0.436086
O O9 0.428350 0.000000 0.500000
O O10 0.109368 0.794779 0.656444
O O11 0.000000 0.967783 0.750000
#
# Coordination Sequence:
#
# PCOD8158147 Si02
#       5
#     8   8   8   8   8
#     4   9  18  36  64  84 115 156 196 247 297 341
#     4  10  23  42  58  90 123 153 206 242 293 363
#     4  10  18  35  65  84 119 155 186 254 301 334
#     4  10  23  38  62  84 124 162 191 245 300 354
#     4   9  19  39  58  89 119 151 201 246 292 357
#
# _framework density 20.698167000000002
#
# number of rings (size 3 to 8) (size 9 to 14) (size 15 to 20)
#    0.000    2.800    4.000    0.000    2.800    8.000 
#    0.000    0.000    4.400    0.000    0.000    0.000 
#    0.000    0.000    0.000    0.000    0.000    0.000 
#
# Total GULP energy -247794.617393 kJ/mol
# GULP energy per Si atom -12389.730870 kJ/mol
# Density = 2.065106 g / cm^3
# Si number density = 20.698167 Si / 1000 Ang^3
#
#
#
# Elastic Constant Matrix: (Units=GPa)
#
#
# Indices 1 2 3 4 5 6 
#
# 1 94.5556 45.8679 20.7939 0.0000 0.0000 0.0000
# 2 45.8679 35.1626 10.4200 0.0000 0.0000 0.0000
# 3 20.7939 10.4200 84.3587 0.0000 0.0000 0.0000
# 4 0.0000 0.0000 0.0000 30.4854 0.0000 0.0000
# 5 0.0000 0.0000 0.0000 0.0000 22.7466 0.0000
# 6 0.0000 0.0000 0.0000 0.0000 0.0000 20.6752
#
#
#
# Elastic Compliance Matrix: (Units=1/GPa)
#
#
# Indices 1 2 3 4 5 6 
#
# 1 0.029338 -0.037500 -0.002600 0.000000 0.000000 0.000000
# 2 -0.037500 0.077452 -0.000323 0.000000 0.000000 0.000000
# 3 -0.002600 -0.000323 0.012535 0.000000 0.000000 0.000000
# 4 0.000000 0.000000 0.000000 0.032803 0.000000 0.000000
# 5 0.000000 0.000000 0.000000 0.000000 0.043963 0.000000
# 6 0.000000 0.000000 0.000000 0.000000 0.000000 0.048367
#
#
# Mechanical properties :
#
#
# Convention : Reuss Voigt Hill
#
# Bulk Modulus (GPa) = 25.98820 40.91562 33.45191
# Shear Modulus (GPa) = 14.78724 23.91445 19.35084
#
# Velocity S-wave (km/s) = 2.67577 3.40279 3.06094
# Velocity P-wave (km/s) = 4.70419 5.93711 5.35624
#
# Compressibility (1/GPa) = 0.03847901
#
# Stress axis : x y z
#
# Youngs Moduli (GPa) = 34.08521 12.91126 79.77725
#
# Poissons Ratio (x) = 0.48417 0.20740
# Poissons Ratio (y) = 1.27819 0.02580
# Poissons Ratio (z) = 0.08861 0.00418
#
# Static dielectric constant tensor:
#      x y z
#    x 3.654860 0.000000 0.000000 
#    y 0.000000 3.347110 0.000000 
#    z 0.000000 0.000000 4.361790 
# 
# 
# High freq. dielectric constant tensor:
#      x y z
#    x 1.808310 0.000000 0.000000 
#    y 0.000000 1.763260 0.000000 
#    z 0.000000 0.000000 1.829880 
# 
# From -- ./inp_files/27082.got.cif
#   From: 2010.03.12/outbox.cif.g09.slc.cpg/sg20_14_cif.got.tgz:27082.got - 2010.04.14 01:38:04.
