data_PCOD8158308
_publ_section_title
;
Structure prediction by ZEFSAII (Michael W. Deem and Ramdas Pophale) SiO2 
 PCOD8158308
Probable space group: C 2 2 21
;
_chemical_formula_sum "Si O2"
_cell_formula_units_Z 48
_cell_length_a 20.880929
_cell_length_b 16.345849
_cell_length_c 7.789180
_cell_angle_alpha 90.000000
_cell_angle_beta 90.000000
_cell_angle_gamma 90.000000
_cell_volume 2658.575752
_symmetry_space_group_name_H-M "C 2 2 21"
_symmetry_group_IT_number 20
_symmetry_cell_setting 'orthorhombic'
loop_
_space_group_symop_operation_xyz
x,y,z
-x,-y,1/2+z
x,-y,-z
-x,y,1/2-z
1/2+x,1/2+y,z
1/2-x,1/2-y,1/2+z
1/2+x,1/2-y,-z
1/2-x,1/2+y,1/2-z
loop_
_atom_site_type_symbol
_atom_site_label
_atom_site_fract_x
_atom_site_fract_y
_atom_site_fract_z
Si Si1 0.135346 0.139669 0.367061
Si Si2 0.818174 0.304351 0.817506
Si Si3 0.072897 0.988014 0.196047
Si Si4 0.070700 0.812685 0.313811
Si Si5 0.226971 0.404128 0.981081
Si Si6 0.198169 0.706760 0.718897
O O1 0.074883 0.167483 0.482768
O O2 0.200003 0.129830 0.481032
O O3 0.149925 0.216453 0.239869
O O4 0.119948 0.053471 0.282024
O O5 0.887658 0.267129 0.773533
O O6 0.807616 0.385033 0.701649
O O7 0.770062 0.236462 0.746006
O O8 0.810581 0.324109 0.021170
O O9 0.097017 0.896500 0.230329
O O10 0.000000 0.002408 0.250000
O O11 0.080426 0.000000 0.000000
O O12 0.000000 0.792487 0.250000
O O13 0.226288 0.500000 0.000000
O O14 0.187275 0.364878 0.141189
#
# Coordination Sequence:
#
# PCOD8158308 Si02
#       6
#     8   8   8   8   8   8
#     4  10  21  37  53  81 116 148 188 230 276 349
#     4  10  20  35  57  80 112 145 190 228 281 346
#     4  11  22  33  51  80 119 156 189 222 268 338
#     4  10  19  34  55  78 113 152 183 228 274 330
#     4  11  22  37  58  83 112 144 188 244 288 331
#     4  10  19  36  57  78 113 148 179 235 285 328
#
# _framework density 18.054780000000001
#
# number of rings (size 3 to 8) (size 9 to 14) (size 15 to 20)
#    0.000    1.667    5.000    3.500    2.333    0.667 
#    0.000    0.000    0.000    0.000    8.667    0.000 
#    0.000    0.000    0.000    0.000    0.000    0.000 
#
# Total GULP energy -297344.178062 kJ/mol
# GULP energy per Si atom -12389.340753 kJ/mol
# Density = 1.801369 g / cm^3
# Si number density = 18.054780 Si / 1000 Ang^3
#
#
#
# Elastic Constant Matrix: (Units=GPa)
#
#
# Indices 1 2 3 4 5 6 
#
# 1 64.0194 18.9106 31.6216 0.0000 0.0000 0.0000
# 2 18.9106 67.0116 31.0857 0.0000 0.0000 0.0000
# 3 31.6216 31.0857 99.1329 0.0000 0.0000 0.0000
# 4 0.0000 0.0000 0.0000 36.3467 0.0000 0.0000
# 5 0.0000 0.0000 0.0000 0.0000 26.0041 0.0000
# 6 0.0000 0.0000 0.0000 0.0000 0.0000 25.1848
#
#
#
# Elastic Compliance Matrix: (Units=1/GPa)
#
#
# Indices 1 2 3 4 5 6 
#
# 1 0.019040 -0.002991 -0.005136 0.000000 0.000000 0.000000
# 2 -0.002991 0.017933 -0.004669 0.000000 0.000000 0.000000
# 3 -0.005136 -0.004669 0.013190 0.000000 0.000000 0.000000
# 4 0.000000 0.000000 0.000000 0.027513 0.000000 0.000000
# 5 0.000000 0.000000 0.000000 0.000000 0.038456 0.000000
# 6 0.000000 0.000000 0.000000 0.000000 0.000000 0.039707
#
#
# Mechanical properties :
#
#
# Convention : Reuss Voigt Hill
#
# Bulk Modulus (GPa) = 40.69758 43.71108 42.20433
# Shear Modulus (GPa) = 26.36853 27.41019 26.88936
#
# Velocity S-wave (km/s) = 3.82576 3.90059 3.86336
# Velocity P-wave (km/s) = 6.48886 6.67450 6.58234
#
# Compressibility (1/GPa) = 0.02457148
#
# Stress axis : x y z
#
# Youngs Moduli (GPa) = 52.51984 55.76376 75.81595
#
# Poissons Ratio (x) = 0.16678 0.38937
# Poissons Ratio (y) = 0.15708 0.35401
# Poissons Ratio (z) = 0.26973 0.26038
#
# Static dielectric constant tensor:
#      x y z
#    x 3.134070 0.000000 0.000000 
#    y 0.000000 3.318060 0.000000 
#    z 0.000000 0.000000 3.601150 
# 
# 
# High freq. dielectric constant tensor:
#      x y z
#    x 1.672840 0.000000 0.000000 
#    y 0.000000 1.688860 0.000000 
#    z 0.000000 0.000000 1.707270 
# 
# From -- ./inp_files/10052.got.cif
#   From: 2010.03.12/outbox.cif.g09.slc.cpg/sg20_6_cif.got.tgz:10052.got - 2010.04.14 01:38:04.
