data_PCOD8158635
_publ_section_title
;
Structure prediction by ZEFSAII (Michael W. Deem and Ramdas Pophale) SiO2 
 PCOD8158635
Probable space group: C 2 2 21
;
_chemical_formula_sum "Si O2"
_cell_formula_units_Z 52
_cell_length_a 13.834367
_cell_length_b 11.033737
_cell_length_c 18.401050
_cell_angle_alpha 90.000000
_cell_angle_beta 90.000000
_cell_angle_gamma 90.000000
_cell_volume 2808.823991
_symmetry_space_group_name_H-M "C 2 2 21"
_symmetry_group_IT_number 20
_symmetry_cell_setting 'orthorhombic'
loop_
_space_group_symop_operation_xyz
x,y,z
-x,-y,1/2+z
x,-y,-z
-x,y,1/2-z
1/2+x,1/2+y,z
1/2-x,1/2-y,1/2+z
1/2+x,1/2-y,-z
1/2-x,1/2+y,1/2-z
loop_
_atom_site_type_symbol
_atom_site_label
_atom_site_fract_x
_atom_site_fract_y
_atom_site_fract_z
Si Si1 0.997218 0.373661 0.411867
Si Si2 0.990618 0.349830 0.921654
Si Si3 0.000000 0.027561 0.250000
Si Si4 0.892322 0.832411 0.177926
Si Si5 0.339728 0.183590 0.319067
Si Si6 0.627531 0.733776 0.300520
Si Si7 0.820351 0.413415 0.322557
O O1 0.038217 0.510771 0.404381
O O2 0.008950 0.324241 0.492956
O O3 0.883119 0.381391 0.393963
O O4 0.050017 0.276911 0.359929
O O5 0.094893 0.308979 0.890930
O O6 0.910729 0.265015 0.884591
O O7 0.977705 0.935336 0.182200
O O8 0.906403 0.115590 0.246812
O O9 0.884200 0.768127 0.256542
O O10 0.791126 0.894443 0.157557
O O11 0.229839 0.215937 0.340562
O O12 0.339702 0.046522 0.291362
O O13 0.639062 0.836191 0.242307
#
# Coordination Sequence:
#
# PCOD8158635 Si02
#       7
#     8   8   4   8   8   8   8
#     4  10  21  38  57  79 111 146 185 228 273 331
#     4  10  21  38  57  79 111 146 185 228 273 331
#     4  12  20  36  56  88 114 144 182 238 274 346
#     4  11  21  35  58  83 116 142 186 232 281 329
#     4  10  20  35  58  83 106 147 189 233 276 326
#     4  11  21  35  58  83 116 142 186 232 281 329
#     4  10  20  35  58  83 106 147 189 233 276 326
#
# _framework density 18.513086000000001
#
# number of rings (size 3 to 8) (size 9 to 14) (size 15 to 20)
#    0.000    1.538    4.615    0.923    0.000    3.692 
#    0.000    0.769    0.000    0.000    0.000    0.000 
#    0.000    0.000    0.000    0.000    0.000    0.000 
#
# Total GULP energy -322113.410694 kJ/mol
# GULP energy per Si atom -12388.977334 kJ/mol
# Density = 1.847095 g / cm^3
# Si number density = 18.513086 Si / 1000 Ang^3
#
#
#
# Elastic Constant Matrix: (Units=GPa)
#
#
# Indices 1 2 3 4 5 6 
#
# 1 94.8278 47.9555 44.1057 0.0000 0.0000 0.0000
# 2 47.9555 80.4173 23.3101 0.0000 0.0000 0.0000
# 3 44.1057 23.3101 69.8076 0.0000 0.0000 0.0000
# 4 0.0000 0.0000 0.0000 22.9604 0.0000 0.0000
# 5 0.0000 0.0000 0.0000 0.0000 19.2662 0.0000
# 6 0.0000 0.0000 0.0000 0.0000 0.0000 28.4020
#
#
#
# Elastic Compliance Matrix: (Units=1/GPa)
#
#
# Indices 1 2 3 4 5 6 
#
# 1 0.019320 -0.008838 -0.009255 0.000000 0.000000 0.000000
# 2 -0.008838 0.017811 -0.000363 0.000000 0.000000 0.000000
# 3 -0.009255 -0.000363 0.020294 0.000000 0.000000 0.000000
# 4 0.000000 0.000000 0.000000 0.043553 0.000000 0.000000
# 5 0.000000 0.000000 0.000000 0.000000 0.051904 0.000000
# 6 0.000000 0.000000 0.000000 0.000000 0.000000 0.035209
#
#
# Mechanical properties :
#
#
# Convention : Reuss Voigt Hill
#
# Bulk Modulus (GPa) = 48.75395 52.86616 50.81005
# Shear Modulus (GPa) = 21.56639 22.77114 22.16877
#
# Velocity S-wave (km/s) = 3.41681 3.51094 3.46419
# Velocity P-wave (km/s) = 6.47751 6.71221 6.59590
#
# Compressibility (1/GPa) = 0.02051116
#
# Stress axis : x y z
#
# Youngs Moduli (GPa) = 51.76019 56.14509 49.27540
#
# Poissons Ratio (x) = 0.49623 0.45606
# Poissons Ratio (y) = 0.45747 0.01790
# Poissons Ratio (z) = 0.47906 0.02039
#
# Static dielectric constant tensor:
#      x y z
#    x 3.673810 0.000000 0.000000 
#    y 0.000000 3.687580 0.000000 
#    z 0.000000 0.000000 3.196110 
# 
# 
# High freq. dielectric constant tensor:
#      x y z
#    x 1.724570 0.000000 0.000000 
#    y 0.000000 1.735670 0.000000 
#    z 0.000000 0.000000 1.686150 
# 
# From -- ./inp_files/24913.got.cif
#   From: 2010.03.12/outbox.cif.g09.slc.cpg/sg20_13_cif.got.tgz:24913.got - 2010.04.14 01:38:04.
