data_PCOD8158909
_publ_section_title
;
Structure prediction by ZEFSAII (Michael W. Deem and Ramdas Pophale) SiO2 
 PCOD8158909
Probable space group: C 2 2 21
;
_chemical_formula_sum "Si O2"
_cell_formula_units_Z 48
_cell_length_a 16.683126
_cell_length_b 8.008464
_cell_length_c 17.627071
_cell_angle_alpha 90.000000
_cell_angle_beta 90.000000
_cell_angle_gamma 90.000000
_cell_volume 2355.086220
_symmetry_space_group_name_H-M "C 2 2 21"
_symmetry_group_IT_number 20
_symmetry_cell_setting 'orthorhombic'
loop_
_space_group_symop_operation_xyz
x,y,z
-x,-y,1/2+z
x,-y,-z
-x,y,1/2-z
1/2+x,1/2+y,z
1/2-x,1/2-y,1/2+z
1/2+x,1/2-y,-z
1/2-x,1/2+y,1/2-z
loop_
_atom_site_type_symbol
_atom_site_label
_atom_site_fract_x
_atom_site_fract_y
_atom_site_fract_z
Si Si1 0.589750 0.666468 0.310091
Si Si2 0.154673 0.808121 0.993419
Si Si3 0.037307 0.353364 0.893055
Si Si4 0.088987 0.500000 0.500000
Si Si5 0.000000 0.870852 0.250000
Si Si6 0.181818 0.830871 0.540954
Si Si7 0.416398 0.807571 0.343609
O O1 0.575953 0.485859 0.271231
O O2 0.661370 0.652593 0.370170
O O3 0.507424 0.735009 0.347907
O O4 0.618023 0.786142 0.241450
O O5 0.075200 0.759083 0.040375
O O6 0.223830 0.688813 0.026297
O O7 0.138973 0.785595 0.904376
O O8 0.178722 0.000000 0.000000
O O9 0.015102 0.237999 0.823577
O O10 0.094780 0.496910 0.861101
O O11 0.963020 0.459101 0.925871
O O12 0.141173 0.664825 0.509829
O O13 0.150389 0.000000 0.500000
#
# Coordination Sequence:
#
# PCOD8158909 Si02
#       7
#     8   8   8   4   4   8   8
#     4  10  21  41  64 100 131 175 228 294 346 412
#     4  12  24  43  66  96 137 186 230 282 356 425
#     4  12  21  40  66  99 132 175 231 285 346 414
#     4  12  24  42  70 104 130 184 232 280 346 422
#     4  10  22  36  68 100 130 174 230 296 348 410
#     4  12  25  44  67  99 144 182 229 288 350 430
#     4  10  20  39  66  93 131 169 228 282 346 407
#
# _framework density 20.381419000000001
#
# number of rings (size 3 to 8) (size 9 to 14) (size 15 to 20)
#    0.000    1.000    4.167    5.000    0.000    1.333 
#    0.000    8.333    0.000    0.000    0.000    0.000 
#    0.000    0.000    0.000    0.000    0.000    0.000 
#
# Total GULP energy -297533.186279 kJ/mol
# GULP energy per Si atom -12397.216095 kJ/mol
# Density = 2.033503 g / cm^3
# Si number density = 20.381419 Si / 1000 Ang^3
#
#
#
# Elastic Constant Matrix: (Units=GPa)
#
#
# Indices 1 2 3 4 5 6 
#
# 1 64.2472 17.0495 46.4532 0.0000 0.0000 0.0000
# 2 17.0495 134.7558 41.2846 0.0000 0.0000 0.0000
# 3 46.4532 41.2846 141.2274 0.0000 0.0000 0.0000
# 4 0.0000 0.0000 0.0000 47.5238 0.0000 0.0000
# 5 0.0000 0.0000 0.0000 0.0000 27.8161 0.0000
# 6 0.0000 0.0000 0.0000 0.0000 0.0000 24.4488
#
#
#
# Elastic Compliance Matrix: (Units=1/GPa)
#
#
# Indices 1 2 3 4 5 6 
#
# 1 0.020463 -0.000579 -0.006562 0.000000 0.000000 0.000000
# 2 -0.000579 0.008167 -0.002197 0.000000 0.000000 0.000000
# 3 -0.006562 -0.002197 0.009881 0.000000 0.000000 0.000000
# 4 0.000000 0.000000 0.000000 0.021042 0.000000 0.000000
# 5 0.000000 0.000000 0.000000 0.000000 0.035950 0.000000
# 6 0.000000 0.000000 0.000000 0.000000 0.000000 0.040902
#
#
# Mechanical properties :
#
#
# Convention : Reuss Voigt Hill
#
# Bulk Modulus (GPa) = 50.41232 61.08944 55.75088
# Shear Modulus (GPa) = 30.92292 35.65395 33.28843
#
# Velocity S-wave (km/s) = 3.89937 4.18704 4.04576
# Velocity P-wave (km/s) = 6.71279 7.30844 7.01694
#
# Compressibility (1/GPa) = 0.01983642
#
# Stress axis : x y z
#
# Youngs Moduli (GPa) = 48.86942 122.44129 101.20125
#
# Poissons Ratio (x) = 0.07086 0.66403
# Poissons Ratio (y) = 0.02828 0.22235
# Poissons Ratio (z) = 0.32066 0.26902
#
# Static dielectric constant tensor:
#      x y z
#    x 3.360340 0.000000 0.000000 
#    y 0.000000 3.999760 0.000000 
#    z 0.000000 0.000000 3.863020 
# 
# 
# High freq. dielectric constant tensor:
#      x y z
#    x 1.758820 0.000000 0.000000 
#    y 0.000000 1.820980 0.000000 
#    z 0.000000 0.000000 1.810480 
# 
# From -- ./inp_files/25187.got.cif
#   From: 2010.03.12/outbox.cif.g09.slc.cpg/sg20_13_cif.got.tgz:25187.got - 2010.04.14 01:38:04.
