data_PCOD8158237
_publ_section_title
;
Structure prediction by ZEFSAII (Michael W. Deem and Ramdas Pophale) SiO2 
 PCOD8158237
Probable space group: C 2 2 21
;
_chemical_formula_sum "Si O2"
_cell_formula_units_Z 64
_cell_length_a 27.000691
_cell_length_b 20.750577
_cell_length_c 5.301337
_cell_angle_alpha 90.000000
_cell_angle_beta 90.000000
_cell_angle_gamma 90.000000
_cell_volume 2970.232658
_symmetry_space_group_name_H-M "C 2 2 21"
_symmetry_group_IT_number 20
_symmetry_cell_setting 'orthorhombic'
loop_
_space_group_symop_operation_xyz
x,y,z
-x,-y,1/2+z
x,-y,-z
-x,y,1/2-z
1/2+x,1/2+y,z
1/2-x,1/2-y,1/2+z
1/2+x,1/2-y,-z
1/2-x,1/2+y,1/2-z
loop_
_atom_site_type_symbol
_atom_site_label
_atom_site_fract_x
_atom_site_fract_y
_atom_site_fract_z
Si Si1 0.556545 0.960088 0.747131
Si Si2 0.790062 0.221187 0.316185
Si Si3 0.194084 0.076500 0.507865
Si Si4 0.027883 0.923225 0.997233
Si Si5 0.819102 0.240982 0.816482
Si Si6 0.800501 0.626355 0.663059
Si Si7 0.140088 0.076767 0.996806
Si Si8 0.856091 0.372533 0.832031
O O1 0.500000 0.937394 0.750000
O O2 0.588188 0.895942 0.705119
O O3 0.568665 0.000000 0.500000
O O4 0.570103 0.000000 0.000000
O O5 0.818100 0.195346 0.567404
O O6 0.730909 0.211921 0.316086
O O7 0.801871 0.296860 0.313752
O O8 0.814892 0.193027 0.058211
O O9 0.245329 0.102094 0.622185
O O10 0.154284 0.099514 0.715349
O O11 0.197445 0.000000 0.500000
O O12 0.177832 0.101600 0.223175
O O13 0.000000 0.896749 0.750000
O O14 0.084100 0.897110 0.969892
O O15 0.000000 0.897531 0.250000
O O16 0.027784 0.000000 0.000000
O O17 0.862048 0.293782 0.832576
O O18 0.828832 0.601577 0.416567
O O19 0.827792 0.600155 0.917953
O O20 0.140489 0.000000 0.000000
#
# Coordination Sequence:
#
# PCOD8158237 Si02
#       8
#     8   8   8   8   8   8   8   8
#     4  10  21  36  51  67  91 124 158 198 251 298
#     4   8  14  25  40  61  87 113 136 167 217 264
#     4  10  19  29  38  52  79 116 149 175 208 252
#     4   9  15  23  37  55  70  87 119 165 210 247
#     4   8  14  25  42  62  86 111 135 169 215 264
#     4  10  19  29  44  65  89 118 153 190 224 268
#     4   9  17  28  39  51  74 106 135 168 211 251
#     4  10  19  31  47  67  87 113 152 192 226 270
#
# _framework density 21.547132999999999
#
# number of rings (size 3 to 8) (size 9 to 14) (size 15 to 20)
#    0.000    2.750    0.000    2.250    0.000    4.500 
#    0.000    0.000    0.000    0.000    0.000    0.000 
#    0.000    3.000    0.000    3.500    0.000    4.125 
#
# Total GULP energy -396442.177765 kJ/mol
# GULP energy per Si atom -12388.818055 kJ/mol
# Density = 2.149809 g / cm^3
# Si number density = 21.547133 Si / 1000 Ang^3
#
#
#
# Elastic Constant Matrix: (Units=GPa)
#
#
# Indices 1 2 3 4 5 6 
#
# 1 87.7479 17.4922 44.8673 0.0000 0.0000 0.0000
# 2 17.4922 33.1731 33.4323 0.0000 0.0000 0.0000
# 3 44.8673 33.4323 215.8831 0.0000 0.0000 0.0000
# 4 0.0000 0.0000 0.0000 18.8448 0.0000 0.0000
# 5 0.0000 0.0000 0.0000 0.0000 48.8390 0.0000
# 6 0.0000 0.0000 0.0000 0.0000 0.0000 23.7961
#
#
#
# Elastic Compliance Matrix: (Units=1/GPa)
#
#
# Indices 1 2 3 4 5 6 
#
# 1 0.013431 -0.005059 -0.002008 0.000000 0.000000 0.000000
# 2 -0.005059 0.037625 -0.004775 0.000000 0.000000 0.000000
# 3 -0.002008 -0.004775 0.005789 0.000000 0.000000 0.000000
# 4 0.000000 0.000000 0.000000 0.053065 0.000000 0.000000
# 5 0.000000 0.000000 0.000000 0.000000 0.020475 0.000000
# 6 0.000000 0.000000 0.000000 0.000000 0.000000 0.042024
#
#
# Mechanical properties :
#
#
# Convention : Reuss Voigt Hill
#
# Bulk Modulus (GPa) = 30.15564 58.70975 44.43269
# Shear Modulus (GPa) = 24.13736 34.36347 29.25041
#
# Velocity S-wave (km/s) = 3.35059 3.99783 3.68843
# Velocity P-wave (km/s) = 5.38462 6.97255 6.22939
#
# Compressibility (1/GPa) = 0.03316129
#
# Stress axis : x y z
#
# Youngs Moduli (GPa) = 74.45189 26.57802 172.74114
#
# Poissons Ratio (x) = 0.13445 0.34688
# Poissons Ratio (y) = 0.37663 0.82490
# Poissons Ratio (z) = 0.14951 0.12692
#
# Static dielectric constant tensor:
#      x y z
#    x 3.788090 0.000000 0.000000 
#    y 0.000000 3.689180 0.000000 
#    z 0.000000 0.000000 5.216500 
# 
# 
# High freq. dielectric constant tensor:
#      x y z
#    x 1.810650 0.000000 0.000000 
#    y 0.000000 1.828150 0.000000 
#    z 0.000000 0.000000 1.893490 
# 
# From -- ./inp_files/3878.got.cif
#   From: 2010.03.12/outbox.cif.g09.slc.cpg/sg20_2_cif.got.tgz:3878.got - 2010.04.14 01:38:04.
