data_PCOD8158377
_publ_section_title
;
Structure prediction by ZEFSAII (Michael W. Deem and Ramdas Pophale) SiO2 
 PCOD8158377
Probable space group: C 2 2 21
;
_chemical_formula_sum "Si O2"
_cell_formula_units_Z 64
_cell_length_a 12.506939
_cell_length_b 8.539520
_cell_length_c 29.312859
_cell_angle_alpha 90.000000
_cell_angle_beta 90.000000
_cell_angle_gamma 90.000000
_cell_volume 3130.708776
_symmetry_space_group_name_H-M "C 2 2 21"
_symmetry_group_IT_number 20
_symmetry_cell_setting 'orthorhombic'
loop_
_space_group_symop_operation_xyz
x,y,z
-x,-y,1/2+z
x,-y,-z
-x,y,1/2-z
1/2+x,1/2+y,z
1/2-x,1/2-y,1/2+z
1/2+x,1/2-y,-z
1/2-x,1/2+y,1/2-z
loop_
_atom_site_type_symbol
_atom_site_label
_atom_site_fract_x
_atom_site_fract_y
_atom_site_fract_z
Si Si1 0.183215 0.197661 0.860272
Si Si2 0.865656 0.088646 0.043681
Si Si3 0.248579 0.634067 0.798259
Si Si4 0.883424 0.085447 0.142044
Si Si5 0.451859 0.195269 0.545868
Si Si6 0.119631 0.652139 0.231373
Si Si7 0.122777 0.151420 0.133947
Si Si8 0.876525 0.648116 0.450628
O O1 0.303632 0.264829 0.860275
O O2 0.117005 0.263175 0.817518
O O3 0.117049 0.250266 0.905006
O O4 0.186845 0.010382 0.860119
O O5 0.882268 0.998728 0.092274
O O6 0.742545 0.110268 0.034051
O O7 0.924173 0.255932 0.050934
O O8 0.916333 0.000000 0.000000
O O9 0.344980 0.533159 0.819338
O O10 0.164590 0.523902 0.771839
O O11 0.298858 0.756443 0.763750
O O12 0.185232 0.717062 0.838633
O O13 0.002920 0.139401 0.154590
O O14 0.379969 0.296691 0.580969
O O15 0.421867 0.240804 0.494033
O O16 0.441909 0.012220 0.557047
O O17 0.000000 0.647585 0.250000
#
# Coordination Sequence:
#
# PCOD8158377 Si02
#       8
#     8   8   8   8   8   8   8   8
#     4  10  22  41  64  87 123 161 205 249 308 366
#     4  10  19  35  62  86 121 162 202 243 301 355
#     4  11  24  41  66  91 124 160 206 250 313 367
#     4   9  22  41  60  88 127 162 197 254 302 361
#     4  10  21  36  62  89 120 162 205 244 304 359
#     4  11  24  43  64  93 123 158 204 255 308 366
#     4  11  22  39  64  92 120 162 203 250 306 366
#     4  10  21  42  59  84 127 165 197 260 300 354
#
# _framework density 20.442654000000001
#
# number of rings (size 3 to 8) (size 9 to 14) (size 15 to 20)
#    0.000    1.750    1.250    3.750    3.500    3.000 
#    0.000   14.375    0.000    0.000    0.000    0.000 
#    0.000    0.000    0.000    0.000    0.000    0.000 
#
# Total GULP energy -396729.139171 kJ/mol
# GULP energy per Si atom -12397.785599 kJ/mol
# Density = 2.039613 g / cm^3
# Si number density = 20.442654 Si / 1000 Ang^3
#
#
#
# Elastic Constant Matrix: (Units=GPa)
#
#
# Indices 1 2 3 4 5 6 
#
# 1 68.5951 36.4915 31.7246 0.0000 0.0000 0.0000
# 2 36.4915 104.7063 31.6543 0.0000 0.0000 0.0000
# 3 31.7246 31.6543 110.5915 0.0000 0.0000 0.0000
# 4 0.0000 0.0000 0.0000 38.6075 0.0000 0.0000
# 5 0.0000 0.0000 0.0000 0.0000 30.0049 0.0000
# 6 0.0000 0.0000 0.0000 0.0000 0.0000 22.8007
#
#
#
# Elastic Compliance Matrix: (Units=1/GPa)
#
#
# Indices 1 2 3 4 5 6 
#
# 1 0.019365 -0.005550 -0.003967 0.000000 0.000000 0.000000
# 2 -0.005550 0.012046 -0.001856 0.000000 0.000000 0.000000
# 3 -0.003967 -0.001856 0.010711 0.000000 0.000000 0.000000
# 4 0.000000 0.000000 0.000000 0.025902 0.000000 0.000000
# 5 0.000000 0.000000 0.000000 0.000000 0.033328 0.000000
# 6 0.000000 0.000000 0.000000 0.000000 0.000000 0.043858
#
#
# Mechanical properties :
#
#
# Convention : Reuss Voigt Hill
#
# Bulk Modulus (GPa) = 51.60546 53.73706 52.67126
# Shear Modulus (GPa) = 28.66740 30.55079 29.60909
#
# Velocity S-wave (km/s) = 3.74884 3.87002 3.80991
# Velocity P-wave (km/s) = 6.63605 6.80538 6.72125
#
# Compressibility (1/GPa) = 0.01937780
#
# Stress axis : x y z
#
# Youngs Moduli (GPa) = 51.63879 83.01678 93.35895
#
# Poissons Ratio (x) = 0.46073 0.37032
# Poissons Ratio (y) = 0.28659 0.17325
# Poissons Ratio (z) = 0.20483 0.15406
#
# Static dielectric constant tensor:
#      x y z
#    x 3.674660 0.000000 0.000000 
#    y 0.000000 3.518660 0.000000 
#    z 0.000000 0.000000 3.929760 
# 
# 
# High freq. dielectric constant tensor:
#      x y z
#    x 1.796780 0.000000 0.000000 
#    y 0.000000 1.786960 0.000000 
#    z 0.000000 0.000000 1.819490 
# 
# From -- ./inp_files/31195.got.cif
#   From: 2010.03.12/outbox.cif.g09.slc.cpg/sg20_16_cif.got.tgz:31195.got - 2010.04.14 01:38:04.
