data_PCOD8158859
_publ_section_title
;
Structure prediction by ZEFSAII (Michael W. Deem and Ramdas Pophale) SiO2 
 PCOD8158859
Probable space group: C 2 2 21
;
_chemical_formula_sum "Si O2"
_cell_formula_units_Z 44
_cell_length_a 13.294128
_cell_length_b 17.418054
_cell_length_c 8.937454
_cell_angle_alpha 90.000000
_cell_angle_beta 90.000000
_cell_angle_gamma 90.000000
_cell_volume 2069.537538
_symmetry_space_group_name_H-M "C 2 2 21"
_symmetry_group_IT_number 20
_symmetry_cell_setting 'orthorhombic'
loop_
_space_group_symop_operation_xyz
x,y,z
-x,-y,1/2+z
x,-y,-z
-x,y,1/2-z
1/2+x,1/2+y,z
1/2-x,1/2-y,1/2+z
1/2+x,1/2-y,-z
1/2-x,1/2+y,1/2-z
loop_
_atom_site_type_symbol
_atom_site_label
_atom_site_fract_x
_atom_site_fract_y
_atom_site_fract_z
Si Si1 0.910206 0.055756 0.862213
Si Si2 0.756063 0.018158 0.338352
Si Si3 0.535582 0.850883 0.917212
Si Si4 0.737321 0.817336 0.784694
Si Si5 0.620622 0.273796 0.465668
Si Si6 0.437866 0.000000 0.000000
O O1 0.913733 0.142786 0.914925
O O2 0.000000 0.037915 0.750000
O O3 0.802885 0.038971 0.783685
O O4 0.924811 0.000000 0.000000
O O5 0.778673 0.105796 0.293133
O O6 0.806737 0.000000 0.500000
O O7 0.634896 0.005239 0.352651
O O8 0.500000 0.866416 0.750000
O O9 0.655032 0.837331 0.913361
O O10 0.479473 0.776909 0.984916
O O11 0.507984 0.925357 0.015568
O O12 0.694380 0.761438 0.658617
O O13 0.827204 0.775416 0.872056
#
# Coordination Sequence:
#
# PCOD8158859 Si02
#       6
#     8   8   8   8   8   4
#     4  12  25  43  66  98 131 180 231 277 330 398
#     4  10  21  41  65  96 129 172 220 278 336 394
#     4  10  20  42  63  95 130 173 215 269 332 397
#     4  11  23  44  67  98 133 176 222 277 334 407
#     4  11  24  43  66  95 137 176 224 274 340 396
#     4  10  20  38  68  92 126 174 218 266 346 394
#
# _framework density 21.260788999999999
#
# number of rings (size 3 to 8) (size 9 to 14) (size 15 to 20)
#    0.545    0.727    5.455    2.182    5.091    1.455 
#    3.273    0.909    0.000    0.000    0.000    0.000 
#    0.000    0.000    0.000    0.000    0.000    0.000 
#
# Total GULP energy -272802.109963 kJ/mol
# GULP energy per Si atom -12400.095907 kJ/mol
# Density = 2.121240 g / cm^3
# Si number density = 21.260789 Si / 1000 Ang^3
#
#
#
# Elastic Constant Matrix: (Units=GPa)
#
#
# Indices 1 2 3 4 5 6 
#
# 1 58.4325 36.2535 27.4797 0.0000 0.0000 0.0000
# 2 36.2535 175.2432 50.1083 0.0000 0.0000 0.0000
# 3 27.4797 50.1083 80.8983 0.0000 0.0000 0.0000
# 4 0.0000 0.0000 0.0000 45.7561 0.0000 0.0000
# 5 0.0000 0.0000 0.0000 0.0000 36.7806 0.0000
# 6 0.0000 0.0000 0.0000 0.0000 0.0000 29.0929
#
#
#
# Elastic Compliance Matrix: (Units=1/GPa)
#
#
# Indices 1 2 3 4 5 6 
#
# 1 0.021490 -0.002866 -0.005525 0.000000 0.000000 0.000000
# 2 -0.002866 0.007317 -0.003558 0.000000 0.000000 0.000000
# 3 -0.005525 -0.003558 0.016442 0.000000 0.000000 0.000000
# 4 0.000000 0.000000 0.000000 0.021855 0.000000 0.000000
# 5 0.000000 0.000000 0.000000 0.000000 0.027188 0.000000
# 6 0.000000 0.000000 0.000000 0.000000 0.000000 0.034373
#
#
# Mechanical properties :
#
#
# Convention : Reuss Voigt Hill
#
# Bulk Modulus (GPa) = 46.83715 60.25078 53.54397
# Shear Modulus (GPa) = 31.31271 35.70809 33.51040
#
# Velocity S-wave (km/s) = 3.84186 4.10265 3.97439
# Velocity P-wave (km/s) = 6.46200 7.13041 6.80442
#
# Compressibility (1/GPa) = 0.02135057
#
# Stress axis : x y z
#
# Youngs Moduli (GPa) = 46.53315 136.67241 60.82033
#
# Poissons Ratio (x) = 0.39172 0.33600
# Poissons Ratio (y) = 0.13337 0.21643
# Poissons Ratio (z) = 0.25707 0.48634
#
# Static dielectric constant tensor:
#      x y z
#    x 4.006860 0.000000 0.000000 
#    y 0.000000 4.060100 0.000000 
#    z 0.000000 0.000000 3.641010 
# 
# 
# High freq. dielectric constant tensor:
#      x y z
#    x 1.827420 0.000000 0.000000 
#    y 0.000000 1.844260 0.000000 
#    z 0.000000 0.000000 1.822180 
# 
# From -- ./inp_files/8316.got.cif
#   From: 2010.03.12/outbox.cif.g09.slc.cpg/sg20_5_cif.got.tgz:8316.got - 2010.04.14 01:38:04.
