data_PCOD8158810
_publ_section_title
;
Structure prediction by ZEFSAII (Michael W. Deem and Ramdas Pophale) SiO2 
 PCOD8158810
Probable space group: C 2 2 21
;
_chemical_formula_sum "Si O2"
_cell_formula_units_Z 64
_cell_length_a 13.345206
_cell_length_b 13.749397
_cell_length_c 17.220161
_cell_angle_alpha 90.000000
_cell_angle_beta 90.000000
_cell_angle_gamma 90.000000
_cell_volume 3159.702120
_symmetry_space_group_name_H-M "C 2 2 21"
_symmetry_group_IT_number 20
_symmetry_cell_setting 'orthorhombic'
loop_
_space_group_symop_operation_xyz
x,y,z
-x,-y,1/2+z
x,-y,-z
-x,y,1/2-z
1/2+x,1/2+y,z
1/2-x,1/2-y,1/2+z
1/2+x,1/2-y,-z
1/2-x,1/2+y,1/2-z
loop_
_atom_site_type_symbol
_atom_site_label
_atom_site_fract_x
_atom_site_fract_y
_atom_site_fract_z
Si Si1 0.785523 0.964402 0.721757
Si Si2 0.527563 0.300942 0.026464
Si Si3 0.799284 0.217328 0.941573
Si Si4 0.268894 0.251843 0.735383
Si Si5 0.602351 0.079015 0.787099
Si Si6 0.092130 0.849412 0.196829
Si Si7 0.888690 0.604418 0.534385
Si Si8 0.802602 0.093653 0.451316
O O1 0.811896 0.858485 0.756603
O O2 0.766563 0.939545 0.632608
O O3 0.687526 0.999697 0.768179
O O4 0.874373 0.043286 0.727159
O O5 0.408646 0.314456 0.030746
O O6 0.567822 0.346762 0.106368
O O7 0.549021 0.186856 0.012199
O O8 0.581765 0.365911 0.958813
O O9 0.780761 0.233631 0.849603
O O10 0.728892 0.130019 0.971388
O O11 0.767995 0.318845 0.982369
O O12 0.363005 0.181406 0.749520
O O13 0.181380 0.227652 0.795612
O O14 0.500000 0.041495 0.750000
O O15 0.579043 0.097166 0.876715
O O16 0.000000 0.815832 0.250000
O O17 0.912372 0.500000 0.500000
O O18 0.781371 0.000000 0.500000
#
# Coordination Sequence:
#
# PCOD8158810 Si02
#       8
#     8   8   8   8   8   8   8   8
#     4  10  22  40  63  91 125 165 207 267 312 373
#     4  11  22  39  63  91 127 167 209 263 318 375
#     4   9  20  39  60  86 122 168 201 255 311 369
#     4   9  20  39  61  87 128 160 208 261 308 368
#     4  10  23  43  65  89 125 166 209 257 320 384
#     4  11  21  37  63  94 124 165 216 258 313 381
#     4  10  24  43  60  91 129 161 209 264 316 381
#     4  10  20  38  60  90 125 158 210 257 318 372
#
# _framework density 20.255075000000001
#
# number of rings (size 3 to 8) (size 9 to 14) (size 15 to 20)
#    0.000    2.000    2.500    0.750    1.750    5.000 
#    2.250    0.000    0.000    0.000    0.000    0.000 
#    0.000    0.000    0.000    0.000    0.000    0.000 
#
# Total GULP energy -396517.167783 kJ/mol
# GULP energy per Si atom -12391.161493 kJ/mol
# Density = 2.020897 g / cm^3
# Si number density = 20.255075 Si / 1000 Ang^3
#
#
#
# Elastic Constant Matrix: (Units=GPa)
#
#
# Indices 1 2 3 4 5 6 
#
# 1 63.8746 -20.3838 12.5177 0.0000 0.0000 0.0000
# 2 -20.3838 73.2458 2.5748 0.0000 0.0000 0.0000
# 3 12.5177 2.5748 34.4711 0.0000 0.0000 0.0000
# 4 0.0000 0.0000 0.0000 27.1909 0.0000 0.0000
# 5 0.0000 0.0000 0.0000 0.0000 22.2306 0.0000
# 6 0.0000 0.0000 0.0000 0.0000 0.0000 8.8561
#
#
#
# Elastic Compliance Matrix: (Units=1/GPa)
#
#
# Indices 1 2 3 4 5 6 
#
# 1 0.018830 0.005495 -0.007248 0.000000 0.000000 0.000000
# 2 0.005495 0.015292 -0.003138 0.000000 0.000000 0.000000
# 3 -0.007248 -0.003138 0.031876 0.000000 0.000000 0.000000
# 4 0.000000 0.000000 0.000000 0.036777 0.000000 0.000000
# 5 0.000000 0.000000 0.000000 0.000000 0.044983 0.000000
# 6 0.000000 0.000000 0.000000 0.000000 0.000000 0.112917
#
#
# Mechanical properties :
#
#
# Convention : Reuss Voigt Hill
#
# Bulk Modulus (GPa) = 17.78842 17.88988 17.83915
# Shear Modulus (GPa) = 17.28934 23.44771 20.36852
#
# Velocity S-wave (km/s) = 2.92478 3.40607 3.17456
# Velocity P-wave (km/s) = 4.49523 4.93152 4.71842
#
# Compressibility (1/GPa) = 0.05621635
#
# Stress axis : x y z
#
# Youngs Moduli (GPa) = 53.10763 65.39295 31.37135
#
# Poissons Ratio (x) = -0.35933 0.22739
# Poissons Ratio (y) = -0.29182 0.09843
# Poissons Ratio (z) = 0.38493 0.20518
#
# Static dielectric constant tensor:
#      x y z
#    x 3.575550 0.000000 0.000000 
#    y 0.000000 4.282770 0.000000 
#    z 0.000000 0.000000 3.770970 
# 
# 
# High freq. dielectric constant tensor:
#      x y z
#    x 1.779050 0.000000 0.000000 
#    y 0.000000 1.803640 0.000000 
#    z 0.000000 0.000000 1.780320 
# 
# From -- ./inp_files/24471.got.cif
#   From: 2010.03.12/outbox.cif.g09.slc.cpg/sg20_13_cif.got.tgz:24471.got - 2010.04.14 01:38:04.
