data_PCOD8158944
_publ_section_title
;
Structure prediction by ZEFSAII (Michael W. Deem and Ramdas Pophale) SiO2 
 PCOD8158944
Probable space group: C 2 2 21
;
_chemical_formula_sum "Si O2"
_cell_formula_units_Z 60
_cell_length_a 11.649768
_cell_length_b 11.637886
_cell_length_c 20.060769
_cell_angle_alpha 90.000000
_cell_angle_beta 90.000000
_cell_angle_gamma 90.000000
_cell_volume 2719.812419
_symmetry_space_group_name_H-M "C 2 2 21"
_symmetry_group_IT_number 20
_symmetry_cell_setting 'orthorhombic'
loop_
_space_group_symop_operation_xyz
x,y,z
-x,-y,1/2+z
x,-y,-z
-x,y,1/2-z
1/2+x,1/2+y,z
1/2-x,1/2-y,1/2+z
1/2+x,1/2-y,-z
1/2-x,1/2+y,1/2-z
loop_
_atom_site_type_symbol
_atom_site_label
_atom_site_fract_x
_atom_site_fract_y
_atom_site_fract_z
Si Si1 0.809984 0.802905 0.124890
Si Si2 0.380768 0.458410 0.923594
Si Si3 0.125945 0.616554 0.275308
Si Si4 0.884299 0.500000 0.000000
Si Si5 0.997534 0.702491 0.448873
Si Si6 0.649784 0.900713 0.369262
Si Si7 0.948430 0.761883 0.593752
Si Si8 0.206495 0.307551 0.857449
O O1 0.864177 0.740102 0.188865
O O2 0.678220 0.758699 0.123040
O O3 0.879602 0.764853 0.058907
O O4 0.837085 0.939532 0.125920
O O5 0.495970 0.390977 0.896087
O O6 0.278036 0.365915 0.917579
O O7 0.395995 0.500000 0.000000
O O8 0.157418 0.514007 0.324891
O O9 0.206690 0.616162 0.209716
O O10 0.000000 0.594640 0.250000
O O11 0.810225 0.571807 0.946228
O O12 0.972648 0.430881 0.953572
O O13 0.936340 0.748159 0.514633
O O14 0.920916 0.718524 0.383576
O O15 0.525907 0.837454 0.372247
O O16 0.740977 0.814929 0.337575
#
# Coordination Sequence:
#
# PCOD8158944 Si02
#       8
#     8   8   8   4   8   8   8   8
#     4  12  25  43  69 104 143 192 230 288 374 426
#     4  11  24  46  71 108 144 183 233 304 374 429
#     4  12  26  47  68  99 138 190 248 289 353 441
#     4  10  20  40  64 100 136 174 234 284 350 428
#     4  11  22  41  66 106 136 178 232 288 359 432
#     4  10  24  44  70 102 135 183 237 300 357 424
#     4  10  25  44  70 107 145 178 237 301 364 441
#     4  11  26  43  72 102 137 188 240 295 362 434
#
# _framework density 22.060347
#
# number of rings (size 3 to 8) (size 9 to 14) (size 15 to 20)
#    0.000    1.067    4.000    0.800   12.133    1.067 
#    1.200    2.000    0.000    0.000    0.000    0.000 
#    0.000    0.000    0.000    0.000    0.000    0.000 
#
# Total GULP energy -371664.147049 kJ/mol
# GULP energy per Si atom -12388.804902 kJ/mol
# Density = 2.201014 g / cm^3
# Si number density = 22.060347 Si / 1000 Ang^3
#
#
#
# Elastic Constant Matrix: (Units=GPa)
#
#
# Indices 1 2 3 4 5 6 
#
# 1 75.5691 39.4671 18.2588 0.0000 0.0000 0.0000
# 2 39.4671 130.3857 35.3973 0.0000 0.0000 0.0000
# 3 18.2588 35.3973 81.0699 0.0000 0.0000 0.0000
# 4 0.0000 0.0000 0.0000 31.2848 0.0000 0.0000
# 5 0.0000 0.0000 0.0000 0.0000 17.8774 0.0000
# 6 0.0000 0.0000 0.0000 0.0000 0.0000 24.0225
#
#
#
# Elastic Compliance Matrix: (Units=1/GPa)
#
#
# Indices 1 2 3 4 5 6 
#
# 1 0.015917 -0.004362 -0.001680 0.000000 0.000000 0.000000
# 2 -0.004362 0.009896 -0.003339 0.000000 0.000000 0.000000
# 3 -0.001680 -0.003339 0.014171 0.000000 0.000000 0.000000
# 4 0.000000 0.000000 0.000000 0.031964 0.000000 0.000000
# 5 0.000000 0.000000 0.000000 0.000000 0.055936 0.000000
# 6 0.000000 0.000000 0.000000 0.000000 0.000000 0.041628
#
#
# Mechanical properties :
#
#
# Convention : Reuss Voigt Hill
#
# Bulk Modulus (GPa) = 47.11899 52.58568 49.85234
# Shear Modulus (GPa) = 25.59527 27.56371 26.57949
#
# Velocity S-wave (km/s) = 3.40992 3.53862 3.47487
# Velocity P-wave (km/s) = 6.07527 6.37061 6.22469
#
# Compressibility (1/GPa) = 0.02122286
#
# Stress axis : x y z
#
# Youngs Moduli (GPa) = 62.82619 101.04885 70.56557
#
# Poissons Ratio (x) = 0.44075 0.11858
# Poissons Ratio (y) = 0.27403 0.23559
# Poissons Ratio (z) = 0.10557 0.33736
#
# Static dielectric constant tensor:
#      x y z
#    x 3.899170 0.000000 0.000000 
#    y 0.000000 4.251200 0.000000 
#    z 0.000000 0.000000 4.045570 
# 
# 
# High freq. dielectric constant tensor:
#      x y z
#    x 1.856530 0.000000 0.000000 
#    y 0.000000 1.881100 0.000000 
#    z 0.000000 0.000000 1.859980 
# 
# From -- ./inp_files/27287.got.cif
#   From: 2010.03.12/outbox.cif.g09.slc.cpg/sg20_14_cif.got.tgz:27287.got - 2010.04.14 01:38:04.
