data_PCOD8158656
_publ_section_title
;
Structure prediction by ZEFSAII (Michael W. Deem and Ramdas Pophale) SiO2 
 PCOD8158656
Probable space group: C 2 2 21
;
_chemical_formula_sum "Si O2"
_cell_formula_units_Z 52
_cell_length_a 18.462267
_cell_length_b 15.373927
_cell_length_c 9.045859
_cell_angle_alpha 90.000000
_cell_angle_beta 90.000000
_cell_angle_gamma 90.000000
_cell_volume 2567.554412
_symmetry_space_group_name_H-M "C 2 2 21"
_symmetry_group_IT_number 20
_symmetry_cell_setting 'orthorhombic'
loop_
_space_group_symop_operation_xyz
x,y,z
-x,-y,1/2+z
x,-y,-z
-x,y,1/2-z
1/2+x,1/2+y,z
1/2-x,1/2-y,1/2+z
1/2+x,1/2-y,-z
1/2-x,1/2+y,1/2-z
loop_
_atom_site_type_symbol
_atom_site_label
_atom_site_fract_x
_atom_site_fract_y
_atom_site_fract_z
Si Si1 0.432045 0.000000 0.000000
Si Si2 0.386787 0.251298 0.666338
Si Si3 0.000000 0.115169 0.250000
Si Si4 0.052656 0.000000 0.000000
Si Si5 0.109804 0.277372 0.677776
Si Si6 0.027241 0.341094 0.938886
Si Si7 0.160429 0.138975 0.892002
Si Si8 0.677014 0.133041 0.593069
O O1 0.484968 0.068083 0.079559
O O2 0.379228 0.947313 0.113107
O O3 0.428490 0.325588 0.757317
O O4 0.442318 0.178331 0.602073
O O5 0.344543 0.294614 0.529730
O O6 0.333166 0.204907 0.779606
O O7 0.999498 0.055895 0.395752
O O8 0.103755 0.061023 0.900938
O O9 0.091922 0.339337 0.819356
O O10 0.143443 0.187629 0.737236
O O11 0.166437 0.324654 0.569346
O O12 0.032417 0.264284 0.593140
O O13 0.241113 0.099202 0.890774
#
# Coordination Sequence:
#
# PCOD8158656 Si02
#       8
#     4   8   4   4   8   8   8   8
#     4  10  21  32  54  80 113 136 170 220 262 316
#     4  10  21  36  57  78 107 138 176 223 257 311
#     4  10  20  36  54  80 104 132 178 224 274 304
#     4  10  23  36  56  78 105 138 170 228 272 306
#     4   9  19  33  55  75 102 139 176 214 253 310
#     4   9  19  35  52  82 108 137 173 216 272 303
#     4  10  21  39  53  76 109 141 178 212 260 322
#     4  11  21  34  55  81 106 145 176 209 258 313
#
# _framework density 20.252735999999999
#
# number of rings (size 3 to 8) (size 9 to 14) (size 15 to 20)
#    0.000    2.154    0.000    3.231    0.000   11.077 
#    0.000    0.000    0.000    0.000    0.000   21.538 
#    0.000    0.000    0.000    0.000    0.000    0.000 
#
# Total GULP energy -322244.422214 kJ/mol
# GULP energy per Si atom -12394.016239 kJ/mol
# Density = 2.020664 g / cm^3
# Si number density = 20.252736 Si / 1000 Ang^3
#
#
#
# Elastic Constant Matrix: (Units=GPa)
#
#
# Indices 1 2 3 4 5 6 
#
# 1 77.8639 25.7592 32.3970 0.0000 0.0000 0.0000
# 2 25.7592 86.3640 32.3237 0.0000 0.0000 0.0000
# 3 32.3970 32.3237 80.1455 0.0000 0.0000 0.0000
# 4 0.0000 0.0000 0.0000 26.0128 0.0000 0.0000
# 5 0.0000 0.0000 0.0000 0.0000 21.1669 0.0000
# 6 0.0000 0.0000 0.0000 0.0000 0.0000 20.4652
#
#
#
# Elastic Compliance Matrix: (Units=1/GPa)
#
#
# Indices 1 2 3 4 5 6 
#
# 1 0.015982 -0.002766 -0.005345 0.000000 0.000000 0.000000
# 2 -0.002766 0.014116 -0.004575 0.000000 0.000000 0.000000
# 3 -0.005345 -0.004575 0.016483 0.000000 0.000000 0.000000
# 4 0.000000 0.000000 0.000000 0.038443 0.000000 0.000000
# 5 0.000000 0.000000 0.000000 0.000000 0.047244 0.000000
# 6 0.000000 0.000000 0.000000 0.000000 0.000000 0.048863
#
#
# Mechanical properties :
#
#
# Convention : Reuss Voigt Hill
#
# Bulk Modulus (GPa) = 47.14977 47.25921 47.20449
# Shear Modulus (GPa) = 23.41126 23.78855 23.59991
#
# Velocity S-wave (km/s) = 3.40362 3.43094 3.41731
# Velocity P-wave (km/s) = 6.22715 6.25144 6.23931
#
# Compressibility (1/GPa) = 0.02120901
#
# Stress axis : x y z
#
# Youngs Moduli (GPa) = 62.57094 70.83990 60.66901
#
# Poissons Ratio (x) = 0.19598 0.32425
# Poissons Ratio (y) = 0.17310 0.27756
# Poissons Ratio (z) = 0.33441 0.32409
#
# Static dielectric constant tensor:
#      x y z
#    x 3.563730 0.000000 0.000000 
#    y 0.000000 3.671080 0.000000 
#    z 0.000000 0.000000 3.726220 
# 
# 
# High freq. dielectric constant tensor:
#      x y z
#    x 1.782030 0.000000 0.000000 
#    y 0.000000 1.778790 0.000000 
#    z 0.000000 0.000000 1.787420 
# 
# From -- ./inp_files/10167.got.cif
#   From: 2010.03.12/outbox.cif.g09.slc.cpg/sg20_6_cif.got.tgz:10167.got - 2010.04.14 01:38:04.
