data_PCOD8158361
_publ_section_title
;
Structure prediction by ZEFSAII (Michael W. Deem and Ramdas Pophale) SiO2 
 PCOD8158361
Probable space group: C 2 2 21
;
_chemical_formula_sum "Si O2"
_cell_formula_units_Z 32
_cell_length_a 35.909951
_cell_length_b 5.114462
_cell_length_c 7.914415
_cell_angle_alpha 90.000000
_cell_angle_beta 90.000000
_cell_angle_gamma 90.000000
_cell_volume 1453.562091
_symmetry_space_group_name_H-M "C 2 2 21"
_symmetry_group_IT_number 20
_symmetry_cell_setting 'orthorhombic'
loop_
_space_group_symop_operation_xyz
x,y,z
-x,-y,1/2+z
x,-y,-z
-x,y,1/2-z
1/2+x,1/2+y,z
1/2-x,1/2-y,1/2+z
1/2+x,1/2-y,-z
1/2-x,1/2+y,1/2-z
loop_
_atom_site_type_symbol
_atom_site_label
_atom_site_fract_x
_atom_site_fract_y
_atom_site_fract_z
Si Si1 0.609585 0.448768 0.692272
Si Si2 0.146153 0.451307 0.695539
Si Si3 0.529777 0.258490 0.610257
Si Si4 0.228409 0.560569 0.194638
O O1 0.622305 0.500000 0.500000
O O2 0.619607 0.726697 0.778789
O O3 0.566570 0.365792 0.703727
O O4 0.634812 0.226189 0.782874
O O5 0.136543 0.500000 0.500000
O O6 0.188957 0.377199 0.720685
O O7 0.513722 0.500000 0.500000
O O8 0.500000 0.175143 0.750000
O O9 0.539063 0.000000 0.500000
O O10 0.246143 0.315541 0.290715
O O11 0.222589 0.500000 0.000000
#
# Coordination Sequence:
#
# PCOD8158361 Si02
#       4
#     8   8   8   8
#     4   9  18  34  58  83 114 156 201 241 293 363
#     4  10  19  35  59  85 112 153 202 248 296 355
#     4  11  22  39  62  91 125 164 207 253 303 363
#     4  12  25  42  63  91 125 161 202 252 307 367
#
# _framework density 22.014882
#
# number of rings (size 3 to 8) (size 9 to 14) (size 15 to 20)
#    0.000    1.500    0.000    8.250    0.000    2.000 
#    0.000    3.750    0.000    0.000    0.000    0.000 
#    0.000    0.000    0.000    0.000    0.000    0.000 
#
# Total GULP energy -198330.314332 kJ/mol
# GULP energy per Si atom -12395.644646 kJ/mol
# Density = 2.196478 g / cm^3
# Si number density = 22.014882 Si / 1000 Ang^3
#
#
#
# Elastic Constant Matrix: (Units=GPa)
#
#
# Indices 1 2 3 4 5 6 
#
# 1 137.8845 81.6003 25.7821 0.0000 0.0000 0.0000
# 2 81.6003 184.0274 20.3671 0.0000 0.0000 0.0000
# 3 25.7821 20.3671 19.6152 0.0000 0.0000 0.0000
# 4 0.0000 0.0000 0.0000 20.1707 0.0000 0.0000
# 5 0.0000 0.0000 0.0000 0.0000 35.9809 0.0000
# 6 0.0000 0.0000 0.0000 0.0000 0.0000 59.6815
#
#
#
# Elastic Compliance Matrix: (Units=1/GPa)
#
#
# Indices 1 2 3 4 5 6 
#
# 1 0.011691 -0.003935 -0.011280 0.000000 0.000000 0.000000
# 2 -0.003935 0.007464 -0.002578 0.000000 0.000000 0.000000
# 3 -0.011280 -0.002578 0.068484 0.000000 0.000000 0.000000
# 4 0.000000 0.000000 0.000000 0.049577 0.000000 0.000000
# 5 0.000000 0.000000 0.000000 0.000000 0.027792 0.000000
# 6 0.000000 0.000000 0.000000 0.000000 0.000000 0.016756
#
#
# Mechanical properties :
#
#
# Convention : Reuss Voigt Hill
#
# Bulk Modulus (GPa) = 19.21134 66.33624 42.77379
# Shear Modulus (GPa) = 21.30379 37.41847 29.36113
#
# Velocity S-wave (km/s) = 3.11416 4.12720 3.65594
# Velocity P-wave (km/s) = 4.65576 7.27390 6.10679
#
# Compressibility (1/GPa) = 0.05205260
#
# Stress axis : x y z
#
# Youngs Moduli (GPa) = 85.53929 133.97181 14.60203
#
# Poissons Ratio (x) = 0.52723 0.16471
# Poissons Ratio (y) = 0.33663 0.03764
# Poissons Ratio (z) = 0.96487 0.34534
#
# Static dielectric constant tensor:
#      x y z
#    x 3.752370 0.000000 0.000000 
#    y 0.000000 4.740530 0.000000 
#    z 0.000000 0.000000 3.469880 
# 
# 
# High freq. dielectric constant tensor:
#      x y z
#    x 1.866910 0.000000 0.000000 
#    y 0.000000 1.901270 0.000000 
#    z 0.000000 0.000000 1.818340 
# 
# From -- ./inp_files/5242.got.cif
#   From: 2010.03.12/outbox.cif.g09.slc.cpg/sg20_3_cif.got.tgz:5242.got - 2010.04.14 01:38:04.
