data_PCOD8158343
_publ_section_title
;
Structure prediction by ZEFSAII (Michael W. Deem and Ramdas Pophale) SiO2 
 PCOD8158343
Probable space group: C 2 2 21
;
_chemical_formula_sum "Si O2"
_cell_formula_units_Z 60
_cell_length_a 30.487706
_cell_length_b 18.541624
_cell_length_c 6.012860
_cell_angle_alpha 90.000000
_cell_angle_beta 90.000000
_cell_angle_gamma 90.000000
_cell_volume 3399.019137
_symmetry_space_group_name_H-M "C 2 2 21"
_symmetry_group_IT_number 20
_symmetry_cell_setting 'orthorhombic'
loop_
_space_group_symop_operation_xyz
x,y,z
-x,-y,1/2+z
x,-y,-z
-x,y,1/2-z
1/2+x,1/2+y,z
1/2-x,1/2-y,1/2+z
1/2+x,1/2-y,-z
1/2-x,1/2+y,1/2-z
loop_
_atom_site_type_symbol
_atom_site_label
_atom_site_fract_x
_atom_site_fract_y
_atom_site_fract_z
Si Si1 0.739988 0.323112 0.217489
Si Si2 0.951872 0.861247 0.758350
Si Si3 0.372209 0.698865 0.997960
Si Si4 0.893589 0.909655 0.375646
Si Si5 0.307374 0.187323 0.117143
Si Si6 0.735707 0.075010 0.097134
Si Si7 0.684319 0.613727 0.156448
Si Si8 0.569496 0.500000 0.500000
O O1 0.730291 0.242897 0.302278
O O2 0.738125 0.380203 0.413950
O O3 0.789353 0.334611 0.124717
O O4 0.702292 0.335001 0.036115
O O5 0.917453 0.802853 0.860114
O O6 0.937076 0.887049 0.513645
O O7 0.957951 0.930210 0.924366
O O8 0.000000 0.824724 0.750000
O O9 0.333444 0.662494 0.139744
O O10 0.378633 0.658132 0.767773
O O11 0.356020 0.778980 0.919937
O O12 0.856203 0.931416 0.554349
O O13 0.901395 0.978022 0.214580
O O14 0.304919 0.118994 0.287549
O O15 0.775729 0.060661 0.271492
O O16 0.717031 0.000000 0.000000
#
# Coordination Sequence:
#
# PCOD8158343 Si02
#       8
#     8   8   8   8   8   8   8   4
#     4  11  19  34  56  73 103 141 191 230 272 328
#     4  10  23  37  54  73 102 136 182 235 288 341
#     4  10  20  36  53  80  94 129 190 233 279 331
#     4  10  20  37  50  73 101 131 188 232 274 320
#     4  11  19  33  58  75  97 142 191 232 276 341
#     4  11  24  36  47  79 110 144 187 239 291 324
#     4  10  19  35  51  72 102 134 184 240 279 311
#     4  10  22  34  50  72  96 140 184 224 288 344
#
# _framework density 17.652151
#
# number of rings (size 3 to 8) (size 9 to 14) (size 15 to 20)
#    0.000    1.600    4.000    1.200    1.867    3.733 
#   28.800    0.000    0.000    0.000    0.000    0.000 
#    0.000    0.000    0.000    0.000   70.933    0.000 
#
# Total GULP energy -371683.377775 kJ/mol
# GULP energy per Si atom -12389.445926 kJ/mol
# Density = 1.761197 g / cm^3
# Si number density = 17.652151 Si / 1000 Ang^3
#
#
#
# Elastic Constant Matrix: (Units=GPa)
#
#
# Indices 1 2 3 4 5 6 
#
# 1 106.3782 38.1887 36.4245 0.0000 0.0000 0.0000
# 2 38.1887 70.7675 27.0135 0.0000 0.0000 0.0000
# 3 36.4245 27.0135 84.0006 0.0000 0.0000 0.0000
# 4 0.0000 0.0000 0.0000 23.3577 0.0000 0.0000
# 5 0.0000 0.0000 0.0000 0.0000 19.9505 0.0000
# 6 0.0000 0.0000 0.0000 0.0000 0.0000 17.3614
#
#
#
# Elastic Compliance Matrix: (Units=1/GPa)
#
#
# Indices 1 2 3 4 5 6 
#
# 1 0.012611 -0.005378 -0.003739 0.000000 0.000000 0.000000
# 2 -0.005378 0.018402 -0.003586 0.000000 0.000000 0.000000
# 3 -0.003739 -0.003586 0.014679 0.000000 0.000000 0.000000
# 4 0.000000 0.000000 0.000000 0.042812 0.000000 0.000000
# 5 0.000000 0.000000 0.000000 0.000000 0.050124 0.000000
# 6 0.000000 0.000000 0.000000 0.000000 0.000000 0.057599
#
#
# Mechanical properties :
#
#
# Convention : Reuss Voigt Hill
#
# Bulk Modulus (GPa) = 49.29400 51.59997 50.44698
# Shear Modulus (GPa) = 21.89182 22.76857 22.33019
#
# Velocity S-wave (km/s) = 3.52544 3.59534 3.56056
# Velocity P-wave (km/s) = 6.67514 6.82131 6.74862
#
# Compressibility (1/GPa) = 0.02028644
#
# Stress axis : x y z
#
# Youngs Moduli (GPa) = 79.29309 54.34237 68.12412
#
# Poissons Ratio (x) = 0.29227 0.25472
# Poissons Ratio (y) = 0.42646 0.24427
# Poissons Ratio (z) = 0.29648 0.19485
#
# Static dielectric constant tensor:
#      x y z
#    x 3.087270 0.000000 0.000000 
#    y 0.000000 2.967570 0.000000 
#    z 0.000000 0.000000 3.728960 
# 
# 
# High freq. dielectric constant tensor:
#      x y z
#    x 1.647370 0.000000 0.000000 
#    y 0.000000 1.633900 0.000000 
#    z 0.000000 0.000000 1.716510 
# 
# From -- ./inp_files/4774.got.cif
#   From: 2010.03.12/outbox.cif.g09.slc.cpg/sg20_3_cif.got.tgz:4774.got - 2010.04.14 01:38:04.
