data_PCOD8158596
_publ_section_title
;
Structure prediction by ZEFSAII (Michael W. Deem and Ramdas Pophale) SiO2 
 PCOD8158596
Probable space group: C 2 2 21
;
_chemical_formula_sum "Si O2"
_cell_formula_units_Z 52
_cell_length_a 8.353138
_cell_length_b 12.547950
_cell_length_c 25.239775
_cell_angle_alpha 90.000000
_cell_angle_beta 90.000000
_cell_angle_gamma 90.000000
_cell_volume 2645.500908
_symmetry_space_group_name_H-M "C 2 2 21"
_symmetry_group_IT_number 20
_symmetry_cell_setting 'orthorhombic'
loop_
_space_group_symop_operation_xyz
x,y,z
-x,-y,1/2+z
x,-y,-z
-x,y,1/2-z
1/2+x,1/2+y,z
1/2-x,1/2-y,1/2+z
1/2+x,1/2-y,-z
1/2-x,1/2+y,1/2-z
loop_
_atom_site_type_symbol
_atom_site_label
_atom_site_fract_x
_atom_site_fract_y
_atom_site_fract_z
Si Si1 0.978131 0.000000 0.000000
Si Si2 0.080756 0.643782 0.823560
Si Si3 0.272673 0.639315 0.314900
Si Si4 0.246478 0.413423 0.279269
Si Si5 0.237968 0.126056 0.061624
Si Si6 0.000000 0.252316 0.750000
Si Si7 0.773498 0.631797 0.560449
Si Si8 0.016009 0.500000 0.500000
O O1 0.079052 0.911276 0.968956
O O2 0.876244 0.056402 0.953376
O O3 0.095860 0.768218 0.806171
O O4 0.174622 0.576861 0.779524
O O5 0.168635 0.620172 0.878859
O O6 0.893256 0.612206 0.822612
O O7 0.326667 0.528569 0.288584
O O8 0.269178 0.614194 0.376284
O O9 0.099380 0.675535 0.291554
O O10 0.381113 0.322289 0.284345
O O11 0.272156 0.247839 0.045926
O O12 0.381700 0.049089 0.046865
O O13 0.916979 0.598046 0.522721
#
# Coordination Sequence:
#
# PCOD8158596 Si02
#       8
#     4   8   8   8   8   4   8   4
#     4  10  22  38  60  82 108 146 188 228 280 330
#     4   9  20  37  56  80 113 145 184 228 271 329
#     4  10  21  37  57  81 112 149 185 226 278 326
#     4  10  20  37  56  80 114 148 180 226 272 323
#     4  10  21  37  56  82 111 143 184 232 277 328
#     4  10  22  36  56  84 110 146 190 222 266 336
#     4  10  20  38  57  81 111 144 185 230 275 329
#     4  10  20  34  56  80 108 144 182 230 284 324
#
# _framework density 19.656013000000002
#
# number of rings (size 3 to 8) (size 9 to 14) (size 15 to 20)
#    0.000    2.154    0.000    2.769    0.000    6.154 
#    0.000   15.385    0.000    0.000    0.000    0.000 
#    0.000    0.000    0.000    0.000    0.000    0.000 
#
# Total GULP energy -322302.428568 kJ/mol
# GULP energy per Si atom -12396.247253 kJ/mol
# Density = 1.961128 g / cm^3
# Si number density = 19.656013 Si / 1000 Ang^3
#
#
#
# Elastic Constant Matrix: (Units=GPa)
#
#
# Indices 1 2 3 4 5 6 
#
# 1 63.3534 9.4481 20.5142 0.0000 0.0000 0.0000
# 2 9.4481 94.9984 33.2281 0.0000 0.0000 0.0000
# 3 20.5142 33.2281 93.9539 0.0000 0.0000 0.0000
# 4 0.0000 0.0000 0.0000 36.5567 0.0000 0.0000
# 5 0.0000 0.0000 0.0000 0.0000 23.0776 0.0000
# 6 0.0000 0.0000 0.0000 0.0000 0.0000 34.6099
#
#
#
# Elastic Compliance Matrix: (Units=1/GPa)
#
#
# Indices 1 2 3 4 5 6 
#
# 1 0.017002 -0.000448 -0.003554 0.000000 0.000000 0.000000
# 2 -0.000448 0.012024 -0.004155 0.000000 0.000000 0.000000
# 3 -0.003554 -0.004155 0.012889 0.000000 0.000000 0.000000
# 4 0.000000 0.000000 0.000000 0.027355 0.000000 0.000000
# 5 0.000000 0.000000 0.000000 0.000000 0.043332 0.000000
# 6 0.000000 0.000000 0.000000 0.000000 0.000000 0.028893
#
#
# Mechanical properties :
#
#
# Convention : Reuss Voigt Hill
#
# Bulk Modulus (GPa) = 39.05926 42.07629 40.56777
# Shear Modulus (GPa) = 30.05845 31.45653 30.75749
#
# Velocity S-wave (km/s) = 3.91477 4.00478 3.96003
# Velocity P-wave (km/s) = 6.35204 6.54501 6.44925
#
# Compressibility (1/GPa) = 0.02560213
#
# Stress axis : x y z
#
# Youngs Moduli (GPa) = 58.81651 83.16509 77.58624
#
# Poissons Ratio (x) = 0.03725 0.27573
# Poissons Ratio (y) = 0.02634 0.32235
# Poissons Ratio (z) = 0.20903 0.34553
#
# Static dielectric constant tensor:
#      x y z
#    x 3.640670 0.000000 0.000000 
#    y 0.000000 3.839570 0.000000 
#    z 0.000000 0.000000 3.059420 
# 
# 
# High freq. dielectric constant tensor:
#      x y z
#    x 1.760940 0.000000 0.000000 
#    y 0.000000 1.779500 0.000000 
#    z 0.000000 0.000000 1.764780 
# 
# From -- ./inp_files/30134.got.cif
#   From: 2010.03.12/outbox.cif.g09.slc.cpg/sg20_16_cif.got.tgz:30134.got - 2010.04.14 01:38:04.
