data_PCOD8158490
_publ_section_title
;
Structure prediction by ZEFSAII (Michael W. Deem and Ramdas Pophale) SiO2 
 PCOD8158490
Probable space group: C 2 2 21
;
_chemical_formula_sum "Si O2"
_cell_formula_units_Z 40
_cell_length_a 7.995856
_cell_length_b 17.219555
_cell_length_c 13.629837
_cell_angle_alpha 90.000000
_cell_angle_beta 90.000000
_cell_angle_gamma 90.000000
_cell_volume 1876.625227
_symmetry_space_group_name_H-M "C 2 2 21"
_symmetry_group_IT_number 20
_symmetry_cell_setting 'orthorhombic'
loop_
_space_group_symop_operation_xyz
x,y,z
-x,-y,1/2+z
x,-y,-z
-x,y,1/2-z
1/2+x,1/2+y,z
1/2-x,1/2-y,1/2+z
1/2+x,1/2-y,-z
1/2-x,1/2+y,1/2-z
loop_
_atom_site_type_symbol
_atom_site_label
_atom_site_fract_x
_atom_site_fract_y
_atom_site_fract_z
Si Si1 0.025751 0.188570 0.467311
Si Si2 0.500000 0.870193 0.750000
Si Si3 0.338451 0.425311 0.820160
Si Si4 0.731545 0.000000 0.500000
Si Si5 0.855478 0.663679 0.057611
Si Si6 0.507829 0.571437 0.635339
O O1 0.154132 0.148065 0.392895
O O2 0.074755 0.279139 0.473496
O O3 0.045895 0.148727 0.573840
O O4 0.840107 0.179599 0.424624
O O5 0.664110 0.923586 0.762800
O O6 0.538855 0.816982 0.655578
O O7 0.500000 0.424861 0.750000
O O8 0.345653 0.507121 0.878656
O O9 0.615373 0.926980 0.530549
O O10 0.841254 0.970768 0.407206
O O11 0.500000 0.595422 0.750000
#
# Coordination Sequence:
#
# PCOD8158490 Si02
#       6
#     8   4   8   4   8   8
#     4  11  22  42  66 101 138 180 220 289 343 394
#     4  12  24  40  70  98 134 184 228 272 338 410
#     4  11  20  42  70  97 133 181 225 276 339 401
#     4  10  20  46  68  98 140 176 222 280 340 400
#     4  11  23  42  68  97 136 179 227 280 338 408
#     4  10  19  38  72  95 128 185 223 270 350 403
#
# _framework density 21.314855999999999
#
# number of rings (size 3 to 8) (size 9 to 14) (size 15 to 20)
#    0.000    1.200    6.000    2.400    1.400    0.000 
#    7.200    0.000    2.200    0.000    0.000    0.000 
#    0.000    0.000    0.000    0.000    0.000    0.000 
#
# Total GULP energy -247896.959380 kJ/mol
# GULP energy per Si atom -12394.847969 kJ/mol
# Density = 2.126634 g / cm^3
# Si number density = 21.314856 Si / 1000 Ang^3
#
#
#
# Elastic Constant Matrix: (Units=GPa)
#
#
# Indices 1 2 3 4 5 6 
#
# 1 106.7730 31.2287 35.2402 0.0000 0.0000 0.0000
# 2 31.2287 128.6296 26.5074 0.0000 0.0000 0.0000
# 3 35.2402 26.5074 98.4499 0.0000 0.0000 0.0000
# 4 0.0000 0.0000 0.0000 31.9538 0.0000 0.0000
# 5 0.0000 0.0000 0.0000 0.0000 39.9446 0.0000
# 6 0.0000 0.0000 0.0000 0.0000 0.0000 23.9304
#
#
#
# Elastic Compliance Matrix: (Units=1/GPa)
#
#
# Indices 1 2 3 4 5 6 
#
# 1 0.011078 -0.001982 -0.003432 0.000000 0.000000 0.000000
# 2 -0.001982 0.008586 -0.001602 0.000000 0.000000 0.000000
# 3 -0.003432 -0.001602 0.011817 0.000000 0.000000 0.000000
# 4 0.000000 0.000000 0.000000 0.031295 0.000000 0.000000
# 5 0.000000 0.000000 0.000000 0.000000 0.025035 0.000000
# 6 0.000000 0.000000 0.000000 0.000000 0.000000 0.041788
#
#
# Mechanical properties :
#
#
# Convention : Reuss Voigt Hill
#
# Bulk Modulus (GPa) = 57.31077 57.75611 57.53344
# Shear Modulus (GPa) = 33.45669 35.22419 34.34044
#
# Velocity S-wave (km/s) = 3.96617 4.06959 4.01821
# Velocity P-wave (km/s) = 6.92243 7.01694 6.96985
#
# Compressibility (1/GPa) = 0.01744873
#
# Stress axis : x y z
#
# Youngs Moduli (GPa) = 90.26847 116.47287 84.62265
#
# Poissons Ratio (x) = 0.23089 0.29040
# Poissons Ratio (y) = 0.17894 0.13557
# Poissons Ratio (z) = 0.30977 0.18660
#
# Static dielectric constant tensor:
#      x y z
#    x 3.651030 0.000000 0.000000 
#    y 0.000000 3.977990 0.000000 
#    z 0.000000 0.000000 3.979280 
# 
# 
# High freq. dielectric constant tensor:
#      x y z
#    x 1.817200 0.000000 0.000000 
#    y 0.000000 1.831340 0.000000 
#    z 0.000000 0.000000 1.840450 
# 
# From -- ./inp_files/18723.got.cif
#   From: 2010.03.12/outbox.cif.g09.slc.cpg/sg20_10_cif.got.tgz:18723.got - 2010.04.14 01:38:04.
