data_PCOD8158423
_publ_section_title
;
Structure prediction by ZEFSAII (Michael W. Deem and Ramdas Pophale) SiO2 
 PCOD8158423
Probable space group: C 2 2 21
;
_chemical_formula_sum "Si O2"
_cell_formula_units_Z 60
_cell_length_a 17.550992
_cell_length_b 21.346618
_cell_length_c 8.635680
_cell_angle_alpha 90.000000
_cell_angle_beta 90.000000
_cell_angle_gamma 90.000000
_cell_volume 3235.394833
_symmetry_space_group_name_H-M "C 2 2 21"
_symmetry_group_IT_number 20
_symmetry_cell_setting 'orthorhombic'
loop_
_space_group_symop_operation_xyz
x,y,z
-x,-y,1/2+z
x,-y,-z
-x,y,1/2-z
1/2+x,1/2+y,z
1/2-x,1/2-y,1/2+z
1/2+x,1/2-y,-z
1/2-x,1/2+y,1/2-z
loop_
_atom_site_type_symbol
_atom_site_label
_atom_site_fract_x
_atom_site_fract_y
_atom_site_fract_z
Si Si1 0.137940 0.194281 0.572240
Si Si2 0.808025 0.117885 0.229758
Si Si3 0.107577 0.071645 0.987612
Si Si4 0.761359 0.118454 0.708510
Si Si5 0.430176 0.046546 0.135142
Si Si6 0.668788 0.838491 0.562175
Si Si7 0.000000 0.858781 0.250000
Si Si8 0.205094 0.497774 0.834879
O O1 0.158041 0.159060 0.411262
O O2 0.196720 0.174346 0.704667
O O3 0.140138 0.268145 0.558283
O O4 0.054105 0.181110 0.638317
O O5 0.880419 0.105087 0.344417
O O6 0.737900 0.153891 0.314213
O O7 0.775607 0.051050 0.171145
O O8 0.189543 0.077163 0.909959
O O9 0.045311 0.101116 0.875611
O O10 0.083099 0.000000 0.000000
O O11 0.693522 0.148976 0.613076
O O12 0.733713 0.068737 0.831993
O O13 0.500000 0.054145 0.250000
O O14 0.403846 0.116555 0.090940
O O15 0.355778 0.013532 0.203052
O O16 0.457711 0.000000 0.000000
O O17 0.163337 0.500000 0.000000
#
# Coordination Sequence:
#
# PCOD8158423 Si02
#       8
#     8   8   8   8   8   8   4   8
#     4  11  22  40  57  85 125 154 203 233 291 352
#     4  10  21  34  64  90 110 154 194 249 290 338
#     4  10  20  37  58  85 117 147 196 239 296 343
#     4  10  19  36  62  89 115 150 190 251 291 337
#     4  11  23  39  62  88 119 156 192 244 300 359
#     4  10  22  38  64  87 117 154 196 241 297 350
#     4  10  26  38  56  80 120 172 188 240 286 354
#     4  11  19  35  61  93 118 147 194 242 300 341
#
# _framework density 18.544878000000001
#
# number of rings (size 3 to 8) (size 9 to 14) (size 15 to 20)
#    0.000    1.600    4.000    1.200    0.933    1.600 
#    0.000    0.000    2.933    0.000    0.000    0.000 
#    0.000    0.000    0.000    0.000    0.000    0.000 
#
# Total GULP energy -371777.565664 kJ/mol
# GULP energy per Si atom -12392.585522 kJ/mol
# Density = 1.850267 g / cm^3
# Si number density = 18.544878 Si / 1000 Ang^3
#
#
#
# Elastic Constant Matrix: (Units=GPa)
#
#
# Indices 1 2 3 4 5 6 
#
# 1 93.3251 54.7271 45.8421 0.0000 0.0000 0.0000
# 2 54.7271 149.3452 52.2880 0.0000 0.0000 0.0000
# 3 45.8421 52.2880 116.5709 0.0000 0.0000 0.0000
# 4 0.0000 0.0000 0.0000 23.9374 0.0000 0.0000
# 5 0.0000 0.0000 0.0000 0.0000 37.1041 0.0000
# 6 0.0000 0.0000 0.0000 0.0000 0.0000 -4.7517
#
#
#
# Elastic Compliance Matrix: (Units=1/GPa)
#
#
# Indices 1 2 3 4 5 6 
#
# 1 0.015146 -0.004110 -0.004112 0.000000 0.000000 0.000000
# 2 -0.004110 0.009059 -0.002447 0.000000 0.000000 0.000000
# 3 -0.004112 -0.002447 0.011293 0.000000 0.000000 0.000000
# 4 0.000000 0.000000 0.000000 0.041776 0.000000 0.000000
# 5 0.000000 0.000000 0.000000 0.000000 0.026951 0.000000
# 6 0.000000 0.000000 0.000000 0.000000 0.000000 -0.210451
#
#
# Mechanical properties :
#
#
# Convention : Reuss Voigt Hill
#
# Bulk Modulus (GPa) = 70.62933 73.88396 72.25664
# Shear Modulus (GPa) = -62.36932 25.01691 -18.67621
#
# Velocity S-wave (km/s) = -5.80556 3.67685 -3.17690
# Velocity P-wave (km/s) = 2.60214 7.61267 5.05874
#
# Compressibility (1/GPa) = 0.01415842
#
# Stress axis : x y z
#
# Youngs Moduli (GPa) = 66.02586 110.38997 88.54819
#
# Poissons Ratio (x) = 0.45373 0.36415
# Poissons Ratio (y) = 0.27138 0.21667
# Poissons Ratio (z) = 0.27153 0.27012
#
# Static dielectric constant tensor:
#      x y z
#    x 3.319140 0.000000 0.000000 
#    y 0.000000 3.349860 0.000000 
#    z 0.000000 0.000000 3.627520 
# 
# 
# High freq. dielectric constant tensor:
#      x y z
#    x 1.705860 0.000000 0.000000 
#    y 0.000000 1.720660 0.000000 
#    z 0.000000 0.000000 1.736420 
# 
# From -- ./inp_files/9589.got.cif
#   From: 2010.03.12/outbox.cif.g09.slc.cpg/sg20_5_cif.got.tgz:9589.got - 2010.04.14 01:38:04.
