data_PCOD8158381
_publ_section_title
;
Structure prediction by ZEFSAII (Michael W. Deem and Ramdas Pophale) SiO2 
 PCOD8158381
Probable space group: C 2 2 21
;
_chemical_formula_sum "Si O2"
_cell_formula_units_Z 64
_cell_length_a 35.413752
_cell_length_b 18.353665
_cell_length_c 5.010690
_cell_angle_alpha 90.000000
_cell_angle_beta 90.000000
_cell_angle_gamma 90.000000
_cell_volume 3256.808905
_symmetry_space_group_name_H-M "C 2 2 21"
_symmetry_group_IT_number 20
_symmetry_cell_setting 'orthorhombic'
loop_
_space_group_symop_operation_xyz
x,y,z
-x,-y,1/2+z
x,-y,-z
-x,y,1/2-z
1/2+x,1/2+y,z
1/2-x,1/2-y,1/2+z
1/2+x,1/2-y,-z
1/2-x,1/2+y,1/2-z
loop_
_atom_site_type_symbol
_atom_site_label
_atom_site_fract_x
_atom_site_fract_y
_atom_site_fract_z
Si Si1 0.974937 0.228074 0.513824
Si Si2 0.107710 0.275652 0.906344
Si Si3 0.356553 0.080614 0.517467
Si Si4 0.772820 0.270335 0.986819
Si Si5 0.460112 0.574220 0.375686
Si Si6 0.880680 0.051245 0.238244
Si Si7 0.146024 0.206657 0.397724
Si Si8 0.692601 0.919159 0.522127
O O1 0.935493 0.268579 0.499741
O O2 0.965710 0.142735 0.570902
O O3 0.000000 0.260540 0.750000
O O4 0.000000 0.236011 0.250000
O O5 0.113074 0.362617 0.898780
O O6 0.116773 0.230857 0.634527
O O7 0.136256 0.250326 0.132979
O O8 0.342997 0.092703 0.822159
O O9 0.374797 0.000000 0.500000
O O10 0.320259 0.088596 0.327503
O O11 0.741750 0.240260 0.187779
O O12 0.812183 0.227558 0.010557
O O13 0.776939 0.356854 0.038164
O O14 0.445829 0.500000 0.500000
O O15 0.500000 0.555567 0.250000
O O16 0.422912 0.587515 0.195354
O O17 0.854271 0.122011 0.195793
O O18 0.873682 0.000000 0.500000
O O19 0.870154 0.000000 0.000000
O O20 0.710722 0.000000 0.500000
#
# Coordination Sequence:
#
# PCOD8158381 Si02
#       8
#     8   8   8   8   8   8   8   8
#     4  11  24  37  55  85 122 160 204 253 313 366
#     4  12  21  39  65  90 123 159 206 257 307 370
#     4  10  19  35  63  96 123 148 195 254 308 362
#     4  12  24  41  64  95 127 161 202 256 310 384
#     4  10  20  33  53  80 115 154 204 262 315 351
#     4  11  24  40  59  85 120 168 218 259 307 367
#     4  12  24  41  65  91 118 164 212 260 311 367
#     4  10  20  38  61  92 125 154 192 252 310 360
#
# _framework density 19.651138
#
# number of rings (size 3 to 8) (size 9 to 14) (size 15 to 20)
#    0.000    1.000    3.750    3.750    3.500    0.000 
#    0.000    1.875    0.000    0.750    0.000    0.000 
#    0.000    0.000    0.000    0.000    0.000    0.000 
#
# Total GULP energy -396453.850567 kJ/mol
# GULP energy per Si atom -12389.182830 kJ/mol
# Density = 1.960641 g / cm^3
# Si number density = 19.651138 Si / 1000 Ang^3
#
#
#
# Elastic Constant Matrix: (Units=GPa)
#
#
# Indices 1 2 3 4 5 6 
#
# 1 89.4335 47.1390 15.2683 0.0000 0.0000 0.0000
# 2 47.1390 143.4797 30.4214 0.0000 0.0000 0.0000
# 3 15.2683 30.4214 95.2789 0.0000 0.0000 0.0000
# 4 0.0000 0.0000 0.0000 31.2437 0.0000 0.0000
# 5 0.0000 0.0000 0.0000 0.0000 28.0468 0.0000
# 6 0.0000 0.0000 0.0000 0.0000 0.0000 24.6447
#
#
#
# Elastic Compliance Matrix: (Units=1/GPa)
#
#
# Indices 1 2 3 4 5 6 
#
# 1 0.013581 -0.004291 -0.000806 0.000000 0.000000 0.000000
# 2 -0.004291 0.008831 -0.002132 0.000000 0.000000 0.000000
# 3 -0.000806 -0.002132 0.011305 0.000000 0.000000 0.000000
# 4 0.000000 0.000000 0.000000 0.032007 0.000000 0.000000
# 5 0.000000 0.000000 0.000000 0.000000 0.035655 0.000000
# 6 0.000000 0.000000 0.000000 0.000000 0.000000 0.040577
#
#
# Mechanical properties :
#
#
# Convention : Reuss Voigt Hill
#
# Bulk Modulus (GPa) = 51.92365 57.09440 54.50903
# Shear Modulus (GPa) = 30.70615 32.47794 31.59204
#
# Velocity S-wave (km/s) = 3.95722 4.06978 4.01389
# Velocity P-wave (km/s) = 6.88182 7.15550 7.02000
#
# Compressibility (1/GPa) = 0.01925905
#
# Stress axis : x y z
#
# Youngs Moduli (GPa) = 73.63337 113.23188 88.45270
#
# Poissons Ratio (x) = 0.48587 0.07132
# Poissons Ratio (y) = 0.31595 0.18860
# Poissons Ratio (z) = 0.05937 0.24143
#
# Static dielectric constant tensor:
#      x y z
#    x 3.311550 0.000000 0.000000 
#    y 0.000000 3.899840 0.000000 
#    z 0.000000 0.000000 4.055070 
# 
# 
# High freq. dielectric constant tensor:
#      x y z
#    x 1.741030 0.000000 0.000000 
#    y 0.000000 1.772740 0.000000 
#    z 0.000000 0.000000 1.775700 
# 
# From -- ./inp_files/4808.got.cif
#   From: 2010.03.12/outbox.cif.g09.slc.cpg/sg20_3_cif.got.tgz:4808.got - 2010.04.14 01:38:04.
