data_PCOD8158581
_publ_section_title
;
Structure prediction by ZEFSAII (Michael W. Deem and Ramdas Pophale) SiO2 
 PCOD8158581
Probable space group: C 2 2 21
;
_chemical_formula_sum "Si O2"
_cell_formula_units_Z 56
_cell_length_a 10.710522
_cell_length_b 21.104384
_cell_length_c 13.130903
_cell_angle_alpha 90.000000
_cell_angle_beta 90.000000
_cell_angle_gamma 90.000000
_cell_volume 2968.095778
_symmetry_space_group_name_H-M "C 2 2 21"
_symmetry_group_IT_number 20
_symmetry_cell_setting 'orthorhombic'
loop_
_space_group_symop_operation_xyz
x,y,z
-x,-y,1/2+z
x,-y,-z
-x,y,1/2-z
1/2+x,1/2+y,z
1/2-x,1/2-y,1/2+z
1/2+x,1/2-y,-z
1/2-x,1/2+y,1/2-z
loop_
_atom_site_type_symbol
_atom_site_label
_atom_site_fract_x
_atom_site_fract_y
_atom_site_fract_z
Si Si1 0.865514 0.058445 0.203054
Si Si2 0.652033 0.955981 0.634878
Si Si3 0.000000 0.360895 0.750000
Si Si4 0.281680 0.500000 0.000000
Si Si5 0.114894 0.590146 0.571653
Si Si6 0.852090 0.316785 0.235850
Si Si7 0.158173 0.632801 0.951122
Si Si8 0.243062 0.686844 0.154795
O O1 0.761145 0.035786 0.283228
O O2 0.841127 0.132083 0.182111
O O3 0.000000 0.047987 0.250000
O O4 0.863483 0.017798 0.099013
O O5 0.542210 0.907325 0.660591
O O6 0.701013 0.927045 0.526720
O O7 0.581584 0.022980 0.623875
O O8 0.113707 0.317543 0.784588
O O9 0.200138 0.560850 0.970539
O O10 0.192057 0.631500 0.652634
O O11 0.991478 0.630130 0.544046
O O12 0.792975 0.338121 0.343919
O O13 0.804580 0.251103 0.191238
O O14 0.000000 0.314346 0.250000
O O15 0.212225 0.681906 0.034779
#
# Coordination Sequence:
#
# PCOD8158581 Si02
#       8
#     8   8   4   4   8   8   8   8
#     4  10  22  37  57  83 117 163 197 240 298 371
#     4  10  20  33  60  90 117 146 195 255 308 362
#     4  10  20  34  58  88 110 154 190 258 298 344
#     4  10  20  36  62  86 118 152 200 256 310 366
#     4  10  20  34  59  92 120 146 198 256 317 347
#     4  10  22  37  58  85 123 161 198 243 302 373
#     4  10  20  36  59  91 116 154 198 257 313 357
#     4  10  21  38  58  80 119 154 205 235 299 361
#
# _framework density 18.867315000000001
#
# number of rings (size 3 to 8) (size 9 to 14) (size 15 to 20)
#    0.000    2.000    1.429    2.143    7.000    3.429 
#    0.000    0.000    9.429    0.000    0.000    0.000 
#    0.000    0.000    0.000    0.000    0.000    0.000 
#
# Total GULP energy -346987.859351 kJ/mol
# GULP energy per Si atom -12392.423548 kJ/mol
# Density = 1.882437 g / cm^3
# Si number density = 18.867315 Si / 1000 Ang^3
#
#
#
# Elastic Constant Matrix: (Units=GPa)
#
#
# Indices 1 2 3 4 5 6 
#
# 1 38.8652 7.4626 28.7468 0.0000 0.0000 0.0000
# 2 7.4626 101.2068 65.3497 0.0000 0.0000 0.0000
# 3 28.7468 65.3497 155.6487 0.0000 0.0000 0.0000
# 4 0.0000 0.0000 0.0000 37.7558 0.0000 0.0000
# 5 0.0000 0.0000 0.0000 0.0000 22.4761 0.0000
# 6 0.0000 0.0000 0.0000 0.0000 0.0000 13.7035
#
#
#
# Elastic Compliance Matrix: (Units=1/GPa)
#
#
# Indices 1 2 3 4 5 6 
#
# 1 0.030059 0.001877 -0.006340 0.000000 0.000000 0.000000
# 2 0.001877 0.013673 -0.006087 0.000000 0.000000 0.000000
# 3 -0.006340 -0.006087 0.010151 0.000000 0.000000 0.000000
# 4 0.000000 0.000000 0.000000 0.026486 0.000000 0.000000
# 5 0.000000 0.000000 0.000000 0.000000 0.044492 0.000000
# 6 0.000000 0.000000 0.000000 0.000000 0.000000 0.072974
#
#
# Mechanical properties :
#
#
# Convention : Reuss Voigt Hill
#
# Bulk Modulus (GPa) = 30.50331 55.42653 42.96492
# Shear Modulus (GPa) = 21.75215 27.73119 24.74167
#
# Velocity S-wave (km/s) = 3.39912 3.83796 3.62519
# Velocity P-wave (km/s) = 5.62208 7.00576 6.35171
#
# Compressibility (1/GPa) = 0.03278333
#
# Stress axis : x y z
#
# Youngs Moduli (GPa) = 33.26823 73.13708 98.50871
#
# Poissons Ratio (x) = -0.13729 0.62451
# Poissons Ratio (y) = -0.06245 0.59965
# Poissons Ratio (z) = 0.21091 0.44521
#
# Static dielectric constant tensor:
#      x y z
#    x 3.170060 0.000000 0.000000 
#    y 0.000000 3.390150 0.000000 
#    z 0.000000 0.000000 4.009090 
# 
# 
# High freq. dielectric constant tensor:
#      x y z
#    x 1.695950 0.000000 0.000000 
#    y 0.000000 1.729740 0.000000 
#    z 0.000000 0.000000 1.760970 
# 
# From -- ./inp_files/14357.got.cif
#   From: 2010.03.12/outbox.cif.g09.slc.cpg/sg20_8_cif.got.tgz:14357.got - 2010.04.14 01:38:04.
