data_PCOD8158962
_publ_section_title
;
Structure prediction by ZEFSAII (Michael W. Deem and Ramdas Pophale) SiO2 
 PCOD8158962
Probable space group: C 2 2 21
;
_chemical_formula_sum "Si O2"
_cell_formula_units_Z 56
_cell_length_a 7.718002
_cell_length_b 16.865586
_cell_length_c 20.361486
_cell_angle_alpha 90.000000
_cell_angle_beta 90.000000
_cell_angle_gamma 90.000000
_cell_volume 2650.426666
_symmetry_space_group_name_H-M "C 2 2 21"
_symmetry_group_IT_number 20
_symmetry_cell_setting 'orthorhombic'
loop_
_space_group_symop_operation_xyz
x,y,z
-x,-y,1/2+z
x,-y,-z
-x,y,1/2-z
1/2+x,1/2+y,z
1/2-x,1/2-y,1/2+z
1/2+x,1/2-y,-z
1/2-x,1/2+y,1/2-z
loop_
_atom_site_type_symbol
_atom_site_label
_atom_site_fract_x
_atom_site_fract_y
_atom_site_fract_z
Si Si1 0.216787 0.259971 0.182340
Si Si2 0.753248 0.874403 0.064230
Si Si3 0.112132 0.559002 0.599789
Si Si4 0.091690 0.890102 0.010996
Si Si5 0.385786 0.784476 0.555828
Si Si6 0.318186 0.216112 0.827290
Si Si7 0.189362 0.615041 0.392814
O O1 0.294700 0.323290 0.130343
O O2 0.272925 0.283502 0.255993
O O3 0.289581 0.171704 0.169892
O O4 0.012067 0.252953 0.175733
O O5 0.585571 0.928612 0.076864
O O6 0.915040 0.930909 0.040165
O O7 0.731147 0.813912 0.003871
O O8 0.239561 0.564542 0.537754
O O9 0.177700 0.624390 0.651125
O O10 0.127764 0.471601 0.631455
O O11 0.053468 0.802460 0.036979
O O12 0.127015 0.889828 0.932762
O O13 0.280452 0.776033 0.623955
O O14 0.544997 0.845138 0.560420
#
# Coordination Sequence:
#
# PCOD8158962 Si02
#       7
#     8   8   8   8   8   8   8
#     4  10  20  40  68  92 124 170 227 265 310 394
#     4  11  21  39  65  91 127 174 211 260 326 389
#     4  10  24  42  60  94 134 163 205 273 333 374
#     4  11  20  38  61  94 124 170 205 256 320 383
#     4  11  20  36  63  93 124 166 221 263 306 393
#     4   9  22  42  65  91 125 175 219 263 324 393
#     4  12  22  39  64  96 131 163 218 277 320 376
#
# _framework density 21.128675000000001
#
# number of rings (size 3 to 8) (size 9 to 14) (size 15 to 20)
#    0.000    1.429    4.286    1.286    2.000    0.571 
#    7.714    5.714    3.143    0.000    0.000    0.000 
#    0.000    0.000    0.000    0.000    0.000    0.000 
#
# Total GULP energy -347011.299588 kJ/mol
# GULP energy per Si atom -12393.260700 kJ/mol
# Density = 2.108058 g / cm^3
# Si number density = 21.128675 Si / 1000 Ang^3
#
#
#
# Elastic Constant Matrix: (Units=GPa)
#
#
# Indices 1 2 3 4 5 6 
#
# 1 86.2061 22.2619 23.7531 0.0000 0.0000 0.0000
# 2 22.2619 93.4106 10.5658 0.0000 0.0000 0.0000
# 3 23.7531 10.5658 122.3614 0.0000 0.0000 0.0000
# 4 0.0000 0.0000 0.0000 19.1492 0.0000 0.0000
# 5 0.0000 0.0000 0.0000 0.0000 28.6439 0.0000
# 6 0.0000 0.0000 0.0000 0.0000 0.0000 9.6074
#
#
#
# Elastic Compliance Matrix: (Units=1/GPa)
#
#
# Indices 1 2 3 4 5 6 
#
# 1 0.012957 -0.002831 -0.002271 0.000000 0.000000 0.000000
# 2 -0.002831 0.011430 -0.000437 0.000000 0.000000 0.000000
# 3 -0.002271 -0.000437 0.008651 0.000000 0.000000 0.000000
# 4 0.000000 0.000000 0.000000 0.052222 0.000000 0.000000
# 5 0.000000 0.000000 0.000000 0.000000 0.034911 0.000000
# 6 0.000000 0.000000 0.000000 0.000000 0.000000 0.104087
#
#
# Mechanical properties :
#
#
# Convention : Reuss Voigt Hill
#
# Bulk Modulus (GPa) = 45.53903 46.12662 45.83283
# Shear Modulus (GPa) = 20.60536 27.83991 24.22263
#
# Velocity S-wave (km/s) = 3.12626 3.63386 3.38958
# Velocity P-wave (km/s) = 5.88484 6.28373 6.08755
#
# Compressibility (1/GPa) = 0.02195918
#
# Stress axis : x y z
#
# Youngs Moduli (GPa) = 77.17906 87.49207 115.59248
#
# Poissons Ratio (x) = 0.24770 0.26248
# Poissons Ratio (y) = 0.21850 0.05056
# Poissons Ratio (z) = 0.17526 0.03827
#
# Static dielectric constant tensor:
#      x y z
#    x 4.009860 0.000000 0.000000 
#    y 0.000000 3.720690 0.000000 
#    z 0.000000 0.000000 3.903190 
# 
# 
# High freq. dielectric constant tensor:
#      x y z
#    x 1.839440 0.000000 0.000000 
#    y 0.000000 1.815760 0.000000 
#    z 0.000000 0.000000 1.811830 
# 
# From -- ./inp_files/26701.got.cif
#   From: 2010.03.12/outbox.cif.g09.slc.cpg/sg20_14_cif.got.tgz:26701.got - 2010.04.14 01:38:04.
