data_PCOD8158393
_publ_section_title
;
Structure prediction by ZEFSAII (Michael W. Deem and Ramdas Pophale) SiO2 
 PCOD8158393
Probable space group: C 2 2 21
;
_chemical_formula_sum "Si O2"
_cell_formula_units_Z 52
_cell_length_a 9.306438
_cell_length_b 21.596560
_cell_length_c 13.821937
_cell_angle_alpha 90.000000
_cell_angle_beta 90.000000
_cell_angle_gamma 90.000000
_cell_volume 2778.030297
_symmetry_space_group_name_H-M "C 2 2 21"
_symmetry_group_IT_number 20
_symmetry_cell_setting 'orthorhombic'
loop_
_space_group_symop_operation_xyz
x,y,z
-x,-y,1/2+z
x,-y,-z
-x,y,1/2-z
1/2+x,1/2+y,z
1/2-x,1/2-y,1/2+z
1/2+x,1/2-y,-z
1/2-x,1/2+y,1/2-z
loop_
_atom_site_type_symbol
_atom_site_label
_atom_site_fract_x
_atom_site_fract_y
_atom_site_fract_z
Si Si1 0.573102 0.301187 0.654334
Si Si2 0.065936 0.313299 0.484945
Si Si3 0.860589 0.125826 0.466360
Si Si4 0.090428 0.582722 0.656558
Si Si5 0.116408 0.149248 0.823291
Si Si6 0.281353 0.000000 0.000000
Si Si7 0.387387 0.793345 0.671953
O O1 0.500000 0.272361 0.750000
O O2 0.588805 0.250297 0.571439
O O3 0.470381 0.357013 0.618763
O O4 0.732559 0.327297 0.679474
O O5 0.216434 0.332044 0.535238
O O6 0.011201 0.366018 0.410336
O O7 0.945283 0.303468 0.564592
O O8 0.940525 0.137694 0.568308
O O9 0.818572 0.054050 0.456905
O O10 0.237315 0.612508 0.695100
O O11 0.119701 0.523199 0.588947
O O12 0.000000 0.562396 0.750000
O O13 0.142124 0.221632 0.803843
O O14 0.000000 0.121814 0.750000
O O15 0.500000 0.821161 0.750000
#
# Coordination Sequence:
#
# PCOD8158393 Si02
#       7
#     8   8   8   8   8   4   8
#     4  12  21  33  53  85 118 154 186 234 296 360
#     4  10  19  36  54  85 121 150 189 236 297 356
#     4  10  20  39  58  81 113 157 195 244 288 346
#     4  10  20  38  62  89 111 156 200 246 291 343
#     4   9  18  32  54  83 116 149 187 232 286 342
#     4   8  20  42  64  78 114 156 200 250 292 330
#     4  11  21  33  52  85 124 158 184 229 292 355
#
# _framework density 18.718298999999998
#
# number of rings (size 3 to 8) (size 9 to 14) (size 15 to 20)
#    0.000    2.154    4.615    1.385    0.000    1.231 
#    0.000    9.231    0.000    7.385    0.000    0.000 
#    0.000    0.000    0.000    0.000    0.000    0.000 
#
# Total GULP energy -322331.699286 kJ/mol
# GULP energy per Si atom -12397.373049 kJ/mol
# Density = 1.867570 g / cm^3
# Si number density = 18.718299 Si / 1000 Ang^3
#
#
#
# Elastic Constant Matrix: (Units=GPa)
#
#
# Indices 1 2 3 4 5 6 
#
# 1 129.9126 41.9728 74.5855 0.0000 0.0000 0.0000
# 2 41.9728 86.9460 29.4443 0.0000 0.0000 0.0000
# 3 74.5855 29.4443 94.6249 0.0000 0.0000 0.0000
# 4 0.0000 0.0000 0.0000 25.0334 0.0000 0.0000
# 5 0.0000 0.0000 0.0000 0.0000 47.0781 0.0000
# 6 0.0000 0.0000 0.0000 0.0000 0.0000 18.6586
#
#
#
# Elastic Compliance Matrix: (Units=1/GPa)
#
#
# Indices 1 2 3 4 5 6 
#
# 1 0.015016 -0.003622 -0.010709 0.000000 0.000000 0.000000
# 2 -0.003622 0.013730 -0.001417 0.000000 0.000000 0.000000
# 3 -0.010709 -0.001417 0.019450 0.000000 0.000000 0.000000
# 4 0.000000 0.000000 0.000000 0.039947 0.000000 0.000000
# 5 0.000000 0.000000 0.000000 0.000000 0.021241 0.000000
# 6 0.000000 0.000000 0.000000 0.000000 0.000000 0.053594
#
#
# Mechanical properties :
#
#
# Convention : Reuss Voigt Hill
#
# Bulk Modulus (GPa) = 59.88248 67.05429 63.46839
# Shear Modulus (GPa) = 24.99487 29.18608 27.09048
#
# Velocity S-wave (km/s) = 3.65816 3.95299 3.80843
# Velocity P-wave (km/s) = 7.06426 7.53229 7.30203
#
# Compressibility (1/GPa) = 0.01669937
#
# Stress axis : x y z
#
# Youngs Moduli (GPa) = 66.59605 72.83336 51.41423
#
# Poissons Ratio (x) = 0.26383 0.55058
# Poissons Ratio (y) = 0.24123 0.07286
# Poissons Ratio (z) = 0.71316 0.10321
#
# Static dielectric constant tensor:
#      x y z
#    x 3.538090 0.000000 0.000000 
#    y 0.000000 3.195900 0.000000 
#    z 0.000000 0.000000 3.597980 
# 
# 
# High freq. dielectric constant tensor:
#      x y z
#    x 1.721610 0.000000 0.000000 
#    y 0.000000 1.695780 0.000000 
#    z 0.000000 0.000000 1.735850 
# 
# From -- ./inp_files/19120.got.cif
#   From: 2010.03.12/outbox.cif.g09.slc.cpg/sg20_10_cif.got.tgz:19120.got - 2010.04.14 01:38:04.
