data_PCOD8158915
_publ_section_title
;
Structure prediction by ZEFSAII (Michael W. Deem and Ramdas Pophale) SiO2 
 PCOD8158915
Probable space group: C 2 2 21
;
_chemical_formula_sum "Si O2"
_cell_formula_units_Z 48
_cell_length_a 9.641757
_cell_length_b 28.300281
_cell_length_c 8.443931
_cell_angle_alpha 90.000000
_cell_angle_beta 90.000000
_cell_angle_gamma 90.000000
_cell_volume 2304.048440
_symmetry_space_group_name_H-M "C 2 2 21"
_symmetry_group_IT_number 20
_symmetry_cell_setting 'orthorhombic'
loop_
_space_group_symop_operation_xyz
x,y,z
-x,-y,1/2+z
x,-y,-z
-x,y,1/2-z
1/2+x,1/2+y,z
1/2-x,1/2-y,1/2+z
1/2+x,1/2-y,-z
1/2-x,1/2+y,1/2-z
loop_
_atom_site_type_symbol
_atom_site_label
_atom_site_fract_x
_atom_site_fract_y
_atom_site_fract_z
Si Si1 0.630403 0.476362 0.347550
Si Si2 0.376113 0.223242 0.877017
Si Si3 0.801972 0.611750 0.624507
Si Si4 0.637322 0.705519 0.655664
Si Si5 0.601133 0.120489 0.527152
Si Si6 0.641720 0.968902 0.655274
O O1 0.562133 0.500000 0.500000
O O2 0.500000 0.456944 0.250000
O O3 0.715823 0.433608 0.423604
O O4 0.725968 0.513310 0.252749
O O5 0.500000 0.216021 0.750000
O O6 0.238426 0.234178 0.774713
O O7 0.358055 0.175879 0.984288
O O8 0.403207 0.265351 0.998743
O O9 0.711283 0.658225 0.598596
O O10 0.845385 0.602467 0.804648
O O11 0.935152 0.615501 0.511835
O O12 0.500000 0.691990 0.750000
O O13 0.667004 0.086623 0.392370
O O14 0.500000 0.975236 0.750000
O O15 0.622985 0.000000 0.500000
#
# Coordination Sequence:
#
# PCOD8158915 Si02
#       6
#     8   8   8   8   8   8
#     4  12  26  44  64  95 136 173 214 270 336 396
#     4  11  22  44  66  96 137 171 221 278 333 395
#     4  10  20  42  66  91 125 177 213 265 326 399
#     4  11  23  39  68  98 127 179 220 264 334 398
#     4  10  20  39  68  91 125 170 223 264 327 385
#     4  12  23  39  68  99 128 171 226 275 325 394
#
# _framework density 20.832896000000002
#
# number of rings (size 3 to 8) (size 9 to 14) (size 15 to 20)
#    0.000    1.000    5.000    4.500    0.000    0.667 
#    3.000    0.833    0.000    0.000    0.000    0.000 
#    0.000    0.000    0.000    0.000    0.000    0.000 
#
# Total GULP energy -297568.177070 kJ/mol
# GULP energy per Si atom -12398.674045 kJ/mol
# Density = 2.078548 g / cm^3
# Si number density = 20.832896 Si / 1000 Ang^3
#
#
#
# Elastic Constant Matrix: (Units=GPa)
#
#
# Indices 1 2 3 4 5 6 
#
# 1 73.2010 16.3788 5.5996 0.0000 0.0000 0.0000
# 2 16.3788 112.1859 39.6721 0.0000 0.0000 0.0000
# 3 5.5996 39.6721 63.4068 0.0000 0.0000 0.0000
# 4 0.0000 0.0000 0.0000 36.6079 0.0000 0.0000
# 5 0.0000 0.0000 0.0000 0.0000 32.1621 0.0000
# 6 0.0000 0.0000 0.0000 0.0000 0.0000 16.9251
#
#
#
# Elastic Compliance Matrix: (Units=1/GPa)
#
#
# Indices 1 2 3 4 5 6 
#
# 1 0.014122 -0.002081 0.000055 0.000000 0.000000 0.000000
# 2 -0.002081 0.011753 -0.007170 0.000000 0.000000 0.000000
# 3 0.000055 -0.007170 0.020252 0.000000 0.000000 0.000000
# 4 0.000000 0.000000 0.000000 0.027317 0.000000 0.000000
# 5 0.000000 0.000000 0.000000 0.000000 0.031093 0.000000
# 6 0.000000 0.000000 0.000000 0.000000 0.000000 0.059084
#
#
# Mechanical properties :
#
#
# Convention : Reuss Voigt Hill
#
# Bulk Modulus (GPa) = 36.05459 41.34387 38.69923
# Shear Modulus (GPa) = 26.14266 29.61522 27.87894
#
# Velocity S-wave (km/s) = 3.54626 3.77445 3.66213
# Velocity P-wave (km/s) = 5.84056 6.23569 6.04136
#
# Compressibility (1/GPa) = 0.02773572
#
# Stress axis : x y z
#
# Youngs Moduli (GPa) = 70.80900 85.08396 49.37704
#
# Poissons Ratio (x) = 0.17709 -0.00272
# Poissons Ratio (y) = 0.14738 0.35403
# Poissons Ratio (z) = -0.00390 0.61004
#
# Static dielectric constant tensor:
#      x y z
#    x 3.884330 0.000000 0.000000 
#    y 0.000000 3.859020 0.000000 
#    z 0.000000 0.000000 3.715880 
# 
# 
# High freq. dielectric constant tensor:
#      x y z
#    x 1.817950 0.000000 0.000000 
#    y 0.000000 1.819240 0.000000 
#    z 0.000000 0.000000 1.805700 
# 
# From -- ./inp_files/6439.got.cif
#   From: 2010.03.12/outbox.cif.g09.slc.cpg/sg20_4_cif.got.tgz:6439.got - 2010.04.14 01:38:04.
