data_PCOD8158527
_publ_section_title
;
Structure prediction by ZEFSAII (Michael W. Deem and Ramdas Pophale) SiO2 
 PCOD8158527
Probable space group: C 2 2 21
;
_chemical_formula_sum "Si O2"
_cell_formula_units_Z 48
_cell_length_a 8.894519
_cell_length_b 17.373095
_cell_length_c 14.517580
_cell_angle_alpha 90.000000
_cell_angle_beta 90.000000
_cell_angle_gamma 90.000000
_cell_volume 2243.333747
_symmetry_space_group_name_H-M "C 2 2 21"
_symmetry_group_IT_number 20
_symmetry_cell_setting 'orthorhombic'
loop_
_space_group_symop_operation_xyz
x,y,z
-x,-y,1/2+z
x,-y,-z
-x,y,1/2-z
1/2+x,1/2+y,z
1/2-x,1/2-y,1/2+z
1/2+x,1/2-y,-z
1/2-x,1/2+y,1/2-z
loop_
_atom_site_type_symbol
_atom_site_label
_atom_site_fract_x
_atom_site_fract_y
_atom_site_fract_z
Si Si1 0.166580 0.693143 0.252132
Si Si2 0.957531 0.837299 0.518256
Si Si3 0.841525 0.571606 0.783704
Si Si4 0.310142 0.783084 0.092343
Si Si5 0.627074 0.439798 0.819281
Si Si6 0.618693 0.346514 0.331971
O O1 0.197631 0.732086 0.153573
O O2 0.292370 0.630647 0.268984
O O3 0.176053 0.757948 0.332380
O O4 0.000000 0.655873 0.250000
O O5 0.788342 0.810408 0.494688
O O6 0.947735 0.909984 0.586646
O O7 0.045368 0.765420 0.562163
O O8 0.044336 0.869269 0.428553
O O9 0.869906 0.643952 0.850375
O O10 0.746979 0.507188 0.839192
O O11 0.755374 0.596087 0.689999
O O12 0.000000 0.537093 0.750000
O O13 0.500000 0.471798 0.750000
O O14 0.500000 0.354829 0.250000
#
# Coordination Sequence:
#
# PCOD8158527 Si02
#       6
#     8   8   8   8   8   8
#     4  10  19  41  67  98 140 176 237 287 347 407
#     4  12  24  43  73 109 136 174 249 297 350 411
#     4  11  26  47  71  97 150 190 232 282 369 419
#     4  11  25  42  73 108 132 191 233 297 346 427
#     4  12  26  43  69 103 142 188 235 291 353 422
#     4  10  20  44  71  99 137 188 228 289 347 424
#
# _framework density 21.396726999999998
#
# number of rings (size 3 to 8) (size 9 to 14) (size 15 to 20)
#    0.000    1.000    6.667    2.000    7.000    0.667 
#    0.000    0.000    3.667    0.000    0.000    0.000 
#    0.000    0.000    0.000    0.000    0.000    0.000 
#
# Total GULP energy -297659.810460 kJ/mol
# GULP energy per Si atom -12402.492103 kJ/mol
# Density = 2.134803 g / cm^3
# Si number density = 21.396727 Si / 1000 Ang^3
#
#
#
# Elastic Constant Matrix: (Units=GPa)
#
#
# Indices 1 2 3 4 5 6 
#
# 1 108.5828 46.3695 40.7072 0.0000 0.0000 0.0000
# 2 46.3695 89.8536 45.0881 0.0000 0.0000 0.0000
# 3 40.7072 45.0881 119.2661 0.0000 0.0000 0.0000
# 4 0.0000 0.0000 0.0000 11.1629 0.0000 0.0000
# 5 0.0000 0.0000 0.0000 0.0000 36.2269 0.0000
# 6 0.0000 0.0000 0.0000 0.0000 0.0000 42.3571
#
#
#
# Elastic Compliance Matrix: (Units=1/GPa)
#
#
# Indices 1 2 3 4 5 6 
#
# 1 0.012269 -0.005221 -0.002214 0.000000 0.000000 0.000000
# 2 -0.005221 0.015956 -0.004250 0.000000 0.000000 0.000000
# 3 -0.002214 -0.004250 0.010747 0.000000 0.000000 0.000000
# 4 0.000000 0.000000 0.000000 0.089583 0.000000 0.000000
# 5 0.000000 0.000000 0.000000 0.000000 0.027604 0.000000
# 6 0.000000 0.000000 0.000000 0.000000 0.000000 0.023609
#
#
# Mechanical properties :
#
#
# Convention : Reuss Voigt Hill
#
# Bulk Modulus (GPa) = 64.09213 64.67025 64.38119
# Shear Modulus (GPa) = 23.99949 30.31855 27.15902
#
# Velocity S-wave (km/s) = 3.35273 3.76835 3.56660
# Velocity P-wave (km/s) = 6.70872 7.01598 6.86407
#
# Compressibility (1/GPa) = 0.01560254
#
# Stress axis : x y z
#
# Youngs Moduli (GPa) = 81.50658 62.67204 93.04846
#
# Poissons Ratio (x) = 0.32718 0.20601
# Poissons Ratio (y) = 0.42551 0.39548
# Poissons Ratio (z) = 0.18045 0.26638
#
# Static dielectric constant tensor:
#      x y z
#    x 4.046520 0.000000 0.000000 
#    y 0.000000 3.897140 0.000000 
#    z 0.000000 0.000000 3.874620 
# 
# 
# High freq. dielectric constant tensor:
#      x y z
#    x 1.850150 0.000000 0.000000 
#    y 0.000000 1.832300 0.000000 
#    z 0.000000 0.000000 1.828250 
# 
# From -- ./inp_files/18917.got.cif
#   From: 2010.03.12/outbox.cif.g09.slc.cpg/sg20_10_cif.got.tgz:18917.got - 2010.04.14 01:38:04.
