data_PCOD8158178
_publ_section_title
;
Structure prediction by ZEFSAII (Michael W. Deem and Ramdas Pophale) SiO2 
 PCOD8158178
Probable space group: C 2 2 21
;
_chemical_formula_sum "Si O2"
_cell_formula_units_Z 48
_cell_length_a 10.430644
_cell_length_b 13.511915
_cell_length_c 16.053923
_cell_angle_alpha 90.000000
_cell_angle_beta 90.000000
_cell_angle_gamma 90.000000
_cell_volume 2262.607400
_symmetry_space_group_name_H-M "C 2 2 21"
_symmetry_group_IT_number 20
_symmetry_cell_setting 'orthorhombic'
loop_
_space_group_symop_operation_xyz
x,y,z
-x,-y,1/2+z
x,-y,-z
-x,y,1/2-z
1/2+x,1/2+y,z
1/2-x,1/2-y,1/2+z
1/2+x,1/2-y,-z
1/2-x,1/2+y,1/2-z
loop_
_atom_site_type_symbol
_atom_site_label
_atom_site_fract_x
_atom_site_fract_y
_atom_site_fract_z
Si Si1 0.000000 0.237728 0.250000
Si Si2 0.187006 0.724680 0.887886
Si Si3 0.380956 0.902801 0.545911
Si Si4 0.925685 0.094454 0.461177
Si Si5 0.140049 0.066495 0.339200
Si Si6 0.975730 0.776409 0.107014
Si Si7 0.500000 0.593237 0.750000
O O1 0.920227 0.304347 0.317396
O O2 0.891993 0.171993 0.203214
O O3 0.331608 0.713005 0.857362
O O4 0.171863 0.841961 0.906212
O O5 0.178007 0.663623 0.972963
O O6 0.277280 0.934061 0.615849
O O7 0.487119 0.839262 0.595965
O O8 0.438991 0.000000 0.500000
O O9 0.033250 0.040362 0.407065
O O10 0.001709 0.170151 0.519948
O O11 0.850332 0.000000 0.500000
O O12 0.123135 0.976102 0.273983
O O13 0.055792 0.835384 0.177027
#
# Coordination Sequence:
#
# PCOD8158178 Si02
#       7
#     4   8   8   8   8   8   4
#     4   9  22  38  65  98 126 166 217 270 335 374
#     4  10  22  40  66  90 129 167 218 274 320 394
#     4  11  23  41  65  90 129 178 216 258 328 399
#     4  10  18  37  63  90 118 162 224 262 311 385
#     4  10  19  38  65  91 120 168 217 266 312 394
#     4  11  23  37  60  96 126 164 214 271 326 382
#     4  11  22  36  61  94 126 164 219 270 317 372
#
# _framework density 21.214464
#
# number of rings (size 3 to 8) (size 9 to 14) (size 15 to 20)
#    0.000    1.667    3.333    1.500    2.333    0.667 
#    0.000    0.833   11.000    0.000    0.000    0.000 
#    0.000    0.000    0.000    0.000    0.000    0.000 
#
# Total GULP energy -297359.085569 kJ/mol
# GULP energy per Si atom -12389.961899 kJ/mol
# Density = 2.116618 g / cm^3
# Si number density = 21.214464 Si / 1000 Ang^3
#
#
#
# Elastic Constant Matrix: (Units=GPa)
#
#
# Indices 1 2 3 4 5 6 
#
# 1 75.2541 33.8343 40.7427 0.0000 0.0000 0.0000
# 2 33.8343 91.4762 20.6335 0.0000 0.0000 0.0000
# 3 40.7427 20.6335 91.4097 0.0000 0.0000 0.0000
# 4 0.0000 0.0000 0.0000 48.3164 0.0000 0.0000
# 5 0.0000 0.0000 0.0000 0.0000 29.6523 0.0000
# 6 0.0000 0.0000 0.0000 0.0000 0.0000 15.9597
#
#
#
# Elastic Compliance Matrix: (Units=1/GPa)
#
#
# Indices 1 2 3 4 5 6 
#
# 1 0.019959 -0.005664 -0.007618 0.000000 0.000000 0.000000
# 2 -0.005664 0.013126 -0.000438 0.000000 0.000000 0.000000
# 3 -0.007618 -0.000438 0.014434 0.000000 0.000000 0.000000
# 4 0.000000 0.000000 0.000000 0.020697 0.000000 0.000000
# 5 0.000000 0.000000 0.000000 0.000000 0.033724 0.000000
# 6 0.000000 0.000000 0.000000 0.000000 0.000000 0.062658
#
#
# Mechanical properties :
#
#
# Convention : Reuss Voigt Hill
#
# Bulk Modulus (GPa) = 49.80336 49.84012 49.82174
# Shear Modulus (GPa) = 25.15978 29.64767 27.40373
#
# Velocity S-wave (km/s) = 3.44753 3.74240 3.59799
# Velocity P-wave (km/s) = 6.27490 6.49758 6.38721
#
# Compressibility (1/GPa) = 0.02007897
#
# Stress axis : x y z
#
# Youngs Moduli (GPa) = 50.10278 76.18703 69.28125
#
# Poissons Ratio (x) = 0.43152 0.52775
# Poissons Ratio (y) = 0.28378 0.03036
# Poissons Ratio (z) = 0.38166 0.03339
#
# Static dielectric constant tensor:
#      x y z
#    x 3.486940 0.000000 0.000000 
#    y 0.000000 3.994290 0.000000 
#    z 0.000000 0.000000 4.110040 
# 
# 
# High freq. dielectric constant tensor:
#      x y z
#    x 1.784020 0.000000 0.000000 
#    y 0.000000 1.835320 0.000000 
#    z 0.000000 0.000000 1.845400 
# 
# From -- ./inp_files/23518.got.cif
#   From: 2010.03.12/outbox.cif.g09.slc.cpg/sg20_12_cif.got.tgz:23518.got - 2010.04.14 01:38:04.
