data_PCOD8158023
_publ_section_title
;
Structure prediction by ZEFSAII (Michael W. Deem and Ramdas Pophale) SiO2 
 PCOD8158023
Probable space group: C 2 2 21
;
_chemical_formula_sum "Si O2"
_cell_formula_units_Z 48
_cell_length_a 14.448631
_cell_length_b 18.525392
_cell_length_c 7.649754
_cell_angle_alpha 90.000000
_cell_angle_beta 90.000000
_cell_angle_gamma 90.000000
_cell_volume 2047.583286
_symmetry_space_group_name_H-M "C 2 2 21"
_symmetry_group_IT_number 20
_symmetry_cell_setting 'orthorhombic'
loop_
_space_group_symop_operation_xyz
x,y,z
-x,-y,1/2+z
x,-y,-z
-x,y,1/2-z
1/2+x,1/2+y,z
1/2-x,1/2-y,1/2+z
1/2+x,1/2-y,-z
1/2-x,1/2+y,1/2-z
loop_
_atom_site_type_symbol
_atom_site_label
_atom_site_fract_x
_atom_site_fract_y
_atom_site_fract_z
Si Si1 0.576532 0.061045 0.884533
Si Si2 0.424540 0.212320 0.511866
Si Si3 0.761472 0.024948 0.700640
Si Si4 0.119752 0.752577 0.591026
Si Si5 0.109176 0.900555 0.728927
Si Si6 0.696995 0.670694 0.934213
O O1 0.500000 0.091434 0.750000
O O2 0.604039 0.128560 0.008414
O O3 0.662771 0.021112 0.794718
O O4 0.526892 0.000000 0.000000
O O5 0.533011 0.224231 0.479413
O O6 0.393342 0.236396 0.704823
O O7 0.369418 0.263031 0.372960
O O8 0.791750 0.109415 0.713593
O O9 0.749934 0.000000 0.500000
O O10 0.835680 0.975588 0.806662
O O11 0.126942 0.840514 0.576691
O O12 0.206167 0.708644 0.514162
O O13 0.000000 0.917244 0.750000
O O14 0.150678 0.869923 0.905914
#
# Coordination Sequence:
#
# PCOD8158023 Si02
#       6
#     8   8   8   8   8   8
#     4  12  24  41  64  98 138 178 223 283 343 404
#     4  10  19  37  63  92 127 174 219 274 332 391
#     4  10  22  40  63  95 132 173 223 279 337 410
#     4  10  17  36  64  88 122 165 222 266 328 391
#     4  10  20  38  61  91 124 173 216 268 339 399
#     4  10  19  35  66  89 123 174 219 271 334 393
#
# _framework density 23.442267999999999
#
# number of rings (size 3 to 8) (size 9 to 14) (size 15 to 20)
#    0.000    1.667    6.667    0.500    2.333    1.333 
#    0.000    4.167    0.000    0.000    0.000    0.000 
#    0.000    0.000    0.000    0.000    0.000    0.000 
#
# Total GULP energy -297403.072360 kJ/mol
# GULP energy per Si atom -12391.794682 kJ/mol
# Density = 2.338891 g / cm^3
# Si number density = 23.442268 Si / 1000 Ang^3
#
#
#
# Elastic Constant Matrix: (Units=GPa)
#
#
# Indices 1 2 3 4 5 6 
#
# 1 179.2257 75.3224 10.4476 0.0000 0.0000 0.0000
# 2 75.3224 203.2448 14.2596 0.0000 0.0000 0.0000
# 3 10.4476 14.2596 10.5290 0.0000 0.0000 0.0000
# 4 0.0000 0.0000 0.0000 15.1740 0.0000 0.0000
# 5 0.0000 0.0000 0.0000 0.0000 23.7227 0.0000
# 6 0.0000 0.0000 0.0000 0.0000 0.0000 37.0483
#
#
#
# Elastic Compliance Matrix: (Units=1/GPa)
#
#
# Indices 1 2 3 4 5 6 
#
# 1 0.006733 -0.002239 -0.003648 0.000000 0.000000 0.000000
# 2 -0.002239 0.006182 -0.006150 0.000000 0.000000 0.000000
# 3 -0.003648 -0.006150 0.106924 0.000000 0.000000 0.000000
# 4 0.000000 0.000000 0.000000 0.065902 0.000000 0.000000
# 5 0.000000 0.000000 0.000000 0.000000 0.042154 0.000000
# 6 0.000000 0.000000 0.000000 0.000000 0.000000 0.026992
#
#
# Mechanical properties :
#
#
# Convention : Reuss Voigt Hill
#
# Bulk Modulus (GPa) = 10.44231 65.89541 38.16886
# Shear Modulus (GPa) = 16.08320 34.72034 25.40177
#
# Velocity S-wave (km/s) = 2.62215 3.85268 3.29536
# Velocity P-wave (km/s) = 3.69211 6.92543 5.54947
#
# Compressibility (1/GPa) = 0.09576428
#
# Stress axis : x y z
#
# Youngs Moduli (GPa) = 148.51374 161.77145 9.35241
#
# Poissons Ratio (x) = 0.36227 0.03412
# Poissons Ratio (y) = 0.33258 0.05751
# Poissons Ratio (z) = 0.54184 0.99484
#
# Static dielectric constant tensor:
#      x y z
#    x 4.350860 0.000000 0.000000 
#    y 0.000000 5.296970 0.000000 
#    z 0.000000 0.000000 3.680740 
# 
# 
# High freq. dielectric constant tensor:
#      x y z
#    x 1.932510 0.000000 0.000000 
#    y 0.000000 1.956720 0.000000 
#    z 0.000000 0.000000 1.873860 
# 
# From -- ./inp_files/8421.got.cif
#   From: 2010.03.12/outbox.cif.g09.slc.cpg/sg20_5_cif.got.tgz:8421.got - 2010.04.14 01:38:04.
