data_PCOD8158265
_publ_section_title
;
Structure prediction by ZEFSAII (Michael W. Deem and Ramdas Pophale) SiO2 
 PCOD8158265
Probable space group: C 2 2 21
;
_chemical_formula_sum "Si O2"
_cell_formula_units_Z 48
_cell_length_a 9.227901
_cell_length_b 15.973864
_cell_length_c 18.361558
_cell_angle_alpha 90.000000
_cell_angle_beta 90.000000
_cell_angle_gamma 90.000000
_cell_volume 2706.589783
_symmetry_space_group_name_H-M "C 2 2 21"
_symmetry_group_IT_number 20
_symmetry_cell_setting 'orthorhombic'
loop_
_space_group_symop_operation_xyz
x,y,z
-x,-y,1/2+z
x,-y,-z
-x,y,1/2-z
1/2+x,1/2+y,z
1/2-x,1/2-y,1/2+z
1/2+x,1/2-y,-z
1/2-x,1/2+y,1/2-z
loop_
_atom_site_type_symbol
_atom_site_label
_atom_site_fract_x
_atom_site_fract_y
_atom_site_fract_z
Si Si1 0.325185 0.519043 0.670662
Si Si2 0.652311 0.413939 0.960623
Si Si3 0.840172 0.999853 0.834170
Si Si4 0.348952 0.918283 0.454595
Si Si5 0.647255 0.341460 0.571194
Si Si6 0.845762 0.651217 0.918056
O O1 0.288036 0.438632 0.619713
O O2 0.275359 0.500066 0.752778
O O3 0.496878 0.535081 0.665521
O O4 0.240012 0.600991 0.643973
O O5 0.514441 0.353213 0.959912
O O6 0.603216 0.500000 0.000000
O O7 0.780469 0.367127 0.002255
O O8 0.829847 0.904656 0.861878
O O9 0.750420 0.060161 0.886000
O O10 0.262519 0.855679 0.507028
O O11 0.487365 0.873864 0.420543
O O12 0.395980 0.000000 0.500000
O O13 0.667488 0.248492 0.601834
#
# Coordination Sequence:
#
# PCOD8158265 Si02
#       6
#     8   8   8   8   8   8
#     4   9  18  35  55  71  95 136 175 199 238 307
#     4   9  17  33  54  71  96 137 171 196 241 305
#     4   9  19  36  55  69  95 139 173 196 241 308
#     4  10  19  32  51  75 103 133 163 201 253 301
#     4  10  19  33  52  76 101 129 168 210 244 289
#     4  11  20  31  51  80 104 124 162 218 255 282
#
# _framework density 17.734493000000001
#
# number of rings (size 3 to 8) (size 9 to 14) (size 15 to 20)
#    0.000    2.333    0.000    6.000    0.000    0.667 
#    0.000    8.333    0.000    8.000    0.000    0.000 
#    0.000    0.000    0.000    0.000    0.000    0.000 
#
# Total GULP energy -297614.566433 kJ/mol
# GULP energy per Si atom -12400.606935 kJ/mol
# Density = 1.769413 g / cm^3
# Si number density = 17.734493 Si / 1000 Ang^3
#
#
#
# Elastic Constant Matrix: (Units=GPa)
#
#
# Indices 1 2 3 4 5 6 
#
# 1 84.4187 57.7788 46.2629 0.0000 0.0000 0.0000
# 2 57.7788 115.0864 48.0110 0.0000 0.0000 0.0000
# 3 46.2629 48.0110 131.4546 0.0000 0.0000 0.0000
# 4 0.0000 0.0000 0.0000 14.9329 0.0000 0.0000
# 5 0.0000 0.0000 0.0000 0.0000 19.1475 0.0000
# 6 0.0000 0.0000 0.0000 0.0000 0.0000 20.7061
#
#
#
# Elastic Compliance Matrix: (Units=1/GPa)
#
#
# Indices 1 2 3 4 5 6 
#
# 1 0.019606 -0.008217 -0.003899 0.000000 0.000000 0.000000
# 2 -0.008217 0.013694 -0.002110 0.000000 0.000000 0.000000
# 3 -0.003899 -0.002110 0.009750 0.000000 0.000000 0.000000
# 4 0.000000 0.000000 0.000000 0.066966 0.000000 0.000000
# 5 0.000000 0.000000 0.000000 0.000000 0.052226 0.000000
# 6 0.000000 0.000000 0.000000 0.000000 0.000000 0.048295
#
#
# Mechanical properties :
#
#
# Convention : Reuss Voigt Hill
#
# Bulk Modulus (GPa) = 68.49602 70.56279 69.52940
# Shear Modulus (GPa) = 20.50393 22.88444 21.69418
#
# Velocity S-wave (km/s) = 3.40393 3.59610 3.50133
# Velocity P-wave (km/s) = 7.35907 7.55761 7.45900
#
# Compressibility (1/GPa) = 0.01459939
#
# Stress axis : x y z
#
# Youngs Moduli (GPa) = 51.00420 73.02207 102.56420
#
# Poissons Ratio (x) = 0.60000 0.39990
# Poissons Ratio (y) = 0.41908 0.21640
# Poissons Ratio (z) = 0.19887 0.15407
#
# Static dielectric constant tensor:
#      x y z
#    x 3.235430 0.000000 0.000000 
#    y 0.000000 3.131770 0.000000 
#    z 0.000000 0.000000 3.477020 
# 
# 
# High freq. dielectric constant tensor:
#      x y z
#    x 1.687440 0.000000 0.000000 
#    y 0.000000 1.671500 0.000000 
#    z 0.000000 0.000000 1.684000 
# 
# From -- ./inp_files/23481.got.cif
#   From: 2010.03.12/outbox.cif.g09.slc.cpg/sg20_12_cif.got.tgz:23481.got - 2010.04.14 01:38:04.
