data_PCOD8158530
_publ_section_title
;
Structure prediction by ZEFSAII (Michael W. Deem and Ramdas Pophale) SiO2 
 PCOD8158530
Probable space group: C 2 2 21
;
_chemical_formula_sum "Si O2"
_cell_formula_units_Z 52
_cell_length_a 9.196441
_cell_length_b 17.069289
_cell_length_c 16.163439
_cell_angle_alpha 90.000000
_cell_angle_beta 90.000000
_cell_angle_gamma 90.000000
_cell_volume 2537.283464
_symmetry_space_group_name_H-M "C 2 2 21"
_symmetry_group_IT_number 20
_symmetry_cell_setting 'orthorhombic'
loop_
_space_group_symop_operation_xyz
x,y,z
-x,-y,1/2+z
x,-y,-z
-x,y,1/2-z
1/2+x,1/2+y,z
1/2-x,1/2-y,1/2+z
1/2+x,1/2-y,-z
1/2-x,1/2+y,1/2-z
loop_
_atom_site_type_symbol
_atom_site_label
_atom_site_fract_x
_atom_site_fract_y
_atom_site_fract_z
Si Si1 0.445084 0.000000 0.000000
Si Si2 0.503461 0.284208 0.950329
Si Si3 0.383410 0.823559 0.314695
Si Si4 0.100686 0.505330 0.173981
Si Si5 0.370519 0.388122 0.812103
Si Si6 0.843341 0.291297 0.789398
Si Si7 0.691935 0.838656 0.531319
O O1 0.536368 0.017967 0.082545
O O2 0.352677 0.080048 0.985981
O O3 0.562862 0.209309 0.901315
O O4 0.432130 0.354432 0.897994
O O5 0.640892 0.324665 0.995827
O O6 0.392885 0.242437 0.012253
O O7 0.500000 0.787882 0.250000
O O8 0.215698 0.796438 0.304500
O O9 0.381695 0.915273 0.307858
O O10 0.263360 0.538976 0.173191
O O11 0.000000 0.541537 0.250000
O O12 0.500000 0.413252 0.750000
O O13 0.272832 0.319904 0.776311
O O14 0.831560 0.347463 0.869801
O O15 0.000000 0.289282 0.750000
#
# Coordination Sequence:
#
# PCOD8158530 Si02
#       7
#     4   8   8   8   8   8   8
#     4  12  24  46  68  96 144 174 220 280 340 400
#     4  11  23  42  67  95 128 174 219 269 330 395
#     4  10  19  42  63  93 130 171 213 266 331 380
#     4  11  26  41  72 100 135 182 224 273 341 403
#     4  12  22  43  69  93 134 173 220 277 334 392
#     4  11  22  39  68  98 124 174 224 264 317 403
#     4  11  25  41  66  96 129 172 223 265 332 399
#
# _framework density 20.49436
#
# number of rings (size 3 to 8) (size 9 to 14) (size 15 to 20)
#    0.000    0.923    6.154    2.308    4.308    0.615 
#    0.000    3.846    0.000    0.000    0.000    0.000 
#    0.000    0.000    0.000    0.000    0.000    0.000 
#
# Total GULP energy -322178.001979 kJ/mol
# GULP energy per Si atom -12391.461615 kJ/mol
# Density = 2.044771 g / cm^3
# Si number density = 20.494360 Si / 1000 Ang^3
#
#
#
# Elastic Constant Matrix: (Units=GPa)
#
#
# Indices 1 2 3 4 5 6 
#
# 1 158.7216 50.2225 38.8371 0.0000 0.0000 0.0000
# 2 50.2225 74.0648 13.9284 0.0000 0.0000 0.0000
# 3 38.8371 13.9284 63.4096 0.0000 0.0000 0.0000
# 4 0.0000 0.0000 0.0000 27.1971 0.0000 0.0000
# 5 0.0000 0.0000 0.0000 0.0000 39.5948 0.0000
# 6 0.0000 0.0000 0.0000 0.0000 0.0000 49.9749
#
#
#
# Elastic Compliance Matrix: (Units=1/GPa)
#
#
# Indices 1 2 3 4 5 6 
#
# 1 0.009053 -0.005316 -0.004377 0.000000 0.000000 0.000000
# 2 -0.005316 0.017205 -0.000523 0.000000 0.000000 0.000000
# 3 -0.004377 -0.000523 0.018567 0.000000 0.000000 0.000000
# 4 0.000000 0.000000 0.000000 0.036769 0.000000 0.000000
# 5 0.000000 0.000000 0.000000 0.000000 0.025256 0.000000
# 6 0.000000 0.000000 0.000000 0.000000 0.000000 0.020010
#
#
# Mechanical properties :
#
#
# Convention : Reuss Voigt Hill
#
# Bulk Modulus (GPa) = 40.99772 55.79687 48.39730
# Shear Modulus (GPa) = 32.17032 36.23390 34.20211
#
# Velocity S-wave (km/s) = 3.96626 4.20931 4.08959
# Velocity P-wave (km/s) = 6.40490 7.13505 6.77982
#
# Compressibility (1/GPa) = 0.02439160
#
# Stress axis : x y z
#
# Youngs Moduli (GPa) = 110.45495 58.12364 53.86043
#
# Poissons Ratio (x) = 0.30898 0.23577
# Poissons Ratio (y) = 0.58716 0.02818
# Poissons Ratio (z) = 0.48351 0.03042
#
# Static dielectric constant tensor:
#      x y z
#    x 3.781070 0.000000 0.000000 
#    y 0.000000 3.684370 0.000000 
#    z 0.000000 0.000000 3.723790 
# 
# 
# High freq. dielectric constant tensor:
#      x y z
#    x 1.810150 0.000000 0.000000 
#    y 0.000000 1.801340 0.000000 
#    z 0.000000 0.000000 1.795760 
# 
# From -- ./inp_files/23690.got.cif
#   From: 2010.03.12/outbox.cif.g09.slc.cpg/sg20_12_cif.got.tgz:23690.got - 2010.04.14 01:38:04.
