data_PCOD8158959
_publ_section_title
;
Structure prediction by ZEFSAII (Michael W. Deem and Ramdas Pophale) SiO2 
 PCOD8158959
Probable space group: C 2 2 21
;
_chemical_formula_sum "Si O2"
_cell_formula_units_Z 40
_cell_length_a 8.723614
_cell_length_b 19.303977
_cell_length_c 11.298881
_cell_angle_alpha 90.000000
_cell_angle_beta 90.000000
_cell_angle_gamma 90.000000
_cell_volume 1902.736577
_symmetry_space_group_name_H-M "C 2 2 21"
_symmetry_group_IT_number 20
_symmetry_cell_setting 'orthorhombic'
loop_
_space_group_symop_operation_xyz
x,y,z
-x,-y,1/2+z
x,-y,-z
-x,y,1/2-z
1/2+x,1/2+y,z
1/2-x,1/2-y,1/2+z
1/2+x,1/2-y,-z
1/2-x,1/2+y,1/2-z
loop_
_atom_site_type_symbol
_atom_site_label
_atom_site_fract_x
_atom_site_fract_y
_atom_site_fract_z
Si Si1 0.329088 0.117232 0.950312
Si Si2 0.896864 0.772714 0.534034
Si Si3 0.421041 0.611599 0.128205
Si Si4 0.000000 0.312842 0.250000
Si Si5 0.075418 0.357600 0.876733
Si Si6 0.898542 0.000000 0.500000
O O1 0.381073 0.138482 0.819518
O O2 0.259347 0.184027 0.018840
O O3 0.473974 0.096082 0.032484
O O4 0.209604 0.055200 0.933719
O O5 0.898242 0.732276 0.659124
O O6 0.911216 0.720647 0.424626
O O7 0.037483 0.828253 0.532817
O O8 0.500000 0.635259 0.250000
O O9 0.239066 0.605006 0.136741
O O10 0.492608 0.537411 0.094474
O O11 0.000000 0.355430 0.750000
#
# Coordination Sequence:
#
# PCOD8158959 Si02
#       6
#     8   8   8   4   8   4
#     4  10  23  41  66  97 131 171 213 268 319 387
#     4  10  21  39  68  97 133 166 203 266 333 391
#     4  11  23  44  64  88 131 176 207 266 328 388
#     4  10  20  40  68 100 134 158 214 272 328 380
#     4  11  22  37  67 104 125 165 215 265 329 388
#     4  10  24  48  60  88 130 174 226 254 322 394
#
# _framework density 21.022354
#
# number of rings (size 3 to 8) (size 9 to 14) (size 15 to 20)
#    0.000    1.600    1.000    4.800    2.800    0.800 
#   12.600    2.000    0.000    0.000    0.000    0.000 
#    0.000    0.000    0.000    0.000    0.000    0.000 
#
# Total GULP energy -247992.265963 kJ/mol
# GULP energy per Si atom -12399.613298 kJ/mol
# Density = 2.097451 g / cm^3
# Si number density = 21.022354 Si / 1000 Ang^3
#
#
#
# Elastic Constant Matrix: (Units=GPa)
#
#
# Indices 1 2 3 4 5 6 
#
# 1 169.0194 65.5434 68.7941 0.0000 0.0000 0.0000
# 2 65.5434 118.9766 54.2719 0.0000 0.0000 0.0000
# 3 68.7941 54.2719 114.8442 0.0000 0.0000 0.0000
# 4 0.0000 0.0000 0.0000 22.4874 0.0000 0.0000
# 5 0.0000 0.0000 0.0000 0.0000 38.5954 0.0000
# 6 0.0000 0.0000 0.0000 0.0000 0.0000 30.2264
#
#
#
# Elastic Compliance Matrix: (Units=1/GPa)
#
#
# Indices 1 2 3 4 5 6 
#
# 1 0.008612 -0.003048 -0.003718 0.000000 0.000000 0.000000
# 2 -0.003048 0.011794 -0.003747 0.000000 0.000000 0.000000
# 3 -0.003718 -0.003747 0.012706 0.000000 0.000000 0.000000
# 4 0.000000 0.000000 0.000000 0.044469 0.000000 0.000000
# 5 0.000000 0.000000 0.000000 0.000000 0.025910 0.000000
# 6 0.000000 0.000000 0.000000 0.000000 0.000000 0.033084
#
#
# Mechanical properties :
#
#
# Convention : Reuss Voigt Hill
#
# Bulk Modulus (GPa) = 82.75681 86.67321 84.71501
# Shear Modulus (GPa) = 30.93495 32.54390 31.73942
#
# Velocity S-wave (km/s) = 3.84021 3.93881 3.88982
# Velocity P-wave (km/s) = 7.68860 7.87427 7.78199
#
# Compressibility (1/GPa) = 0.01208360
#
# Stress axis : x y z
#
# Youngs Moduli (GPa) = 116.11829 84.79164 78.70497
#
# Poissons Ratio (x) = 0.25846 0.29265
# Poissons Ratio (y) = 0.35394 0.29494
# Poissons Ratio (z) = 0.43176 0.31775
#
# Static dielectric constant tensor:
#      x y z
#    x 4.004460 0.000000 0.000000 
#    y 0.000000 3.758000 0.000000 
#    z 0.000000 0.000000 3.715550 
# 
# 
# High freq. dielectric constant tensor:
#      x y z
#    x 1.835220 0.000000 0.000000 
#    y 0.000000 1.814840 0.000000 
#    z 0.000000 0.000000 1.815870 
# 
# From -- ./inp_files/12949.got.cif
#   From: 2010.03.12/outbox.cif.g09.slc.cpg/sg20_7_cif.got.tgz:12949.got - 2010.04.14 01:38:04.
