data_PCOD8158683
_publ_section_title
;
Structure prediction by ZEFSAII (Michael W. Deem and Ramdas Pophale) SiO2 
 PCOD8158683
Probable space group: C 2 2 21
;
_chemical_formula_sum "Si O2"
_cell_formula_units_Z 48
_cell_length_a 29.108912
_cell_length_b 8.926317
_cell_length_c 9.310679
_cell_angle_alpha 90.000000
_cell_angle_beta 90.000000
_cell_angle_gamma 90.000000
_cell_volume 2419.243779
_symmetry_space_group_name_H-M "C 2 2 21"
_symmetry_group_IT_number 20
_symmetry_cell_setting 'orthorhombic'
loop_
_space_group_symop_operation_xyz
x,y,z
-x,-y,1/2+z
x,-y,-z
-x,y,1/2-z
1/2+x,1/2+y,z
1/2-x,1/2-y,1/2+z
1/2+x,1/2-y,-z
1/2-x,1/2+y,1/2-z
loop_
_atom_site_type_symbol
_atom_site_label
_atom_site_fract_x
_atom_site_fract_y
_atom_site_fract_z
Si Si1 0.132167 0.901243 0.138752
Si Si2 0.723277 0.375846 0.292115
Si Si3 0.392878 0.319046 0.809316
Si Si4 0.208577 0.792777 0.606405
Si Si5 0.511972 0.647514 0.412777
Si Si6 0.426145 0.825832 0.473647
O O1 0.178469 0.828797 0.201618
O O2 0.108615 0.008218 0.257096
O O3 0.097867 0.766159 0.101850
O O4 0.144829 0.000000 0.000000
O O5 0.768068 0.338696 0.197991
O O6 0.724474 0.284656 0.441480
O O7 0.723626 0.552118 0.321183
O O8 0.346318 0.272859 0.889255
O O9 0.434507 0.305028 0.924088
O O10 0.400916 0.209215 0.675764
O O11 0.499657 0.500000 0.500000
O O12 0.500000 0.608790 0.250000
O O13 0.479941 0.782276 0.469033
O O14 0.421187 0.000000 0.500000
#
# Coordination Sequence:
#
# PCOD8158683 Si02
#       6
#     8   8   8   8   8   8
#     4   9  19  37  62  87 113 158 205 244 286 350
#     4  10  23  38  62  88 122 156 197 246 298 356
#     4   9  20  38  61  82 121 152 201 249 287 344
#     4  10  23  40  60  91 118 156 199 247 302 349
#     4  10  20  37  63  89 113 154 200 247 291 347
#     4  10  20  36  59  87 122 157 193 239 302 358
#
# _framework density 19.840910999999998
#
# number of rings (size 3 to 8) (size 9 to 14) (size 15 to 20)
#    0.000    2.333    0.000    2.500   11.667    1.333 
#    0.000    7.500    3.667    0.000    0.000    0.000 
#    0.000    0.000    0.000    0.000    0.000    0.000 
#
# Total GULP energy -297648.865979 kJ/mol
# GULP energy per Si atom -12402.036082 kJ/mol
# Density = 1.979575 g / cm^3
# Si number density = 19.840911 Si / 1000 Ang^3
#
#
#
# Elastic Constant Matrix: (Units=GPa)
#
#
# Indices 1 2 3 4 5 6 
#
# 1 132.7090 45.4447 43.2686 0.0000 0.0000 0.0000
# 2 45.4447 92.1831 26.2581 0.0000 0.0000 0.0000
# 3 43.2686 26.2581 59.2518 0.0000 0.0000 0.0000
# 4 0.0000 0.0000 0.0000 19.5582 0.0000 0.0000
# 5 0.0000 0.0000 0.0000 0.0000 31.5321 0.0000
# 6 0.0000 0.0000 0.0000 0.0000 0.0000 25.1115
#
#
#
# Elastic Compliance Matrix: (Units=1/GPa)
#
#
# Indices 1 2 3 4 5 6 
#
# 1 0.010806 -0.003524 -0.006329 0.000000 0.000000 0.000000
# 2 -0.003524 0.013565 -0.003438 0.000000 0.000000 0.000000
# 3 -0.006329 -0.003438 0.023022 0.000000 0.000000 0.000000
# 4 0.000000 0.000000 0.000000 0.051130 0.000000 0.000000
# 5 0.000000 0.000000 0.000000 0.000000 0.031714 0.000000
# 6 0.000000 0.000000 0.000000 0.000000 0.000000 0.039822
#
#
# Mechanical properties :
#
#
# Convention : Reuss Voigt Hill
#
# Bulk Modulus (GPa) = 48.05232 57.12072 52.58652
# Shear Modulus (GPa) = 24.56074 26.51853 25.53964
#
# Velocity S-wave (km/s) = 3.52217 3.65986 3.59168
# Velocity P-wave (km/s) = 6.38845 6.83457 6.61527
#
# Compressibility (1/GPa) = 0.02081065
#
# Stress axis : x y z
#
# Youngs Moduli (GPa) = 92.54445 73.72142 43.43605
#
# Poissons Ratio (x) = 0.25981 0.27491
# Poissons Ratio (y) = 0.32614 0.14932
# Poissons Ratio (z) = 0.58571 0.25344
#
# Static dielectric constant tensor:
#      x y z
#    x 3.894190 0.000000 0.000000 
#    y 0.000000 3.290870 0.000000 
#    z 0.000000 0.000000 3.657330 
# 
# 
# High freq. dielectric constant tensor:
#      x y z
#    x 1.785320 0.000000 0.000000 
#    y 0.000000 1.746210 0.000000 
#    z 0.000000 0.000000 1.773650 
# 
# From -- ./inp_files/11478.got.cif
#   From: 2010.03.12/outbox.cif.g09.slc.cpg/sg20_6_cif.got.tgz:11478.got - 2010.04.14 01:38:04.
