data_PCOD8158509
_publ_section_title
;
Structure prediction by ZEFSAII (Michael W. Deem and Ramdas Pophale) SiO2 
 PCOD8158509
Probable space group: C 2 2 21
;
_chemical_formula_sum "Si O2"
_cell_formula_units_Z 52
_cell_length_a 8.485220
_cell_length_b 13.197332
_cell_length_c 21.051488
_cell_angle_alpha 90.000000
_cell_angle_beta 90.000000
_cell_angle_gamma 90.000000
_cell_volume 2357.393317
_symmetry_space_group_name_H-M "C 2 2 21"
_symmetry_group_IT_number 20
_symmetry_cell_setting 'orthorhombic'
loop_
_space_group_symop_operation_xyz
x,y,z
-x,-y,1/2+z
x,-y,-z
-x,y,1/2-z
1/2+x,1/2+y,z
1/2-x,1/2-y,1/2+z
1/2+x,1/2-y,-z
1/2-x,1/2+y,1/2-z
loop_
_atom_site_type_symbol
_atom_site_label
_atom_site_fract_x
_atom_site_fract_y
_atom_site_fract_z
Si Si1 0.388353 0.432599 0.441323
Si Si2 0.367124 0.842613 0.655674
Si Si3 0.571839 0.230862 0.449713
Si Si4 0.900615 0.320777 0.431493
Si Si5 0.000000 0.505017 0.750000
Si Si6 0.337532 0.841800 0.158909
Si Si7 0.300529 0.508115 0.075105
O O1 0.324397 0.500000 0.500000
O O2 0.483516 0.334963 0.467051
O O3 0.242575 0.405958 0.397187
O O4 0.521097 0.491755 0.399282
O O5 0.527684 0.808719 0.620769
O O6 0.279958 0.744833 0.686656
O O7 0.396389 0.930651 0.706204
O O8 0.254685 0.882779 0.599191
O O9 0.761592 0.241225 0.449513
O O10 0.512238 0.157512 0.506723
O O11 0.824114 0.423285 0.403269
O O12 0.009904 0.286194 0.372200
O O13 0.879479 0.578083 0.786614
O O14 0.312557 0.500000 0.000000
#
# Coordination Sequence:
#
# PCOD8158509 Si02
#       7
#     8   8   8   8   4   8   8
#     4   9  21  38  65 103 140 167 222 278 358 439
#     4  11  24  48  68  97 139 178 238 295 347 412
#     4  10  21  37  67 103 136 185 213 280 362 433
#     4  11  21  38  66  99 144 171 225 275 357 435
#     4  12  28  50  70  94 136 194 252 296 344 390
#     4  11  26  46  68  98 135 187 245 290 348 420
#     4  10  19  39  68 101 138 174 204 282 363 425
#
# _framework density 22.058261000000002
#
# number of rings (size 3 to 8) (size 9 to 14) (size 15 to 20)
#    0.000    1.538    3.077    1.846    4.308    4.308 
#    5.538    0.000    0.000    0.000    0.000    0.000 
#    0.000    0.000    0.000    0.000    0.000    0.000 
#
# Total GULP energy -322243.918854 kJ/mol
# GULP energy per Si atom -12393.996879 kJ/mol
# Density = 2.200806 g / cm^3
# Si number density = 22.058261 Si / 1000 Ang^3
#
#
#
# Elastic Constant Matrix: (Units=GPa)
#
#
# Indices 1 2 3 4 5 6 
#
# 1 107.9567 40.8981 48.2515 0.0000 0.0000 0.0000
# 2 40.8981 98.3838 50.8475 0.0000 0.0000 0.0000
# 3 48.2515 50.8475 90.9136 0.0000 0.0000 0.0000
# 4 0.0000 0.0000 0.0000 39.2280 0.0000 0.0000
# 5 0.0000 0.0000 0.0000 0.0000 15.1384 0.0000
# 6 0.0000 0.0000 0.0000 0.0000 0.0000 29.4493
#
#
#
# Elastic Compliance Matrix: (Units=1/GPa)
#
#
# Indices 1 2 3 4 5 6 
#
# 1 0.012566 -0.002499 -0.005271 0.000000 0.000000 0.000000
# 2 -0.002499 0.014794 -0.006948 0.000000 0.000000 0.000000
# 3 -0.005271 -0.006948 0.017683 0.000000 0.000000 0.000000
# 4 0.000000 0.000000 0.000000 0.025492 0.000000 0.000000
# 5 0.000000 0.000000 0.000000 0.000000 0.066057 0.000000
# 6 0.000000 0.000000 0.000000 0.000000 0.000000 0.033957
#
#
# Mechanical properties :
#
#
# Convention : Reuss Voigt Hill
#
# Bulk Modulus (GPa) = 64.07742 64.13870 64.10806
# Shear Modulus (GPa) = 24.36793 27.24692 25.80742
#
# Velocity S-wave (km/s) = 3.32732 3.51839 3.42419
# Velocity P-wave (km/s) = 6.62372 6.75615 6.69026
#
# Compressibility (1/GPa) = 0.01560612
#
# Stress axis : x y z
#
# Youngs Moduli (GPa) = 79.58090 67.59496 56.55126
#
# Poissons Ratio (x) = 0.16893 0.29810
# Poissons Ratio (y) = 0.19889 0.39291
# Poissons Ratio (z) = 0.41950 0.46964
#
# Static dielectric constant tensor:
#      x y z
#    x 4.350960 0.000000 0.000000 
#    y 0.000000 4.143760 0.000000 
#    z 0.000000 0.000000 3.616990 
# 
# 
# High freq. dielectric constant tensor:
#      x y z
#    x 1.882180 0.000000 0.000000 
#    y 0.000000 1.869980 0.000000 
#    z 0.000000 0.000000 1.831160 
# 
# From -- ./inp_files/26665.got.cif
#   From: 2010.03.12/outbox.cif.g09.slc.cpg/sg20_14_cif.got.tgz:26665.got - 2010.04.14 01:38:04.
