data_PCOD8158230
_publ_section_title
;
Structure prediction by ZEFSAII (Michael W. Deem and Ramdas Pophale) SiO2 
 PCOD8158230
Probable space group: C 2 2 21
;
_chemical_formula_sum "Si O2"
_cell_formula_units_Z 48
_cell_length_a 10.295060
_cell_length_b 19.552190
_cell_length_c 11.876808
_cell_angle_alpha 90.000000
_cell_angle_beta 90.000000
_cell_angle_gamma 90.000000
_cell_volume 2390.694193
_symmetry_space_group_name_H-M "C 2 2 21"
_symmetry_group_IT_number 20
_symmetry_cell_setting 'orthorhombic'
loop_
_space_group_symop_operation_xyz
x,y,z
-x,-y,1/2+z
x,-y,-z
-x,y,1/2-z
1/2+x,1/2+y,z
1/2-x,1/2-y,1/2+z
1/2+x,1/2-y,-z
1/2-x,1/2+y,1/2-z
loop_
_atom_site_type_symbol
_atom_site_label
_atom_site_fract_x
_atom_site_fract_y
_atom_site_fract_z
Si Si1 0.296783 0.064456 0.179510
Si Si2 0.888522 0.816840 0.657398
Si Si3 0.984303 0.500000 0.000000
Si Si4 0.214664 0.809299 0.283009
Si Si5 0.527735 0.715402 0.908750
Si Si6 0.500000 0.162548 0.250000
Si Si7 0.132718 0.557308 0.810608
O O1 0.167495 0.105786 0.140618
O O2 0.373441 0.115825 0.260925
O O3 0.263864 0.996989 0.255711
O O4 0.388066 0.046943 0.073346
O O5 0.775693 0.765223 0.695909
O O6 0.949657 0.789244 0.541152
O O7 0.000000 0.818773 0.750000
O O8 0.090711 0.548123 0.939093
O O9 0.153826 0.812461 0.157743
O O10 0.324874 0.865724 0.290456
O O11 0.102762 0.826608 0.375150
O O12 0.498369 0.791972 0.863800
O O13 0.000000 0.539816 0.750000
#
# Coordination Sequence:
#
# PCOD8158230 Si02
#       7
#     8   8   4   8   8   4   8
#     4  11  22  43  62  96 134 164 222 273 322 396
#     4  12  27  40  67 101 129 173 224 269 334 397
#     4  10  22  36  68  96 122 178 208 270 334 370
#     4  10  23  43  65  92 131 167 216 275 320 396
#     4  10  24  42  66  93 128 179 209 266 344 376
#     4  10  18  44  66  90 130 178 210 276 326 376
#     4  10  22  38  64  97 123 165 225 264 323 389
#
# _framework density 20.077849000000001
#
# number of rings (size 3 to 8) (size 9 to 14) (size 15 to 20)
#    0.000    1.667    5.833    0.500    9.333    1.333 
#    3.000    0.000    0.000    0.000    0.000    0.000 
#    0.000    0.000    0.000    0.000    0.000    0.000 
#
# Total GULP energy -297366.490149 kJ/mol
# GULP energy per Si atom -12390.270423 kJ/mol
# Density = 2.003215 g / cm^3
# Si number density = 20.077849 Si / 1000 Ang^3
#
#
#
# Elastic Constant Matrix: (Units=GPa)
#
#
# Indices 1 2 3 4 5 6 
#
# 1 71.1401 32.0051 39.0517 0.0000 0.0000 0.0000
# 2 32.0051 99.8864 31.2430 0.0000 0.0000 0.0000
# 3 39.0517 31.2430 118.4939 0.0000 0.0000 0.0000
# 4 0.0000 0.0000 0.0000 19.6580 0.0000 0.0000
# 5 0.0000 0.0000 0.0000 0.0000 23.7750 0.0000
# 6 0.0000 0.0000 0.0000 0.0000 0.0000 44.3329
#
#
#
# Elastic Compliance Matrix: (Units=1/GPa)
#
#
# Indices 1 2 3 4 5 6 
#
# 1 0.018822 -0.004458 -0.005028 0.000000 0.000000 0.000000
# 2 -0.004458 0.011967 -0.001686 0.000000 0.000000 0.000000
# 3 -0.005028 -0.001686 0.010541 0.000000 0.000000 0.000000
# 4 0.000000 0.000000 0.000000 0.050870 0.000000 0.000000
# 5 0.000000 0.000000 0.000000 0.000000 0.042061 0.000000
# 6 0.000000 0.000000 0.000000 0.000000 0.000000 0.022557
#
#
# Mechanical properties :
#
#
# Convention : Reuss Voigt Hill
#
# Bulk Modulus (GPa) = 52.66988 54.90222 53.78605
# Shear Modulus (GPa) = 26.95548 30.03456 28.49502
#
# Velocity S-wave (km/s) = 3.66805 3.87189 3.77135
# Velocity P-wave (km/s) = 6.65051 6.88424 6.76838
#
# Compressibility (1/GPa) = 0.01898618
#
# Stress axis : x y z
#
# Youngs Moduli (GPa) = 53.12797 83.56114 94.86961
#
# Poissons Ratio (x) = 0.37255 0.47698
# Poissons Ratio (y) = 0.23687 0.15995
# Poissons Ratio (z) = 0.26711 0.14089
#
# Static dielectric constant tensor:
#      x y z
#    x 3.670170 0.000000 0.000000 
#    y 0.000000 3.653350 0.000000 
#    z 0.000000 0.000000 2.467200 
# 
# 
# High freq. dielectric constant tensor:
#      x y z
#    x 1.776330 0.000000 0.000000 
#    y 0.000000 1.784660 0.000000 
#    z 0.000000 0.000000 1.778470 
# 
# From -- ./inp_files/14278.got.cif
#   From: 2010.03.12/outbox.cif.g09.slc.cpg/sg20_8_cif.got.tgz:14278.got - 2010.04.14 01:38:04.
