data_PCOD8158009
_publ_section_title
;
Structure prediction by ZEFSAII (Michael W. Deem and Ramdas Pophale) SiO2 
 PCOD8158009
Probable space group: C 2 2 21
;
_chemical_formula_sum "Si O2"
_cell_formula_units_Z 48
_cell_length_a 15.612145
_cell_length_b 9.114660
_cell_length_c 18.417387
_cell_angle_alpha 90.000000
_cell_angle_beta 90.000000
_cell_angle_gamma 90.000000
_cell_volume 2620.783001
_symmetry_space_group_name_H-M "C 2 2 21"
_symmetry_group_IT_number 20
_symmetry_cell_setting 'orthorhombic'
loop_
_space_group_symop_operation_xyz
x,y,z
-x,-y,1/2+z
x,-y,-z
-x,y,1/2-z
1/2+x,1/2+y,z
1/2-x,1/2-y,1/2+z
1/2+x,1/2-y,-z
1/2-x,1/2+y,1/2-z
loop_
_atom_site_type_symbol
_atom_site_label
_atom_site_fract_x
_atom_site_fract_y
_atom_site_fract_z
Si Si1 0.359037 0.338559 0.087618
Si Si2 0.156980 0.178448 0.425696
Si Si3 0.575801 0.843102 0.298072
Si Si4 0.187841 0.318652 0.831278
Si Si5 0.504922 0.837178 0.671585
Si Si6 0.253622 0.121581 0.718937
O O1 0.372538 0.511253 0.079988
O O2 0.446517 0.268152 0.116618
O O3 0.278278 0.310782 0.141709
O O4 0.344102 0.266287 0.008850
O O5 0.089977 0.266182 0.375509
O O6 0.255300 0.208113 0.402638
O O7 0.500000 0.773071 0.250000
O O8 0.655759 0.815758 0.244945
O O9 0.557131 0.012363 0.316935
O O10 0.092446 0.365297 0.856313
O O11 0.185135 0.173042 0.780430
O O12 0.237056 0.446122 0.785675
O O13 0.500000 0.758468 0.750000
#
# Coordination Sequence:
#
# PCOD8158009 Si02
#       6
#     8   8   8   8   8   8
#     4  10  20  37  55  76 112 148 185 221 279 330
#     4   9  22  38  53  76 112 149 182 224 276 338
#     4  10  19  35  56  84 112 134 187 233 275 324
#     4  10  19  35  56  82 107 144 182 224 272 328
#     4  11  19  35  59  86 111 137 187 237 270 330
#     4  10  17  33  56  77 110 142 176 226 270 326
#
# _framework density 18.315138000000001
#
# number of rings (size 3 to 8) (size 9 to 14) (size 15 to 20)
#    0.000    2.000    5.000    0.000    0.000    1.333 
#    6.000    1.667    0.000    0.000    0.000    0.000 
#    0.000    0.000    0.000    0.000    0.000    0.000 
#
# Total GULP energy -297387.165506 kJ/mol
# GULP energy per Si atom -12391.131896 kJ/mol
# Density = 1.827345 g / cm^3
# Si number density = 18.315138 Si / 1000 Ang^3
#
#
#
# Elastic Constant Matrix: (Units=GPa)
#
#
# Indices 1 2 3 4 5 6 
#
# 1 113.5524 37.0523 68.1538 0.0000 0.0000 0.0000
# 2 37.0523 45.0919 45.0009 0.0000 0.0000 0.0000
# 3 68.1538 45.0009 159.4113 0.0000 0.0000 0.0000
# 4 0.0000 0.0000 0.0000 25.2500 0.0000 0.0000
# 5 0.0000 0.0000 0.0000 0.0000 30.6419 0.0000
# 6 0.0000 0.0000 0.0000 0.0000 0.0000 23.5862
#
#
#
# Elastic Compliance Matrix: (Units=1/GPa)
#
#
# Indices 1 2 3 4 5 6 
#
# 1 0.013402 -0.007371 -0.003649 0.000000 0.000000 0.000000
# 2 -0.007371 0.034929 -0.006709 0.000000 0.000000 0.000000
# 3 -0.003649 -0.006709 0.009727 0.000000 0.000000 0.000000
# 4 0.000000 0.000000 0.000000 0.039604 0.000000 0.000000
# 5 0.000000 0.000000 0.000000 0.000000 0.032635 0.000000
# 6 0.000000 0.000000 0.000000 0.000000 0.000000 0.042398
#
#
# Mechanical properties :
#
#
# Convention : Reuss Voigt Hill
#
# Bulk Modulus (GPa) = 44.24709 68.71886 56.48297
# Shear Modulus (GPa) = 23.18195 27.08552 25.13374
#
# Velocity S-wave (km/s) = 3.56156 3.84977 3.70847
# Velocity P-wave (km/s) = 6.41281 7.57381 7.01737
#
# Compressibility (1/GPa) = 0.02260036
#
# Stress axis : x y z
#
# Youngs Moduli (GPa) = 74.61762 28.62959 102.80582
#
# Poissons Ratio (x) = 0.21102 0.37514
# Poissons Ratio (y) = 0.54998 0.68973
# Poissons Ratio (z) = 0.27228 0.19208
#
# Static dielectric constant tensor:
#      x y z
#    x 3.459610 0.000000 0.000000 
#    y 0.000000 3.254010 0.000000 
#    z 0.000000 0.000000 3.588030 
# 
# 
# High freq. dielectric constant tensor:
#      x y z
#    x 1.711330 0.000000 0.000000 
#    y 0.000000 1.693210 0.000000 
#    z 0.000000 0.000000 1.705540 
# 
# From -- ./inp_files/24816.got.cif
#   From: 2010.03.12/outbox.cif.g09.slc.cpg/sg20_13_cif.got.tgz:24816.got - 2010.04.14 01:38:04.
