data_PCOD8158602
_publ_section_title
;
Structure prediction by ZEFSAII (Michael W. Deem and Ramdas Pophale) SiO2 
 PCOD8158602
Probable space group: C 2 2 21
;
_chemical_formula_sum "Si O2"
_cell_formula_units_Z 44
_cell_length_a 13.559902
_cell_length_b 22.261532
_cell_length_c 7.444959
_cell_angle_alpha 90.000000
_cell_angle_beta 90.000000
_cell_angle_gamma 90.000000
_cell_volume 2247.366535
_symmetry_space_group_name_H-M "C 2 2 21"
_symmetry_group_IT_number 20
_symmetry_cell_setting 'orthorhombic'
loop_
_space_group_symop_operation_xyz
x,y,z
-x,-y,1/2+z
x,-y,-z
-x,y,1/2-z
1/2+x,1/2+y,z
1/2-x,1/2-y,1/2+z
1/2+x,1/2-y,-z
1/2-x,1/2+y,1/2-z
loop_
_atom_site_type_symbol
_atom_site_label
_atom_site_fract_x
_atom_site_fract_y
_atom_site_fract_z
Si Si1 0.133532 0.851554 0.868239
Si Si2 0.614453 0.690203 0.761132
Si Si3 0.000000 0.252118 0.250000
Si Si4 0.062509 0.684841 0.093373
Si Si5 0.500000 0.447960 0.750000
Si Si6 0.757386 0.124900 0.023912
Si Si7 0.156088 0.000000 0.500000
O O1 0.095053 0.789664 0.778766
O O2 0.219099 0.874351 0.736612
O O3 0.049115 0.902482 0.893480
O O4 0.170735 0.840506 0.070280
O O5 0.500000 0.669334 0.750000
O O6 0.616957 0.761486 0.797225
O O7 0.673189 0.672025 0.582354
O O8 0.008915 0.291815 0.432182
O O9 0.000000 0.650767 0.250000
O O10 0.142783 0.641216 0.001945
O O11 0.584741 0.489221 0.668277
O O12 0.775971 0.057331 0.953316
#
# Coordination Sequence:
#
# PCOD8158602 Si02
#       7
#     8   8   4   8   4   8   4
#     4   9  18  34  54  84 118 144 182 224 282 350
#     4  10  20  34  57  86 116 149 183 231 293 343
#     4   9  18  36  58  82 116 146 187 228 294 348
#     4  10  22  37  58  82 114 151 190 243 291 333
#     4   9  18  32  54  78 114 160 169 224 280 346
#     4  11  23  36  57  86 115 150 193 233 280 346
#     4  10  22  36  56  82 118 148 192 224 280 346
#
# _framework density 19.578471
#
# number of rings (size 3 to 8) (size 9 to 14) (size 15 to 20)
#    0.000    2.182    0.000    5.455    8.909    1.455 
#    0.000    0.000    2.000    0.000    0.000    0.000 
#    0.000    0.000    0.000    0.000    0.000    0.000 
#
# Total GULP energy -272611.537938 kJ/mol
# GULP energy per Si atom -12391.433543 kJ/mol
# Density = 1.953391 g / cm^3
# Si number density = 19.578471 Si / 1000 Ang^3
#
#
#
# Elastic Constant Matrix: (Units=GPa)
#
#
# Indices 1 2 3 4 5 6 
#
# 1 74.3717 37.5618 31.5401 0.0000 0.0000 0.0000
# 2 37.5618 76.5774 31.0175 0.0000 0.0000 0.0000
# 3 31.5401 31.0175 97.7352 0.0000 0.0000 0.0000
# 4 0.0000 0.0000 0.0000 20.0068 0.0000 0.0000
# 5 0.0000 0.0000 0.0000 0.0000 25.0502 0.0000
# 6 0.0000 0.0000 0.0000 0.0000 0.0000 22.2236
#
#
#
# Elastic Compliance Matrix: (Units=1/GPa)
#
#
# Indices 1 2 3 4 5 6 
#
# 1 0.018933 -0.007817 -0.003629 0.000000 0.000000 0.000000
# 2 -0.007817 0.018212 -0.003257 0.000000 0.000000 0.000000
# 3 -0.003629 -0.003257 0.012437 0.000000 0.000000 0.000000
# 4 0.000000 0.000000 0.000000 0.049983 0.000000 0.000000
# 5 0.000000 0.000000 0.000000 0.000000 0.039920 0.000000
# 6 0.000000 0.000000 0.000000 0.000000 0.000000 0.044997
#
#
# Mechanical properties :
#
#
# Convention : Reuss Voigt Hill
#
# Bulk Modulus (GPa) = 49.56534 49.88034 49.72284
# Shear Modulus (GPa) = 22.66410 23.36047 23.01229
#
# Velocity S-wave (km/s) = 3.40605 3.45798 3.43211
# Velocity P-wave (km/s) = 6.39057 6.44018 6.41543
#
# Compressibility (1/GPa) = 0.02017539
#
# Stress axis : x y z
#
# Youngs Moduli (GPa) = 52.81805 54.90810 80.40774
#
# Poissons Ratio (x) = 0.42921 0.29181
# Poissons Ratio (y) = 0.41287 0.26191
# Poissons Ratio (z) = 0.19168 0.17885
#
# Static dielectric constant tensor:
#      x y z
#    x 3.222710 0.000000 0.000000 
#    y 0.000000 3.495280 0.000000 
#    z 0.000000 0.000000 3.747130 
# 
# 
# High freq. dielectric constant tensor:
#      x y z
#    x 1.721500 0.000000 0.000000 
#    y 0.000000 1.733290 0.000000 
#    z 0.000000 0.000000 1.771960 
# 
# From -- ./inp_files/7351.got.cif
#   From: 2010.03.12/outbox.cif.g09.slc.cpg/sg20_4_cif.got.tgz:7351.got - 2010.04.14 01:38:04.
