data_PCOD8158846
_publ_section_title
;
Structure prediction by ZEFSAII (Michael W. Deem and Ramdas Pophale) SiO2 
 PCOD8158846
Probable space group: C 2 2 21
;
_chemical_formula_sum "Si O2"
_cell_formula_units_Z 40
_cell_length_a 9.101821
_cell_length_b 10.223002
_cell_length_c 22.352376
_cell_angle_alpha 90.000000
_cell_angle_beta 90.000000
_cell_angle_gamma 90.000000
_cell_volume 2079.842413
_symmetry_space_group_name_H-M "C 2 2 21"
_symmetry_group_IT_number 20
_symmetry_cell_setting 'orthorhombic'
loop_
_space_group_symop_operation_xyz
x,y,z
-x,-y,1/2+z
x,-y,-z
-x,y,1/2-z
1/2+x,1/2+y,z
1/2-x,1/2-y,1/2+z
1/2+x,1/2-y,-z
1/2-x,1/2+y,1/2-z
loop_
_atom_site_type_symbol
_atom_site_label
_atom_site_fract_x
_atom_site_fract_y
_atom_site_fract_z
Si Si1 0.163444 0.226907 0.130763
Si Si2 0.336495 0.988502 0.133161
Si Si3 0.819309 0.195811 0.139290
Si Si4 0.855581 0.509928 0.569724
Si Si5 0.837041 0.662278 0.238397
O O1 0.226828 0.092786 0.101880
O O2 0.199350 0.344362 0.085520
O O3 0.247031 0.258656 0.193646
O O4 0.993736 0.201187 0.143929
O O5 0.349873 0.021172 0.204494
O O6 0.268780 0.844265 0.124607
O O7 0.494840 0.013274 0.104998
O O8 0.751205 0.143251 0.200644
O O9 0.765017 0.099116 0.087171
O O10 0.886135 0.500000 0.500000
O O11 0.000000 0.720124 0.250000
#
# Coordination Sequence:
#
# PCOD8158846 Si02
#       5
#     8   8   8   8   8
#     4   9  23  39  61  95 123 161 206 259 312 368
#     4   9  23  41  61  91 125 166 203 257 314 367
#     4  11  21  39  64  94 126 161 206 258 317 368
#     4  11  24  43  64  88 127 172 215 258 311 374
#     4  10  20  38  65  93 127 160 197 254 320 385
#
# _framework density 19.232227999999999
#
# number of rings (size 3 to 8) (size 9 to 14) (size 15 to 20)
#    1.200    0.800    2.000    0.600    2.800    6.400 
#    0.000    1.000    0.000    0.000    0.000    0.000 
#    0.000    0.000    0.000    0.000    0.000    0.000 
#
# Total GULP energy -247848.106683 kJ/mol
# GULP energy per Si atom -12392.405334 kJ/mol
# Density = 1.918845 g / cm^3
# Si number density = 19.232228 Si / 1000 Ang^3
#
#
#
# Elastic Constant Matrix: (Units=GPa)
#
#
# Indices 1 2 3 4 5 6 
#
# 1 94.5466 65.6254 30.4154 0.0000 0.0000 0.0000
# 2 65.6254 142.3073 39.4341 0.0000 0.0000 0.0000
# 3 30.4154 39.4341 67.9394 0.0000 0.0000 0.0000
# 4 0.0000 0.0000 0.0000 26.9932 0.0000 0.0000
# 5 0.0000 0.0000 0.0000 0.0000 13.3760 0.0000
# 6 0.0000 0.0000 0.0000 0.0000 0.0000 30.2422
#
#
#
# Elastic Compliance Matrix: (Units=1/GPa)
#
#
# Indices 1 2 3 4 5 6 
#
# 1 0.016218 -0.006515 -0.003479 0.000000 0.000000 0.000000
# 2 -0.006515 0.010991 -0.003463 0.000000 0.000000 0.000000
# 3 -0.003479 -0.003463 0.018287 0.000000 0.000000 0.000000
# 4 0.000000 0.000000 0.000000 0.037046 0.000000 0.000000
# 5 0.000000 0.000000 0.000000 0.000000 0.074761 0.000000
# 6 0.000000 0.000000 0.000000 0.000000 0.000000 0.033066
#
#
# Mechanical properties :
#
#
# Convention : Reuss Voigt Hill
#
# Bulk Modulus (GPa) = 53.81632 63.97147 58.89389
# Shear Modulus (GPa) = 22.37371 25.41018 23.89194
#
# Velocity S-wave (km/s) = 3.41448 3.63882 3.52843
# Velocity P-wave (km/s) = 6.60212 7.14069 6.87668
#
# Compressibility (1/GPa) = 0.01858173
#
# Stress axis : x y z
#
# Youngs Moduli (GPa) = 61.65962 90.98347 54.68513
#
# Poissons Ratio (x) = 0.59275 0.19026
# Poissons Ratio (y) = 0.40171 0.18937
# Poissons Ratio (z) = 0.21452 0.31506
#
# Static dielectric constant tensor:
#      x y z
#    x 3.505420 0.000000 0.000000 
#    y 0.000000 3.601120 0.000000 
#    z 0.000000 0.000000 3.504950 
# 
# 
# High freq. dielectric constant tensor:
#      x y z
#    x 1.754440 0.000000 0.000000 
#    y 0.000000 1.746000 0.000000 
#    z 0.000000 0.000000 1.729720 
# 
# From -- ./inp_files/26504.got.cif
#   From: 2010.03.12/outbox.cif.g09.slc.cpg/sg20_14_cif.got.tgz:26504.got - 2010.04.14 01:38:04.
