data_PCOD8158055
_publ_section_title
;
Structure prediction by ZEFSAII (Michael W. Deem and Ramdas Pophale) SiO2 
 PCOD8158055
Probable space group: C 2 2 21
;
_chemical_formula_sum "Si O2"
_cell_formula_units_Z 48
_cell_length_a 8.627299
_cell_length_b 16.712862
_cell_length_c 17.659402
_cell_angle_alpha 90.000000
_cell_angle_beta 90.000000
_cell_angle_gamma 90.000000
_cell_volume 2546.253682
_symmetry_space_group_name_H-M "C 2 2 21"
_symmetry_group_IT_number 20
_symmetry_cell_setting 'orthorhombic'
loop_
_space_group_symop_operation_xyz
x,y,z
-x,-y,1/2+z
x,-y,-z
-x,y,1/2-z
1/2+x,1/2+y,z
1/2-x,1/2-y,1/2+z
1/2+x,1/2-y,-z
1/2-x,1/2+y,1/2-z
loop_
_atom_site_type_symbol
_atom_site_label
_atom_site_fract_x
_atom_site_fract_y
_atom_site_fract_z
Si Si1 0.406899 0.098210 0.426676
Si Si2 0.827597 0.700562 0.090601
Si Si3 0.937850 0.271275 0.331332
Si Si4 0.521266 0.073164 0.593959
Si Si5 0.330076 0.412298 0.486400
Si Si6 0.108171 0.179964 0.465103
O O1 0.495487 0.175404 0.389017
O O2 0.448171 0.096451 0.514539
O O3 0.222813 0.115235 0.425449
O O4 0.460112 0.016152 0.384873
O O5 0.742083 0.742680 0.161719
O O6 0.751916 0.616202 0.064474
O O7 0.801343 0.756887 0.016943
O O8 0.000000 0.244998 0.250000
O O9 0.957931 0.366857 0.341699
O O10 0.028582 0.225977 0.396835
O O11 0.708603 0.083846 0.584497
O O12 0.395009 0.500000 0.500000
O O13 0.484314 0.358861 0.475946
#
# Coordination Sequence:
#
# PCOD8158055 Si02
#       6
#     8   8   8   8   8   8
#     4  10  18  33  59  87 110 142 201 240 272 334
#     4  10  18  35  56  83 112 145 192 237 278 339
#     4  11  23  38  56  83 120 154 185 241 309 344
#     4  10  18  35  54  83 115 145 186 237 285 343
#     4  10  18  30  53  86 110 139 182 243 278 319
#     4  11  20  32  59  88 110 146 196 239 281 342
#
# _framework density 18.851224999999999
#
# number of rings (size 3 to 8) (size 9 to 14) (size 15 to 20)
#    0.000    1.667    8.333    1.000    2.333    0.000 
#    0.000    2.500    0.000    0.000    0.000    0.000 
#    0.000    0.000    0.000    0.000    0.000    0.000 
#
# Total GULP energy -297313.982985 kJ/mol
# GULP energy per Si atom -12388.082624 kJ/mol
# Density = 1.880832 g / cm^3
# Si number density = 18.851225 Si / 1000 Ang^3
#
#
#
# Elastic Constant Matrix: (Units=GPa)
#
#
# Indices 1 2 3 4 5 6 
#
# 1 90.8203 40.1922 -8.5673 0.0000 0.0000 0.0000
# 2 40.1922 107.0583 13.4929 0.0000 0.0000 0.0000
# 3 -8.5673 13.4929 21.6452 0.0000 0.0000 0.0000
# 4 0.0000 0.0000 0.0000 14.2675 0.0000 0.0000
# 5 0.0000 0.0000 0.0000 0.0000 14.8993 0.0000
# 6 0.0000 0.0000 0.0000 0.0000 0.0000 21.4743
#
#
#
# Elastic Compliance Matrix: (Units=1/GPa)
#
#
# Indices 1 2 3 4 5 6 
#
# 1 0.015057 -0.006950 0.010292 0.000000 0.000000 0.000000
# 2 -0.006950 0.013345 -0.011070 0.000000 0.000000 0.000000
# 3 0.010292 -0.011070 0.057174 0.000000 0.000000 0.000000
# 4 0.000000 0.000000 0.000000 0.070089 0.000000 0.000000
# 5 0.000000 0.000000 0.000000 0.000000 0.067117 0.000000
# 6 0.000000 0.000000 0.000000 0.000000 0.000000 0.046567
#
#
# Mechanical properties :
#
#
# Convention : Reuss Voigt Hill
#
# Bulk Modulus (GPa) = 14.26102 34.41773 24.33937
# Shear Modulus (GPa) = 16.22435 21.75531 18.98983
#
# Velocity S-wave (km/s) = 2.93687 3.40082 3.17733
# Velocity P-wave (km/s) = 4.36827 5.80672 5.13808
#
# Compressibility (1/GPa) = 0.07012120
#
# Stress axis : x y z
#
# Youngs Moduli (GPa) = 66.41273 74.93406 17.49048
#
# Poissons Ratio (x) = 0.52080 -0.18002
# Poissons Ratio (y) = 0.46157 0.19362
# Poissons Ratio (z) = -0.68353 0.82950
#
# Static dielectric constant tensor:
#      x y z
#    x 3.810620 0.000000 0.000000 
#    y 0.000000 3.779880 0.000000 
#    z 0.000000 0.000000 2.823670 
# 
# 
# High freq. dielectric constant tensor:
#      x y z
#    x 1.740250 0.000000 0.000000 
#    y 0.000000 1.749600 0.000000 
#    z 0.000000 0.000000 1.652450 
# 
# From -- ./inp_files/23459.got.cif
#   From: 2010.03.12/outbox.cif.g09.slc.cpg/sg20_12_cif.got.tgz:23459.got - 2010.04.14 01:38:04.
