data_PCOD8158286
_publ_section_title
;
Structure prediction by ZEFSAII (Michael W. Deem and Ramdas Pophale) SiO2 
 PCOD8158286
Probable space group: C 2 2 21
;
_chemical_formula_sum "Si O2"
_cell_formula_units_Z 32
_cell_length_a 13.882255
_cell_length_b 21.882464
_cell_length_c 4.860878
_cell_angle_alpha 90.000000
_cell_angle_beta 90.000000
_cell_angle_gamma 90.000000
_cell_volume 1476.627531
_symmetry_space_group_name_H-M "C 2 2 21"
_symmetry_group_IT_number 20
_symmetry_cell_setting 'orthorhombic'
loop_
_space_group_symop_operation_xyz
x,y,z
-x,-y,1/2+z
x,-y,-z
-x,y,1/2-z
1/2+x,1/2+y,z
1/2-x,1/2-y,1/2+z
1/2+x,1/2-y,-z
1/2-x,1/2+y,1/2-z
loop_
_atom_site_type_symbol
_atom_site_label
_atom_site_fract_x
_atom_site_fract_y
_atom_site_fract_z
Si Si1 0.198523 0.122630 0.818902
Si Si2 0.891429 0.672505 0.728316
Si Si3 0.391872 0.254385 0.234549
Si Si4 0.888931 0.939906 0.832198
O O1 0.314314 0.117942 0.782583
O O2 0.177065 0.194127 0.867870
O O3 0.135646 0.113876 0.541661
O O4 0.168540 0.073445 0.050677
O O5 0.876086 0.694089 0.417109
O O6 0.000000 0.645977 0.750000
O O7 0.873004 0.731515 0.924215
O O8 0.500000 0.280334 0.250000
O O9 0.000000 0.944127 0.750000
O O10 0.854678 0.000000 0.000000
#
# Coordination Sequence:
#
# PCOD8158286 Si02
#       4
#     8   8   8   8
#     4  12  22  37  62  87 117 160 199 234 292 354
#     4  10  21  36  56  87 126 160 194 236 279 339
#     4  10  19  33  54  86 125 160 194 233 283 346
#     4  12  25  42  61  86 115 146 192 251 306 353
#
# _framework density 21.671005000000001
#
# number of rings (size 3 to 8) (size 9 to 14) (size 15 to 20)
#    0.000    1.000    0.000    9.000    0.000    2.000 
#    0.000    0.000    0.000    3.000    0.000    1.750 
#    0.000    0.000    0.000    0.000    0.000    0.000 
#
# Total GULP energy -198298.479370 kJ/mol
# GULP energy per Si atom -12393.654961 kJ/mol
# Density = 2.162168 g / cm^3
# Si number density = 21.671005 Si / 1000 Ang^3
#
#
#
# Elastic Constant Matrix: (Units=GPa)
#
#
# Indices 1 2 3 4 5 6 
#
# 1 139.2777 49.4320 44.8885 0.0000 0.0000 0.0000
# 2 49.4320 44.8471 14.8921 0.0000 0.0000 0.0000
# 3 44.8885 14.8921 110.6518 0.0000 0.0000 0.0000
# 4 0.0000 0.0000 0.0000 24.4607 0.0000 0.0000
# 5 0.0000 0.0000 0.0000 0.0000 28.3535 0.0000
# 6 0.0000 0.0000 0.0000 0.0000 0.0000 22.7046
#
#
#
# Elastic Compliance Matrix: (Units=1/GPa)
#
#
# Indices 1 2 3 4 5 6 
#
# 1 0.012966 -0.013132 -0.003493 0.000000 0.000000 0.000000
# 2 -0.013132 0.036641 0.000396 0.000000 0.000000 0.000000
# 3 -0.003493 0.000396 0.010401 0.000000 0.000000 0.000000
# 4 0.000000 0.000000 0.000000 0.040882 0.000000 0.000000
# 5 0.000000 0.000000 0.000000 0.000000 0.035269 0.000000
# 6 0.000000 0.000000 0.000000 0.000000 0.000000 0.044044
#
#
# Mechanical properties :
#
#
# Convention : Reuss Voigt Hill
#
# Bulk Modulus (GPa) = 36.29657 57.02243 46.65950
# Shear Modulus (GPa) = 22.53825 27.47470 25.00647
#
# Velocity S-wave (km/s) = 3.22843 3.56449 3.40062
# Velocity P-wave (km/s) = 5.53916 6.58109 6.08248
#
# Compressibility (1/GPa) = 0.02755081
#
# Stress axis : x y z
#
# Youngs Moduli (GPa) = 77.12198 27.29158 96.14482
#
# Poissons Ratio (x) = 0.35840 0.33581
# Poissons Ratio (y) = 1.01279 -0.03808
# Poissons Ratio (z) = 0.26937 -0.01081
#
# Static dielectric constant tensor:
#      x y z
#    x 4.177430 0.000000 0.000000 
#    y 0.000000 3.492660 0.000000 
#    z 0.000000 0.000000 4.125600 
# 
# 
# High freq. dielectric constant tensor:
#      x y z
#    x 1.856490 0.000000 0.000000 
#    y 0.000000 1.804820 0.000000 
#    z 0.000000 0.000000 1.873670 
# 
# From -- ./inp_files/1721.got.cif
#   From: 2010.03.12/outbox.cif.g09.slc.cpg/sg20_1_cif.got.tgz:1721.got - 2010.04.14 01:38:04.
