data_PCOD8158037
_publ_section_title
;
Structure prediction by ZEFSAII (Michael W. Deem and Ramdas Pophale) SiO2 
 PCOD8158037
Probable space group: C 2 2 21
;
_chemical_formula_sum "Si O2"
_cell_formula_units_Z 64
_cell_length_a 35.825862
_cell_length_b 28.142300
_cell_length_c 5.242262
_cell_angle_alpha 90.000000
_cell_angle_beta 90.000000
_cell_angle_gamma 90.000000
_cell_volume 5285.364697
_symmetry_space_group_name_H-M "C 2 2 21"
_symmetry_group_IT_number 20
_symmetry_cell_setting 'orthorhombic'
loop_
_space_group_symop_operation_xyz
x,y,z
-x,-y,1/2+z
x,-y,-z
-x,y,1/2-z
1/2+x,1/2+y,z
1/2-x,1/2-y,1/2+z
1/2+x,1/2-y,-z
1/2-x,1/2+y,1/2-z
loop_
_atom_site_type_symbol
_atom_site_label
_atom_site_fract_x
_atom_site_fract_y
_atom_site_fract_z
Si Si1 0.043616 0.550155 0.239818
Si Si2 0.717488 0.297135 0.583417
Si Si3 0.650869 0.900883 0.403309
Si Si4 0.332322 0.850484 0.589854
Si Si5 0.700752 0.752241 0.912552
Si Si6 0.767942 0.445441 0.074535
Si Si7 0.248990 0.604884 0.079524
Si Si8 0.424564 0.054645 0.768300
O O1 0.066524 0.501075 0.251265
O O2 0.053610 0.579381 0.495055
O O3 0.000000 0.538943 0.250000
O O4 0.058883 0.578397 0.991108
O O5 0.694999 0.280180 0.335499
O O6 0.758500 0.275078 0.585708
O O7 0.719689 0.354234 0.562678
O O8 0.695303 0.280047 0.835472
O O9 0.644917 0.873574 0.672690
O O10 0.689148 0.929812 0.411170
O O11 0.619066 0.938637 0.327113
O O12 0.648663 0.861925 0.179638
O O13 0.330372 0.793456 0.607999
O O14 0.291215 0.871465 0.581164
O O15 0.748049 0.432405 0.343676
O O16 0.766440 0.500000 0.000000
O O17 0.744962 0.419945 0.850839
#
# Coordination Sequence:
#
# PCOD8158037 Si02
#       8
#     8   8   8   8   8   8   8   8
#     4  10  19  31  43  55  67  79 100 141 173 191
#     4   9  15  23  37  52  62  74 102 126 154 178
#     4  10  19  28  37  51  67  88 104 128 144 183
#     4   9  17  28  36  48  71  84  99 119 154 179
#     4   9  15  23  37  52  62  81  96 120 150 191
#     4  10  19  28  37  46  64  90 110 126 154 187
#     4   9  17  28  36  48  64  81 102 136 154 174
#     4  10  18  28  41  54  65  82 102 124 157 196
#
# _framework density 12.108908
#
# number of rings (size 3 to 8) (size 9 to 14) (size 15 to 20)
#    0.000    2.500    0.000    4.500    1.750    6.000 
#    4.500    0.000    0.000    0.000    0.000    0.000 
#    0.000    0.000    0.000    0.000    0.000    0.000 
#
# Total GULP energy -396466.270019 kJ/mol
# GULP energy per Si atom -12389.570938 kJ/mol
# Density = 1.208135 g / cm^3
# Si number density = 12.108908 Si / 1000 Ang^3
#
#
#
# Elastic Constant Matrix: (Units=GPa)
#
#
# Indices 1 2 3 4 5 6 
#
# 1 16.9295 23.7147 13.5599 0.0000 0.0000 0.0000
# 2 23.7147 62.2744 34.3125 0.0000 0.0000 0.0000
# 3 13.5599 34.3125 119.9573 0.0000 0.0000 0.0000
# 4 0.0000 0.0000 0.0000 18.4406 0.0000 0.0000
# 5 0.0000 0.0000 0.0000 0.0000 12.8474 0.0000
# 6 0.0000 0.0000 0.0000 0.0000 0.0000 14.4804
#
#
#
# Elastic Compliance Matrix: (Units=1/GPa)
#
#
# Indices 1 2 3 4 5 6 
#
# 1 0.126641 -0.047886 -0.000618 0.000000 0.000000 0.000000
# 2 -0.047886 0.037169 -0.005219 0.000000 0.000000 0.000000
# 3 -0.000618 -0.005219 0.009899 0.000000 0.000000 0.000000
# 4 0.000000 0.000000 0.000000 0.054228 0.000000 0.000000
# 5 0.000000 0.000000 0.000000 0.000000 0.077837 0.000000
# 6 0.000000 0.000000 0.000000 0.000000 0.000000 0.069059
#
#
# Mechanical properties :
#
#
# Convention : Reuss Voigt Hill
#
# Bulk Modulus (GPa) = 15.09121 38.03729 26.56425
# Shear Modulus (GPa) = 9.91343 17.65861 13.78602
#
# Velocity S-wave (km/s) = 2.86438 3.82293 3.37783
# Velocity P-wave (km/s) = 4.84040 7.13914 6.09905
#
# Compressibility (1/GPa) = 0.06626374
#
# Stress axis : x y z
#
# Youngs Moduli (GPa) = 7.89631 26.90430 101.02065
#
# Poissons Ratio (x) = 1.28833 0.06246
# Poissons Ratio (y) = 0.37812 0.52720
# Poissons Ratio (z) = 0.00488 0.14041
#
# Static dielectric constant tensor:
#      x y z
#    x 2.135510 0.000000 0.000000 
#    y 0.000000 2.391980 0.000000 
#    z 0.000000 0.000000 -7.289800 
# 
# 
# High freq. dielectric constant tensor:
#      x y z
#    x 1.396180 0.000000 0.000000 
#    y 0.000000 1.429800 0.000000 
#    z 0.000000 0.000000 1.493400 
# 
# From -- ./inp_files/4423.got.cif
#   From: 2010.03.12/outbox.cif.g09.slc.cpg/sg20_3_cif.got.tgz:4423.got - 2010.04.14 01:38:04.
