data_PCOD8158292
_publ_section_title
;
Structure prediction by ZEFSAII (Michael W. Deem and Ramdas Pophale) SiO2 
 PCOD8158292
Probable space group: C 2 2 21
;
_chemical_formula_sum "Si O2"
_cell_formula_units_Z 64
_cell_length_a 21.378014
_cell_length_b 9.269229
_cell_length_c 16.823942
_cell_angle_alpha 90.000000
_cell_angle_beta 90.000000
_cell_angle_gamma 90.000000
_cell_volume 3333.793775
_symmetry_space_group_name_H-M "C 2 2 21"
_symmetry_group_IT_number 20
_symmetry_cell_setting 'orthorhombic'
loop_
_space_group_symop_operation_xyz
x,y,z
-x,-y,1/2+z
x,-y,-z
-x,y,1/2-z
1/2+x,1/2+y,z
1/2-x,1/2-y,1/2+z
1/2+x,1/2-y,-z
1/2-x,1/2+y,1/2-z
loop_
_atom_site_type_symbol
_atom_site_label
_atom_site_fract_x
_atom_site_fract_y
_atom_site_fract_z
Si Si1 0.849570 0.871265 0.942302
Si Si2 0.421514 0.908866 0.707533
Si Si3 0.008967 0.060212 0.415067
Si Si4 0.811294 0.209854 0.224994
Si Si5 0.980905 0.754639 0.141484
Si Si6 0.127027 0.632640 0.449637
Si Si7 0.698552 0.044225 0.290768
Si Si8 0.443046 0.244350 0.696963
O O1 0.811830 0.873045 0.859592
O O2 0.922819 0.868970 0.921015
O O3 0.830618 0.729028 0.991889
O O4 0.829174 0.000000 0.000000
O O5 0.449101 0.816744 0.633018
O O6 0.448867 0.827053 0.784693
O O7 0.346578 0.909386 0.717014
O O8 0.445328 0.071666 0.695224
O O9 0.957740 0.180167 0.387992
O O10 0.985928 0.000000 0.500000
O O11 0.012015 0.927025 0.351813
O O12 0.763071 0.128785 0.282370
O O13 0.789612 0.373775 0.211838
O O14 0.878116 0.199662 0.267444
O O15 0.935566 0.724500 0.067651
O O16 0.102225 0.500000 0.500000
O O17 0.166782 0.585158 0.373799
O O18 0.500000 0.302016 0.750000
#
# Coordination Sequence:
#
# PCOD8158292 Si02
#       8
#     8   8   8   8   8   8   8   8
#     4  11  22  38  60  94 127 156 207 267 315 366
#     4   9  21  36  58  89 120 159 203 254 300 368
#     4  11  23  36  55  94 129 161 198 252 329 375
#     4  11  24  41  65  91 121 170 210 261 309 371
#     4  10  19  33  56  89 123 154 195 254 309 361
#     4  11  21  37  63  92 125 162 211 260 309 376
#     4  10  24  41  61  91 123 164 219 247 309 378
#     4  11  21  38  63  90 124 156 208 259 317 368
#
# _framework density 19.197347000000001
#
# number of rings (size 3 to 8) (size 9 to 14) (size 15 to 20)
#    0.000    1.500    6.250    0.000    5.250    1.000 
#    0.000    0.625    2.750    0.750    0.000    0.000 
#    0.000    0.000    0.000    0.000    0.000    0.000 
#
# Total GULP energy -396507.930216 kJ/mol
# GULP energy per Si atom -12390.872819 kJ/mol
# Density = 1.915365 g / cm^3
# Si number density = 19.197347 Si / 1000 Ang^3
#
#
#
# Elastic Constant Matrix: (Units=GPa)
#
#
# Indices 1 2 3 4 5 6 
#
# 1 90.4563 36.6945 26.9375 0.0000 0.0000 0.0000
# 2 36.6945 112.5806 34.0626 0.0000 0.0000 0.0000
# 3 26.9375 34.0626 69.3164 0.0000 0.0000 0.0000
# 4 0.0000 0.0000 0.0000 36.5705 0.0000 0.0000
# 5 0.0000 0.0000 0.0000 0.0000 -107.9020 0.0000
# 6 0.0000 0.0000 0.0000 0.0000 0.0000 122.6688
#
#
#
# Elastic Compliance Matrix: (Units=1/GPa)
#
#
# Indices 1 2 3 4 5 6 
#
# 1 0.013469 -0.003296 -0.003614 0.000000 0.000000 0.000000
# 2 -0.003296 0.011241 -0.004243 0.000000 0.000000 0.000000
# 3 -0.003614 -0.004243 0.017916 0.000000 0.000000 0.000000
# 4 0.000000 0.000000 0.000000 0.027344 0.000000 0.000000
# 5 0.000000 0.000000 0.000000 0.000000 -0.009268 0.000000
# 6 0.000000 0.000000 0.000000 0.000000 0.000000 0.008152
#
#
# Mechanical properties :
#
#
# Convention : Reuss Voigt Hill
#
# Bulk Modulus (GPa) = 49.21606 51.97142 50.59374
# Shear Modulus (GPa) = 51.05497 21.91137 36.48317
#
# Velocity S-wave (km/s) = 5.16261 3.38209 4.36412
# Velocity P-wave (km/s) = 7.82491 6.51017 7.19763
#
# Compressibility (1/GPa) = 0.02031857
#
# Stress axis : x y z
#
# Youngs Moduli (GPa) = 74.24678 88.96293 55.81593
#
# Poissons Ratio (x) = 0.29326 0.20173
# Poissons Ratio (y) = 0.24475 0.23681
# Poissons Ratio (z) = 0.26835 0.37744
#
# Static dielectric constant tensor:
#      x y z
#    x 3.608650 0.000000 0.000000 
#    y 0.000000 4.206600 0.000000 
#    z 0.000000 0.000000 3.613160 
# 
# 
# High freq. dielectric constant tensor:
#      x y z
#    x 1.719550 0.000000 0.000000 
#    y 0.000000 1.765520 0.000000 
#    z 0.000000 0.000000 1.736160 
# 
# From -- ./inp_files/25531.got.cif
#   From: 2010.03.12/outbox.cif.g09.slc.cpg/sg20_13_cif.got.tgz:25531.got - 2010.04.14 01:38:04.
