data_PCOD8158554
_publ_section_title
;
Structure prediction by ZEFSAII (Michael W. Deem and Ramdas Pophale) SiO2 
 PCOD8158554
Probable space group: C 2 2 21
;
_chemical_formula_sum "Si O2"
_cell_formula_units_Z 44
_cell_length_a 19.324317
_cell_length_b 30.432810
_cell_length_c 5.050919
_cell_angle_alpha 90.000000
_cell_angle_beta 90.000000
_cell_angle_gamma 90.000000
_cell_volume 2970.411459
_symmetry_space_group_name_H-M "C 2 2 21"
_symmetry_group_IT_number 20
_symmetry_cell_setting 'orthorhombic'
loop_
_space_group_symop_operation_xyz
x,y,z
-x,-y,1/2+z
x,-y,-z
-x,y,1/2-z
1/2+x,1/2+y,z
1/2-x,1/2-y,1/2+z
1/2+x,1/2-y,-z
1/2-x,1/2+y,1/2-z
loop_
_atom_site_type_symbol
_atom_site_label
_atom_site_fract_x
_atom_site_fract_y
_atom_site_fract_z
Si Si1 0.077655 0.906377 0.362546
Si Si2 0.329897 0.778843 0.357727
Si Si3 0.131274 0.138755 0.109485
Si Si4 0.046145 0.000000 0.500000
Si Si5 0.261820 0.808152 0.852300
Si Si6 0.953498 0.222451 0.493386
O O1 0.094805 0.874977 0.613419
O O2 0.091646 0.956837 0.443646
O O3 0.000000 0.898254 0.250000
O O4 0.127981 0.898905 0.113063
O O5 0.305938 0.811513 0.586921
O O6 0.285118 0.734892 0.352758
O O7 0.409397 0.765626 0.412586
O O8 0.317966 0.805952 0.088371
O O9 0.212289 0.149324 0.147291
O O10 0.095374 0.180411 0.964094
O O11 0.000000 0.012738 0.250000
O O12 0.000000 0.209221 0.250000
O O13 0.000000 0.232310 0.750000
#
# Coordination Sequence:
#
# PCOD8158554 Si02
#       6
#     8   8   8   4   8   8
#     4  11  20  31  43  59  80 104 132 169 211 247
#     4   9  17  29  41  53  76 102 128 161 197 242
#     4  11  20  29  44  61  79 100 133 178 211 237
#     4  10  20  32  44  56  76 108 136 158 198 254
#     4   9  17  29  42  56  72 100 132 162 202 235
#     4  11  20  28  40  60  81 103 131 168 211 243
#
# _framework density 14.812763
#
# number of rings (size 3 to 8) (size 9 to 14) (size 15 to 20)
#    0.000    1.818    0.000    7.636    0.000    5.818 
#    0.000    0.000    0.000    0.000    0.000    0.000 
#    0.000    0.000    0.000    0.000    0.000    0.000 
#
# Total GULP energy -272677.746692 kJ/mol
# GULP energy per Si atom -12394.443031 kJ/mol
# Density = 1.477905 g / cm^3
# Si number density = 14.812763 Si / 1000 Ang^3
#
#
#
# Elastic Constant Matrix: (Units=GPa)
#
#
# Indices 1 2 3 4 5 6 
#
# 1 31.2618 22.6991 4.9896 0.0000 0.0000 0.0000
# 2 22.6991 54.4728 18.4992 0.0000 0.0000 0.0000
# 3 4.9896 18.4992 86.2645 0.0000 0.0000 0.0000
# 4 0.0000 0.0000 0.0000 24.4071 0.0000 0.0000
# 5 0.0000 0.0000 0.0000 0.0000 22.2749 0.0000
# 6 0.0000 0.0000 0.0000 0.0000 0.0000 19.7629
#
#
#
# Elastic Compliance Matrix: (Units=1/GPa)
#
#
# Indices 1 2 3 4 5 6 
#
# 1 0.046061 -0.019726 0.001566 0.000000 0.000000 0.000000
# 2 -0.019726 0.028247 -0.004917 0.000000 0.000000 0.000000
# 3 0.001566 -0.004917 0.012556 0.000000 0.000000 0.000000
# 4 0.000000 0.000000 0.000000 0.040972 0.000000 0.000000
# 5 0.000000 0.000000 0.000000 0.000000 0.044894 0.000000
# 6 0.000000 0.000000 0.000000 0.000000 0.000000 0.050600
#
#
# Mechanical properties :
#
#
# Convention : Reuss Voigt Hill
#
# Bulk Modulus (GPa) = 24.56311 29.37502 26.96907
# Shear Modulus (GPa) = 17.66461 21.67640 19.67050
#
# Velocity S-wave (km/s) = 3.45704 3.82954 3.64805
# Velocity P-wave (km/s) = 5.70555 6.27915 5.99921
#
# Compressibility (1/GPa) = 0.04071145
#
# Stress axis : x y z
#
# Youngs Moduli (GPa) = 21.71050 35.40173 79.64300
#
# Poissons Ratio (x) = 0.69832 -0.12471
# Poissons Ratio (y) = 0.42825 0.39157
# Poissons Ratio (z) = -0.03400 0.17406
#
# Static dielectric constant tensor:
#      x y z
#    x 2.782000 0.000000 0.000000 
#    y 0.000000 2.685930 0.000000 
#    z 0.000000 0.000000 3.061600 
# 
# 
# High freq. dielectric constant tensor:
#      x y z
#    x 1.532960 0.000000 0.000000 
#    y 0.000000 1.523100 0.000000 
#    z 0.000000 0.000000 1.595990 
# 
# From -- ./inp_files/2151.got.cif
#   From: 2010.03.12/outbox.cif.g09.slc.cpg/sg20_2_cif.got.tgz:2151.got - 2010.04.14 01:38:04.
