data_PCOD8158334
_publ_section_title
;
Structure prediction by ZEFSAII (Michael W. Deem and Ramdas Pophale) SiO2 
 PCOD8158334
Probable space group: C 2 2 21
;
_chemical_formula_sum "Si O2"
_cell_formula_units_Z 64
_cell_length_a 11.762087
_cell_length_b 21.817931
_cell_length_c 13.208822
_cell_angle_alpha 90.000000
_cell_angle_beta 90.000000
_cell_angle_gamma 90.000000
_cell_volume 3389.706055
_symmetry_space_group_name_H-M "C 2 2 21"
_symmetry_group_IT_number 20
_symmetry_cell_setting 'orthorhombic'
loop_
_space_group_symop_operation_xyz
x,y,z
-x,-y,1/2+z
x,-y,-z
-x,y,1/2-z
1/2+x,1/2+y,z
1/2-x,1/2-y,1/2+z
1/2+x,1/2-y,-z
1/2-x,1/2+y,1/2-z
loop_
_atom_site_type_symbol
_atom_site_label
_atom_site_fract_x
_atom_site_fract_y
_atom_site_fract_z
Si Si1 0.573821 0.126459 0.661633
Si Si2 0.563891 0.380776 0.147012
Si Si3 0.377089 0.918912 0.788118
Si Si4 0.132004 0.190134 0.546909
Si Si5 0.033255 0.676394 0.452225
Si Si6 0.248611 0.025686 0.890674
Si Si7 0.257844 0.704546 0.741618
Si Si8 0.294034 0.174574 0.362300
O O1 0.500000 0.094258 0.750000
O O2 0.506158 0.146036 0.561079
O O3 0.669974 0.081911 0.625037
O O4 0.629601 0.184957 0.717047
O O5 0.500000 0.394415 0.250000
O O6 0.477051 0.354767 0.061540
O O7 0.620914 0.446629 0.118869
O O8 0.656532 0.327692 0.162778
O O9 0.500000 0.944430 0.750000
O O10 0.398144 0.870406 0.879187
O O11 0.311707 0.889578 0.693299
O O12 0.287616 0.972114 0.815056
O O13 0.103743 0.261541 0.532187
O O14 0.212699 0.185281 0.644461
O O15 0.198620 0.166853 0.448172
O O16 0.913708 0.696552 0.407015
O O17 0.267714 0.000000 0.000000
O O18 0.261418 0.777037 0.724526
#
# Coordination Sequence:
#
# PCOD8158334 Si02
#       8
#     8   8   8   8   8   8   8   8
#     4  11  22  37  57  88 123 158 197 255 308 352
#     4   9  21  39  63  84 116 167 207 247 297 365
#     4  10  22  39  62  90 118 159 204 261 314 354
#     4  11  20  36  59  90 127 158 206 246 309 377
#     4  11  20  34  61  91 124 157 198 248 311 379
#     4  11  22  42  64  84 115 161 219 245 298 373
#     4  10  19  34  59  87 120 165 198 241 303 380
#     4  11  21  34  58  93 126 158 197 257 311 364
#
# _framework density 18.880693000000001
#
# number of rings (size 3 to 8) (size 9 to 14) (size 15 to 20)
#    0.000    1.500    5.000    1.125    0.000    0.000 
#    2.250    0.000    0.000    0.000    0.000    0.000 
#    0.000    0.000    0.000    0.000    0.000    0.000 
#
# Total GULP energy -396619.869667 kJ/mol
# GULP energy per Si atom -12394.370927 kJ/mol
# Density = 1.883772 g / cm^3
# Si number density = 18.880693 Si / 1000 Ang^3
#
#
#
# Elastic Constant Matrix: (Units=GPa)
#
#
# Indices 1 2 3 4 5 6 
#
# 1 53.2653 30.7276 24.0459 0.0000 0.0000 0.0000
# 2 30.7276 81.0971 28.6197 0.0000 0.0000 0.0000
# 3 24.0459 28.6197 98.1139 0.0000 0.0000 0.0000
# 4 0.0000 0.0000 0.0000 39.3533 0.0000 0.0000
# 5 0.0000 0.0000 0.0000 0.0000 32.7820 0.0000
# 6 0.0000 0.0000 0.0000 0.0000 0.0000 35.0926
#
#
#
# Elastic Compliance Matrix: (Units=1/GPa)
#
#
# Indices 1 2 3 4 5 6 
#
# 1 0.025225 -0.008223 -0.003784 0.000000 0.000000 0.000000
# 2 -0.008223 0.016426 -0.002776 0.000000 0.000000 0.000000
# 3 -0.003784 -0.002776 0.011929 0.000000 0.000000 0.000000
# 4 0.000000 0.000000 0.000000 0.025411 0.000000 0.000000
# 5 0.000000 0.000000 0.000000 0.000000 0.030505 0.000000
# 6 0.000000 0.000000 0.000000 0.000000 0.000000 0.028496
#
#
# Mechanical properties :
#
#
# Convention : Reuss Voigt Hill
#
# Bulk Modulus (GPa) = 41.63929 44.36251 43.00090
# Shear Modulus (GPa) = 28.47980 31.38447 29.93213
#
# Velocity S-wave (km/s) = 3.88804 4.08150 3.98594
# Velocity P-wave (km/s) = 6.50058 6.76452 6.63386
#
# Compressibility (1/GPa) = 0.02401578
#
# Stress axis : x y z
#
# Youngs Moduli (GPa) = 39.64246 60.87844 83.82646
#
# Poissons Ratio (x) = 0.50058 0.31718
# Poissons Ratio (y) = 0.32596 0.23273
# Poissons Ratio (z) = 0.15000 0.16902
#
# Static dielectric constant tensor:
#      x y z
#    x 3.536140 0.000000 0.000000 
#    y 0.000000 4.208630 0.000000 
#    z 0.000000 0.000000 3.517640 
# 
# 
# High freq. dielectric constant tensor:
#      x y z
#    x 1.727810 0.000000 0.000000 
#    y 0.000000 1.724040 0.000000 
#    z 0.000000 0.000000 1.737780 
# 
# From -- ./inp_files/14496.got.cif
#   From: 2010.03.12/outbox.cif.g09.slc.cpg/sg20_8_cif.got.tgz:14496.got - 2010.04.14 01:38:04.
