data_PCOD8158545
_publ_section_title
;
Structure prediction by ZEFSAII (Michael W. Deem and Ramdas Pophale) SiO2 
 PCOD8158545
Probable space group: C 2 2 21
;
_chemical_formula_sum "Si O2"
_cell_formula_units_Z 40
_cell_length_a 12.601269
_cell_length_b 8.504599
_cell_length_c 17.257236
_cell_angle_alpha 90.000000
_cell_angle_beta 90.000000
_cell_angle_gamma 90.000000
_cell_volume 1849.436233
_symmetry_space_group_name_H-M "C 2 2 21"
_symmetry_group_IT_number 20
_symmetry_cell_setting 'orthorhombic'
loop_
_space_group_symop_operation_xyz
x,y,z
-x,-y,1/2+z
x,-y,-z
-x,y,1/2-z
1/2+x,1/2+y,z
1/2-x,1/2-y,1/2+z
1/2+x,1/2-y,-z
1/2-x,1/2+y,1/2-z
loop_
_atom_site_type_symbol
_atom_site_label
_atom_site_fract_x
_atom_site_fract_y
_atom_site_fract_z
Si Si1 0.563903 0.553029 0.418395
Si Si2 0.112670 0.552048 0.786199
Si Si3 0.222874 0.806099 0.687378
Si Si4 0.547667 0.860631 0.048297
Si Si5 0.151597 0.874226 0.060567
O O1 0.615238 0.500000 0.500000
O O2 0.651657 0.552692 0.350993
O O3 0.539325 0.738768 0.422345
O O4 0.457893 0.448718 0.402983
O O5 0.155205 0.714483 0.750937
O O6 0.184854 0.399926 0.768165
O O7 0.109661 0.569588 0.878518
O O8 0.000000 0.510619 0.750000
O O9 0.267822 0.674190 0.627995
O O10 0.629747 0.781106 0.989037
O O11 0.490926 0.000000 0.000000
O O12 0.201846 0.000000 0.000000
#
# Coordination Sequence:
#
# PCOD8158545 Si02
#       5
#     8   8   8   8   8
#     4   9  22  42  70  99 128 171 224 285 342 395
#     4  12  28  45  64 102 142 179 226 286 344 405
#     4  12  26  44  70  98 135 186 222 274 355 412
#     4  10  19  44  70  93 141 173 226 296 323 399
#     4   9  22  42  70 100 130 172 227 285 335 401
#
# _framework density 21.628212999999999
#
# number of rings (size 3 to 8) (size 9 to 14) (size 15 to 20)
#    0.000    2.000    4.000    0.000    8.400    2.400 
#    0.000    0.000    0.000    0.000    0.000    0.000 
#    0.000    0.000    0.000    0.000    0.000    0.000 
#
# Total GULP energy -247908.107067 kJ/mol
# GULP energy per Si atom -12395.405353 kJ/mol
# Density = 2.157899 g / cm^3
# Si number density = 21.628213 Si / 1000 Ang^3
#
#
#
# Elastic Constant Matrix: (Units=GPa)
#
#
# Indices 1 2 3 4 5 6 
#
# 1 86.6315 13.3719 42.9151 0.0000 0.0000 0.0000
# 2 13.3719 39.1698 27.9170 0.0000 0.0000 0.0000
# 3 42.9151 27.9170 84.7147 0.0000 0.0000 0.0000
# 4 0.0000 0.0000 0.0000 45.6807 0.0000 0.0000
# 5 0.0000 0.0000 0.0000 0.0000 16.1038 0.0000
# 6 0.0000 0.0000 0.0000 0.0000 0.0000 38.5516
#
#
#
# Elastic Compliance Matrix: (Units=1/GPa)
#
#
# Indices 1 2 3 4 5 6 
#
# 1 0.015415 0.000396 -0.007940 0.000000 0.000000 0.000000
# 2 0.000396 0.033377 -0.011200 0.000000 0.000000 0.000000
# 3 -0.007940 -0.011200 0.019517 0.000000 0.000000 0.000000
# 4 0.000000 0.000000 0.000000 0.021891 0.000000 0.000000
# 5 0.000000 0.000000 0.000000 0.000000 0.062097 0.000000
# 6 0.000000 0.000000 0.000000 0.000000 0.000000 0.025939
#
#
# Mechanical properties :
#
#
# Convention : Reuss Voigt Hill
#
# Bulk Modulus (GPa) = 32.44343 42.10265 37.27304
# Shear Modulus (GPa) = 22.12417 28.48803 25.30610
#
# Velocity S-wave (km/s) = 3.20180 3.63322 3.42431
# Velocity P-wave (km/s) = 5.35740 6.09173 5.73633
#
# Compressibility (1/GPa) = 0.03082288
#
# Stress axis : x y z
#
# Youngs Moduli (GPa) = 64.87168 29.96082 51.23689
#
# Poissons Ratio (x) = -0.01187 0.40680
# Poissons Ratio (y) = -0.02571 0.57384
# Poissons Ratio (z) = 0.51505 0.33556
#
# Static dielectric constant tensor:
#      x y z
#    x 3.695220 0.000000 0.000000 
#    y 0.000000 3.939480 0.000000 
#    z 0.000000 0.000000 3.870160 
# 
# 
# High freq. dielectric constant tensor:
#      x y z
#    x 1.834850 0.000000 0.000000 
#    y 0.000000 1.857640 0.000000 
#    z 0.000000 0.000000 1.845500 
# 
# From -- ./inp_files/24700.got.cif
#   From: 2010.03.12/outbox.cif.g09.slc.cpg/sg20_13_cif.got.tgz:24700.got - 2010.04.14 01:38:04.
