data_PCOD8158557
_publ_section_title
;
Structure prediction by ZEFSAII (Michael W. Deem and Ramdas Pophale) SiO2 
 PCOD8158557
Probable space group: C 2 2 21
;
_chemical_formula_sum "Si O2"
_cell_formula_units_Z 64
_cell_length_a 13.773370
_cell_length_b 18.888659
_cell_length_c 13.400501
_cell_angle_alpha 90.000000
_cell_angle_beta 90.000000
_cell_angle_gamma 90.000000
_cell_volume 3486.280896
_symmetry_space_group_name_H-M "C 2 2 21"
_symmetry_group_IT_number 20
_symmetry_cell_setting 'orthorhombic'
loop_
_space_group_symop_operation_xyz
x,y,z
-x,-y,1/2+z
x,-y,-z
-x,y,1/2-z
1/2+x,1/2+y,z
1/2-x,1/2-y,1/2+z
1/2+x,1/2-y,-z
1/2-x,1/2+y,1/2-z
loop_
_atom_site_type_symbol
_atom_site_label
_atom_site_fract_x
_atom_site_fract_y
_atom_site_fract_z
Si Si1 0.607966 0.458515 0.368470
Si Si2 0.392034 0.541485 0.631530
Si Si3 0.226097 0.178429 0.632307
Si Si4 0.386194 0.249693 0.977999
Si Si5 0.226097 0.821571 0.132307
Si Si6 0.114185 0.112583 0.359465
Si Si7 0.886194 0.250307 0.477999
Si Si8 0.385815 0.387417 0.640535
O O1 0.602079 0.468520 0.250000
O O2 0.500000 0.436001 0.407848
O O3 0.685075 0.398735 0.397101
O O4 0.638978 0.536282 0.411783
O O5 0.314925 0.601265 0.602899
O O6 0.361022 0.463718 0.588217
O O7 0.152949 0.239828 0.590989
O O8 0.235654 0.188415 0.750000
O O9 0.331766 0.186170 0.580078
O O10 0.331766 0.186170 0.919922
O O11 0.350634 0.322579 0.926234
O O12 0.500000 0.233921 0.975524
O O13 0.152949 0.760172 0.090989
O O14 0.163604 0.119142 0.250000
O O15 1.000000 0.117876 0.346081
O O16 0.850634 0.177421 0.426234
#
# Coordination Sequence:
#
# PCOD8158557 Si02
#       8
#     8   8   8   8   8   8   8   8
#     4   8  14  26  45  69  96 123 150 184 229 278
#     4   8  14  26  45  69  96 123 150 184 229 278
#     4  10  20  32  46  68  97 127 158 191 232 280
#     4  10  20  32  48  71  96 124 158 193 233 279
#     4  10  20  32  46  68  97 127 158 191 232 280
#     4   8  14  26  45  69  96 122 148 185 233 279
#     4  10  20  32  48  71  96 124 158 193 233 279
#     4   8  14  26  45  69  96 122 148 185 233 279
#
# _framework density 18.357671
#
# number of rings (size 3 to 8) (size 9 to 14) (size 15 to 20)
#    0.000    3.000    0.000    3.000    0.000    4.000 
#    0.000    3.750    0.000    0.000    0.000   15.750 
#    0.000   26.000    0.000    0.000    0.000    0.000 
#
# Total GULP energy -396544.562775 kJ/mol
# GULP energy per Si atom -12392.017587 kJ/mol
# Density = 1.831589 g / cm^3
# Si number density = 18.357671 Si / 1000 Ang^3
#
#
#
# Elastic Constant Matrix: (Units=GPa)
#
#
# Indices 1 2 3 4 5 6 
#
# 1 108.1197 38.8088 12.8005 0.0000 0.0000 0.0000
# 2 38.8088 69.2410 2.5262 0.0000 0.0000 0.0000
# 3 12.8005 2.5262 22.1377 0.0000 0.0000 0.0000
# 4 0.0000 0.0000 0.0000 20.6721 0.0000 0.0000
# 5 0.0000 0.0000 0.0000 0.0000 17.5503 0.0000
# 6 0.0000 0.0000 0.0000 0.0000 0.0000 27.3399
#
#
#
# Elastic Compliance Matrix: (Units=1/GPa)
#
#
# Indices 1 2 3 4 5 6 
#
# 1 0.012424 -0.006729 -0.006416 0.000000 0.000000 0.000000
# 2 -0.006729 0.018148 0.001820 0.000000 0.000000 0.000000
# 3 -0.006416 0.001820 0.048674 0.000000 0.000000 0.000000
# 4 0.000000 0.000000 0.000000 0.048374 0.000000 0.000000
# 5 0.000000 0.000000 0.000000 0.000000 0.056979 0.000000
# 6 0.000000 0.000000 0.000000 0.000000 0.000000 0.036577
#
#
# Mechanical properties :
#
#
# Convention : Reuss Voigt Hill
#
# Bulk Modulus (GPa) = 17.66933 34.19662 25.93297
# Shear Modulus (GPa) = 19.03375 22.80332 20.91853
#
# Velocity S-wave (km/s) = 3.22348 3.52826 3.37931
# Velocity P-wave (km/s) = 4.84771 5.93857 5.42065
#
# Compressibility (1/GPa) = 0.05659524
#
# Stress axis : x y z
#
# Youngs Moduli (GPa) = 80.48861 55.10336 20.54489
#
# Poissons Ratio (x) = 0.37082 0.13182
# Poissons Ratio (y) = 0.54165 -0.03740
# Poissons Ratio (z) = 0.51641 -0.10030
#
# Static dielectric constant tensor:
#      x y z
#    x 3.063940 0.000000 0.000000 
#    y 0.000000 3.568940 0.000000 
#    z 0.000000 0.000000 3.794190 
# 
# 
# High freq. dielectric constant tensor:
#      x y z
#    x 1.666590 0.000000 0.000000 
#    y 0.000000 1.698630 0.000000 
#    z 0.000000 0.000000 1.736610 
# 
# From -- ./inp_files/20991.got.cif
#   From: 2010.03.12/outbox.cif.g09.slc.cpg/sg20_11_cif.got.tgz:20991.got - 2010.04.14 01:38:04.
