data_PCOD8158013
_publ_section_title
;
Structure prediction by ZEFSAII (Michael W. Deem and Ramdas Pophale) SiO2 
 PCOD8158013
Probable space group: C 2 2 21
;
_chemical_formula_sum "Si O2"
_cell_formula_units_Z 48
_cell_length_a 8.036051
_cell_length_b 14.682265
_cell_length_c 17.989958
_cell_angle_alpha 90.000000
_cell_angle_beta 90.000000
_cell_angle_gamma 90.000000
_cell_volume 2122.588916
_symmetry_space_group_name_H-M "C 2 2 21"
_symmetry_group_IT_number 20
_symmetry_cell_setting 'orthorhombic'
loop_
_space_group_symop_operation_xyz
x,y,z
-x,-y,1/2+z
x,-y,-z
-x,y,1/2-z
1/2+x,1/2+y,z
1/2-x,1/2-y,1/2+z
1/2+x,1/2-y,-z
1/2-x,1/2+y,1/2-z
loop_
_atom_site_type_symbol
_atom_site_label
_atom_site_fract_x
_atom_site_fract_y
_atom_site_fract_z
Si Si1 0.457487 0.092384 0.966801
Si Si2 0.220171 0.863552 0.843976
Si Si3 0.572674 0.399144 0.988600
Si Si4 0.026239 0.268191 0.923484
Si Si5 0.632053 0.945433 0.308016
Si Si6 0.811479 0.764211 0.278832
O O1 0.470970 0.093946 0.877994
O O2 0.265697 0.102497 0.989325
O O3 0.570731 0.171869 0.003493
O O4 0.532387 0.000000 0.000000
O O5 0.064275 0.864485 0.901895
O O6 0.374548 0.814335 0.881986
O O7 0.193990 0.807614 0.766826
O O8 0.251820 0.970393 0.829962
O O9 0.496313 0.500000 0.000000
O O10 0.477417 0.331846 0.045194
O O11 0.182547 0.263405 0.866396
O O12 0.500000 0.984638 0.250000
O O13 0.737440 0.865003 0.270126
O O14 0.000000 0.765781 0.250000
#
# Coordination Sequence:
#
# PCOD8158013 Si02
#       6
#     8   8   8   8   8   8
#     4  10  19  35  57  89 110 154 204 249 304 361
#     4  10  21  37  58  88 118 161 201 248 306 362
#     4  10  17  34  58  80 110 156 199 248 300 365
#     4  10  18  33  61  81 115 153 202 242 296 366
#     4  12  22  38  62  89 123 157 206 252 304 369
#     4  10  22  39  59  87 120 163 196 247 313 367
#
# _framework density 22.613893000000001
#
# number of rings (size 3 to 8) (size 9 to 14) (size 15 to 20)
#    0.000    1.667    6.667    1.500    2.333    0.000 
#    0.000    0.833    7.333    4.000    0.000    0.000 
#    0.000    0.000    0.000    0.000    0.000    0.000 
#
# Total GULP energy -297401.835373 kJ/mol
# GULP energy per Si atom -12391.743141 kJ/mol
# Density = 2.256242 g / cm^3
# Si number density = 22.613893 Si / 1000 Ang^3
#
#
#
# Elastic Constant Matrix: (Units=GPa)
#
#
# Indices 1 2 3 4 5 6 
#
# 1 9.9924 3.7646 0.2629 0.0000 0.0000 0.0000
# 2 3.7646 165.5102 56.8351 0.0000 0.0000 0.0000
# 3 0.2629 56.8351 125.4553 0.0000 0.0000 0.0000
# 4 0.0000 0.0000 0.0000 52.7604 0.0000 0.0000
# 5 0.0000 0.0000 0.0000 0.0000 12.4177 0.0000
# 6 0.0000 0.0000 0.0000 0.0000 0.0000 16.7849
#
#
#
# Elastic Compliance Matrix: (Units=1/GPa)
#
#
# Indices 1 2 3 4 5 6 
#
# 1 0.101043 -0.002636 0.000982 0.000000 0.000000 0.000000
# 2 -0.002636 0.007224 -0.003267 0.000000 0.000000 0.000000
# 3 0.000982 -0.003267 0.009449 0.000000 0.000000 0.000000
# 4 0.000000 0.000000 0.000000 0.018954 0.000000 0.000000
# 5 0.000000 0.000000 0.000000 0.000000 0.080530 0.000000
# 6 0.000000 0.000000 0.000000 0.000000 0.000000 0.059578
#
#
# Mechanical properties :
#
#
# Convention : Reuss Voigt Hill
#
# Bulk Modulus (GPa) = 9.26996 46.96478 28.11737
# Shear Modulus (GPa) = 15.50020 32.39895 23.94957
#
# Velocity S-wave (km/s) = 2.62091 3.78921 3.25786
# Velocity P-wave (km/s) = 3.64239 6.32118 5.15870
#
# Compressibility (1/GPa) = 0.10787530
#
# Stress axis : x y z
#
# Youngs Moduli (GPa) = 9.89674 138.43212 105.83144
#
# Poissons Ratio (x) = 0.36485 -0.10396
# Poissons Ratio (y) = 0.02608 0.34576
# Poissons Ratio (z) = -0.00972 0.45227
#
# Static dielectric constant tensor:
#      x y z
#    x 3.346470 0.000000 0.000000 
#    y 0.000000 4.436750 0.000000 
#    z 0.000000 0.000000 5.470300 
# 
# 
# High freq. dielectric constant tensor:
#      x y z
#    x 1.820980 0.000000 0.000000 
#    y 0.000000 1.906880 0.000000 
#    z 0.000000 0.000000 1.916200 
# 
# From -- ./inp_files/23419.got.cif
#   From: 2010.03.12/outbox.cif.g09.slc.cpg/sg20_12_cif.got.tgz:23419.got - 2010.04.14 01:38:04.
