data_PCOD8158467
_publ_section_title
;
Structure prediction by ZEFSAII (Michael W. Deem and Ramdas Pophale) SiO2 
 PCOD8158467
Probable space group: C 2 2 21
;
_chemical_formula_sum "Si O2"
_cell_formula_units_Z 56
_cell_length_a 15.076059
_cell_length_b 8.903470
_cell_length_c 20.534942
_cell_angle_alpha 90.000000
_cell_angle_beta 90.000000
_cell_angle_gamma 90.000000
_cell_volume 2756.389638
_symmetry_space_group_name_H-M "C 2 2 21"
_symmetry_group_IT_number 20
_symmetry_cell_setting 'orthorhombic'
loop_
_space_group_symop_operation_xyz
x,y,z
-x,-y,1/2+z
x,-y,-z
-x,y,1/2-z
1/2+x,1/2+y,z
1/2-x,1/2-y,1/2+z
1/2+x,1/2-y,-z
1/2-x,1/2+y,1/2-z
loop_
_atom_site_type_symbol
_atom_site_label
_atom_site_fract_x
_atom_site_fract_y
_atom_site_fract_z
Si Si1 0.298147 0.160647 0.114486
Si Si2 0.374051 0.510053 0.573937
Si Si3 0.636278 0.889864 0.308636
Si Si4 0.630590 0.677230 0.492604
Si Si5 0.009196 0.242999 0.109166
Si Si6 0.223868 0.276866 0.885668
Si Si7 0.168716 0.599179 0.839744
O O1 0.250518 0.284397 0.159823
O O2 0.224081 0.061245 0.078527
O O3 0.362509 0.054538 0.157546
O O4 0.359902 0.244867 0.062374
O O5 0.407468 0.500000 0.500000
O O6 0.447881 0.424239 0.617943
O O7 0.365472 0.682862 0.597376
O O8 0.554548 0.785617 0.331178
O O9 0.726924 0.805372 0.326269
O O10 0.627145 0.908397 0.231761
O O11 0.616962 0.500000 0.500000
O O12 0.545078 0.752067 0.458190
O O13 0.717277 0.712238 0.450391
O O14 0.092869 0.355477 0.108190
O O15 0.201959 0.439741 0.861324
#
# Coordination Sequence:
#
# PCOD8158467 Si02
#       7
#     8   8   8   8   8   8   8
#     4  10  21  37  66  91 118 162 203 262 306 365
#     4  10  19  38  59  90 127 155 196 247 317 380
#     4  10  22  41  62  86 123 162 212 252 310 370
#     4  11  20  40  60  93 130 154 206 256 324 379
#     4  10  24  38  60  85 126 171 190 261 317 367
#     4  10  21  36  67  93 116 165 203 263 308 370
#     4  11  21  42  62  89 120 162 216 253 304 370
#
# _framework density 20.316431999999999
#
# number of rings (size 3 to 8) (size 9 to 14) (size 15 to 20)
#    0.000    1.714    2.857    1.714    0.000    0.000 
#    7.714    0.000    0.000    0.000    0.000    0.000 
#    0.000    0.000    0.000    0.000    0.000    0.000 
#
# Total GULP energy -347166.628665 kJ/mol
# GULP energy per Si atom -12398.808167 kJ/mol
# Density = 2.027019 g / cm^3
# Si number density = 20.316432 Si / 1000 Ang^3
#
#
#
# Elastic Constant Matrix: (Units=GPa)
#
#
# Indices 1 2 3 4 5 6 
#
# 1 85.1837 43.5026 37.7667 0.0000 0.0000 0.0000
# 2 43.5026 135.5459 48.0874 0.0000 0.0000 0.0000
# 3 37.7667 48.0874 91.8563 0.0000 0.0000 0.0000
# 4 0.0000 0.0000 0.0000 3.3849 0.0000 0.0000
# 5 0.0000 0.0000 0.0000 0.0000 13.5123 0.0000
# 6 0.0000 0.0000 0.0000 0.0000 0.0000 34.7104
#
#
#
# Elastic Compliance Matrix: (Units=1/GPa)
#
#
# Indices 1 2 3 4 5 6 
#
# 1 0.015491 -0.003331 -0.004625 0.000000 0.000000 0.000000
# 2 -0.003331 0.009776 -0.003749 0.000000 0.000000 0.000000
# 3 -0.004625 -0.003749 0.014751 0.000000 0.000000 0.000000
# 4 0.000000 0.000000 0.000000 0.295433 0.000000 0.000000
# 5 0.000000 0.000000 0.000000 0.000000 0.074007 0.000000
# 6 0.000000 0.000000 0.000000 0.000000 0.000000 0.028810
#
#
# Mechanical properties :
#
#
# Convention : Reuss Voigt Hill
#
# Bulk Modulus (GPa) = 60.20982 63.47768 61.84375
# Shear Modulus (GPa) = 10.70174 22.53679 16.61926
#
# Velocity S-wave (km/s) = 2.29760 3.33421 2.86321
# Velocity P-wave (km/s) = 6.06127 6.79227 6.43716
#
# Compressibility (1/GPa) = 0.01660859
#
# Stress axis : x y z
#
# Youngs Moduli (GPa) = 64.55338 102.28662 67.79323
#
# Poissons Ratio (x) = 0.34070 0.31357
# Poissons Ratio (y) = 0.21501 0.25413
# Poissons Ratio (z) = 0.29859 0.38343
#
# Static dielectric constant tensor:
#      x y z
#    x 3.685680 0.000000 0.000000 
#    y 0.000000 3.888590 0.000000 
#    z 0.000000 0.000000 0.743440 
# 
# 
# High freq. dielectric constant tensor:
#      x y z
#    x 1.786670 0.000000 0.000000 
#    y 0.000000 1.802830 0.000000 
#    z 0.000000 0.000000 1.780170 
# 
# From -- ./inp_files/26711.got.cif
#   From: 2010.03.12/outbox.cif.g09.slc.cpg/sg20_14_cif.got.tgz:26711.got - 2010.04.14 01:38:04.
