data_PCOD8158764
_publ_section_title
;
Structure prediction by ZEFSAII (Michael W. Deem and Ramdas Pophale) SiO2 
 PCOD8158764
Probable space group: C 2 2 21
;
_chemical_formula_sum "Si O2"
_cell_formula_units_Z 48
_cell_length_a 30.938629
_cell_length_b 8.205095
_cell_length_c 8.575791
_cell_angle_alpha 90.000000
_cell_angle_beta 90.000000
_cell_angle_gamma 90.000000
_cell_volume 2177.002194
_symmetry_space_group_name_H-M "C 2 2 21"
_symmetry_group_IT_number 20
_symmetry_cell_setting 'orthorhombic'
loop_
_space_group_symop_operation_xyz
x,y,z
-x,-y,1/2+z
x,-y,-z
-x,y,1/2-z
1/2+x,1/2+y,z
1/2-x,1/2-y,1/2+z
1/2+x,1/2-y,-z
1/2-x,1/2+y,1/2-z
loop_
_atom_site_type_symbol
_atom_site_label
_atom_site_fract_x
_atom_site_fract_y
_atom_site_fract_z
Si Si1 0.588775 0.897271 0.279768
Si Si2 0.035765 0.000000 0.500000
Si Si3 0.669496 0.838543 0.094648
Si Si4 0.269677 0.995701 0.183665
Si Si5 0.687074 0.679161 0.792811
Si Si6 0.000000 0.772030 0.750000
Si Si7 0.101731 0.248940 0.612949
O O1 0.619872 0.832150 0.146181
O O2 0.540906 0.844997 0.233022
O O3 0.606230 0.813838 0.437294
O O4 0.589359 0.094265 0.283104
O O5 0.004584 0.116160 0.401926
O O6 0.065403 0.107956 0.617176
O O7 0.702097 0.845913 0.242633
O O8 0.675665 0.685863 0.977999
O O9 0.679248 0.000000 0.000000
O O10 0.218929 0.974575 0.228773
O O11 0.284836 0.164151 0.253249
O O12 0.278056 0.000000 0.000000
O O13 0.645439 0.667286 0.680380
#
# Coordination Sequence:
#
# PCOD8158764 Si02
#       7
#     8   4   8   8   8   4   8
#     4  10  20  42  70  92 124 175 223 264 321 412
#     4  10  24  46  64 106 138 168 208 280 346 392
#     4  10  20  37  61  91 127 160 222 271 316 383
#     4  11  22  41  60  90 129 169 220 271 325 385
#     4  11  23  41  62  96 125 174 222 272 324 387
#     4  10  24  44  68 102 130 170 220 270 338 398
#     4  10  21  43  67  92 130 174 218 261 338 398
#
# _framework density 22.048667999999999
#
# number of rings (size 3 to 8) (size 9 to 14) (size 15 to 20)
#    0.000    1.667    3.333    2.000    0.000    2.000 
#   25.500    0.000    0.000    0.000    0.000    0.000 
#    0.000    0.000    0.000    0.000    0.000    0.000 
#
# Total GULP energy -297510.782857 kJ/mol
# GULP energy per Si atom -12396.282619 kJ/mol
# Density = 2.199848 g / cm^3
# Si number density = 22.048668 Si / 1000 Ang^3
#
#
#
# Elastic Constant Matrix: (Units=GPa)
#
#
# Indices 1 2 3 4 5 6 
#
# 1 158.9321 32.1374 70.1333 0.0000 0.0000 0.0000
# 2 32.1374 46.8907 19.8495 0.0000 0.0000 0.0000
# 3 70.1333 19.8495 98.9908 0.0000 0.0000 0.0000
# 4 0.0000 0.0000 0.0000 12.6128 0.0000 0.0000
# 5 0.0000 0.0000 0.0000 0.0000 40.8082 0.0000
# 6 0.0000 0.0000 0.0000 0.0000 0.0000 32.2542
#
#
#
# Elastic Compliance Matrix: (Units=1/GPa)
#
#
# Indices 1 2 3 4 5 6 
#
# 1 0.009840 -0.004145 -0.006140 0.000000 0.000000 0.000000
# 2 -0.004145 0.025050 -0.002087 0.000000 0.000000 0.000000
# 3 -0.006140 -0.002087 0.014871 0.000000 0.000000 0.000000
# 4 0.000000 0.000000 0.000000 0.079285 0.000000 0.000000
# 5 0.000000 0.000000 0.000000 0.000000 0.024505 0.000000
# 6 0.000000 0.000000 0.000000 0.000000 0.000000 0.031004
#
#
# Mechanical properties :
#
#
# Convention : Reuss Voigt Hill
#
# Bulk Modulus (GPa) = 39.97200 61.00600 50.48900
# Shear Modulus (GPa) = 22.97425 29.31460 26.14443
#
# Velocity S-wave (km/s) = 3.23147 3.65024 3.44722
# Velocity P-wave (km/s) = 5.66494 6.74497 6.22841
#
# Compressibility (1/GPa) = 0.02501751
#
# Stress axis : x y z
#
# Youngs Moduli (GPa) = 101.63080 39.92008 67.24720
#
# Poissons Ratio (x) = 0.16545 0.41290
# Poissons Ratio (y) = 0.42121 0.14032
# Poissons Ratio (z) = 0.62402 0.08330
#
# Static dielectric constant tensor:
#      x y z
#    x 4.007620 0.000000 0.000000 
#    y 0.000000 4.034830 0.000000 
#    z 0.000000 0.000000 4.538200 
# 
# 
# High freq. dielectric constant tensor:
#      x y z
#    x 1.868720 0.000000 0.000000 
#    y 0.000000 1.862420 0.000000 
#    z 0.000000 0.000000 1.868160 
# 
# From -- ./inp_files/11504.got.cif
#   From: 2010.03.12/outbox.cif.g09.slc.cpg/sg20_6_cif.got.tgz:11504.got - 2010.04.14 01:38:04.
