data_PCOD8158435
_publ_section_title
;
Structure prediction by ZEFSAII (Michael W. Deem and Ramdas Pophale) SiO2 
 PCOD8158435
Probable space group: C 2 2 21
;
_chemical_formula_sum "Si O2"
_cell_formula_units_Z 44
_cell_length_a 5.289284
_cell_length_b 24.063091
_cell_length_c 15.469472
_cell_angle_alpha 90.000000
_cell_angle_beta 90.000000
_cell_angle_gamma 90.000000
_cell_volume 1968.900597
_symmetry_space_group_name_H-M "C 2 2 21"
_symmetry_group_IT_number 20
_symmetry_cell_setting 'orthorhombic'
loop_
_space_group_symop_operation_xyz
x,y,z
-x,-y,1/2+z
x,-y,-z
-x,y,1/2-z
1/2+x,1/2+y,z
1/2-x,1/2-y,1/2+z
1/2+x,1/2-y,-z
1/2-x,1/2+y,1/2-z
loop_
_atom_site_type_symbol
_atom_site_label
_atom_site_fract_x
_atom_site_fract_y
_atom_site_fract_z
Si Si1 0.231306 0.072159 0.085395
Si Si2 0.000000 0.380501 0.250000
Si Si3 0.128729 0.753044 0.054999
Si Si4 0.294804 0.448708 0.386978
Si Si5 0.217098 0.362730 0.919462
Si Si6 0.348085 0.645699 0.887862
O O1 0.488964 0.100693 0.120069
O O2 0.988868 0.111062 0.102886
O O3 0.180060 0.014120 0.134240
O O4 0.286147 0.060635 0.985499
O O5 0.904315 0.421354 0.175919
O O6 0.807564 0.339789 0.300778
O O7 0.081913 0.810420 0.107566
O O8 0.196577 0.700441 0.117619
O O9 0.863663 0.736766 0.008652
O O10 0.560406 0.417705 0.372885
O O11 0.188435 0.353324 0.023419
#
# Coordination Sequence:
#
# PCOD8158435 Si02
#       6
#     8   4   8   8   8   8
#     4  10  21  36  62  87 124 151 211 254 307 354
#     4  12  22  38  58  88 136 162 204 244 330 376
#     4  10  20  35  61  90 126 154 197 255 307 364
#     4  10  22  36  56  89 122 162 200 259 309 369
#     4  10  19  37  59  91 117 156 197 260 301 356
#     4  10  22  36  57  92 125 159 202 249 317 372
#
# _framework density 22.347498999999999
#
# number of rings (size 3 to 8) (size 9 to 14) (size 15 to 20)
#    0.000    1.818    1.818    3.818    5.091    1.455 
#    0.000    0.000    0.000    0.000    9.455    0.000 
#    0.000    0.000    0.000    0.000    0.000    0.000 
#
# Total GULP energy -272582.474452 kJ/mol
# GULP energy per Si atom -12390.112475 kJ/mol
# Density = 2.229663 g / cm^3
# Si number density = 22.347499 Si / 1000 Ang^3
#
#
#
# Elastic Constant Matrix: (Units=GPa)
#
#
# Indices 1 2 3 4 5 6 
#
# 1 129.0596 45.4360 12.5342 0.0000 0.0000 0.0000
# 2 45.4360 150.0571 1.5575 0.0000 0.0000 0.0000
# 3 12.5342 1.5575 26.5315 0.0000 0.0000 0.0000
# 4 0.0000 0.0000 0.0000 11.6652 0.0000 0.0000
# 5 0.0000 0.0000 0.0000 0.0000 18.5519 0.0000
# 6 0.0000 0.0000 0.0000 0.0000 0.0000 36.6580
#
#
#
# Elastic Compliance Matrix: (Units=1/GPa)
#
#
# Indices 1 2 3 4 5 6 
#
# 1 0.009106 -0.002714 -0.004143 0.000000 0.000000 0.000000
# 2 -0.002714 0.007477 0.000843 0.000000 0.000000 0.000000
# 3 -0.004143 0.000843 0.039599 0.000000 0.000000 0.000000
# 4 0.000000 0.000000 0.000000 0.085725 0.000000 0.000000
# 5 0.000000 0.000000 0.000000 0.000000 0.053903 0.000000
# 6 0.000000 0.000000 0.000000 0.000000 0.000000 0.027279
#
#
# Mechanical properties :
#
#
# Convention : Reuss Voigt Hill
#
# Bulk Modulus (GPa) = 22.64757 47.18930 34.91843
# Shear Modulus (GPa) = 20.01324 29.78306 24.89815
#
# Velocity S-wave (km/s) = 2.99582 3.65461 3.34149
# Velocity P-wave (km/s) = 4.70349 6.24261 5.52689
#
# Compressibility (1/GPa) = 0.04415486
#
# Stress axis : x y z
#
# Youngs Moduli (GPa) = 109.81436 133.73908 25.25340
#
# Poissons Ratio (x) = 0.36301 0.10462
# Poissons Ratio (y) = 0.29807 -0.02130
# Poissons Ratio (z) = 0.45493 -0.11279
#
# Static dielectric constant tensor:
#      x y z
#    x 4.002010 0.000000 0.000000 
#    y 0.000000 4.522140 0.000000 
#    z 0.000000 0.000000 3.682670 
# 
# 
# High freq. dielectric constant tensor:
#      x y z
#    x 1.890120 0.000000 0.000000 
#    y 0.000000 1.895540 0.000000 
#    z 0.000000 0.000000 1.818880 
# 
# From -- ./inp_files/22777.got.cif
#   From: 2010.03.12/outbox.cif.g09.slc.cpg/sg20_12_cif.got.tgz:22777.got - 2010.04.14 01:38:04.
